Info: SIMULATION PARAMETERS:
Info: TIMESTEP               2
Info: NUMBER OF STEPS        0
Info: STEPS PER CYCLE        10
Info: PERIODIC CELL BASIS 1  30.7019 0 0
Info: PERIODIC CELL BASIS 2  0 31.0749 0
Info: PERIODIC CELL BASIS 3  0 0 31.2793
Info: PERIODIC CELL CENTER   0 0 0
Info: WRAPPING WATERS AROUND PERIODIC BOUNDARIES ON OUTPUT.
Info: WRAPPING ALL CLUSTERS AROUND PERIODIC BOUNDARIES ON OUTPUT.
Info: FIRST LDB TIMESTEP     50
Info: LAST LDB TIMESTEP     -1
Info: HOM BACKGROUND SCALING 1
Info: PME BACKGROUND SCALING 1
Info: MIN ATOMS PER PATCH    40
Info: EMPTY PATCH LOAD       40 ATOMS
Info: VELOCITY FILE          mobley_8882696_equil.vel
Info: CENTER OF MASS MOVING INITIALLY? NO
Info: DIELECTRIC             1
Info: EXCLUDE                SCALED ONE-FOUR
Info: 1-4 ELECTROSTATICS SCALED BY 0.833333
Info: MODIFIED 1-4 VDW PARAMETERS WILL BE USED
Info: DCD FILENAME           mobley_8882696_prod.dcd
Info: DCD FREQUENCY          100000
Info: DCD FIRST STEP         100000
Info: DCD FILE WILL CONTAIN UNIT CELL DATA
Info: XST FILENAME           mobley_8882696_prod.xst
Info: XST FREQUENCY          100000
Info: NO VELOCITY DCD OUTPUT
Info: NO FORCE DCD OUTPUT
Info: OUTPUT FILENAME        mobley_8882696_prod
Info: BINARY OUTPUT FILES WILL BE USED
Info: RESTART FILENAME       mobley_8882696_prod.restart
Info: RESTART FREQUENCY      100000
Info: BINARY RESTART FILES WILL BE USED
Info: CUTOFF                 9
Info: PAIRLIST DISTANCE      11
Info: PAIRLIST SHRINK RATE   0.01
Info: PAIRLIST GROW RATE     0.01
Info: PAIRLIST TRIGGER       0.3
Info: PAIRLISTS PER CYCLE    2
Info: PAIRLISTS ENABLED
Info: MARGIN                 2
Info: HYDROGEN GROUP CUTOFF  2.5
Info: PATCH DIMENSION        15.5
Info: ENERGY OUTPUT STEPS    100000
Info: ENERGY EVALUATION STEPS    100000
Info: OUTPUT ENERGY PRECISION 4
Info: CROSSTERM ENERGY INCLUDED IN DIHEDRAL
Info: TIMING OUTPUT STEPS    1000000
Info: PRESSURE OUTPUT STEPS  100000
Info: ALCHEMICAL FEP ON
Info: FEP CURRENT LAMBDA VALUE     1
Info: FEP COMPARISON LAMBDA VALUE  0.95
Info: FEP INTRA-ALCHEMICAL NON-BONDED INTERACTIONS WILL BE RETAINED
Info: FEP INTRA-ALCHEMICAL BONDED INTERACTIONS WILL BE RETAINED
Info: FEP VDW SHIFTING COEFFICIENT 5
Info: FEP ELEC. ACTIVE FOR ANNIHILATED PARTICLES BETWEEN LAMBDA = 0 AND LAMBDA = 0.5
Info: FEP ELEC. ACTIVE FOR EXNIHILATED PARTICLES BETWEEN LAMBDA = 0.5 AND LAMBDA = 1
Info: FEP VDW ACTIVE FOR ANNIHILATED PARTICLES BETWEEN LAMBDA = 0 AND LAMBDA = 1
Info: FEP VDW ACTIVE FOR EXNIHILATED PARTICLES BETWEEN LAMBDA = 0 AND LAMBDA = 1
Info: FEP BOND ACTIVE FOR ANNIHILATED PARTICLES BETWEEN LAMBDA = 1 AND LAMBDA = 1
Info: FEP BOND ACTIVE FOR EXNIHILATED PARTICLES BETWEEN LAMBDA = 0 AND LAMBDA = 0
Info: LANGEVIN DYNAMICS ACTIVE
Info: LANGEVIN TEMPERATURE   300
Info: LANGEVIN USING BBK INTEGRATOR
Info: LANGEVIN DAMPING COEFFICIENT IS 1 INVERSE PS
Info: LANGEVIN DYNAMICS APPLIED TO HYDROGENS
Info: LANGEVIN PISTON PRESSURE CONTROL ACTIVE
Info:        TARGET PRESSURE IS 1.01325 BAR
Info:     OSCILLATION PERIOD IS 50 FS
Info:             DECAY TIME IS 25 FS
Info:     PISTON TEMPERATURE IS 300 K
Info:       PRESSURE CONTROL IS GROUP-BASED
Info:    INITIAL STRAIN RATE IS 0.00029288 0.00029288 0.00029288
Info:       CELL FLUCTUATION IS ISOTROPIC
Info: PARTICLE MESH EWALD (PME) ACTIVE
Info: PME TOLERANCE               1e-06
Info: PME EWALD COEFFICIENT       0.348832
Info: PME INTERPOLATION ORDER     4
Info: PME GRID DIMENSIONS         32 32 32
Info: PME MAXIMUM GRID SPACING    1
Info: PME CALCULATION WILL BE PERFORMED ON GPU
Info: FULL ELECTROSTATIC EVALUATION FREQUENCY      2
Info: USING VERLET I (r-RESPA) MTS SCHEME.
Info: C1 SPLITTING OF LONG RANGE ELECTROSTATICS
Info: PLACING ATOMS IN PATCHES BY HYDROGEN GROUPS
Info: RIGID BONDS TO HYDROGEN : ALL
Info:         ERROR TOLERANCE : 1e-08
Info:          MAX ITERATIONS : 100
Info: RIGID WATER USING SETTLE ALGORITHM
Info: RANDOM NUMBER SEED     1743568060
Info: USE HYDROGEN BONDS?    NO
Info: Using AMBER format force field!
Info: AMBER PARM FILE        mobley_8882696.prmtop
Info: COORDINATE PDB         mobley_8882696.pdb
Info: Exclusions will be read from PARM file!
Info: SCNB (VDW SCALING)     2
Info: USING ARITHMETIC MEAN TO COMBINE L-J SIGMA PARAMETERS
Info: BINARY COORDINATES     mobley_8882696_equil.coor
Info: SUMMARY OF PARAMETERS:
Info: 6 BONDS
Info: 8 ANGLES
Info:   8 HARMONIC
Info:   0 COSINE-BASED
Info: 11 DIHEDRAL
Info: 0 IMPROPER
Info: 0 CROSSTERM
Info: 0 VDW
Info: 21 VDW_PAIRS
Info: 0 NBTHOLE_PAIRS
Info: To read alchdata from file: mobley_8882696.pdb
Info: To read alchflag data from column: 5
Info: STRUCTURE SUMMARY:
Info: 2920 ATOMS
Info: 2920 BONDS
Info: 25 ANGLES
Info: 41 DIHEDRALS
Info: 0 IMPROPERS
Info: 0 CROSSTERMS
Info: 2973 EXCLUSIONS
Info: 2915 RIGID BONDS
Info: ALCH: 0 ATOMS TO DISAPPEAR IN FINAL STATE
Info: ALCH: 13 ATOMS TO APPEAR IN FINAL STATE
Info: 5845 DEGREES OF FREEDOM
Info: 974 HYDROGEN GROUPS
Info: 3 ATOMS IN LARGEST HYDROGEN GROUP
Info: 974 MIGRATION GROUPS
Info: 3 ATOMS IN LARGEST MIGRATION GROUP
Info: TOTAL MASS = 17529.6 amu
Info: TOTAL CHARGE = -0.000100002 e
Info: MASS DENSITY = 0.975438 g/cm^3
Info: ATOM DENSITY = 0.0978478 atoms/A^3
Info: ADDED 0 IMPLICIT EXCLUSIONS
Info: NONBONDED TABLE R-SQUARED SPACING: 0.0625
Info: NONBONDED TABLE SIZE: 705 POINTS
Info: REMOVING COM VELOCITY -0.0793383 -0.165004 -0.0100879
Info: Use 3D box decompostion in PME FFT.
Info: Updated CUDA force table with 4096 elements.
Info: Updated CUDA LJ table with 6 x 6 elements.
Info: Found 16 unique exclusion lists needing 32 bytes
TCL: Running for 1500000 steps
ETITLE: TS BOND ANGLE DIHED IMPRP ELECT VDW BOUNDARY MISC KINETIC TOTAL TEMP POTENTIAL TOTALAVG TEMPAVG PRESSURE GPRESSURE VOLUME PRESSAVG GPRESSAVG
ENERGY: 0 1.3915 5.2536 10.1990 0.0000 -10592.3218 1398.8922 0.0000 0.0000 1742.4953 -7434.0901 300.0388 -9176.5854 -7434.0901 300.0388 -173.7453 -92.8840 29842.2691 -173.7453 -92.8840
ENERGY: 300000 1.9614 11.9848 8.4116 0.0000 -10470.0879 1410.8882 0.0000 0.0000 1732.1321 -7304.7098 298.2544 -9036.8419 -7368.8209 301.2072 70.4997 130.1065 30207.2194 14.4222 72.4686
ENERGY: 600000 0.6212 8.9791 6.6934 0.0000 -10658.2904 1501.1424 0.0000 0.0000 1708.8514 -7432.0029 294.2457 -9140.8543 -7381.7590 299.7020 626.5582 684.0754 30100.3286 8.0382 54.7374
ENERGY: 900000 4.1310 13.0033 5.6485 0.0000 -10444.5594 1308.9253 0.0000 0.0000 1752.8698 -7359.9814 301.8252 -9112.8512 -7373.2152 301.2583 -1057.8381 -1033.1763 30554.8008 -64.2427 -22.3480
ENERGY: 1200000 1.4736 11.5324 8.4335 0.0000 -10574.2220 1417.7171 0.0000 0.0000 1769.7688 -7365.2967 304.7350 -9135.0655 -7379.9156 299.8498 134.3621 204.1267 29872.9485 -96.9598 -49.4702
ENERGY: 1500000 2.6314 6.2538 8.4260 0.0000 -10514.1193 1426.1823 0.0000 0.0000 1718.0868 -7352.5390 295.8360 -9070.6258 -7379.6500 299.9062 -280.5280 -132.4959 30843.3065 -166.9170 -104.5296
TCL: Running FEP window   2: Lambda1 0.95   Lambda2 0.8999999999999999 [dLambda -0.050000000000000044]
TCL: Setting parameter firsttimestep to 0
TCL: Setting parameter alchLambda to 0.95
Info: NONBONDED TABLE R-SQUARED SPACING: 0.0625
Info: NONBONDED TABLE SIZE: 705 POINTS
TCL: Setting parameter alchLambda2 to 0.8999999999999999
Info: NONBONDED TABLE R-SQUARED SPACING: 0.0625
Info: NONBONDED TABLE SIZE: 705 POINTS
TCL: Running for 1500000 steps
ETITLE: TS BOND ANGLE DIHED IMPRP ELECT VDW BOUNDARY MISC KINETIC TOTAL TEMP POTENTIAL TOTALAVG TEMPAVG PRESSURE GPRESSURE VOLUME PRESSAVG GPRESSAVG
ENERGY: 0 2.6314 6.2538 8.4260 0.0000 -10513.4373 1425.9986 0.0000 0.0000 1717.1860 -7352.9414 295.6809 -9070.1274 -7352.9414 295.6809 -229.0797 -141.1799 30843.3065 -229.0797 -141.1799
ENERGY: 300000 0.8467 9.0876 6.5697 0.0000 -10527.3959 1327.4615 0.0000 0.0000 1730.1839 -7453.2465 297.9190 -9183.4304 -7390.4242 298.7066 -771.5497 -757.6744 29979.7609 -122.6870 -74.9660
ENERGY: 600000 0.4774 7.1391 10.3305 0.0000 -10412.2659 1301.7227 0.0000 0.0000 1745.3859 -7347.2103 300.5366 -9092.5962 -7393.2605 298.8167 -883.6909 -801.9960 30104.4438 -92.4712 -34.6799
ENERGY: 900000 1.4141 6.7718 8.3325 0.0000 -10530.9203 1378.1600 0.0000 0.0000 1683.5298 -7452.7122 289.8856 -9136.2420 -7408.9008 297.7862 -288.0543 -297.1431 29956.2378 -67.3699 -7.3795
ENERGY: 1200000 1.1413 12.7601 5.9049 0.0000 -10672.2743 1482.0954 0.0000 0.0000 1755.8190 -7414.5535 302.3330 -9170.3725 -7402.6068 298.1598 475.9973 587.5118 29938.7388 11.2747 77.5506
ENERGY: 1500000 1.7091 8.7627 8.8414 0.0000 -10594.0669 1391.9602 0.0000 0.0000 1724.8884 -7457.9052 297.0071 -9182.7936 -7412.9137 297.6709 -467.8696 -356.3864 30017.9999 -66.4697 8.1737
TCL: Running FEP window   3: Lambda1 0.8999999999999999 Lambda2 0.8499999999999999 [dLambda -0.050000000000000044]
TCL: Setting parameter firsttimestep to 0
TCL: Setting parameter alchLambda to 0.8999999999999999
Info: NONBONDED TABLE R-SQUARED SPACING: 0.0625
Info: NONBONDED TABLE SIZE: 705 POINTS
TCL: Setting parameter alchLambda2 to 0.8499999999999999
Info: NONBONDED TABLE R-SQUARED SPACING: 0.0625
Info: NONBONDED TABLE SIZE: 705 POINTS
TCL: Running for 1500000 steps
ETITLE: TS BOND ANGLE DIHED IMPRP ELECT VDW BOUNDARY MISC KINETIC TOTAL TEMP POTENTIAL TOTALAVG TEMPAVG PRESSURE GPRESSURE VOLUME PRESSAVG GPRESSAVG
ENERGY: 0 1.7091 8.7627 8.8414 0.0000 -10593.9169 1392.5658 0.0000 0.0000 1724.0093 -7458.0286 296.8558 -9182.0379 -7458.0286 296.8558 -427.4885 -354.6275 30017.9999 -427.4885 -354.6275
ENERGY: 300000 0.7908 8.0271 7.0588 0.0000 -10636.8709 1441.6754 0.0000 0.0000 1718.8829 -7460.4359 295.9730 -9179.3188 -7456.5264 296.0003 373.2621 420.3980 29633.1697 -87.0247 -9.1091
ENERGY: 600000 3.4369 7.1627 9.8700 0.0000 -10699.7721 1531.2304 0.0000 0.0000 1758.6680 -7389.4042 302.8236 -9148.0722 -7416.6238 297.6542 840.8756 832.7170 30163.0251 104.2222 164.8444
ENERGY: 900000 0.1938 9.2909 7.5539 0.0000 -10581.2432 1425.0568 0.0000 0.0000 1700.8517 -7438.2961 292.8683 -9139.1479 -7415.3114 297.0746 29.6366 128.9123 29913.8667 68.4546 141.3525
ENERGY: 1200000 0.9397 6.0299 11.8317 0.0000 -10417.7233 1378.4734 0.0000 0.0000 1704.2309 -7316.2176 293.4501 -9020.4485 -7402.0714 297.0752 -114.2983 -97.5867 30249.9520 82.6442 146.9958
ENERGY: 1500000 3.0974 9.5354 7.7763 0.0000 -10475.1270 1331.7196 0.0000 0.0000 1749.4274 -7373.5709 301.2325 -9122.9983 -7403.3185 296.8458 -655.8840 -589.4199 30394.4671 35.7294 98.5215
TCL: Running FEP window   4: Lambda1 0.8499999999999999 Lambda2 0.7999999999999998 [dLambda -0.050000000000000044]
TCL: Setting parameter firsttimestep to 0
TCL: Setting parameter alchLambda to 0.8499999999999999
Info: NONBONDED TABLE R-SQUARED SPACING: 0.0625
Info: NONBONDED TABLE SIZE: 705 POINTS
TCL: Setting parameter alchLambda2 to 0.7999999999999998
Info: NONBONDED TABLE R-SQUARED SPACING: 0.0625
Info: NONBONDED TABLE SIZE: 705 POINTS
TCL: Running for 1500000 steps
ETITLE: TS BOND ANGLE DIHED IMPRP ELECT VDW BOUNDARY MISC KINETIC TOTAL TEMP POTENTIAL TOTALAVG TEMPAVG PRESSURE GPRESSURE VOLUME PRESSAVG GPRESSAVG
ENERGY: 0 3.0974 9.5354 7.7763 0.0000 -10474.3790 1331.6756 0.0000 0.0000 1748.5820 -7373.7124 301.0869 -9122.2943 -7373.7124 301.0869 -674.6930 -597.6423 30394.4671 -674.6930 -597.6423
ENERGY: 300000 1.7618 7.4564 9.8342 0.0000 -10678.5366 1468.4670 0.0000 0.0000 1732.1502 -7458.8670 298.2575 -9191.0172 -7360.3612 304.4149 271.4600 260.4795 30156.3426 -303.0833 -243.9133
ENERGY: 600000 2.7486 10.3654 7.0844 0.0000 -10552.8345 1446.3891 0.0000 0.0000 1671.9653 -7414.2817 287.8943 -9086.2469 -7376.5506 302.8837 -215.7306 -132.4143 30762.5036 -234.8196 -174.9377
ENERGY: 900000 1.4377 9.3042 8.5985 0.0000 -10347.9718 1301.4439 0.0000 0.0000 1725.4708 -7301.7166 297.1074 -9027.1875 -7374.1189 301.1099 -790.7954 -733.0755 30289.4451 -295.0937 -230.6758
ENERGY: 1200000 0.9200 9.7521 6.7258 0.0000 -10518.0617 1358.6703 0.0000 0.0000 1727.6570 -7414.3366 297.4838 -9141.9935 -7385.7364 300.8809 -378.6974 -244.3219 29638.9399 -305.7005 -239.7897
ENERGY: 1500000 2.2667 8.2135 7.7466 0.0000 -10513.4064 1400.9120 0.0000 0.0000 1731.4295 -7362.8381 298.1334 -9094.2676 -7391.0928 300.5847 14.4627 84.2082 29989.7766 -262.7839 -202.4693
TCL: Running FEP window   5: Lambda1 0.7999999999999998 Lambda2 0.7499999999999998 [dLambda -0.050000000000000044]
TCL: Setting parameter firsttimestep to 0
TCL: Setting parameter alchLambda to 0.7999999999999998
Info: NONBONDED TABLE R-SQUARED SPACING: 0.0625
Info: NONBONDED TABLE SIZE: 705 POINTS
TCL: Setting parameter alchLambda2 to 0.7499999999999998
Info: NONBONDED TABLE R-SQUARED SPACING: 0.0625
Info: NONBONDED TABLE SIZE: 705 POINTS
TCL: Running for 1500000 steps
ETITLE: TS BOND ANGLE DIHED IMPRP ELECT VDW BOUNDARY MISC KINETIC TOTAL TEMP POTENTIAL TOTALAVG TEMPAVG PRESSURE GPRESSURE VOLUME PRESSAVG GPRESSAVG
ENERGY: 0 2.2667 8.2135 7.7466 0.0000 -10513.1051 1400.2836 0.0000 0.0000 1730.6019 -7363.9929 297.9909 -9094.5947 -7363.9929 297.9909 -20.6466 67.2217 29989.7766 -20.6466 67.2217
ENERGY: 300000 3.0710 9.5081 6.1756 0.0000 -10452.4510 1343.4758 0.0000 0.0000 1765.2800 -7324.9404 303.9621 -9090.2205 -7376.9340 299.6223 -475.1950 -484.5690 30427.9753 -224.4029 -182.1343
ENERGY: 600000 0.8274 7.5767 9.6516 0.0000 -10572.7283 1467.9005 0.0000 0.0000 1726.2706 -7360.5015 297.2451 -9086.7720 -7386.4501 298.5325 300.4369 368.1812 30514.4868 18.5581 59.4676
ENERGY: 900000 1.3282 6.3992 8.6213 0.0000 -10677.2305 1446.9370 0.0000 0.0000 1701.5323 -7512.4124 292.9855 -9213.9447 -7397.8096 298.3941 -24.1694 20.8461 29919.3609 21.9042 64.7117
ENERGY: 1200000 0.5977 9.8246 6.9598 0.0000 -10400.7801 1340.7635 0.0000 0.0000 1711.7975 -7330.8370 294.7530 -9042.6344 -7402.1596 297.4669 -772.9526 -672.8852 30887.9170 -68.9926 -25.2507
ENERGY: 1500000 0.2158 9.0103 7.6635 0.0000 -10624.8394 1414.1616 0.0000 0.0000 1745.7780 -7448.0103 300.6041 -9193.7883 -7398.8920 297.7955 24.6084 73.4688 29689.0135 -110.8442 -64.7678
TCL: Running FEP window   6: Lambda1 0.7499999999999998 Lambda2 0.6999999999999997 [dLambda -0.050000000000000044]
TCL: Setting parameter firsttimestep to 0
TCL: Setting parameter alchLambda to 0.7499999999999998
Info: NONBONDED TABLE R-SQUARED SPACING: 0.0625
Info: NONBONDED TABLE SIZE: 705 POINTS
TCL: Setting parameter alchLambda2 to 0.6999999999999997
Info: NONBONDED TABLE R-SQUARED SPACING: 0.0625
Info: NONBONDED TABLE SIZE: 705 POINTS
TCL: Running for 1500000 steps
ETITLE: TS BOND ANGLE DIHED IMPRP ELECT VDW BOUNDARY MISC KINETIC TOTAL TEMP POTENTIAL TOTALAVG TEMPAVG PRESSURE GPRESSURE VOLUME PRESSAVG GPRESSAVG
ENERGY: 0 0.2158 9.0103 7.6635 0.0000 -10624.3087 1414.4685 0.0000 0.0000 1744.9367 -7448.0139 300.4592 -9192.9506 -7448.0139 300.4592 -11.8382 66.9193 29689.0135 -11.8382 66.9193
ENERGY: 300000 2.3581 12.0116 6.4154 0.0000 -10536.7792 1402.9663 0.0000 0.0000 1764.4067 -7348.6211 303.8118 -9113.0278 -7367.4419 302.9449 -130.6345 -83.3298 30402.4431 68.8109 169.8245
ENERGY: 600000 0.8183 9.3865 7.5474 0.0000 -10647.7145 1430.2798 0.0000 0.0000 1743.9905 -7455.6920 300.2963 -9199.6826 -7400.7838 301.8900 -1.0387 49.2476 29834.9608 -67.0095 2.2181
ENERGY: 900000 1.1380 8.0893 8.2325 0.0000 -10547.2651 1380.0759 0.0000 0.0000 1752.5928 -7397.1366 301.7775 -9149.7294 -7389.2053 302.3506 -527.6943 -441.1119 30410.5852 -149.7542 -72.8044
ENERGY: 1200000 1.2897 6.8185 8.5838 0.0000 -10645.9862 1473.2205 0.0000 0.0000 1744.3454 -7411.7282 300.3574 -9156.0737 -7392.2362 301.9992 344.4447 405.1050 30069.1723 -155.5228 -83.8385
ENERGY: 1500000 1.1598 7.6298 8.8243 0.0000 -10566.8225 1340.1881 0.0000 0.0000 1783.9186 -7425.1019 307.1715 -9209.0205 -7393.1405 302.0987 -662.1320 -617.7228 30000.9901 -145.8766 -78.1476
TCL: Running FEP window   7: Lambda1 0.6999999999999997 Lambda2 0.6499999999999997 [dLambda -0.050000000000000044]
TCL: Setting parameter firsttimestep to 0
TCL: Setting parameter alchLambda to 0.6999999999999997
Info: NONBONDED TABLE R-SQUARED SPACING: 0.0625
Info: NONBONDED TABLE SIZE: 705 POINTS
TCL: Setting parameter alchLambda2 to 0.6499999999999997
Info: NONBONDED TABLE R-SQUARED SPACING: 0.0625
Info: NONBONDED TABLE SIZE: 705 POINTS
TCL: Running for 1500000 steps
ETITLE: TS BOND ANGLE DIHED IMPRP ELECT VDW BOUNDARY MISC KINETIC TOTAL TEMP POTENTIAL TOTALAVG TEMPAVG PRESSURE GPRESSURE VOLUME PRESSAVG GPRESSAVG
ENERGY: 0 1.1598 7.6298 8.8243 0.0000 -10566.0371 1340.4178 0.0000 0.0000 1783.0319 -7424.9736 307.0188 -9208.0055 -7424.9736 307.0188 -698.4761 -618.5815 30000.9901 -698.4761 -618.5815
ENERGY: 300000 1.6027 12.6941 7.7081 0.0000 -10604.7318 1395.7903 0.0000 0.0000 1718.1638 -7468.7728 295.8492 -9186.9366 -7385.2958 301.3624 -404.0708 -294.0111 29767.2446 -614.0798 -530.2088
ENERGY: 600000 1.2550 10.1992 8.7677 0.0000 -10588.5555 1476.6370 0.0000 0.0000 1754.6566 -7337.0399 302.1329 -9091.6965 -7379.5438 300.7690 738.0521 731.1647 29638.3666 -412.7480 -339.7449
ENERGY: 900000 2.2155 9.7737 7.4763 0.0000 -10495.6939 1344.7659 0.0000 0.0000 1731.2796 -7400.1828 298.1076 -9131.4624 -7371.1135 300.6187 -560.9264 -532.3354 30225.5366 -322.9283 -263.1063
ENERGY: 1200000 1.4573 17.4383 5.8466 0.0000 -10573.8135 1413.5150 0.0000 0.0000 1708.7623 -7426.7940 294.2304 -9135.5563 -7384.8111 300.9326 -49.5788 57.5305 29792.7154 -212.8012 -149.5023
ENERGY: 1500000 1.5606 8.8846 7.7015 0.0000 -10603.4437 1481.8715 0.0000 0.0000 1755.0264 -7348.3992 302.1966 -9103.4256 -7380.4467 301.4906 732.7508 774.4839 29822.3015 -236.2942 -177.5287
TCL: Running FEP window   8: Lambda1 0.6499999999999997 Lambda2 0.5999999999999996 [dLambda -0.050000000000000044]
TCL: Setting parameter firsttimestep to 0
TCL: Setting parameter alchLambda to 0.6499999999999997
Info: NONBONDED TABLE R-SQUARED SPACING: 0.0625
Info: NONBONDED TABLE SIZE: 705 POINTS
TCL: Setting parameter alchLambda2 to 0.5999999999999996
Info: NONBONDED TABLE R-SQUARED SPACING: 0.0625
Info: NONBONDED TABLE SIZE: 705 POINTS
TCL: Running for 1500000 steps
ETITLE: TS BOND ANGLE DIHED IMPRP ELECT VDW BOUNDARY MISC KINETIC TOTAL TEMP POTENTIAL TOTALAVG TEMPAVG PRESSURE GPRESSURE VOLUME PRESSAVG GPRESSAVG
ENERGY: 0 1.5606 8.8846 7.7015 0.0000 -10603.4305 1482.1970 0.0000 0.0000 1754.1495 -7348.9373 302.0456 -9103.0868 -7348.9373 302.0456 681.6182 773.2932 29822.3015 681.6182 773.2932
ENERGY: 300000 3.1423 9.1172 7.7609 0.0000 -10458.1518 1379.9884 0.0000 0.0000 1736.3963 -7321.7467 298.9887 -9058.1430 -7331.8223 307.0434 -272.0168 -222.1105 30441.8851 -51.4443 44.3849
ENERGY: 600000 0.3804 8.7398 9.7429 0.0000 -10534.7321 1461.1115 0.0000 0.0000 1717.6866 -7337.0709 295.7671 -9054.7576 -7356.0158 302.2166 333.0548 454.6753 30348.3151 136.2024 231.9403
ENERGY: 900000 0.8008 7.7708 7.6090 0.0000 -10555.9182 1411.7014 0.0000 0.0000 1764.8660 -7363.1702 303.8908 -9128.0362 -7353.5577 302.8382 -117.8895 -64.4112 30191.5475 16.3511 106.8530
ENERGY: 1200000 0.6039 6.1996 8.4787 0.0000 -10613.5926 1414.9784 0.0000 0.0000 1750.6486 -7432.6833 301.4428 -9183.3319 -7365.7246 302.0184 -377.4477 -265.9559 30416.9524 -35.5069 47.9211
ENERGY: 1500000 1.6958 8.8250 8.5171 0.0000 -10591.3203 1459.2734 0.0000 0.0000 1703.2870 -7409.7220 293.2876 -9113.0090 -7363.1995 302.4116 49.8062 138.7017 30262.2627 -26.4514 50.6373
TCL: Running FEP window   9: Lambda1 0.5999999999999996 Lambda2 0.5499999999999996 [dLambda -0.050000000000000044]
TCL: Setting parameter firsttimestep to 0
TCL: Setting parameter alchLambda to 0.5999999999999996
Info: NONBONDED TABLE R-SQUARED SPACING: 0.0625
Info: NONBONDED TABLE SIZE: 705 POINTS
TCL: Setting parameter alchLambda2 to 0.5499999999999996
Info: NONBONDED TABLE R-SQUARED SPACING: 0.0625
Info: NONBONDED TABLE SIZE: 705 POINTS
TCL: Running for 1500000 steps
ETITLE: TS BOND ANGLE DIHED IMPRP ELECT VDW BOUNDARY MISC KINETIC TOTAL TEMP POTENTIAL TOTALAVG TEMPAVG PRESSURE GPRESSURE VOLUME PRESSAVG GPRESSAVG
ENERGY: 0 1.6958 8.8250 8.5171 0.0000 -10591.1947 1458.8629 0.0000 0.0000 1702.4094 -7410.8845 293.1365 -9113.2938 -7410.8845 293.1365 45.3914 128.7418 30262.2627 45.3914 128.7418
ENERGY: 300000 3.1280 5.7679 7.3416 0.0000 -10534.7382 1387.2079 0.0000 0.0000 1778.7029 -7352.5899 306.2734 -9131.2928 -7414.3045 297.3202 -146.0239 -141.8883 29942.7978 -154.2532 -97.7058
ENERGY: 600000 0.6850 7.4150 8.2144 0.0000 -10605.6462 1393.3762 0.0000 0.0000 1762.8135 -7433.1421 303.5374 -9195.9556 -7417.1334 299.4039 -344.1521 -264.9709 29800.6404 -138.1900 -76.3300
ENERGY: 900000 2.0006 10.2364 9.3678 0.0000 -10582.3847 1435.1151 0.0000 0.0000 1769.9408 -7355.7241 304.7647 -9125.6649 -7408.7647 300.3513 187.1359 195.4881 29956.8378 -66.5186 -23.9836
ENERGY: 1200000 0.7315 8.6629 7.0805 0.0000 -10521.5702 1398.7215 0.0000 0.0000 1789.2785 -7317.0954 308.0944 -9106.3740 -7404.3196 300.1888 -200.5538 -95.1840 30258.1012 -179.6234 -129.0582
ENERGY: 1500000 0.4202 12.4736 7.5775 0.0000 -10669.4307 1460.6806 0.0000 0.0000 1732.9398 -7455.3390 298.3935 -9188.2788 -7408.9614 300.0754 81.3800 177.6591 30138.4266 -165.8804 -108.5525
TCL: Running FEP window  10: Lambda1 0.5499999999999996 Lambda2 0.4999999999999996 [dLambda -0.04999999999999999]
TCL: Setting parameter firsttimestep to 0
TCL: Setting parameter alchLambda to 0.5499999999999996
Info: NONBONDED TABLE R-SQUARED SPACING: 0.0625
Info: NONBONDED TABLE SIZE: 705 POINTS
TCL: Setting parameter alchLambda2 to 0.4999999999999996
Info: NONBONDED TABLE R-SQUARED SPACING: 0.0625
Info: NONBONDED TABLE SIZE: 705 POINTS
TCL: Running for 1500000 steps
ETITLE: TS BOND ANGLE DIHED IMPRP ELECT VDW BOUNDARY MISC KINETIC TOTAL TEMP POTENTIAL TOTALAVG TEMPAVG PRESSURE GPRESSURE VOLUME PRESSAVG GPRESSAVG
ENERGY: 0 0.4202 12.4736 7.5775 0.0000 -10669.2148 1460.9130 0.0000 0.0000 1732.0999 -7455.7306 298.2489 -9187.8305 -7455.7306 298.2489 87.1789 174.9729 30138.4266 87.1789 174.9729
ENERGY: 300000 2.8872 10.4618 8.2219 0.0000 -10601.9126 1454.8603 0.0000 0.0000 1725.1757 -7400.3057 297.0566 -9125.4814 -7441.3052 298.3427 212.8374 244.2388 30077.3175 -164.8050 -113.0693
ENERGY: 600000 2.0669 8.9443 8.0814 0.0000 -10490.1683 1406.0932 0.0000 0.0000 1733.4167 -7331.5658 298.4756 -9064.9825 -7409.7197 298.7795 151.1681 195.4321 30045.6957 -97.6207 -45.5416
ENERGY: 900000 1.0708 9.1768 8.1694 0.0000 -10558.8979 1460.4567 0.0000 0.0000 1774.8828 -7305.1414 305.6156 -9080.0242 -7400.4195 299.4138 503.5703 567.0481 29878.8286 -117.7129 -65.1606
ENERGY: 1200000 2.3570 6.6622 9.3644 0.0000 -10554.5637 1416.4030 0.0000 0.0000 1720.7635 -7399.0136 296.2969 -9119.7771 -7392.9223 299.6194 32.4295 61.2060 29958.6973 -195.1975 -144.5134
ENERGY: 1500000 0.5471 11.1961 7.3427 0.0000 -10562.7600 1405.3010 0.0000 0.0000 1754.4224 -7383.9506 302.0926 -9138.3730 -7391.0543 299.8871 -182.2627 -65.4922 29931.9829 -146.8309 -85.5776
TCL: Running FEP window  11: Lambda1 0.4999999999999996 Lambda2 0.4499999999999996 [dLambda -0.04999999999999999]
TCL: Setting parameter firsttimestep to 0
TCL: Setting parameter alchLambda to 0.4999999999999996
Info: NONBONDED TABLE R-SQUARED SPACING: 0.0625
Info: NONBONDED TABLE SIZE: 705 POINTS
TCL: Setting parameter alchLambda2 to 0.4499999999999996
Info: NONBONDED TABLE R-SQUARED SPACING: 0.0625
Info: NONBONDED TABLE SIZE: 705 POINTS
TCL: Running for 1500000 steps
ETITLE: TS BOND ANGLE DIHED IMPRP ELECT VDW BOUNDARY MISC KINETIC TOTAL TEMP POTENTIAL TOTALAVG TEMPAVG PRESSURE GPRESSURE VOLUME PRESSAVG GPRESSAVG
ENERGY: 0 0.5471 11.1961 7.3427 0.0000 -10562.7364 1405.2770 0.0000 0.0000 1753.5316 -7384.8418 301.9392 -9138.3734 -7384.8418 301.9392 -148.5168 -71.3983 29931.9829 -148.5168 -71.3983
ENERGY: 300000 0.5408 6.9572 7.8021 0.0000 -10530.7359 1397.0201 0.0000 0.0000 1749.7787 -7368.6369 301.2930 -9118.4157 -7380.5166 302.3471 -269.3367 -176.6092 30231.7221 28.5691 87.2871
ENERGY: 600000 2.4927 6.9194 7.3640 0.0000 -10619.4963 1439.0592 0.0000 0.0000 1661.6457 -7502.0153 286.1174 -9163.6611 -7429.9528 299.2810 151.5083 230.3819 29826.8168 103.3330 162.9610
ENERGY: 900000 0.7706 10.8037 6.5373 0.0000 -10501.6534 1360.0460 0.0000 0.0000 1690.7187 -7432.7772 291.1235 -9123.4959 -7423.6143 298.1044 -673.0373 -664.6806 30594.5669 8.8407 64.3454
ENERGY: 1200000 1.3833 8.0937 7.7280 0.0000 -10697.2260 1445.3225 0.0000 0.0000 1777.9476 -7456.7509 306.1434 -9234.6985 -7414.2264 299.1722 110.0126 110.2580 29609.4765 -33.4147 16.6085
ENERGY: 1500000 0.3913 10.2853 9.7855 0.0000 -10609.0370 1479.4994 0.0000 0.0000 1762.7863 -7346.2891 303.5327 -9109.0754 -7402.7223 300.0258 371.5195 524.3214 30185.5645 24.9853 83.2828
TCL: Running FEP window  12: Lambda1 0.4499999999999996 Lambda2 0.39999999999999963 [dLambda -0.04999999999999999]
TCL: Setting parameter firsttimestep to 0
TCL: Setting parameter alchLambda to 0.4499999999999996
Info: NONBONDED TABLE R-SQUARED SPACING: 0.0625
Info: NONBONDED TABLE SIZE: 705 POINTS
TCL: Setting parameter alchLambda2 to 0.39999999999999963
Info: NONBONDED TABLE R-SQUARED SPACING: 0.0625
Info: NONBONDED TABLE SIZE: 705 POINTS
TCL: Running for 1500000 steps
ETITLE: TS BOND ANGLE DIHED IMPRP ELECT VDW BOUNDARY MISC KINETIC TOTAL TEMP POTENTIAL TOTALAVG TEMPAVG PRESSURE GPRESSURE VOLUME PRESSAVG GPRESSAVG
ENERGY: 0 0.3913 10.2853 9.7855 0.0000 -10609.0378 1479.7910 0.0000 0.0000 1761.9202 -7346.8644 303.3836 -9108.7846 -7346.8644 303.3836 438.3019 522.1755 30185.5645 438.3019 522.1755
ENERGY: 300000 0.9768 9.9830 9.6418 0.0000 -10677.7510 1503.4318 0.0000 0.0000 1725.6107 -7428.1069 297.1315 -9153.7176 -7384.8708 298.3250 798.2159 851.6442 29647.3134 207.0702 285.7157
ENERGY: 600000 0.6690 10.4016 7.6059 0.0000 -10694.8966 1484.5684 0.0000 0.0000 1752.9568 -7438.6949 301.8402 -9191.6517 -7401.9834 297.5250 891.1548 867.4196 29297.9495 318.9355 370.3093
ENERGY: 900000 1.3726 11.4757 6.2247 0.0000 -10669.3434 1432.2706 0.0000 0.0000 1764.5323 -7453.4675 303.8334 -9217.9997 -7404.2708 299.8798 -149.9084 -75.4144 29997.9073 179.4129 236.5121
ENERGY: 1200000 0.7422 12.7989 8.9419 0.0000 -10453.5138 1360.1484 0.0000 0.0000 1787.7680 -7283.1143 307.8343 -9070.8823 -7395.9599 299.6061 -421.7311 -307.9468 30126.7431 36.2167 97.0422
ENERGY: 1500000 3.0170 12.6913 7.6693 0.0000 -10651.6854 1417.2966 0.0000 0.0000 1688.0648 -7522.9463 290.6665 -9211.0112 -7394.3437 299.5733 -114.5070 -47.7738 29330.9862 54.0172 113.0022
TCL: Running FEP window  13: Lambda1 0.39999999999999963 Lambda2 0.34999999999999964 [dLambda -0.04999999999999999]
TCL: Setting parameter firsttimestep to 0
TCL: Setting parameter alchLambda to 0.39999999999999963
Info: NONBONDED TABLE R-SQUARED SPACING: 0.0625
Info: NONBONDED TABLE SIZE: 705 POINTS
TCL: Setting parameter alchLambda2 to 0.34999999999999964
Info: NONBONDED TABLE R-SQUARED SPACING: 0.0625
Info: NONBONDED TABLE SIZE: 705 POINTS
TCL: Running for 1500000 steps
ETITLE: TS BOND ANGLE DIHED IMPRP ELECT VDW BOUNDARY MISC KINETIC TOTAL TEMP POTENTIAL TOTALAVG TEMPAVG PRESSURE GPRESSURE VOLUME PRESSAVG GPRESSAVG
ENERGY: 0 3.0170 12.6913 7.6693 0.0000 -10651.6842 1417.3659 0.0000 0.0000 1687.2268 -7523.7139 290.5222 -9210.9407 -7523.7139 290.5222 -157.9485 -54.5546 29330.9862 -157.9485 -54.5546
ENERGY: 300000 0.5014 7.2781 8.0671 0.0000 -10520.6843 1340.9238 0.0000 0.0000 1722.9175 -7440.9965 296.6678 -9163.9140 -7433.2047 300.4605 -689.0682 -673.4675 29879.8553 -313.7408 -258.4882
ENERGY: 600000 0.5704 7.3957 7.8456 0.0000 -10772.3110 1544.9660 0.0000 0.0000 1787.1858 -7424.3474 307.7341 -9211.5333 -7416.5459 301.2047 630.6545 682.8525 30332.4283 -146.3864 -89.6702
ENERGY: 900000 1.2853 8.2485 7.1438 0.0000 -10499.5791 1385.6155 0.0000 0.0000 1772.8933 -7324.3927 305.2731 -9097.2861 -7407.2732 301.3246 -198.4376 -153.3380 30185.8393 -113.9470 -59.4598
ENERGY: 1200000 1.9142 8.4071 8.2592 0.0000 -10631.9127 1453.3411 0.0000 0.0000 1726.8323 -7433.1588 297.3419 -9159.9911 -7412.9100 301.1515 118.0379 144.5871 30148.4251 -138.1377 -71.1394
ENERGY: 1500000 0.6363 12.6551 9.2950 0.0000 -10478.9117 1358.9838 0.0000 0.0000 1754.3839 -7342.9575 302.0859 -9097.3414 -7411.3924 300.7219 -699.6517 -653.0571 30718.3642 -162.5227 -88.9492
TCL: Running FEP window  14: Lambda1 0.34999999999999964 Lambda2 0.29999999999999966 [dLambda -0.04999999999999999]
TCL: Setting parameter firsttimestep to 0
TCL: Setting parameter alchLambda to 0.34999999999999964
Info: NONBONDED TABLE R-SQUARED SPACING: 0.0625
Info: NONBONDED TABLE SIZE: 705 POINTS
TCL: Setting parameter alchLambda2 to 0.29999999999999966
Info: NONBONDED TABLE R-SQUARED SPACING: 0.0625
Info: NONBONDED TABLE SIZE: 705 POINTS
TCL: Running for 1500000 steps
ETITLE: TS BOND ANGLE DIHED IMPRP ELECT VDW BOUNDARY MISC KINETIC TOTAL TEMP POTENTIAL TOTALAVG TEMPAVG PRESSURE GPRESSURE VOLUME PRESSAVG GPRESSAVG
ENERGY: 0 0.6363 12.6551 9.2950 0.0000 -10478.9111 1359.4562 0.0000 0.0000 1753.5443 -7343.3242 301.9414 -9096.8685 -7343.3242 301.9414 -746.6867 -651.3017 30718.3642 -746.6867 -651.3017
ENERGY: 300000 2.0811 7.5125 9.5919 0.0000 -10489.1092 1374.4556 0.0000 0.0000 1758.7165 -7336.7515 302.8320 -9095.4680 -7356.7982 300.4135 -225.5581 -150.3411 29981.7057 -68.4161 15.5029
ENERGY: 600000 1.9762 7.4398 8.8238 0.0000 -10581.0640 1408.2094 0.0000 0.0000 1767.2517 -7387.3631 304.3016 -9154.6148 -7384.4000 299.6112 -171.2837 -143.3038 30215.2036 -111.6002 -50.3660
ENERGY: 900000 1.0749 8.9533 6.7060 0.0000 -10572.3413 1432.2584 0.0000 0.0000 1765.7025 -7357.6462 304.0349 -9123.3487 -7372.1579 301.8347 -97.4654 -6.4009 30388.9013 -147.7859 -78.7743
ENERGY: 1200000 0.5610 11.3214 8.5092 0.0000 -10472.1016 1373.6396 0.0000 0.0000 1698.3087 -7379.7618 292.4304 -9078.0705 -7376.2092 300.3363 -465.9863 -360.0091 30537.7028 -106.5638 -38.8600
ENERGY: 1500000 1.3554 14.2502 6.9121 0.0000 -10540.2700 1417.4487 0.0000 0.0000 1749.5327 -7350.7710 301.2506 -9100.3037 -7379.1244 300.7143 -215.2794 -132.2092 30380.8907 -72.7865 -3.4242
TCL: Running FEP window  15: Lambda1 0.29999999999999966 Lambda2 0.24999999999999967 [dLambda -0.04999999999999999]
TCL: Setting parameter firsttimestep to 0
TCL: Setting parameter alchLambda to 0.29999999999999966
Info: NONBONDED TABLE R-SQUARED SPACING: 0.0625
Info: NONBONDED TABLE SIZE: 705 POINTS
TCL: Setting parameter alchLambda2 to 0.24999999999999967
Info: NONBONDED TABLE R-SQUARED SPACING: 0.0625
Info: NONBONDED TABLE SIZE: 705 POINTS
TCL: Running for 1500000 steps
ETITLE: TS BOND ANGLE DIHED IMPRP ELECT VDW BOUNDARY MISC KINETIC TOTAL TEMP POTENTIAL TOTALAVG TEMPAVG PRESSURE GPRESSURE VOLUME PRESSAVG GPRESSAVG
ENERGY: 0 1.3554 14.2502 6.9121 0.0000 -10540.2730 1417.4320 0.0000 0.0000 1748.6384 -7351.6849 301.0966 -9100.3234 -7351.6849 301.0966 -216.5392 -136.5378 30380.8907 -216.5392 -136.5378
ENERGY: 300000 2.2819 14.3324 7.7467 0.0000 -10518.2641 1356.5856 0.0000 0.0000 1722.4989 -7414.8186 296.5957 -9137.3175 -7402.0743 299.0663 -886.8978 -818.1062 30583.8516 -488.7976 -440.3466
ENERGY: 600000 0.8559 12.2028 6.8526 0.0000 -10516.4572 1403.8318 0.0000 0.0000 1700.3645 -7392.3497 292.7844 -9092.7141 -7401.8457 298.7091 -6.8895 65.6542 30012.4653 -284.3696 -221.9351
ENERGY: 900000 1.7700 6.8515 7.9500 0.0000 -10510.0448 1370.3625 0.0000 0.0000 1712.1791 -7410.9316 294.8187 -9123.1108 -7407.4626 297.9756 -373.7968 -318.0972 30053.1629 -328.3274 -264.0697
ENERGY: 1200000 1.4521 8.3347 7.6888 0.0000 -10571.2516 1392.1107 0.0000 0.0000 1713.5821 -7448.0831 295.0603 -9161.6652 -7409.2243 297.8411 -397.7255 -349.6774 30043.8247 -319.0118 -261.5060
ENERGY: 1500000 1.6478 7.1582 9.2958 0.0000 -10659.5256 1496.5864 0.0000 0.0000 1757.9148 -7386.9226 302.6939 -9144.8374 -7398.3355 299.4601 1090.7204 1117.2105 29196.3947 -186.3249 -135.3179
TCL: Running FEP window  16: Lambda1 0.24999999999999967 Lambda2 0.19999999999999968 [dLambda -0.04999999999999999]
TCL: Setting parameter firsttimestep to 0
TCL: Setting parameter alchLambda to 0.24999999999999967
Info: NONBONDED TABLE R-SQUARED SPACING: 0.0625
Info: NONBONDED TABLE SIZE: 705 POINTS
TCL: Setting parameter alchLambda2 to 0.19999999999999968
Info: NONBONDED TABLE R-SQUARED SPACING: 0.0625
Info: NONBONDED TABLE SIZE: 705 POINTS
TCL: Running for 1500000 steps
ETITLE: TS BOND ANGLE DIHED IMPRP ELECT VDW BOUNDARY MISC KINETIC TOTAL TEMP POTENTIAL TOTALAVG TEMPAVG PRESSURE GPRESSURE VOLUME PRESSAVG GPRESSAVG
ENERGY: 0 1.6478 7.1582 9.2958 0.0000 -10659.5256 1496.8893 0.0000 0.0000 1757.0734 -7387.4610 302.5490 -9144.5345 -7387.4610 302.5490 1035.6930 1118.1207 29196.3947 1035.6930 1118.1207
ENERGY: 300000 2.7219 6.4362 7.5817 0.0000 -10685.5334 1513.1912 0.0000 0.0000 1784.8020 -7370.8003 307.3236 -9155.6023 -7378.0699 303.1753 758.2699 836.7713 29674.9718 554.5805 619.1958
ENERGY: 600000 0.6216 13.5165 7.3430 0.0000 -10566.0124 1397.4248 0.0000 0.0000 1698.9313 -7448.1752 292.5376 -9147.1065 -7371.8338 301.0059 -226.2734 -155.0896 29866.4500 279.3153 355.7094
ENERGY: 900000 1.8449 8.8179 7.7170 0.0000 -10578.3881 1414.7085 0.0000 0.0000 1774.1452 -7371.1546 305.4886 -9145.2998 -7363.5064 301.6152 116.4400 195.7856 29714.9611 293.1127 355.8220
ENERGY: 1200000 2.1062 10.5811 6.6860 0.0000 -10482.7278 1354.1687 0.0000 0.0000 1729.3157 -7379.8701 297.7695 -9109.1858 -7372.1785 300.2811 -414.4292 -365.5554 29928.5466 218.5692 278.4868
ENERGY: 1500000 0.4823 8.3945 7.1351 0.0000 -10584.8257 1418.9326 0.0000 0.0000 1790.3242 -7359.5571 308.2745 -9149.8813 -7368.7917 300.5162 -168.7836 -154.2912 30200.1843 293.4788 345.0893
TCL: Running FEP window  17: Lambda1 0.19999999999999968 Lambda2 0.1499999999999997 [dLambda -0.04999999999999999]
TCL: Setting parameter firsttimestep to 0
TCL: Setting parameter alchLambda to 0.19999999999999968
Info: NONBONDED TABLE R-SQUARED SPACING: 0.0625
Info: NONBONDED TABLE SIZE: 705 POINTS
TCL: Setting parameter alchLambda2 to 0.1499999999999997
Info: NONBONDED TABLE R-SQUARED SPACING: 0.0625
Info: NONBONDED TABLE SIZE: 705 POINTS
TCL: Running for 1500000 steps
ETITLE: TS BOND ANGLE DIHED IMPRP ELECT VDW BOUNDARY MISC KINETIC TOTAL TEMP POTENTIAL TOTALAVG TEMPAVG PRESSURE GPRESSURE VOLUME PRESSAVG GPRESSAVG
ENERGY: 0 0.4823 8.3945 7.1351 0.0000 -10584.8251 1419.2154 0.0000 0.0000 1789.4598 -7360.1381 308.1256 -9149.5979 -7360.1381 308.1256 -253.7395 -155.6118 30200.1843 -253.7395 -155.6118
ENERGY: 300000 0.8463 13.0855 6.3915 0.0000 -10485.2350 1320.8633 0.0000 0.0000 1701.2474 -7442.8010 292.9364 -9144.0484 -7378.1973 302.9513 -858.8742 -803.1538 30206.7326 -448.1110 -372.9226
ENERGY: 600000 3.4173 6.4835 9.0313 0.0000 -10441.8589 1355.1762 0.0000 0.0000 1712.8845 -7354.8661 294.9402 -9067.7506 -7392.9838 300.7526 -715.6155 -633.3778 30193.4356 -457.6184 -388.3422
ENERGY: 900000 6.1021 10.6234 8.2193 0.0000 -10595.0311 1415.7811 0.0000 0.0000 1732.9962 -7421.3091 298.4032 -9154.3053 -7408.4146 300.4715 121.1437 239.7563 29881.0581 -325.7906 -248.1853
ENERGY: 1200000 2.2893 10.5101 6.8692 0.0000 -10606.7424 1425.5319 0.0000 0.0000 1755.4561 -7406.0857 302.2706 -9161.5419 -7414.7206 299.9887 -168.6928 -190.2545 30003.0807 -330.8753 -261.9945
ENERGY: 1500000 1.4017 10.9991 6.8682 0.0000 -10582.4239 1399.5191 0.0000 0.0000 1710.7880 -7452.8479 294.5792 -9163.6359 -7417.5113 299.6922 -266.8937 -168.6168 29875.6362 -260.0287 -190.5781
TCL: Running FEP window  18: Lambda1 0.1499999999999997 Lambda2 0.09999999999999969 [dLambda -0.05 ]
TCL: Setting parameter firsttimestep to 0
TCL: Setting parameter alchLambda to 0.1499999999999997
Info: NONBONDED TABLE R-SQUARED SPACING: 0.0625
Info: NONBONDED TABLE SIZE: 705 POINTS
TCL: Setting parameter alchLambda2 to 0.09999999999999969
Info: NONBONDED TABLE R-SQUARED SPACING: 0.0625
Info: NONBONDED TABLE SIZE: 705 POINTS
TCL: Running for 1500000 steps
ETITLE: TS BOND ANGLE DIHED IMPRP ELECT VDW BOUNDARY MISC KINETIC TOTAL TEMP POTENTIAL TOTALAVG TEMPAVG PRESSURE GPRESSURE VOLUME PRESSAVG GPRESSAVG
ENERGY: 0 1.4017 10.9991 6.8682 0.0000 -10582.4225 1399.4999 0.0000 0.0000 1709.9241 -7453.7296 294.4304 -9163.6537 -7453.7296 294.4304 -256.1812 -171.2092 29875.6362 -256.1812 -171.2092
ENERGY: 300000 2.0492 8.3808 7.2904 0.0000 -10488.0694 1366.8288 0.0000 0.0000 1764.7497 -7338.7705 303.8708 -9103.5202 -7421.5145 302.4955 -301.2115 -227.7912 30001.9561 214.6932 291.0049
ENERGY: 600000 1.0539 10.3575 8.1688 0.0000 -10561.0568 1425.4203 0.0000 0.0000 1738.5260 -7377.5303 299.3554 -9116.0563 -7391.1679 302.4676 -44.4504 71.6002 30248.2993 158.5035 228.3169
ENERGY: 900000 1.8097 10.9117 7.6322 0.0000 -10614.4749 1425.3351 0.0000 0.0000 1780.4357 -7388.3506 306.5718 -9168.7863 -7387.7624 302.5309 -401.4402 -326.2843 30532.0594 48.2707 123.0005
ENERGY: 1200000 1.7286 8.7039 10.9308 0.0000 -10620.8851 1419.8226 0.0000 0.0000 1720.6317 -7459.0675 296.2742 -9179.6992 -7390.0182 301.8014 -76.3471 21.8458 29708.1224 78.6907 158.9330
ENERGY: 1500000 1.0904 8.4580 8.2194 0.0000 -10502.0786 1401.4942 0.0000 0.0000 1759.3839 -7323.4327 302.9469 -9082.8165 -7382.1692 300.9697 -112.7891 -108.6832 30244.8970 77.2379 151.3899
TCL: Running FEP window  19: Lambda1 0.09999999999999969 Lambda2 0.049999999999999684 [dLambda -0.05 ]
TCL: Setting parameter firsttimestep to 0
TCL: Setting parameter alchLambda to 0.09999999999999969
Info: NONBONDED TABLE R-SQUARED SPACING: 0.0625
Info: NONBONDED TABLE SIZE: 705 POINTS
TCL: Setting parameter alchLambda2 to 0.049999999999999684
Info: NONBONDED TABLE R-SQUARED SPACING: 0.0625
Info: NONBONDED TABLE SIZE: 705 POINTS
TCL: Running for 1500000 steps
ETITLE: TS BOND ANGLE DIHED IMPRP ELECT VDW BOUNDARY MISC KINETIC TOTAL TEMP POTENTIAL TOTALAVG TEMPAVG PRESSURE GPRESSURE VOLUME PRESSAVG GPRESSAVG
ENERGY: 0 1.0904 8.4580 8.2194 0.0000 -10502.0782 1400.8201 0.0000 0.0000 1758.5617 -7324.9286 302.8053 -9083.4903 -7324.9286 302.8053 -201.0440 -113.4656 30244.8970 -201.0440 -113.4656
ENERGY: 300000 1.6021 11.9956 8.3070 0.0000 -10540.2733 1361.9602 0.0000 0.0000 1738.3261 -7418.0823 299.3210 -9156.4084 -7400.1068 301.4919 -683.5978 -621.5349 30333.0917 -277.4220 -233.9761
ENERGY: 600000 0.2282 7.0921 8.5415 0.0000 -10608.0523 1460.8064 0.0000 0.0000 1746.3825 -7385.0017 300.7082 -9131.3842 -7388.5707 299.7319 253.9298 256.0183 29934.3673 -238.5461 -182.5455
ENERGY: 900000 1.8960 8.9995 6.5057 0.0000 -10575.5452 1412.1587 0.0000 0.0000 1753.0772 -7392.9080 301.8609 -9145.9852 -7375.3339 301.3944 -313.7803 -209.5017 30265.6892 -193.8947 -133.2919
ENERGY: 1200000 1.6458 11.1601 6.6899 0.0000 -10375.8072 1289.2133 0.0000 0.0000 1767.0882 -7300.0100 304.2735 -9067.0981 -7366.3641 302.2209 -1263.5218 -1163.7930 30849.1201 -242.7962 -175.6452
ENERGY: 1500000 1.5065 6.9312 7.6905 0.0000 -10580.3696 1434.6394 0.0000 0.0000 1763.5115 -7366.0905 303.6576 -9129.6020 -7368.8735 301.8143 -7.9960 76.9957 29976.6770 -299.3354 -234.4694
TCL: Running FEP window  20: Lambda1 0.049999999999999684 Lambda2 0.0    [dLambda -0.049999999999999684]
TCL: Setting parameter firsttimestep to 0
TCL: Setting parameter alchLambda to 0.049999999999999684
Info: NONBONDED TABLE R-SQUARED SPACING: 0.0625
Info: NONBONDED TABLE SIZE: 705 POINTS
TCL: Setting parameter alchLambda2 to 0.0
Info: NONBONDED TABLE R-SQUARED SPACING: 0.0625
Info: NONBONDED TABLE SIZE: 705 POINTS
TCL: Running for 1500000 steps
ETITLE: TS BOND ANGLE DIHED IMPRP ELECT VDW BOUNDARY MISC KINETIC TOTAL TEMP POTENTIAL TOTALAVG TEMPAVG PRESSURE GPRESSURE VOLUME PRESSAVG GPRESSAVG
ENERGY: 0 1.5065 6.9312 7.6905 0.0000 -10580.3699 1434.9283 0.0000 0.0000 1762.6238 -7366.6896 303.5048 -9129.3134 -7366.6896 303.5048 -1.0027 78.0271 29976.6770 -1.0027 78.0271
ENERGY: 300000 0.6871 9.1768 8.8720 0.0000 -10698.5745 1430.6789 0.0000 0.0000 1787.9535 -7461.2060 307.8663 -9249.1596 -7383.0461 307.4591 -332.4227 -312.0031 29955.2295 -78.8422 -43.2698
ENERGY: 600000 1.9639 8.0090 8.0834 0.0000 -10605.5320 1421.7892 0.0000 0.0000 1730.8913 -7434.7953 298.0408 -9165.6866 -7394.1232 304.0047 -85.0403 -36.0484 30013.7274 -108.9264 -63.6786
ENERGY: 900000 1.8311 10.4804 5.6823 0.0000 -10535.5938 1420.8750 0.0000 0.0000 1780.2796 -7316.4454 306.5449 -9096.7251 -7389.3687 301.8734 223.5239 375.1085 29513.1663 -105.6464 -41.8412
ENERGY: 1200000 0.8356 12.1121 8.7054 0.0000 -10435.8103 1347.3128 0.0000 0.0000 1713.8521 -7352.9923 295.1068 -9066.8445 -7389.7161 301.4629 -305.2383 -274.1584 29846.5139 -112.2281 -55.0250
ENERGY: 1500000 1.7357 8.1836 6.9215 0.0000 -10484.8142 1310.7260 0.0000 0.0000 1699.5355 -7457.7118 292.6416 -9157.2474 -7393.9889 301.0516 -984.8959 -884.7452 29783.0898 -160.5829 -96.5999
TCL: Exiting due to exit command.
