Info: SIMULATION PARAMETERS:
Info: TIMESTEP               2
Info: NUMBER OF STEPS        0
Info: STEPS PER CYCLE        10
Info: PERIODIC CELL BASIS 1  30.9955 0 0
Info: PERIODIC CELL BASIS 2  0 29.5142 0
Info: PERIODIC CELL BASIS 3  0 0 33.1794
Info: PERIODIC CELL CENTER   0 0 0
Info: WRAPPING WATERS AROUND PERIODIC BOUNDARIES ON OUTPUT.
Info: WRAPPING ALL CLUSTERS AROUND PERIODIC BOUNDARIES ON OUTPUT.
Info: FIRST LDB TIMESTEP     50
Info: LAST LDB TIMESTEP     -1
Info: HOM BACKGROUND SCALING 1
Info: PME BACKGROUND SCALING 1
Info: MIN ATOMS PER PATCH    40
Info: EMPTY PATCH LOAD       40 ATOMS
Info: VELOCITY FILE          mobley_8789465_equil.vel
Info: CENTER OF MASS MOVING INITIALLY? NO
Info: DIELECTRIC             1
Info: EXCLUDE                SCALED ONE-FOUR
Info: 1-4 ELECTROSTATICS SCALED BY 0.833333
Info: MODIFIED 1-4 VDW PARAMETERS WILL BE USED
Info: DCD FILENAME           mobley_8789465_prod.dcd
Info: DCD FREQUENCY          100000
Info: DCD FIRST STEP         100000
Info: DCD FILE WILL CONTAIN UNIT CELL DATA
Info: XST FILENAME           mobley_8789465_prod.xst
Info: XST FREQUENCY          100000
Info: NO VELOCITY DCD OUTPUT
Info: NO FORCE DCD OUTPUT
Info: OUTPUT FILENAME        mobley_8789465_prod
Info: BINARY OUTPUT FILES WILL BE USED
Info: RESTART FILENAME       mobley_8789465_prod.restart
Info: RESTART FREQUENCY      100000
Info: BINARY RESTART FILES WILL BE USED
Info: CUTOFF                 9
Info: PAIRLIST DISTANCE      11
Info: PAIRLIST SHRINK RATE   0.01
Info: PAIRLIST GROW RATE     0.01
Info: PAIRLIST TRIGGER       0.3
Info: PAIRLISTS PER CYCLE    2
Info: PAIRLISTS ENABLED
Info: MARGIN                 2
Info: HYDROGEN GROUP CUTOFF  2.5
Info: PATCH DIMENSION        15.5
Info: ENERGY OUTPUT STEPS    100000
Info: ENERGY EVALUATION STEPS    100000
Info: OUTPUT ENERGY PRECISION 4
Info: CROSSTERM ENERGY INCLUDED IN DIHEDRAL
Info: TIMING OUTPUT STEPS    1000000
Info: PRESSURE OUTPUT STEPS  100000
Info: ALCHEMICAL FEP ON
Info: FEP CURRENT LAMBDA VALUE     1
Info: FEP COMPARISON LAMBDA VALUE  0.95
Info: FEP INTRA-ALCHEMICAL NON-BONDED INTERACTIONS WILL BE RETAINED
Info: FEP INTRA-ALCHEMICAL BONDED INTERACTIONS WILL BE RETAINED
Info: FEP VDW SHIFTING COEFFICIENT 5
Info: FEP ELEC. ACTIVE FOR ANNIHILATED PARTICLES BETWEEN LAMBDA = 0 AND LAMBDA = 0.5
Info: FEP ELEC. ACTIVE FOR EXNIHILATED PARTICLES BETWEEN LAMBDA = 0.5 AND LAMBDA = 1
Info: FEP VDW ACTIVE FOR ANNIHILATED PARTICLES BETWEEN LAMBDA = 0 AND LAMBDA = 1
Info: FEP VDW ACTIVE FOR EXNIHILATED PARTICLES BETWEEN LAMBDA = 0 AND LAMBDA = 1
Info: FEP BOND ACTIVE FOR ANNIHILATED PARTICLES BETWEEN LAMBDA = 1 AND LAMBDA = 1
Info: FEP BOND ACTIVE FOR EXNIHILATED PARTICLES BETWEEN LAMBDA = 0 AND LAMBDA = 0
Info: LANGEVIN DYNAMICS ACTIVE
Info: LANGEVIN TEMPERATURE   300
Info: LANGEVIN USING BBK INTEGRATOR
Info: LANGEVIN DAMPING COEFFICIENT IS 1 INVERSE PS
Info: LANGEVIN DYNAMICS APPLIED TO HYDROGENS
Info: LANGEVIN PISTON PRESSURE CONTROL ACTIVE
Info:        TARGET PRESSURE IS 1.01325 BAR
Info:     OSCILLATION PERIOD IS 50 FS
Info:             DECAY TIME IS 25 FS
Info:     PISTON TEMPERATURE IS 300 K
Info:       PRESSURE CONTROL IS GROUP-BASED
Info:    INITIAL STRAIN RATE IS -0.000160253 -0.000160253 -0.000160253
Info:       CELL FLUCTUATION IS ISOTROPIC
Info: PARTICLE MESH EWALD (PME) ACTIVE
Info: PME TOLERANCE               1e-06
Info: PME EWALD COEFFICIENT       0.348832
Info: PME INTERPOLATION ORDER     4
Info: PME GRID DIMENSIONS         32 32 36
Info: PME MAXIMUM GRID SPACING    1
Info: PME CALCULATION WILL BE PERFORMED ON GPU
Info: FULL ELECTROSTATIC EVALUATION FREQUENCY      2
Info: USING VERLET I (r-RESPA) MTS SCHEME.
Info: C1 SPLITTING OF LONG RANGE ELECTROSTATICS
Info: PLACING ATOMS IN PATCHES BY HYDROGEN GROUPS
Info: RIGID BONDS TO HYDROGEN : ALL
Info:         ERROR TOLERANCE : 1e-08
Info:          MAX ITERATIONS : 100
Info: RIGID WATER USING SETTLE ALGORITHM
Info: RANDOM NUMBER SEED     1743567222
Info: USE HYDROGEN BONDS?    NO
Info: Using AMBER format force field!
Info: AMBER PARM FILE        mobley_8789465.prmtop
Info: COORDINATE PDB         mobley_8789465.pdb
Info: Exclusions will be read from PARM file!
Info: SCNB (VDW SCALING)     2
Info: USING ARITHMETIC MEAN TO COMBINE L-J SIGMA PARAMETERS
Info: BINARY COORDINATES     mobley_8789465_equil.coor
Info: SUMMARY OF PARAMETERS:
Info: 7 BONDS
Info: 5 ANGLES
Info:   5 HARMONIC
Info:   0 COSINE-BASED
Info: 3 DIHEDRAL
Info: 0 IMPROPER
Info: 0 CROSSTERM
Info: 0 VDW
Info: 21 VDW_PAIRS
Info: 0 NBTHOLE_PAIRS
Info: To read alchdata from file: mobley_8789465.pdb
Info: To read alchflag data from column: 5
Info: STRUCTURE SUMMARY:
Info: 2932 ATOMS
Info: 2932 BONDS
Info: 19 ANGLES
Info: 32 DIHEDRALS
Info: 0 IMPROPERS
Info: 0 CROSSTERMS
Info: 2974 EXCLUSIONS
Info: 2924 RIGID BONDS
Info: ALCH: 0 ATOMS TO DISAPPEAR IN FINAL STATE
Info: ALCH: 13 ATOMS TO APPEAR IN FINAL STATE
Info: 5872 DEGREES OF FREEDOM
Info: 981 HYDROGEN GROUPS
Info: 3 ATOMS IN LARGEST HYDROGEN GROUP
Info: 981 MIGRATION GROUPS
Info: 3 ATOMS IN LARGEST MIGRATION GROUP
Info: TOTAL MASS = 17749.6 amu
Info: TOTAL CHARGE = 7.45058e-09 e
Info: MASS DENSITY = 0.971065 g/cm^3
Info: ATOM DENSITY = 0.0965974 atoms/A^3
Info: ADDED 0 IMPLICIT EXCLUSIONS
Info: NONBONDED TABLE R-SQUARED SPACING: 0.0625
Info: NONBONDED TABLE SIZE: 705 POINTS
Info: REMOVING COM VELOCITY 0.129709 -0.0273046 0.142613
Info: Use 3D box decompostion in PME FFT.
Info: Updated CUDA force table with 4096 elements.
Info: Updated CUDA LJ table with 6 x 6 elements.
Info: Found 15 unique exclusion lists needing 28 bytes
TCL: Running for 1500000 steps
ETITLE: TS BOND ANGLE DIHED IMPRP ELECT VDW BOUNDARY MISC KINETIC TOTAL TEMP POTENTIAL TOTALAVG TEMPAVG PRESSURE GPRESSURE VOLUME PRESSAVG GPRESSAVG
ENERGY: 0 4.5204 2.8767 3.0166 0.0000 -10690.2758 1462.6858 0.0000 0.0000 1721.3899 -7495.7864 295.0418 -9217.1763 -7495.7864 295.0418 62.6953 154.3436 30352.7985 62.6953 154.3436
ENERGY: 300000 1.3980 2.8154 3.6256 0.0000 -10863.0951 1594.3701 0.0000 0.0000 1759.8573 -7501.0288 301.6350 -9260.8860 -7467.6244 300.7203 998.5609 1005.8862 30401.1281 259.9739 278.7021
ENERGY: 600000 1.5238 5.2652 4.1629 0.0000 -10787.2871 1544.7182 0.0000 0.0000 1747.7028 -7483.9142 299.5518 -9231.6170 -7463.3770 300.8078 611.1006 739.5949 30346.8213 273.5747 326.8251
ENERGY: 900000 1.9240 1.1966 4.7868 0.0000 -10752.1173 1525.2150 0.0000 0.0000 1760.7106 -7458.2844 301.7813 -9218.9950 -7462.0360 300.8986 489.7846 571.6093 30488.3400 290.8827 349.3798
ENERGY: 1200000 3.7214 2.7210 4.9085 0.0000 -10587.1686 1361.7308 0.0000 0.0000 1702.4644 -7511.6225 291.7981 -9214.0870 -7467.9339 300.4988 -900.4833 -810.7634 30457.1719 146.2507 211.9978
ENERGY: 1500000 4.0063 3.9234 2.1493 0.0000 -10862.9775 1553.6723 0.0000 0.0000 1764.4076 -7534.8187 302.4150 -9299.2263 -7472.1778 300.3521 995.6422 1025.1559 29576.9405 198.6124 253.4630
TCL: Running FEP window   2: Lambda1 0.95   Lambda2 0.8999999999999999 [dLambda -0.050000000000000044]
TCL: Setting parameter firsttimestep to 0
TCL: Setting parameter alchLambda to 0.95
Info: NONBONDED TABLE R-SQUARED SPACING: 0.0625
Info: NONBONDED TABLE SIZE: 705 POINTS
TCL: Setting parameter alchLambda2 to 0.8999999999999999
Info: NONBONDED TABLE R-SQUARED SPACING: 0.0625
Info: NONBONDED TABLE SIZE: 705 POINTS
TCL: Running for 1500000 steps
ETITLE: TS BOND ANGLE DIHED IMPRP ELECT VDW BOUNDARY MISC KINETIC TOTAL TEMP POTENTIAL TOTALAVG TEMPAVG PRESSURE GPRESSURE VOLUME PRESSAVG GPRESSAVG
ENERGY: 0 4.0063 3.9234 2.1493 0.0000 -10861.1636 1553.8884 0.0000 0.0000 1763.5391 -7533.6571 302.2661 -9297.1962 -7533.6571 302.2661 934.3305 1015.6330 29576.9405 934.3305 1015.6330
ENERGY: 300000 1.8384 2.3914 1.6615 0.0000 -10620.7555 1412.3984 0.0000 0.0000 1764.1417 -7438.3240 302.3694 -9202.4657 -7444.9255 303.5995 26.6263 77.5070 30302.0117 381.8455 432.9474
ENERGY: 600000 3.8699 3.8051 4.6868 0.0000 -10731.7672 1424.3840 0.0000 0.0000 1771.9306 -7523.0909 303.7044 -9295.0215 -7461.8204 302.9461 -146.9428 -122.3511 30162.0352 162.4224 207.3171
ENERGY: 900000 1.5816 3.3353 2.5352 0.0000 -10759.9171 1468.8644 0.0000 0.0000 1728.1936 -7555.4070 296.2080 -9283.6006 -7459.9980 301.9978 -121.7126 -33.5832 30058.6599 113.4965 159.2627
ENERGY: 1200000 0.3647 3.2858 2.6606 0.0000 -10658.3335 1455.7496 0.0000 0.0000 1711.9910 -7484.2817 293.4309 -9196.2727 -7453.8036 301.5150 362.1178 425.4019 30123.4066 131.1992 187.5528
ENERGY: 1500000 1.2568 3.5434 5.0906 0.0000 -10827.9963 1626.9236 0.0000 0.0000 1789.7023 -7401.4796 306.7504 -9191.1819 -7454.4606 301.5433 1899.2134 2021.7948 29837.5714 259.1831 320.8778
TCL: Running FEP window   3: Lambda1 0.8999999999999999 Lambda2 0.8499999999999999 [dLambda -0.050000000000000044]
TCL: Setting parameter firsttimestep to 0
TCL: Setting parameter alchLambda to 0.8999999999999999
Info: NONBONDED TABLE R-SQUARED SPACING: 0.0625
Info: NONBONDED TABLE SIZE: 705 POINTS
TCL: Setting parameter alchLambda2 to 0.8499999999999999
Info: NONBONDED TABLE R-SQUARED SPACING: 0.0625
Info: NONBONDED TABLE SIZE: 705 POINTS
TCL: Running for 1500000 steps
ETITLE: TS BOND ANGLE DIHED IMPRP ELECT VDW BOUNDARY MISC KINETIC TOTAL TEMP POTENTIAL TOTALAVG TEMPAVG PRESSURE GPRESSURE VOLUME PRESSAVG GPRESSAVG
ENERGY: 0 1.2568 3.5434 5.0906 0.0000 -10826.2783 1626.8879 0.0000 0.0000 1788.8299 -7400.6697 306.6009 -9189.4997 -7400.6697 306.6009 1933.2143 2013.1199 29837.5714 1933.2143 2013.1199
ENERGY: 300000 1.1382 2.5057 1.8066 0.0000 -10815.6711 1499.6545 0.0000 0.0000 1784.6367 -7525.9295 305.8822 -9310.5662 -7483.0112 303.9975 555.5360 569.5766 30016.8383 587.6408 624.9111
ENERGY: 600000 1.9177 2.2334 3.2834 0.0000 -10640.5443 1413.8647 0.0000 0.0000 1670.3843 -7548.8608 286.2996 -9219.2451 -7504.7900 299.5014 -205.6436 -153.1952 30190.6973 250.8314 289.0515
ENERGY: 900000 2.1847 2.4887 1.3922 0.0000 -10835.2737 1563.5278 0.0000 0.0000 1737.3949 -7528.2854 297.7850 -9265.6803 -7504.8427 300.2989 952.9265 950.2335 30008.8659 346.0091 388.0052
ENERGY: 1200000 2.1882 3.5908 5.7260 0.0000 -10622.3744 1432.6443 0.0000 0.0000 1796.7369 -7381.4882 307.9561 -9178.2251 -7488.7892 301.0560 259.8277 280.2631 30067.1062 276.6459 321.2681
ENERGY: 1500000 3.4890 2.4430 1.6044 0.0000 -10602.1803 1353.6765 0.0000 0.0000 1831.8507 -7409.1167 313.9745 -9240.9674 -7475.4613 302.1229 -718.2009 -658.3163 30158.0063 200.0528 245.5497
TCL: Running FEP window   4: Lambda1 0.8499999999999999 Lambda2 0.7999999999999998 [dLambda -0.050000000000000044]
TCL: Setting parameter firsttimestep to 0
TCL: Setting parameter alchLambda to 0.8499999999999999
Info: NONBONDED TABLE R-SQUARED SPACING: 0.0625
Info: NONBONDED TABLE SIZE: 705 POINTS
TCL: Setting parameter alchLambda2 to 0.7999999999999998
Info: NONBONDED TABLE R-SQUARED SPACING: 0.0625
Info: NONBONDED TABLE SIZE: 705 POINTS
TCL: Running for 1500000 steps
ETITLE: TS BOND ANGLE DIHED IMPRP ELECT VDW BOUNDARY MISC KINETIC TOTAL TEMP POTENTIAL TOTALAVG TEMPAVG PRESSURE GPRESSURE VOLUME PRESSAVG GPRESSAVG
ENERGY: 0 3.4890 2.4430 1.6044 0.0000 -10601.8305 1354.0968 0.0000 0.0000 1830.9537 -7409.2436 313.8208 -9240.1973 -7409.2436 313.8208 -749.6659 -666.8126 30158.0063 -749.6659 -666.8126
ENERGY: 300000 2.4475 1.7092 3.5611 0.0000 -10757.6927 1471.4612 0.0000 0.0000 1725.1697 -7553.3441 295.6897 -9278.5137 -7426.4344 301.0099 178.8960 201.3442 29880.4149 -525.0445 -474.1847
ENERGY: 600000 1.7974 4.7037 1.1324 0.0000 -10605.6661 1405.0007 0.0000 0.0000 1748.9173 -7444.1147 299.7599 -9193.0320 -7428.1824 299.9610 -189.5614 -157.3235 30230.1138 -294.3425 -237.8633
ENERGY: 900000 1.5061 3.4793 2.1833 0.0000 -10524.0212 1357.7407 0.0000 0.0000 1716.5454 -7442.5663 294.2115 -9159.1117 -7417.3703 301.2711 -661.5301 -618.3128 30727.0167 -329.4281 -283.1311
ENERGY: 1200000 2.7111 5.1020 5.8841 0.0000 -10749.1128 1446.9734 0.0000 0.0000 1749.8319 -7538.6103 299.9167 -9288.4422 -7416.7536 301.7545 -202.7846 -101.4548 30079.3780 -233.4962 -181.5733
ENERGY: 1500000 1.0086 2.4821 2.3080 0.0000 -10683.4763 1452.4382 0.0000 0.0000 1725.8870 -7499.3524 295.8126 -9225.2394 -7429.8662 300.5763 379.3800 424.9692 29746.1173 -199.5462 -144.3171
TCL: Running FEP window   5: Lambda1 0.7999999999999998 Lambda2 0.7499999999999998 [dLambda -0.050000000000000044]
TCL: Setting parameter firsttimestep to 0
TCL: Setting parameter alchLambda to 0.7999999999999998
Info: NONBONDED TABLE R-SQUARED SPACING: 0.0625
Info: NONBONDED TABLE SIZE: 705 POINTS
TCL: Setting parameter alchLambda2 to 0.7499999999999998
Info: NONBONDED TABLE R-SQUARED SPACING: 0.0625
Info: NONBONDED TABLE SIZE: 705 POINTS
TCL: Running for 1500000 steps
ETITLE: TS BOND ANGLE DIHED IMPRP ELECT VDW BOUNDARY MISC KINETIC TOTAL TEMP POTENTIAL TOTALAVG TEMPAVG PRESSURE GPRESSURE VOLUME PRESSAVG GPRESSAVG
ENERGY: 0 1.0086 2.4821 2.3080 0.0000 -10683.0584 1451.9984 0.0000 0.0000 1725.0306 -7500.2306 295.6658 -9225.2613 -7500.2306 295.6658 336.3125 409.3713 29746.1173 336.3125 409.3713
ENERGY: 300000 1.3781 2.6708 2.9624 0.0000 -10762.7892 1466.6590 0.0000 0.0000 1796.2858 -7492.8329 307.8788 -9289.1188 -7480.2764 300.1831 26.9660 109.2986 30078.4605 112.7197 208.4644
ENERGY: 600000 5.9291 1.9412 3.3083 0.0000 -10611.5905 1406.8014 0.0000 0.0000 1799.8329 -7393.7776 308.4868 -9193.6105 -7444.4664 301.9613 -493.0996 -345.5802 30327.9679 10.2080 121.6287
ENERGY: 900000 2.0409 1.6834 0.9668 0.0000 -10409.2865 1284.7232 0.0000 0.0000 1730.3979 -7389.4745 296.5858 -9119.8723 -7440.2994 302.0601 -1161.5429 -1096.1907 30528.1025 -66.7218 30.3241
ENERGY: 1200000 1.2885 2.8834 3.8797 0.0000 -10683.9857 1446.3508 0.0000 0.0000 1740.9598 -7488.6236 298.3961 -9229.5834 -7442.9339 302.5825 95.2777 144.7845 30305.6482 10.1541 98.1050
ENERGY: 1500000 2.8639 1.2844 3.8763 0.0000 -10780.7779 1504.8444 0.0000 0.0000 1727.4872 -7540.4216 296.0869 -9267.9088 -7439.9342 302.5950 368.0336 368.2376 30304.0380 24.3986 109.5608
TCL: Running FEP window   6: Lambda1 0.7499999999999998 Lambda2 0.6999999999999997 [dLambda -0.050000000000000044]
TCL: Setting parameter firsttimestep to 0
TCL: Setting parameter alchLambda to 0.7499999999999998
Info: NONBONDED TABLE R-SQUARED SPACING: 0.0625
Info: NONBONDED TABLE SIZE: 705 POINTS
TCL: Setting parameter alchLambda2 to 0.6999999999999997
Info: NONBONDED TABLE R-SQUARED SPACING: 0.0625
Info: NONBONDED TABLE SIZE: 705 POINTS
TCL: Running for 1500000 steps
ETITLE: TS BOND ANGLE DIHED IMPRP ELECT VDW BOUNDARY MISC KINETIC TOTAL TEMP POTENTIAL TOTALAVG TEMPAVG PRESSURE GPRESSURE VOLUME PRESSAVG GPRESSAVG
ENERGY: 0 2.8639 1.2844 3.8763 0.0000 -10780.3034 1505.3412 0.0000 0.0000 1726.5992 -7540.3384 295.9347 -9266.9376 -7540.3384 295.9347 282.1163 367.7289 30304.0380 282.1163 367.7289
ENERGY: 300000 5.5802 5.5987 3.1168 0.0000 -10602.2330 1414.0326 0.0000 0.0000 1747.9796 -7425.9252 299.5992 -9173.9048 -7466.3104 296.6160 -362.6810 -311.3990 30694.1805 92.7960 158.2622
ENERGY: 600000 1.7735 2.1485 2.5368 0.0000 -10725.5880 1447.3966 0.0000 0.0000 1741.3255 -7530.4072 298.4587 -9271.7326 -7466.8055 298.1557 -14.5076 33.4544 30037.8883 -33.4041 30.1248
ENERGY: 900000 5.1975 3.3973 3.8107 0.0000 -10817.2573 1595.5243 0.0000 0.0000 1716.2617 -7493.0657 294.1629 -9209.3274 -7471.0782 296.8545 1383.5824 1431.7270 30055.5304 109.6595 165.4169
ENERGY: 1200000 0.9853 1.6478 3.2868 0.0000 -10692.4081 1456.6733 0.0000 0.0000 1743.6967 -7486.1182 298.8651 -9229.8148 -7467.4437 297.6928 270.6051 307.3468 30066.4556 164.6688 216.6118
ENERGY: 1500000 3.0035 5.2624 2.3794 0.0000 -10739.1295 1458.8749 0.0000 0.0000 1760.0926 -7509.5167 301.6754 -9269.6093 -7468.3825 297.9228 -77.8678 4.9153 30308.7429 73.9033 131.6902
TCL: Running FEP window   7: Lambda1 0.6999999999999997 Lambda2 0.6499999999999997 [dLambda -0.050000000000000044]
TCL: Setting parameter firsttimestep to 0
TCL: Setting parameter alchLambda to 0.6999999999999997
Info: NONBONDED TABLE R-SQUARED SPACING: 0.0625
Info: NONBONDED TABLE SIZE: 705 POINTS
TCL: Setting parameter alchLambda2 to 0.6499999999999997
Info: NONBONDED TABLE R-SQUARED SPACING: 0.0625
Info: NONBONDED TABLE SIZE: 705 POINTS
TCL: Running for 1500000 steps
ETITLE: TS BOND ANGLE DIHED IMPRP ELECT VDW BOUNDARY MISC KINETIC TOTAL TEMP POTENTIAL TOTALAVG TEMPAVG PRESSURE GPRESSURE VOLUME PRESSAVG GPRESSAVG
ENERGY: 0 3.0035 5.2624 2.3794 0.0000 -10738.5811 1459.3292 0.0000 0.0000 1759.2446 -7509.3621 301.5300 -9268.6066 -7509.3621 301.5300 -79.7382 4.8486 30308.7429 -79.7382 4.8486
ENERGY: 300000 0.9365 3.7618 3.3509 0.0000 -10553.0653 1355.3637 0.0000 0.0000 1710.8390 -7478.8134 293.2334 -9189.6524 -7457.1498 301.2827 -505.8589 -411.6011 29970.1668 -259.1623 -168.2845
ENERGY: 600000 3.5735 3.6869 1.2200 0.0000 -10634.9853 1441.0846 0.0000 0.0000 1739.0615 -7446.3588 298.0707 -9185.4203 -7439.0220 303.1361 216.7289 257.1824 30131.1676 -97.6468 -23.0102
ENERGY: 900000 1.1851 1.9206 3.3712 0.0000 -10648.7624 1390.8686 0.0000 0.0000 1775.7997 -7475.6173 304.3675 -9251.4170 -7439.5674 303.2085 -276.5165 -190.1538 30108.6572 -18.6064 49.8414
ENERGY: 1200000 0.5582 4.1362 2.2182 0.0000 -10560.3984 1413.4740 0.0000 0.0000 1810.8613 -7329.1505 310.3770 -9140.0118 -7433.6101 303.0554 158.4499 259.4461 29973.6556 26.9109 85.2353
ENERGY: 1500000 2.0364 7.5456 2.7318 0.0000 -10827.0160 1547.5939 0.0000 0.0000 1734.7595 -7532.3487 297.3333 -9267.1082 -7448.2567 302.0406 717.1593 725.9047 30337.4653 88.1837 143.9894
TCL: Running FEP window   8: Lambda1 0.6499999999999997 Lambda2 0.5999999999999996 [dLambda -0.050000000000000044]
TCL: Setting parameter firsttimestep to 0
TCL: Setting parameter alchLambda to 0.6499999999999997
Info: NONBONDED TABLE R-SQUARED SPACING: 0.0625
Info: NONBONDED TABLE SIZE: 705 POINTS
TCL: Setting parameter alchLambda2 to 0.5999999999999996
Info: NONBONDED TABLE R-SQUARED SPACING: 0.0625
Info: NONBONDED TABLE SIZE: 705 POINTS
TCL: Running for 1500000 steps
ETITLE: TS BOND ANGLE DIHED IMPRP ELECT VDW BOUNDARY MISC KINETIC TOTAL TEMP POTENTIAL TOTALAVG TEMPAVG PRESSURE GPRESSURE VOLUME PRESSAVG GPRESSAVG
ENERGY: 0 2.0364 7.5456 2.7318 0.0000 -10826.6144 1547.7438 0.0000 0.0000 1733.8815 -7532.6752 297.1828 -9266.5567 -7532.6752 297.1828 639.0677 716.7116 30337.4653 639.0677 716.7116
ENERGY: 300000 4.0264 1.2263 4.4733 0.0000 -10672.7237 1419.8618 0.0000 0.0000 1818.8996 -7424.2363 311.7547 -9243.1359 -7466.4284 301.1172 -272.8489 -229.9515 30277.9882 259.2817 287.8807
ENERGY: 600000 3.7508 2.3335 7.1737 0.0000 -10568.8885 1386.1162 0.0000 0.0000 1746.8593 -7422.6550 299.4072 -9169.5143 -7461.9741 300.9674 -287.0399 -318.4050 30237.0876 115.7541 144.9921
ENERGY: 900000 3.6138 0.8660 2.8775 0.0000 -10628.8739 1382.1628 0.0000 0.0000 1747.5170 -7491.8368 299.5199 -9239.3538 -7460.8423 300.9524 -485.9973 -391.4996 30175.8495 -39.9023 -1.4010
ENERGY: 1200000 3.1925 1.3769 2.3781 0.0000 -10783.2505 1503.3189 0.0000 0.0000 1720.6779 -7552.3063 294.9198 -9272.9842 -7457.4844 300.2956 512.2711 537.3848 30038.7763 -102.0268 -59.4809
ENERGY: 1500000 1.0477 1.4958 1.9315 0.0000 -10698.6469 1451.2596 0.0000 0.0000 1749.5165 -7493.3958 299.8627 -9242.9123 -7450.2886 300.9230 216.0995 249.1795 30168.9978 -28.9900 15.4506
TCL: Running FEP window   9: Lambda1 0.5999999999999996 Lambda2 0.5499999999999996 [dLambda -0.050000000000000044]
TCL: Setting parameter firsttimestep to 0
TCL: Setting parameter alchLambda to 0.5999999999999996
Info: NONBONDED TABLE R-SQUARED SPACING: 0.0625
Info: NONBONDED TABLE SIZE: 705 POINTS
TCL: Setting parameter alchLambda2 to 0.5499999999999996
Info: NONBONDED TABLE R-SQUARED SPACING: 0.0625
Info: NONBONDED TABLE SIZE: 705 POINTS
TCL: Running for 1500000 steps
ETITLE: TS BOND ANGLE DIHED IMPRP ELECT VDW BOUNDARY MISC KINETIC TOTAL TEMP POTENTIAL TOTALAVG TEMPAVG PRESSURE GPRESSURE VOLUME PRESSAVG GPRESSAVG
ENERGY: 0 1.0477 1.4958 1.9315 0.0000 -10698.5929 1451.6435 0.0000 0.0000 1748.6601 -7493.8143 299.7159 -9242.4744 -7493.8143 299.7159 150.3232 244.3222 30168.9978 150.3232 244.3222
ENERGY: 300000 1.1366 2.8770 3.9072 0.0000 -10526.3413 1375.1369 0.0000 0.0000 1691.9034 -7451.3801 289.9879 -9143.2835 -7475.8080 296.8290 -237.8503 -207.2573 30246.9693 -148.0442 -97.3799
ENERGY: 600000 3.3665 3.0767 2.7107 0.0000 -10696.0884 1489.0228 0.0000 0.0000 1724.9349 -7472.9767 295.6494 -9197.9116 -7473.4591 298.0382 397.5111 448.6566 30253.1023 -108.9540 -49.2556
ENERGY: 900000 2.4794 2.4371 1.3243 0.0000 -10711.6588 1458.9566 0.0000 0.0000 1754.6182 -7491.8432 300.7371 -9246.4614 -7456.3465 300.1407 233.4961 296.6384 30094.6418 -99.6416 -30.3581
ENERGY: 1200000 4.5030 3.8650 3.3741 0.0000 -10679.2231 1472.5000 0.0000 0.0000 1780.3595 -7414.6215 305.1491 -9194.9809 -7453.1068 300.0230 443.3546 495.6253 29728.3814 -146.5369 -76.6959
ENERGY: 1500000 2.1295 4.8649 1.7335 0.0000 -10676.3468 1411.5247 0.0000 0.0000 1765.8023 -7490.2919 302.6540 -9256.0941 -7458.2075 299.9946 -406.8367 -330.6977 30435.7169 -210.1118 -138.8861
TCL: Running FEP window  10: Lambda1 0.5499999999999996 Lambda2 0.4999999999999996 [dLambda -0.04999999999999999]
TCL: Setting parameter firsttimestep to 0
TCL: Setting parameter alchLambda to 0.5499999999999996
Info: NONBONDED TABLE R-SQUARED SPACING: 0.0625
Info: NONBONDED TABLE SIZE: 705 POINTS
TCL: Setting parameter alchLambda2 to 0.4999999999999996
Info: NONBONDED TABLE R-SQUARED SPACING: 0.0625
Info: NONBONDED TABLE SIZE: 705 POINTS
TCL: Running for 1500000 steps
ETITLE: TS BOND ANGLE DIHED IMPRP ELECT VDW BOUNDARY MISC KINETIC TOTAL TEMP POTENTIAL TOTALAVG TEMPAVG PRESSURE GPRESSURE VOLUME PRESSAVG GPRESSAVG
ENERGY: 0 2.1295 4.8649 1.7335 0.0000 -10675.7133 1412.0174 0.0000 0.0000 1764.9621 -7490.0058 302.5100 -9254.9679 -7490.0058 302.5100 -411.4868 -332.2699 30435.7169 -411.4868 -332.2699
ENERGY: 300000 3.4947 4.1845 4.0281 0.0000 -10705.3208 1498.8500 0.0000 0.0000 1779.1398 -7415.6237 304.9400 -9194.7634 -7441.7009 302.2880 639.6177 725.7860 30093.4338 -7.1999 56.4309
ENERGY: 600000 1.1662 3.1666 2.2567 0.0000 -10601.3121 1472.5929 0.0000 0.0000 1722.1024 -7400.0273 295.1640 -9122.1298 -7437.9269 302.0986 672.9347 814.6050 29811.9880 173.0196 240.2139
ENERGY: 900000 2.0296 1.1907 4.9427 0.0000 -10543.6147 1366.0552 0.0000 0.0000 1751.4891 -7417.9074 300.2008 -9169.3965 -7441.3236 301.2345 -417.8404 -325.3588 30246.9086 130.9578 202.5404
ENERGY: 1200000 3.4748 2.1468 2.6367 0.0000 -10596.3796 1374.4470 0.0000 0.0000 1769.6290 -7444.0454 303.3099 -9213.6744 -7448.3190 300.7711 -271.9416 -133.8485 29732.2061 52.0314 122.6877
ENERGY: 1500000 2.4468 0.9592 1.6335 0.0000 -10460.3513 1344.6300 0.0000 0.0000 1764.3313 -7346.3505 302.4019 -9110.6818 -7445.3266 300.5924 -710.8381 -694.5704 30969.6610 -29.7086 34.6014
TCL: Running FEP window  11: Lambda1 0.4999999999999996 Lambda2 0.4499999999999996 [dLambda -0.04999999999999999]
TCL: Setting parameter firsttimestep to 0
TCL: Setting parameter alchLambda to 0.4999999999999996
Info: NONBONDED TABLE R-SQUARED SPACING: 0.0625
Info: NONBONDED TABLE SIZE: 705 POINTS
TCL: Setting parameter alchLambda2 to 0.4499999999999996
Info: NONBONDED TABLE R-SQUARED SPACING: 0.0625
Info: NONBONDED TABLE SIZE: 705 POINTS
TCL: Running for 1500000 steps
ETITLE: TS BOND ANGLE DIHED IMPRP ELECT VDW BOUNDARY MISC KINETIC TOTAL TEMP POTENTIAL TOTALAVG TEMPAVG PRESSURE GPRESSURE VOLUME PRESSAVG GPRESSAVG
ENERGY: 0 2.4468 0.9592 1.6335 0.0000 -10459.4676 1344.9883 0.0000 0.0000 1763.4802 -7345.9595 302.2560 -9109.4397 -7345.9595 302.2560 -784.7849 -695.6688 30969.6610 -784.7849 -695.6688
ENERGY: 300000 0.9255 1.3227 4.9412 0.0000 -10516.5551 1372.0831 0.0000 0.0000 1743.1042 -7394.1784 298.7636 -9137.2826 -7415.0211 300.0820 -345.3093 -299.7721 30600.5480 -49.1910 9.1983
ENERGY: 600000 1.4990 2.8637 2.9494 0.0000 -10646.2913 1462.8375 0.0000 0.0000 1776.6007 -7399.5410 304.5048 -9176.1418 -7413.2522 299.0245 394.5940 393.9011 30331.1143 -79.2710 -31.5978
ENERGY: 900000 2.2349 2.3961 2.1735 0.0000 -10628.8750 1446.8226 0.0000 0.0000 1699.2859 -7475.9620 291.2533 -9175.2479 -7414.0242 298.7652 124.5121 181.8679 30175.5117 47.5523 99.1149
ENERGY: 1200000 0.8614 2.6233 1.7340 0.0000 -10680.4273 1526.2699 0.0000 0.0000 1763.9790 -7384.9598 302.3415 -9148.9387 -7414.2627 299.9573 984.9215 1074.9985 29811.8167 109.8283 171.2482
ENERGY: 1500000 2.0053 3.2856 2.5218 0.0000 -10468.0115 1328.9335 0.0000 0.0000 1752.1243 -7379.1410 300.3096 -9131.2653 -7402.8174 299.9334 -791.7987 -713.7772 30948.8286 77.9842 142.1113
TCL: Running FEP window  12: Lambda1 0.4499999999999996 Lambda2 0.39999999999999963 [dLambda -0.04999999999999999]
TCL: Setting parameter firsttimestep to 0
TCL: Setting parameter alchLambda to 0.4499999999999996
Info: NONBONDED TABLE R-SQUARED SPACING: 0.0625
Info: NONBONDED TABLE SIZE: 705 POINTS
TCL: Setting parameter alchLambda2 to 0.39999999999999963
Info: NONBONDED TABLE R-SQUARED SPACING: 0.0625
Info: NONBONDED TABLE SIZE: 705 POINTS
TCL: Running for 1500000 steps
ETITLE: TS BOND ANGLE DIHED IMPRP ELECT VDW BOUNDARY MISC KINETIC TOTAL TEMP POTENTIAL TOTALAVG TEMPAVG PRESSURE GPRESSURE VOLUME PRESSAVG GPRESSAVG
ENERGY: 0 2.0053 3.2856 2.5218 0.0000 -10468.0130 1329.4609 0.0000 0.0000 1751.3062 -7379.4331 300.1694 -9130.7394 -7379.4331 300.1694 -790.0769 -712.0003 30948.8286 -790.0769 -712.0003
ENERGY: 300000 1.5364 4.7500 1.4745 0.0000 -10607.4333 1476.9112 0.0000 0.0000 1750.9435 -7371.8178 300.1072 -9122.7613 -7424.7554 300.1702 119.0966 231.0336 30719.1058 -249.9439 -169.3630
ENERGY: 600000 1.5336 1.2477 7.0178 0.0000 -10591.9480 1417.4107 0.0000 0.0000 1721.5064 -7443.2318 295.0618 -9164.7382 -7414.0443 300.5691 287.6578 300.9060 29781.3140 -112.1673 -37.0343
ENERGY: 900000 4.2648 5.0442 2.7934 0.0000 -10724.1116 1563.0647 0.0000 0.0000 1759.6605 -7389.2840 301.6013 -9148.9445 -7419.7189 300.7193 1336.7089 1334.5562 29951.7447 -23.5926 34.1861
ENERGY: 1200000 1.4826 2.9620 1.4588 0.0000 -10660.1958 1416.3844 0.0000 0.0000 1743.9829 -7493.9250 298.9142 -9237.9079 -7439.7457 299.8045 -151.6155 -81.7393 29936.7140 -95.8576 -37.4127
ENERGY: 1500000 0.6748 2.9595 7.4966 0.0000 -10599.0768 1430.6594 0.0000 0.0000 1740.4119 -7416.8747 298.3021 -9157.2866 -7443.0798 299.0965 97.9762 164.9031 30135.6778 -54.4993 2.0416
TCL: Running FEP window  13: Lambda1 0.39999999999999963 Lambda2 0.34999999999999964 [dLambda -0.04999999999999999]
TCL: Setting parameter firsttimestep to 0
TCL: Setting parameter alchLambda to 0.39999999999999963
Info: NONBONDED TABLE R-SQUARED SPACING: 0.0625
Info: NONBONDED TABLE SIZE: 705 POINTS
TCL: Setting parameter alchLambda2 to 0.34999999999999964
Info: NONBONDED TABLE R-SQUARED SPACING: 0.0625
Info: NONBONDED TABLE SIZE: 705 POINTS
TCL: Running for 1500000 steps
ETITLE: TS BOND ANGLE DIHED IMPRP ELECT VDW BOUNDARY MISC KINETIC TOTAL TEMP POTENTIAL TOTALAVG TEMPAVG PRESSURE GPRESSURE VOLUME PRESSAVG GPRESSAVG
ENERGY: 0 0.6748 2.9596 7.4966 0.0000 -10599.0785 1430.9113 0.0000 0.0000 1739.5386 -7417.4977 298.1525 -9157.0363 -7417.4977 298.1525 82.3809 160.4837 30135.6778 82.3809 160.4837
ENERGY: 300000 1.8265 3.3591 4.1421 0.0000 -10789.4366 1495.8882 0.0000 0.0000 1795.8100 -7488.4107 307.7972 -9284.2206 -7446.3820 300.1592 45.4923 222.4373 30215.0925 -55.6710 41.6385
ENERGY: 600000 1.4299 5.5858 2.9692 0.0000 -10809.9988 1527.8777 0.0000 0.0000 1702.2374 -7569.8987 291.7591 -9272.1361 -7469.2744 298.6617 428.7343 488.0064 30228.0299 102.1280 177.2909
ENERGY: 900000 2.4904 2.8368 2.3794 0.0000 -10656.1551 1409.8517 0.0000 0.0000 1738.7374 -7499.8595 298.0152 -9238.5969 -7469.9181 298.2129 -285.3360 -122.4809 29793.8530 112.2830 187.2499
ENERGY: 1200000 1.4547 4.5512 3.5640 0.0000 -10424.1206 1374.7799 0.0000 0.0000 1725.7457 -7314.0251 295.7884 -9039.7709 -7459.1942 297.9770 -69.3553 7.4018 30268.4248 58.2352 131.2372
ENERGY: 1500000 1.7275 2.7655 2.3981 0.0000 -10742.4041 1495.8140 0.0000 0.0000 1720.0750 -7519.6240 294.8165 -9239.6990 -7460.4353 297.7517 181.0964 204.3842 30454.2946 49.9203 118.1542
TCL: Running FEP window  14: Lambda1 0.34999999999999964 Lambda2 0.29999999999999966 [dLambda -0.04999999999999999]
TCL: Setting parameter firsttimestep to 0
TCL: Setting parameter alchLambda to 0.34999999999999964
Info: NONBONDED TABLE R-SQUARED SPACING: 0.0625
Info: NONBONDED TABLE SIZE: 705 POINTS
TCL: Setting parameter alchLambda2 to 0.29999999999999966
Info: NONBONDED TABLE R-SQUARED SPACING: 0.0625
Info: NONBONDED TABLE SIZE: 705 POINTS
TCL: Running for 1500000 steps
ETITLE: TS BOND ANGLE DIHED IMPRP ELECT VDW BOUNDARY MISC KINETIC TOTAL TEMP POTENTIAL TOTALAVG TEMPAVG PRESSURE GPRESSURE VOLUME PRESSAVG GPRESSAVG
ENERGY: 0 1.7275 2.7655 2.3981 0.0000 -10742.4032 1496.3602 0.0000 0.0000 1719.1925 -7519.9593 294.6652 -9239.1518 -7519.9593 294.6652 126.3461 206.2353 30454.2946 126.3461 206.2353
ENERGY: 300000 2.6108 3.2941 3.9114 0.0000 -10585.0867 1375.3601 0.0000 0.0000 1748.1494 -7451.7609 299.6283 -9199.9102 -7480.4407 301.5678 -597.0574 -466.9778 30386.8306 -54.5420 20.9866
ENERGY: 600000 3.2777 1.9682 3.2879 0.0000 -10674.8533 1420.2393 0.0000 0.0000 1710.4350 -7535.6452 293.1642 -9246.0801 -7474.9115 301.8401 -73.0636 -44.2784 29848.2194 -238.2442 -175.4059
ENERGY: 900000 2.2801 1.7726 3.1235 0.0000 -10624.8689 1446.4240 0.0000 0.0000 1715.9613 -7455.3075 294.1114 -9171.2687 -7467.8674 300.4734 121.3942 205.6373 30162.0875 -161.6464 -91.5707
ENERGY: 1200000 0.6111 1.1206 2.5723 0.0000 -10678.5409 1438.1908 0.0000 0.0000 1781.3624 -7454.6837 305.3210 -9236.0461 -7458.0250 301.2746 -334.2607 -183.5237 30387.8730 -134.3459 -53.7060
ENERGY: 1500000 1.8672 7.5708 2.6879 0.0000 -10729.6735 1455.6853 0.0000 0.0000 1763.8019 -7498.0603 302.3111 -9261.8622 -7447.3986 301.6330 73.0819 99.4114 29884.0077 -112.8786 -38.4991
TCL: Running FEP window  15: Lambda1 0.29999999999999966 Lambda2 0.24999999999999967 [dLambda -0.04999999999999999]
TCL: Setting parameter firsttimestep to 0
TCL: Setting parameter alchLambda to 0.29999999999999966
Info: NONBONDED TABLE R-SQUARED SPACING: 0.0625
Info: NONBONDED TABLE SIZE: 705 POINTS
TCL: Setting parameter alchLambda2 to 0.24999999999999967
Info: NONBONDED TABLE R-SQUARED SPACING: 0.0625
Info: NONBONDED TABLE SIZE: 705 POINTS
TCL: Running for 1500000 steps
ETITLE: TS BOND ANGLE DIHED IMPRP ELECT VDW BOUNDARY MISC KINETIC TOTAL TEMP POTENTIAL TOTALAVG TEMPAVG PRESSURE GPRESSURE VOLUME PRESSAVG GPRESSAVG
ENERGY: 0 1.8672 7.5708 2.6879 0.0000 -10729.6739 1456.3082 0.0000 0.0000 1762.9138 -7498.3260 302.1589 -9261.2398 -7498.3260 302.1589 33.4658 100.5492 29884.0077 33.4658 100.5492
ENERGY: 300000 2.1823 2.6309 5.2075 0.0000 -10613.9794 1461.8830 0.0000 0.0000 1760.1099 -7381.9659 301.6783 -9142.0758 -7418.2615 303.7261 232.6215 325.9765 30223.7737 -2.4851 44.9291
ENERGY: 600000 1.9897 5.7663 0.8616 0.0000 -10620.5569 1503.0885 0.0000 0.0000 1757.4796 -7351.3711 301.2275 -9108.8508 -7450.6762 301.1518 659.8068 783.8499 30103.4066 -99.9824 -28.8320
ENERGY: 900000 2.9709 2.4008 2.4631 0.0000 -10557.4610 1333.9358 0.0000 0.0000 1697.0660 -7518.6244 290.8728 -9215.6904 -7455.0565 300.1047 -664.0562 -654.9091 29834.9374 -81.4207 -19.6527
ENERGY: 1200000 2.4947 2.7430 2.5918 0.0000 -10569.5870 1413.0930 0.0000 0.0000 1844.8361 -7303.8285 316.2002 -9148.6645 -7445.4640 300.9379 49.4306 47.8061 30155.2399 -20.6740 36.7540
ENERGY: 1500000 1.3636 3.9695 2.8979 0.0000 -10700.6116 1463.6741 0.0000 0.0000 1748.2709 -7480.4356 299.6492 -9228.7066 -7444.2402 300.9632 197.9395 242.7784 29882.1289 -16.8964 43.5875
TCL: Running FEP window  16: Lambda1 0.24999999999999967 Lambda2 0.19999999999999968 [dLambda -0.04999999999999999]
TCL: Setting parameter firsttimestep to 0
TCL: Setting parameter alchLambda to 0.24999999999999967
Info: NONBONDED TABLE R-SQUARED SPACING: 0.0625
Info: NONBONDED TABLE SIZE: 705 POINTS
TCL: Setting parameter alchLambda2 to 0.19999999999999968
Info: NONBONDED TABLE R-SQUARED SPACING: 0.0625
Info: NONBONDED TABLE SIZE: 705 POINTS
TCL: Running for 1500000 steps
ETITLE: TS BOND ANGLE DIHED IMPRP ELECT VDW BOUNDARY MISC KINETIC TOTAL TEMP POTENTIAL TOTALAVG TEMPAVG PRESSURE GPRESSURE VOLUME PRESSAVG GPRESSAVG
ENERGY: 0 1.3636 3.9695 2.8979 0.0000 -10700.6120 1463.6144 0.0000 0.0000 1747.4135 -7481.3531 299.5022 -9228.7666 -7481.3531 299.5022 145.3295 237.2276 29882.1289 145.3295 237.2276
ENERGY: 300000 1.6442 3.2097 2.7418 0.0000 -10653.6697 1444.9453 0.0000 0.0000 1717.0587 -7484.0700 294.2995 -9201.1287 -7457.5056 294.9754 5.3850 25.3251 30254.1592 309.2138 367.1664
ENERGY: 600000 1.9363 3.9251 5.3021 0.0000 -10658.8487 1464.4180 0.0000 0.0000 1801.2382 -7382.0290 308.7276 -9183.2672 -7431.9906 299.0206 104.3189 220.9914 30241.9437 75.7889 149.3157
ENERGY: 900000 2.5955 1.4963 3.1081 0.0000 -10706.6514 1460.8510 0.0000 0.0000 1829.5070 -7409.0935 313.5728 -9238.6005 -7429.2767 301.0194 162.8860 282.6610 29851.4372 25.4991 103.5887
ENERGY: 1200000 0.4492 2.6442 2.5616 0.0000 -10733.7410 1450.9921 0.0000 0.0000 1764.3036 -7512.7905 302.3971 -9277.0940 -7439.1557 300.7974 58.4082 145.5593 29970.9642 23.9912 100.3361
ENERGY: 1500000 1.4149 2.5205 2.1064 0.0000 -10626.7151 1424.0612 0.0000 0.0000 1825.4377 -7371.1744 312.8754 -9196.6121 -7437.0202 301.4288 -115.5487 -15.5278 30182.0614 12.7859 89.6028
TCL: Running FEP window  17: Lambda1 0.19999999999999968 Lambda2 0.1499999999999997 [dLambda -0.04999999999999999]
TCL: Setting parameter firsttimestep to 0
TCL: Setting parameter alchLambda to 0.19999999999999968
Info: NONBONDED TABLE R-SQUARED SPACING: 0.0625
Info: NONBONDED TABLE SIZE: 705 POINTS
TCL: Setting parameter alchLambda2 to 0.1499999999999997
Info: NONBONDED TABLE R-SQUARED SPACING: 0.0625
Info: NONBONDED TABLE SIZE: 705 POINTS
TCL: Running for 1500000 steps
ETITLE: TS BOND ANGLE DIHED IMPRP ELECT VDW BOUNDARY MISC KINETIC TOTAL TEMP POTENTIAL TOTALAVG TEMPAVG PRESSURE GPRESSURE VOLUME PRESSAVG GPRESSAVG
ENERGY: 0 1.4149 2.5205 2.1064 0.0000 -10626.7147 1424.5348 0.0000 0.0000 1824.5570 -7371.5810 312.7244 -9196.1380 -7371.5810 312.7244 -97.6878 -15.6330 30182.0614 -97.6878 -15.6330
ENERGY: 300000 3.3822 2.8195 4.7257 0.0000 -10495.3306 1355.8552 0.0000 0.0000 1752.4899 -7376.0581 300.3723 -9128.5480 -7397.9613 303.4773 -772.1223 -715.4134 30440.0055 -330.8635 -299.4541
ENERGY: 600000 3.2703 4.0809 5.7583 0.0000 -10604.0709 1491.8624 0.0000 0.0000 1713.1498 -7385.9491 293.6295 -9099.0990 -7413.9509 298.5955 668.7504 776.0197 30009.1280 -156.6982 -112.8833
ENERGY: 900000 1.1740 6.0905 3.0172 0.0000 -10610.1495 1375.8897 0.0000 0.0000 1686.1922 -7537.7859 289.0090 -9223.9781 -7431.8782 298.0880 -681.0125 -689.6213 30546.9765 -189.6337 -151.7975
ENERGY: 1200000 0.7379 2.1465 3.8935 0.0000 -10696.2199 1476.9129 0.0000 0.0000 1772.7512 -7439.7778 303.8450 -9212.5290 -7429.3828 299.1111 322.3387 405.6050 30121.5922 -55.5091 -9.6598
ENERGY: 1500000 2.9980 3.0559 2.4264 0.0000 -10635.3266 1426.5434 0.0000 0.0000 1761.4360 -7438.8669 301.9056 -9200.3029 -7434.1403 299.3950 -203.5208 -141.9656 30158.1894 -122.1462 -69.6808
TCL: Running FEP window  18: Lambda1 0.1499999999999997 Lambda2 0.09999999999999969 [dLambda -0.05 ]
TCL: Setting parameter firsttimestep to 0
TCL: Setting parameter alchLambda to 0.1499999999999997
Info: NONBONDED TABLE R-SQUARED SPACING: 0.0625
Info: NONBONDED TABLE SIZE: 705 POINTS
TCL: Setting parameter alchLambda2 to 0.09999999999999969
Info: NONBONDED TABLE R-SQUARED SPACING: 0.0625
Info: NONBONDED TABLE SIZE: 705 POINTS
TCL: Running for 1500000 steps
ETITLE: TS BOND ANGLE DIHED IMPRP ELECT VDW BOUNDARY MISC KINETIC TOTAL TEMP POTENTIAL TOTALAVG TEMPAVG PRESSURE GPRESSURE VOLUME PRESSAVG GPRESSAVG
ENERGY: 0 2.9980 3.0559 2.4264 0.0000 -10635.3277 1426.8593 0.0000 0.0000 1760.5615 -7439.4266 301.7557 -9199.9881 -7439.4266 301.7557 -231.5359 -142.3253 30158.1894 -231.5359 -142.3253
ENERGY: 300000 1.4567 2.6240 5.8616 0.0000 -10563.1593 1364.3453 0.0000 0.0000 1671.6992 -7517.1724 286.5250 -9188.8716 -7457.4225 297.1336 -474.4394 -414.2984 29833.7574 136.7745 215.9414
ENERGY: 600000 2.9264 2.5124 5.3499 0.0000 -10591.3206 1346.8652 0.0000 0.0000 1754.2431 -7479.4236 300.6728 -9233.6667 -7444.0924 299.1919 -899.4791 -848.0449 30396.9807 44.4970 102.3365
ENERGY: 900000 4.3477 2.2328 1.9338 0.0000 -10609.2321 1415.7596 0.0000 0.0000 1779.8769 -7405.0812 305.0663 -9184.9581 -7428.8190 300.0257 -16.6635 16.9660 30195.2186 -62.8531 -10.3066
ENERGY: 1200000 4.6380 5.5112 1.4024 0.0000 -10638.9224 1417.8875 0.0000 0.0000 1759.6976 -7449.7856 301.6077 -9209.4833 -7447.8314 299.2686 -449.4920 -369.3795 30426.3865 -87.4864 -29.5273
ENERGY: 1500000 1.9450 2.5328 1.6095 0.0000 -10642.7586 1421.4434 0.0000 0.0000 1673.4034 -7541.8244 286.8171 -9215.2278 -7452.0320 298.4466 -274.3784 -220.1054 30195.6254 -104.5183 -45.7576
TCL: Running FEP window  19: Lambda1 0.09999999999999969 Lambda2 0.049999999999999684 [dLambda -0.05 ]
TCL: Setting parameter firsttimestep to 0
TCL: Setting parameter alchLambda to 0.09999999999999969
Info: NONBONDED TABLE R-SQUARED SPACING: 0.0625
Info: NONBONDED TABLE SIZE: 705 POINTS
TCL: Setting parameter alchLambda2 to 0.049999999999999684
Info: NONBONDED TABLE R-SQUARED SPACING: 0.0625
Info: NONBONDED TABLE SIZE: 705 POINTS
TCL: Running for 1500000 steps
ETITLE: TS BOND ANGLE DIHED IMPRP ELECT VDW BOUNDARY MISC KINETIC TOTAL TEMP POTENTIAL TOTALAVG TEMPAVG PRESSURE GPRESSURE VOLUME PRESSAVG GPRESSAVG
ENERGY: 0 1.9450 2.5328 1.6095 0.0000 -10642.7593 1421.5320 0.0000 0.0000 1672.5048 -7542.6351 286.6630 -9215.1399 -7542.6351 286.6630 -318.5356 -224.4499 30195.6254 -318.5356 -224.4499
ENERGY: 300000 0.5009 3.7616 3.5246 0.0000 -10774.7791 1503.5960 0.0000 0.0000 1749.2294 -7514.1665 299.8134 -9263.3959 -7525.8432 293.4430 190.5610 279.1394 30159.0513 -64.0618 2.0888
ENERGY: 600000 1.6407 4.9804 1.6447 0.0000 -10762.3509 1494.8407 0.0000 0.0000 1764.7030 -7494.5413 302.4656 -9259.2444 -7498.3691 296.1417 244.6223 276.4271 30441.9970 109.0561 166.7206
ENERGY: 900000 1.8104 1.9445 3.4589 0.0000 -10655.8112 1513.6372 0.0000 0.0000 1741.7151 -7393.2450 298.5255 -9134.9601 -7465.2226 297.3214 578.9926 641.5521 30285.4810 105.3582 159.4873
ENERGY: 1200000 3.2276 5.5987 2.1606 0.0000 -10756.0244 1540.2225 0.0000 0.0000 1732.0861 -7472.7289 296.8751 -9204.8149 -7464.1020 297.2714 580.4261 688.8693 30118.6647 174.4758 223.7686
ENERGY: 1500000 2.7993 3.0431 1.9322 0.0000 -10714.0299 1483.3309 0.0000 0.0000 1792.0820 -7430.8424 307.1583 -9222.9243 -7453.4122 298.2837 31.1732 148.6905 30154.1958 98.7353 155.9471
TCL: Running FEP window  20: Lambda1 0.049999999999999684 Lambda2 0.0    [dLambda -0.049999999999999684]
TCL: Setting parameter firsttimestep to 0
TCL: Setting parameter alchLambda to 0.049999999999999684
Info: NONBONDED TABLE R-SQUARED SPACING: 0.0625
Info: NONBONDED TABLE SIZE: 705 POINTS
TCL: Setting parameter alchLambda2 to 0.0
Info: NONBONDED TABLE R-SQUARED SPACING: 0.0625
Info: NONBONDED TABLE SIZE: 705 POINTS
TCL: Running for 1500000 steps
ETITLE: TS BOND ANGLE DIHED IMPRP ELECT VDW BOUNDARY MISC KINETIC TOTAL TEMP POTENTIAL TOTALAVG TEMPAVG PRESSURE GPRESSURE VOLUME PRESSAVG GPRESSAVG
ENERGY: 0 2.7993 3.0431 1.9322 0.0000 -10714.0307 1482.7744 0.0000 0.0000 1791.2390 -7432.2427 307.0138 -9223.4817 -7432.2427 307.0138 68.7780 143.3801 30154.1958 68.7780 143.3801
ENERGY: 300000 3.0314 1.8443 3.0400 0.0000 -10704.7695 1467.7428 0.0000 0.0000 1740.8618 -7488.2493 298.3793 -9229.1111 -7442.0803 300.9467 172.9311 225.3214 30002.4996 -63.7108 2.5004
ENERGY: 600000 1.7653 1.2541 5.1122 0.0000 -10681.3490 1440.0584 0.0000 0.0000 1749.2858 -7483.8733 299.8231 -9233.1590 -7452.6342 300.5787 -171.7284 -69.3147 30038.6507 -102.9662 -28.5011
ENERGY: 900000 1.8665 2.4953 3.2126 0.0000 -10675.4107 1466.1187 0.0000 0.0000 1711.1772 -7490.5403 293.2914 -9201.7176 -7451.9012 300.7959 284.9250 314.0991 29811.9738 -47.3160 10.4207
ENERGY: 1200000 2.5768 4.0861 2.5377 0.0000 -10542.0396 1413.2915 0.0000 0.0000 1758.0750 -7361.4726 301.3296 -9119.5476 -7446.0155 301.1268 -234.0485 -167.8804 30443.3043 -50.9944 8.9987
ENERGY: 1500000 3.2273 2.1630 0.7697 0.0000 -10581.4924 1391.6228 0.0000 0.0000 1790.0349 -7393.6748 306.8074 -9183.7096 -7437.6551 301.2954 -218.5592 -104.5601 30115.8850 -101.1287 -36.6004
TCL: Exiting due to exit command.
