Info: SIMULATION PARAMETERS:
Info: TIMESTEP               2
Info: NUMBER OF STEPS        0
Info: STEPS PER CYCLE        10
Info: PERIODIC CELL BASIS 1  30.8933 0 0
Info: PERIODIC CELL BASIS 2  0 31.2686 0
Info: PERIODIC CELL BASIS 3  0 0 31.4744
Info: PERIODIC CELL CENTER   0 0 0
Info: WRAPPING WATERS AROUND PERIODIC BOUNDARIES ON OUTPUT.
Info: WRAPPING ALL CLUSTERS AROUND PERIODIC BOUNDARIES ON OUTPUT.
Info: FIRST LDB TIMESTEP     50
Info: LAST LDB TIMESTEP     -1
Info: HOM BACKGROUND SCALING 1
Info: PME BACKGROUND SCALING 1
Info: MIN ATOMS PER PATCH    40
Info: EMPTY PATCH LOAD       40 ATOMS
Info: VELOCITY FILE          mobley_1328465_equil.vel
Info: CENTER OF MASS MOVING INITIALLY? NO
Info: DIELECTRIC             1
Info: EXCLUDE                SCALED ONE-FOUR
Info: 1-4 ELECTROSTATICS SCALED BY 0.833333
Info: MODIFIED 1-4 VDW PARAMETERS WILL BE USED
Info: DCD FILENAME           mobley_1328465_prod.dcd
Info: DCD FREQUENCY          100000
Info: DCD FIRST STEP         100000
Info: DCD FILE WILL CONTAIN UNIT CELL DATA
Info: XST FILENAME           mobley_1328465_prod.xst
Info: XST FREQUENCY          100000
Info: NO VELOCITY DCD OUTPUT
Info: NO FORCE DCD OUTPUT
Info: OUTPUT FILENAME        mobley_1328465_prod
Info: BINARY OUTPUT FILES WILL BE USED
Info: RESTART FILENAME       mobley_1328465_prod.restart
Info: RESTART FREQUENCY      100000
Info: BINARY RESTART FILES WILL BE USED
Info: CUTOFF                 9
Info: PAIRLIST DISTANCE      11
Info: PAIRLIST SHRINK RATE   0.01
Info: PAIRLIST GROW RATE     0.01
Info: PAIRLIST TRIGGER       0.3
Info: PAIRLISTS PER CYCLE    2
Info: PAIRLISTS ENABLED
Info: MARGIN                 2
Info: HYDROGEN GROUP CUTOFF  2.5
Info: PATCH DIMENSION        15.5
Info: ENERGY OUTPUT STEPS    100000
Info: ENERGY EVALUATION STEPS    100000
Info: OUTPUT ENERGY PRECISION 4
Info: CROSSTERM ENERGY INCLUDED IN DIHEDRAL
Info: TIMING OUTPUT STEPS    1000000
Info: PRESSURE OUTPUT STEPS  100000
Info: ALCHEMICAL FEP ON
Info: FEP CURRENT LAMBDA VALUE     0
Info: FEP COMPARISON LAMBDA VALUE  0.05
Info: FEP INTRA-ALCHEMICAL NON-BONDED INTERACTIONS WILL BE RETAINED
Info: FEP INTRA-ALCHEMICAL BONDED INTERACTIONS WILL BE RETAINED
Info: FEP VDW SHIFTING COEFFICIENT 5
Info: FEP ELEC. ACTIVE FOR ANNIHILATED PARTICLES BETWEEN LAMBDA = 0 AND LAMBDA = 0.5
Info: FEP ELEC. ACTIVE FOR EXNIHILATED PARTICLES BETWEEN LAMBDA = 0.5 AND LAMBDA = 1
Info: FEP VDW ACTIVE FOR ANNIHILATED PARTICLES BETWEEN LAMBDA = 0 AND LAMBDA = 1
Info: FEP VDW ACTIVE FOR EXNIHILATED PARTICLES BETWEEN LAMBDA = 0 AND LAMBDA = 1
Info: FEP BOND ACTIVE FOR ANNIHILATED PARTICLES BETWEEN LAMBDA = 1 AND LAMBDA = 1
Info: FEP BOND ACTIVE FOR EXNIHILATED PARTICLES BETWEEN LAMBDA = 0 AND LAMBDA = 0
Info: LANGEVIN DYNAMICS ACTIVE
Info: LANGEVIN TEMPERATURE   300
Info: LANGEVIN USING BBK INTEGRATOR
Info: LANGEVIN DAMPING COEFFICIENT IS 1 INVERSE PS
Info: LANGEVIN DYNAMICS APPLIED TO HYDROGENS
Info: LANGEVIN PISTON PRESSURE CONTROL ACTIVE
Info:        TARGET PRESSURE IS 1.01325 BAR
Info:     OSCILLATION PERIOD IS 50 FS
Info:             DECAY TIME IS 25 FS
Info:     PISTON TEMPERATURE IS 300 K
Info:       PRESSURE CONTROL IS GROUP-BASED
Info:    INITIAL STRAIN RATE IS 0.000145208 0.000145208 0.000145208
Info:       CELL FLUCTUATION IS ISOTROPIC
Info: PARTICLE MESH EWALD (PME) ACTIVE
Info: PME TOLERANCE               1e-06
Info: PME EWALD COEFFICIENT       0.348832
Info: PME INTERPOLATION ORDER     4
Info: PME GRID DIMENSIONS         32 32 32
Info: PME MAXIMUM GRID SPACING    1
Info: PME CALCULATION WILL BE PERFORMED ON GPU
Info: FULL ELECTROSTATIC EVALUATION FREQUENCY      2
Info: USING VERLET I (r-RESPA) MTS SCHEME.
Info: C1 SPLITTING OF LONG RANGE ELECTROSTATICS
Info: PLACING ATOMS IN PATCHES BY HYDROGEN GROUPS
Info: RIGID BONDS TO HYDROGEN : ALL
Info:         ERROR TOLERANCE : 1e-08
Info:          MAX ITERATIONS : 100
Info: RIGID WATER USING SETTLE ALGORITHM
Info: RANDOM NUMBER SEED     1743667226
Info: USE HYDROGEN BONDS?    NO
Info: Using AMBER format force field!
Info: AMBER PARM FILE        mobley_1328465.prmtop
Info: COORDINATE PDB         mobley_1328465.pdb
Info: Exclusions will be read from PARM file!
Info: SCNB (VDW SCALING)     2
Info: USING ARITHMETIC MEAN TO COMBINE L-J SIGMA PARAMETERS
Info: BINARY COORDINATES     mobley_1328465_equil.coor
Info: SUMMARY OF PARAMETERS:
Info: 6 BONDS
Info: 7 ANGLES
Info:   7 HARMONIC
Info:   0 COSINE-BASED
Info: 4 DIHEDRAL
Info: 0 IMPROPER
Info: 0 CROSSTERM
Info: 0 VDW
Info: 21 VDW_PAIRS
Info: 0 NBTHOLE_PAIRS
Info: To read alchdata from file: mobley_1328465.pdb
Info: To read alchflag data from column: 5
Info: STRUCTURE SUMMARY:
Info: 2951 ATOMS
Info: 2950 BONDS
Info: 12 ANGLES
Info: 15 DIHEDRALS
Info: 0 IMPROPERS
Info: 0 CROSSTERMS
Info: 2971 EXCLUSIONS
Info: 2946 RIGID BONDS
Info: ALCH: 0 ATOMS TO DISAPPEAR IN FINAL STATE
Info: ALCH: 8 ATOMS TO APPEAR IN FINAL STATE
Info: 5907 DEGREES OF FREEDOM
Info: 986 HYDROGEN GROUPS
Info: 3 ATOMS IN LARGEST HYDROGEN GROUP
Info: 986 MIGRATION GROUPS
Info: 3 ATOMS IN LARGEST MIGRATION GROUP
Info: TOTAL MASS = 17807.1 amu
Info: TOTAL CHARGE = -1.86265e-08 e
Info: MASS DENSITY = 0.972573 g/cm^3
Info: ATOM DENSITY = 0.0970597 atoms/A^3
Info: ADDED 0 IMPLICIT EXCLUSIONS
Info: NONBONDED TABLE R-SQUARED SPACING: 0.0625
Info: NONBONDED TABLE SIZE: 705 POINTS
Info: REMOVING COM VELOCITY -0.0945259 -0.118172 -0.0840528
Info: Use 3D box decompostion in PME FFT.
Info: Updated CUDA force table with 4096 elements.
Info: Updated CUDA LJ table with 6 x 6 elements.
Info: Found 11 unique exclusion lists needing 16 bytes
TCL: Running for 1500000 steps
ETITLE: TS BOND ANGLE DIHED IMPRP ELECT VDW BOUNDARY MISC KINETIC TOTAL TEMP POTENTIAL TOTALAVG TEMPAVG PRESSURE GPRESSURE VOLUME PRESSAVG GPRESSAVG
ENERGY: 0 1.0518 4.0705 1.2187 0.0000 -10651.8211 1393.6612 0.0000 0.0000 1797.9401 -7453.8788 306.3364 -9251.8188 -7453.8788 306.3364 -493.2022 -404.3813 30403.9544 -493.2022 -404.3813
ENERGY: 300000 1.2817 2.3613 3.2644 0.0000 -10677.4403 1431.4472 0.0000 0.0000 1797.9245 -7441.1612 306.3338 -9239.0857 -7453.0906 304.2631 70.0860 154.5927 29960.9266 -148.0352 -72.8232
ENERGY: 600000 1.5864 2.7750 2.2325 0.0000 -10723.2944 1439.0333 0.0000 0.0000 1754.9544 -7522.7129 299.0124 -9277.6673 -7463.7466 303.2655 -328.6784 -231.7668 30609.6541 -228.6462 -165.3103
ENERGY: 900000 0.5739 5.0367 1.2471 0.0000 -10650.4947 1378.4220 0.0000 0.0000 1798.1703 -7467.0447 306.3756 -9265.2150 -7479.1044 303.7542 -395.5066 -289.6054 30026.0075 -242.5008 -179.8463
ENERGY: 1200000 0.7471 3.6493 1.2964 0.0000 -10710.6542 1453.0818 0.0000 0.0000 1796.0497 -7455.8299 306.0143 -9251.8796 -7491.0577 302.8245 34.7335 99.5191 30586.4953 -158.9399 -88.9861
ENERGY: 1500000 1.6204 2.8324 3.4874 0.0000 -10819.6182 1510.0455 0.0000 0.0000 1789.1024 -7512.5301 304.8306 -9301.6325 -7500.7142 302.0670 246.1441 310.9713 30576.0918 -137.7901 -71.7166
TCL: Running FEP window   2: Lambda1 0.05   Lambda2 0.1    [dLambda 0.05  ]
TCL: Setting parameter firsttimestep to 0
TCL: Setting parameter alchLambda to 0.05
Info: NONBONDED TABLE R-SQUARED SPACING: 0.0625
Info: NONBONDED TABLE SIZE: 705 POINTS
TCL: Setting parameter alchLambda2 to 0.1
Info: NONBONDED TABLE R-SQUARED SPACING: 0.0625
Info: NONBONDED TABLE SIZE: 705 POINTS
TCL: Running for 1500000 steps
ETITLE: TS BOND ANGLE DIHED IMPRP ELECT VDW BOUNDARY MISC KINETIC TOTAL TEMP POTENTIAL TOTALAVG TEMPAVG PRESSURE GPRESSURE VOLUME PRESSAVG GPRESSAVG
ENERGY: 0 1.6204 2.8324 3.4874 0.0000 -10819.6176 1517.6400 0.0000 0.0000 1788.2101 -7505.8272 304.6786 -9294.0373 -7505.8272 304.6786 215.4807 316.5972 30576.0918 215.4807 316.5972
ENERGY: 300000 0.3421 2.0255 1.9851 0.0000 -10703.9026 1389.2218 0.0000 0.0000 1830.2573 -7480.0708 311.8427 -9310.3281 -7501.8547 303.1429 -386.8516 -373.8578 30136.5714 -152.7172 -90.7434
ENERGY: 600000 3.6994 6.4494 3.4254 0.0000 -10755.6385 1451.3091 0.0000 0.0000 1731.0058 -7559.7495 294.9320 -9290.7553 -7515.3392 302.7259 -268.1542 -200.6901 30469.3227 -259.4105 -203.0517
ENERGY: 900000 1.1286 3.2950 2.2362 0.0000 -10859.9712 1569.8169 0.0000 0.0000 1836.9796 -7446.5150 312.9880 -9283.4946 -7509.0480 302.6264 1188.5690 1194.1216 30210.8956 -144.1199 -89.6802
ENERGY: 1200000 1.9776 1.9422 2.3817 0.0000 -10871.5387 1558.5414 0.0000 0.0000 1741.9591 -7564.7366 296.7983 -9306.6957 -7507.1862 301.3481 751.8385 803.8861 30235.6776 -74.3249 -17.8174
ENERGY: 1500000 1.9946 2.6836 3.3871 0.0000 -10806.1355 1455.7938 0.0000 0.0000 1850.3390 -7491.9374 315.2642 -9342.2764 -7503.0754 302.2305 -77.4262 -28.0290 30330.8785 -43.7024 7.9805
TCL: Running FEP window   3: Lambda1 0.1    Lambda2 0.15000000000000002 [dLambda 0.05000000000000002]
TCL: Setting parameter firsttimestep to 0
TCL: Setting parameter alchLambda to 0.1
Info: NONBONDED TABLE R-SQUARED SPACING: 0.0625
Info: NONBONDED TABLE SIZE: 705 POINTS
TCL: Setting parameter alchLambda2 to 0.15000000000000002
Info: NONBONDED TABLE R-SQUARED SPACING: 0.0625
Info: NONBONDED TABLE SIZE: 705 POINTS
TCL: Running for 1500000 steps
ETITLE: TS BOND ANGLE DIHED IMPRP ELECT VDW BOUNDARY MISC KINETIC TOTAL TEMP POTENTIAL TOTALAVG TEMPAVG PRESSURE GPRESSURE VOLUME PRESSAVG GPRESSAVG
ENERGY: 0 1.9946 2.6836 3.3871 0.0000 -10806.1356 1455.6809 0.0000 0.0000 1849.4872 -7492.9022 315.1191 -9342.3894 -7492.9022 315.1191 -108.5069 -26.6445 30330.8785 -108.5069 -26.6445
ENERGY: 300000 2.4781 5.2400 2.3271 0.0000 -10828.8770 1510.5533 0.0000 0.0000 1788.7418 -7519.5368 304.7692 -9308.2786 -7526.7662 305.1539 386.6224 355.2569 30216.4574 -0.9734 71.6287
ENERGY: 600000 0.1600 1.8352 2.2919 0.0000 -10709.0794 1461.2402 0.0000 0.0000 1755.3813 -7488.1708 299.0852 -9243.5521 -7502.3921 303.3683 329.6773 404.1688 30133.9322 64.1056 156.1574
ENERGY: 900000 1.5378 1.3018 2.2232 0.0000 -10791.9309 1479.8542 0.0000 0.0000 1745.0760 -7561.9379 297.3293 -9307.0138 -7503.0355 301.6475 71.3655 159.0203 30270.1824 52.1412 137.5228
ENERGY: 1200000 0.2993 2.5464 1.1880 0.0000 -10741.7107 1466.5844 0.0000 0.0000 1718.7768 -7552.3157 292.8484 -9271.0925 -7507.2012 301.5946 -25.6252 48.5058 30691.4396 0.0597 81.1785
ENERGY: 1500000 2.8373 3.7432 2.3556 0.0000 -10724.5624 1463.4855 0.0000 0.0000 1776.3916 -7475.7491 302.6650 -9252.1408 -7494.5252 301.8610 235.2951 347.2643 30167.6388 -59.7515 18.8468
TCL: Running FEP window   4: Lambda1 0.15000000000000002 Lambda2 0.2    [dLambda 0.04999999999999999]
TCL: Setting parameter firsttimestep to 0
TCL: Setting parameter alchLambda to 0.15000000000000002
Info: NONBONDED TABLE R-SQUARED SPACING: 0.0625
Info: NONBONDED TABLE SIZE: 705 POINTS
TCL: Setting parameter alchLambda2 to 0.2
Info: NONBONDED TABLE R-SQUARED SPACING: 0.0625
Info: NONBONDED TABLE SIZE: 705 POINTS
TCL: Running for 1500000 steps
ETITLE: TS BOND ANGLE DIHED IMPRP ELECT VDW BOUNDARY MISC KINETIC TOTAL TEMP POTENTIAL TOTALAVG TEMPAVG PRESSURE GPRESSURE VOLUME PRESSAVG GPRESSAVG
ENERGY: 0 2.8373 3.7432 2.3556 0.0000 -10724.5635 1466.7759 0.0000 0.0000 1775.5321 -7473.3193 302.5185 -9248.8514 -7473.3193 302.5185 272.8715 363.9526 30167.6388 272.8715 363.9526
ENERGY: 300000 0.4140 6.9681 2.3160 0.0000 -10911.3099 1606.7296 0.0000 0.0000 1738.4710 -7556.4113 296.2040 -9294.8823 -7499.4887 301.9568 1332.6339 1338.7663 30231.9354 349.2011 414.1096
ENERGY: 600000 0.8840 1.8209 2.2803 0.0000 -10675.0403 1420.3264 0.0000 0.0000 1748.6676 -7501.0612 297.9413 -9249.7288 -7465.9078 303.6904 -106.3130 -32.7656 30256.9867 199.9232 268.8338
ENERGY: 900000 1.9959 3.2070 1.2566 0.0000 -10787.8824 1493.6365 0.0000 0.0000 1747.0443 -7540.7421 297.6647 -9287.7864 -7484.2485 300.9820 137.5721 186.1816 30347.7167 139.2646 203.7033
ENERGY: 1200000 1.8984 1.2092 1.2115 0.0000 -10842.5433 1477.4395 0.0000 0.0000 1764.7774 -7596.0072 300.6861 -9360.7846 -7496.0262 301.1177 19.5990 76.0105 30051.9517 104.0673 167.0705
ENERGY: 1500000 0.8394 3.0428 2.1849 0.0000 -10579.2853 1373.4194 0.0000 0.0000 1674.8115 -7524.9874 285.3575 -9199.7988 -7502.7108 299.0099 -862.5221 -770.7125 31062.5586 91.3742 154.5539
TCL: Running FEP window   5: Lambda1 0.2    Lambda2 0.25   [dLambda 0.04999999999999999]
TCL: Setting parameter firsttimestep to 0
TCL: Setting parameter alchLambda to 0.2
Info: NONBONDED TABLE R-SQUARED SPACING: 0.0625
Info: NONBONDED TABLE SIZE: 705 POINTS
TCL: Setting parameter alchLambda2 to 0.25
Info: NONBONDED TABLE R-SQUARED SPACING: 0.0625
Info: NONBONDED TABLE SIZE: 705 POINTS
TCL: Running for 1500000 steps
ETITLE: TS BOND ANGLE DIHED IMPRP ELECT VDW BOUNDARY MISC KINETIC TOTAL TEMP POTENTIAL TOTALAVG TEMPAVG PRESSURE GPRESSURE VOLUME PRESSAVG GPRESSAVG
ENERGY: 0 0.8394 3.0428 2.1849 0.0000 -10579.2839 1373.2335 0.0000 0.0000 1673.9447 -7526.0386 285.2099 -9199.9833 -7526.0386 285.2099 -862.7114 -772.0078 31062.5586 -862.7114 -772.0078
ENERGY: 300000 1.0474 3.7366 1.2536 0.0000 -10597.3230 1443.6645 0.0000 0.0000 1764.6981 -7382.9227 300.6726 -9147.6208 -7525.6167 294.1308 254.0316 377.4170 30229.8798 -438.5478 -388.5048
ENERGY: 600000 0.5934 4.1626 2.3222 0.0000 -10764.1007 1427.0131 0.0000 0.0000 1790.2643 -7539.7450 305.0286 -9330.0094 -7539.8765 296.2471 -258.5195 -233.8147 30230.2030 -203.9446 -166.9250
ENERGY: 900000 0.9056 2.9727 2.1863 0.0000 -10597.1795 1350.9071 0.0000 0.0000 1774.5451 -7465.6627 302.3503 -9240.2079 -7518.2480 298.3961 -737.7011 -681.1477 30583.3622 -259.3995 -216.4200
ENERGY: 1200000 0.9245 3.4219 1.2629 0.0000 -10683.5596 1418.9980 0.0000 0.0000 1759.1397 -7499.8126 299.7255 -9258.9523 -7512.2881 299.2341 -272.2152 -178.0518 30459.8433 -218.9552 -173.2538
ENERGY: 1500000 0.9037 1.5336 2.9694 0.0000 -10570.4574 1339.7804 0.0000 0.0000 1774.8416 -7450.4287 302.4009 -9225.2703 -7517.3802 298.2244 -802.3864 -651.1263 30335.5135 -253.2513 -197.1989
TCL: Running FEP window   6: Lambda1 0.25   Lambda2 0.3    [dLambda 0.04999999999999999]
TCL: Setting parameter firsttimestep to 0
TCL: Setting parameter alchLambda to 0.25
Info: NONBONDED TABLE R-SQUARED SPACING: 0.0625
Info: NONBONDED TABLE SIZE: 705 POINTS
TCL: Setting parameter alchLambda2 to 0.3
Info: NONBONDED TABLE R-SQUARED SPACING: 0.0625
Info: NONBONDED TABLE SIZE: 705 POINTS
TCL: Running for 1500000 steps
ETITLE: TS BOND ANGLE DIHED IMPRP ELECT VDW BOUNDARY MISC KINETIC TOTAL TEMP POTENTIAL TOTALAVG TEMPAVG PRESSURE GPRESSURE VOLUME PRESSAVG GPRESSAVG
ENERGY: 0 0.9037 1.5336 2.9694 0.0000 -10570.4584 1339.8526 0.0000 0.0000 1774.0316 -7451.1674 302.2628 -9225.1990 -7451.1674 302.2628 -735.8113 -646.2040 30335.5135 -735.8113 -646.2040
ENERGY: 300000 1.8431 3.9552 2.0567 0.0000 -10703.7576 1415.3641 0.0000 0.0000 1737.7271 -7542.8115 296.0772 -9280.5385 -7479.6599 298.7760 -208.3836 -184.9546 30373.7872 -225.3617 -165.0316
ENERGY: 600000 0.6216 2.7566 2.1728 0.0000 -10657.0027 1463.3543 0.0000 0.0000 1768.5599 -7419.5374 301.3306 -9188.0974 -7491.0826 297.6147 247.9765 312.0609 30578.6377 28.9367 91.7532
ENERGY: 900000 1.4381 4.5837 2.5658 0.0000 -10585.6066 1394.9118 0.0000 0.0000 1798.0470 -7384.0602 306.3546 -9182.1072 -7472.0234 298.9341 -356.9938 -284.3845 30633.7055 17.7724 80.6810
ENERGY: 1200000 1.0637 1.8814 2.2056 0.0000 -10789.0682 1492.1244 0.0000 0.0000 1720.2856 -7571.5075 293.1055 -9291.7931 -7495.3944 297.6699 92.2340 242.1181 30202.7025 17.6579 85.6867
ENERGY: 1500000 0.8434 1.1171 2.5057 0.0000 -10628.4487 1374.6659 0.0000 0.0000 1775.1232 -7474.1935 302.4488 -9249.3166 -7484.0372 298.5379 -205.1313 -204.0934 30251.6532 -28.7932 31.2936
TCL: Running FEP window   7: Lambda1 0.3    Lambda2 0.35   [dLambda 0.04999999999999999]
TCL: Setting parameter firsttimestep to 0
TCL: Setting parameter alchLambda to 0.3
Info: NONBONDED TABLE R-SQUARED SPACING: 0.0625
Info: NONBONDED TABLE SIZE: 705 POINTS
TCL: Setting parameter alchLambda2 to 0.35
Info: NONBONDED TABLE R-SQUARED SPACING: 0.0625
Info: NONBONDED TABLE SIZE: 705 POINTS
TCL: Running for 1500000 steps
ETITLE: TS BOND ANGLE DIHED IMPRP ELECT VDW BOUNDARY MISC KINETIC TOTAL TEMP POTENTIAL TOTALAVG TEMPAVG PRESSURE GPRESSURE VOLUME PRESSAVG GPRESSAVG
ENERGY: 0 0.8434 1.1171 2.5057 0.0000 -10628.4497 1374.1642 0.0000 0.0000 1774.2447 -7475.5746 302.2992 -9249.8193 -7475.5746 302.2992 -282.1191 -206.6987 30251.6532 -282.1191 -206.6987
ENERGY: 300000 3.8185 3.8783 2.5746 0.0000 -10575.5215 1357.5119 0.0000 0.0000 1749.0411 -7458.6971 298.0049 -9207.7382 -7504.8098 298.1146 -696.2022 -534.9692 30353.2956 -276.2732 -200.0191
ENERGY: 600000 2.7918 2.9059 1.1957 0.0000 -10603.8143 1379.0893 0.0000 0.0000 1762.9332 -7454.8983 300.3719 -9217.8315 -7479.0974 298.7468 -632.3224 -578.6831 30865.6174 -375.7098 -307.3621
ENERGY: 900000 0.5310 4.7768 3.0619 0.0000 -10699.8280 1454.0788 0.0000 0.0000 1735.0135 -7502.3660 295.6149 -9237.3795 -7481.5443 298.4802 129.6020 137.9470 30791.0163 -239.0307 -177.4523
ENERGY: 1200000 0.2110 2.0802 1.5467 0.0000 -10748.8253 1498.9373 0.0000 0.0000 1754.2854 -7491.7647 298.8985 -9246.0501 -7486.0735 297.6870 701.8243 753.2812 30070.3135 -142.5595 -88.2111
ENERGY: 1500000 0.3780 5.7794 2.3972 0.0000 -10769.6436 1482.0809 0.0000 0.0000 1782.4675 -7496.5406 303.7002 -9279.0081 -7486.2227 298.1521 179.8797 280.5611 30344.9340 -103.4881 -42.9521
TCL: Running FEP window   8: Lambda1 0.35   Lambda2 0.39999999999999997 [dLambda 0.04999999999999999]
TCL: Setting parameter firsttimestep to 0
TCL: Setting parameter alchLambda to 0.35
Info: NONBONDED TABLE R-SQUARED SPACING: 0.0625
Info: NONBONDED TABLE SIZE: 705 POINTS
TCL: Setting parameter alchLambda2 to 0.39999999999999997
Info: NONBONDED TABLE R-SQUARED SPACING: 0.0625
Info: NONBONDED TABLE SIZE: 705 POINTS
TCL: Running for 1500000 steps
ETITLE: TS BOND ANGLE DIHED IMPRP ELECT VDW BOUNDARY MISC KINETIC TOTAL TEMP POTENTIAL TOTALAVG TEMPAVG PRESSURE GPRESSURE VOLUME PRESSAVG GPRESSAVG
ENERGY: 0 0.3780 5.7794 2.3972 0.0000 -10769.6449 1482.4756 0.0000 0.0000 1781.5951 -7497.0196 303.5515 -9278.6147 -7497.0196 303.5515 198.4918 288.7899 30344.9340 198.4918 288.7899
ENERGY: 300000 1.8724 3.6146 2.7817 0.0000 -10649.8339 1452.3308 0.0000 0.0000 1758.2310 -7431.0035 299.5707 -9189.2344 -7455.7891 303.6967 126.7751 199.5206 30732.1869 4.4430 82.8941
ENERGY: 600000 0.3949 3.7731 1.1900 0.0000 -10938.8314 1555.6007 0.0000 0.0000 1780.1560 -7597.7166 303.3063 -9377.8726 -7487.6953 304.1419 772.5738 832.8808 29904.7746 213.1889 273.7458
ENERGY: 900000 0.7226 2.7714 2.6057 0.0000 -10586.2245 1340.1936 0.0000 0.0000 1829.9970 -7409.9343 311.7983 -9239.9312 -7479.6889 305.3078 -782.7600 -722.9443 30529.8845 215.5098 271.0404
ENERGY: 1200000 0.4661 3.8394 2.5180 0.0000 -10669.7723 1414.2921 0.0000 0.0000 1775.5429 -7473.1138 302.5203 -9248.6567 -7484.6467 304.6360 5.1081 -4.4975 30228.4972 130.4112 177.1267
ENERGY: 1500000 1.1187 3.0303 1.2740 0.0000 -10726.8053 1475.0356 0.0000 0.0000 1755.5527 -7490.7940 299.1144 -9246.3467 -7488.2955 303.3229 251.2577 274.6314 30563.1613 153.4403 201.9115
TCL: Running FEP window   9: Lambda1 0.39999999999999997 Lambda2 0.44999999999999996 [dLambda 0.04999999999999999]
TCL: Setting parameter firsttimestep to 0
TCL: Setting parameter alchLambda to 0.39999999999999997
Info: NONBONDED TABLE R-SQUARED SPACING: 0.0625
Info: NONBONDED TABLE SIZE: 705 POINTS
TCL: Setting parameter alchLambda2 to 0.44999999999999996
Info: NONBONDED TABLE R-SQUARED SPACING: 0.0625
Info: NONBONDED TABLE SIZE: 705 POINTS
TCL: Running for 1500000 steps
ETITLE: TS BOND ANGLE DIHED IMPRP ELECT VDW BOUNDARY MISC KINETIC TOTAL TEMP POTENTIAL TOTALAVG TEMPAVG PRESSURE GPRESSURE VOLUME PRESSAVG GPRESSAVG
ENERGY: 0 1.1187 3.0303 1.2740 0.0000 -10726.8064 1474.9409 0.0000 0.0000 1754.6847 -7491.7578 298.9665 -9246.4425 -7491.7578 298.9665 183.8826 279.8774 30563.1613 183.8826 279.8774
ENERGY: 300000 2.3592 4.1779 1.3644 0.0000 -10804.1427 1483.8724 0.0000 0.0000 1755.2424 -7557.1264 299.0615 -9312.3688 -7514.3496 297.5875 184.2455 234.2131 30432.7614 76.9654 167.1527
ENERGY: 600000 0.8953 3.0055 3.1901 0.0000 -10832.2859 1505.6931 0.0000 0.0000 1750.0537 -7569.4483 298.1774 -9319.5020 -7507.0943 299.0579 168.0684 253.2076 30542.7235 115.9378 190.0912
ENERGY: 900000 1.0611 6.1864 2.2706 0.0000 -10622.1213 1454.9885 0.0000 0.0000 1829.4166 -7328.1981 311.6994 -9157.6147 -7493.9366 299.4742 566.6776 623.7386 30403.9484 106.3448 170.6244
ENERGY: 1200000 1.4738 4.4174 3.1478 0.0000 -10679.6184 1434.3371 0.0000 0.0000 1755.0898 -7481.1526 299.0355 -9236.2424 -7497.8794 298.2055 270.5530 317.7681 30083.5592 29.3285 95.4987
ENERGY: 1500000 1.1351 2.8214 2.3205 0.0000 -10675.5430 1490.6413 0.0000 0.0000 1738.3403 -7440.2843 296.1817 -9178.6246 -7485.9662 298.8231 728.9082 709.5293 30234.1356 9.1682 66.7259
TCL: Running FEP window  10: Lambda1 0.44999999999999996 Lambda2 0.49999999999999994 [dLambda 0.04999999999999999]
TCL: Setting parameter firsttimestep to 0
TCL: Setting parameter alchLambda to 0.44999999999999996
Info: NONBONDED TABLE R-SQUARED SPACING: 0.0625
Info: NONBONDED TABLE SIZE: 705 POINTS
TCL: Setting parameter alchLambda2 to 0.49999999999999994
Info: NONBONDED TABLE R-SQUARED SPACING: 0.0625
Info: NONBONDED TABLE SIZE: 705 POINTS
TCL: Running for 1500000 steps
ETITLE: TS BOND ANGLE DIHED IMPRP ELECT VDW BOUNDARY MISC KINETIC TOTAL TEMP POTENTIAL TOTALAVG TEMPAVG PRESSURE GPRESSURE VOLUME PRESSAVG GPRESSAVG
ENERGY: 0 1.1351 2.8214 2.3205 0.0000 -10675.5435 1491.1953 0.0000 0.0000 1737.4805 -7440.5908 296.0352 -9178.0713 -7440.5908 296.0352 636.7009 718.4177 30234.1356 636.7009 718.4177
ENERGY: 300000 0.7706 2.5826 2.8559 0.0000 -10707.7079 1404.7602 0.0000 0.0000 1774.1559 -7522.5827 302.2840 -9296.7386 -7505.7326 297.2218 -280.2369 -210.7274 30548.4996 196.3830 268.7122
ENERGY: 600000 1.6812 5.0647 2.4049 0.0000 -10682.1137 1421.7138 0.0000 0.0000 1736.8366 -7514.4125 295.9255 -9251.2491 -7516.0659 297.8315 -157.4934 -132.7572 30670.5840 138.0722 194.0642
ENERGY: 900000 1.6670 2.1927 2.1955 0.0000 -10788.3582 1498.1413 0.0000 0.0000 1792.7547 -7491.4070 305.4529 -9284.1617 -7504.9745 299.3612 205.8788 280.2810 30770.4479 29.0193 83.3162
ENERGY: 1200000 2.4409 4.1948 2.1417 0.0000 -10824.4546 1529.1074 0.0000 0.0000 1776.0740 -7510.4958 302.6108 -9286.5698 -7513.5675 299.7089 697.7443 701.7584 30141.1354 57.7443 111.0428
ENERGY: 1500000 1.0193 1.7833 3.3604 0.0000 -10651.3639 1412.2090 0.0000 0.0000 1754.7748 -7478.2171 298.9818 -9232.9919 -7510.9785 299.5263 286.4444 290.9074 29955.7443 -11.2325 32.6725
TCL: Running FEP window  11: Lambda1 0.49999999999999994 Lambda2 0.5499999999999999 [dLambda 0.04999999999999999]
TCL: Setting parameter firsttimestep to 0
TCL: Setting parameter alchLambda to 0.49999999999999994
Info: NONBONDED TABLE R-SQUARED SPACING: 0.0625
Info: NONBONDED TABLE SIZE: 705 POINTS
TCL: Setting parameter alchLambda2 to 0.5499999999999999
Info: NONBONDED TABLE R-SQUARED SPACING: 0.0625
Info: NONBONDED TABLE SIZE: 705 POINTS
TCL: Running for 1500000 steps
ETITLE: TS BOND ANGLE DIHED IMPRP ELECT VDW BOUNDARY MISC KINETIC TOTAL TEMP POTENTIAL TOTALAVG TEMPAVG PRESSURE GPRESSURE VOLUME PRESSAVG GPRESSAVG
ENERGY: 0 1.0193 1.7833 3.3604 0.0000 -10651.3626 1412.0761 0.0000 0.0000 1753.9061 -7479.2174 298.8338 -9233.1235 -7479.2174 298.8338 211.0460 293.8215 29955.7443 211.0460 293.8215
ENERGY: 300000 0.9244 1.2816 3.4651 0.0000 -10790.9507 1493.3488 0.0000 0.0000 1815.1505 -7476.7803 309.2688 -9291.9309 -7523.7536 302.2157 195.7880 284.1309 30472.6708 269.1881 351.3901
ENERGY: 600000 0.0834 1.7827 2.2257 0.0000 -10687.3893 1455.2456 0.0000 0.0000 1755.4442 -7472.6077 299.0959 -9228.0519 -7526.3489 301.8144 73.2167 101.6716 30649.4521 126.1778 191.6900
ENERGY: 900000 1.9406 1.7977 2.2739 0.0000 -10725.1815 1448.1891 0.0000 0.0000 1723.9045 -7547.0756 293.7221 -9270.9801 -7498.7266 301.1834 -13.2367 51.9842 30512.7996 116.5567 182.7447
ENERGY: 1200000 0.7503 2.3400 2.3562 0.0000 -10829.0069 1460.6439 0.0000 0.0000 1768.9615 -7593.9550 301.3990 -9362.9165 -7511.1085 301.2010 -4.8303 47.6200 30261.2830 6.0711 71.9774
ENERGY: 1500000 1.9420 3.4014 2.7989 0.0000 -10705.1810 1413.0802 0.0000 0.0000 1816.7650 -7467.1936 309.5438 -9283.9586 -7506.4541 300.4873 -1.7123 78.8698 30070.5743 -50.0242 15.6405
TCL: Running FEP window  12: Lambda1 0.5499999999999999 Lambda2 0.6    [dLambda 0.050000000000000044]
TCL: Setting parameter firsttimestep to 0
TCL: Setting parameter alchLambda to 0.5499999999999999
Info: NONBONDED TABLE R-SQUARED SPACING: 0.0625
Info: NONBONDED TABLE SIZE: 705 POINTS
TCL: Setting parameter alchLambda2 to 0.6
Info: NONBONDED TABLE R-SQUARED SPACING: 0.0625
Info: NONBONDED TABLE SIZE: 705 POINTS
TCL: Running for 1500000 steps
ETITLE: TS BOND ANGLE DIHED IMPRP ELECT VDW BOUNDARY MISC KINETIC TOTAL TEMP POTENTIAL TOTALAVG TEMPAVG PRESSURE GPRESSURE VOLUME PRESSAVG GPRESSAVG
ENERGY: 0 1.9420 3.4014 2.7989 0.0000 -10705.4853 1413.0432 0.0000 0.0000 1815.9198 -7468.3800 309.3998 -9284.2999 -7468.3800 309.3998 3.9055 82.6803 30070.5743 3.9055 82.6803
ENERGY: 300000 0.6650 2.3539 2.4383 0.0000 -10774.7974 1419.2273 0.0000 0.0000 1742.9388 -7607.1740 296.9652 -9350.1128 -7543.0986 301.4708 -597.2550 -558.5278 30604.4509 -95.0465 -46.6978
ENERGY: 600000 2.9141 5.4083 2.3436 0.0000 -10654.6860 1357.8717 0.0000 0.0000 1745.9373 -7540.2111 297.4761 -9286.1484 -7534.5687 299.4248 -999.7719 -966.2848 30704.5645 -190.3791 -137.5879
ENERGY: 900000 2.5390 3.3804 3.3712 0.0000 -10789.1580 1459.1638 0.0000 0.0000 1752.9277 -7567.7758 298.6671 -9320.7035 -7519.4900 300.4319 87.8193 170.9056 29882.9851 -182.0375 -128.3835
ENERGY: 1200000 0.4469 3.4886 2.7349 0.0000 -10669.6673 1390.0271 0.0000 0.0000 1781.0015 -7491.9682 303.4504 -9272.9697 -7510.9969 300.0887 -271.3113 -266.3979 30249.4314 -196.6516 -150.5965
ENERGY: 1500000 0.6215 3.5236 2.2744 0.0000 -10569.1728 1330.8342 0.0000 0.0000 1795.2339 -7436.6852 305.8753 -9231.9191 -7513.9433 299.3650 -1052.4861 -957.1252 31012.9926 -253.7193 -200.7990
TCL: Running FEP window  13: Lambda1 0.6    Lambda2 0.65   [dLambda 0.050000000000000044]
TCL: Setting parameter firsttimestep to 0
TCL: Setting parameter alchLambda to 0.6
Info: NONBONDED TABLE R-SQUARED SPACING: 0.0625
Info: NONBONDED TABLE SIZE: 705 POINTS
TCL: Setting parameter alchLambda2 to 0.65
Info: NONBONDED TABLE R-SQUARED SPACING: 0.0625
Info: NONBONDED TABLE SIZE: 705 POINTS
TCL: Running for 1500000 steps
ETITLE: TS BOND ANGLE DIHED IMPRP ELECT VDW BOUNDARY MISC KINETIC TOTAL TEMP POTENTIAL TOTALAVG TEMPAVG PRESSURE GPRESSURE VOLUME PRESSAVG GPRESSAVG
ENERGY: 0 0.6215 3.5236 2.2744 0.0000 -10569.5760 1331.1429 0.0000 0.0000 1794.3294 -7437.6842 305.7212 -9232.0136 -7437.6842 305.7212 -1026.0493 -949.9349 31012.9926 -1026.0493 -949.9349
ENERGY: 300000 0.4068 1.4044 2.3494 0.0000 -10696.5044 1430.0174 0.0000 0.0000 1759.8038 -7502.5226 299.8387 -9262.3264 -7477.5480 299.9114 -298.7000 -236.8999 30769.0742 -356.9695 -302.3097
ENERGY: 600000 0.2013 3.1960 2.2728 0.0000 -10699.1369 1360.9353 0.0000 0.0000 1717.0929 -7615.4386 292.5615 -9332.5315 -7500.0636 299.5738 -977.1377 -851.7255 30512.2424 -274.4195 -209.1427
ENERGY: 900000 0.5552 4.3903 2.5251 0.0000 -10705.4995 1435.6247 0.0000 0.0000 1777.4616 -7484.9427 302.8472 -9262.4043 -7523.7960 297.8975 -162.5705 -182.5162 30695.8929 -193.5859 -136.2536
ENERGY: 1200000 1.7749 4.2469 2.1839 0.0000 -10690.5317 1352.1419 0.0000 0.0000 1772.7455 -7557.4386 302.0437 -9330.1840 -7516.9977 298.4744 -659.9713 -632.8731 30296.0449 -234.2808 -180.8831
ENERGY: 1500000 0.9660 1.2581 1.2873 0.0000 -10783.1071 1462.6605 0.0000 0.0000 1785.8715 -7531.0637 304.2802 -9316.9352 -7512.4210 298.6920 90.0583 133.6613 30282.6289 -96.4060 -49.6706
TCL: Running FEP window  14: Lambda1 0.65   Lambda2 0.7000000000000001 [dLambda 0.050000000000000044]
TCL: Setting parameter firsttimestep to 0
TCL: Setting parameter alchLambda to 0.65
Info: NONBONDED TABLE R-SQUARED SPACING: 0.0625
Info: NONBONDED TABLE SIZE: 705 POINTS
TCL: Setting parameter alchLambda2 to 0.7000000000000001
Info: NONBONDED TABLE R-SQUARED SPACING: 0.0625
Info: NONBONDED TABLE SIZE: 705 POINTS
TCL: Running for 1500000 steps
ETITLE: TS BOND ANGLE DIHED IMPRP ELECT VDW BOUNDARY MISC KINETIC TOTAL TEMP POTENTIAL TOTALAVG TEMPAVG PRESSURE GPRESSURE VOLUME PRESSAVG GPRESSAVG
ENERGY: 0 0.9660 1.2581 1.2873 0.0000 -10783.2205 1462.2251 0.0000 0.0000 1784.9833 -7532.5007 304.1288 -9317.4840 -7532.5007 304.1288 50.4020 131.7156 30282.6289 50.4020 131.7156
ENERGY: 300000 0.1471 3.8351 2.2836 0.0000 -10616.9405 1409.9123 0.0000 0.0000 1741.4025 -7459.3599 296.7034 -9200.7624 -7503.9532 298.8949 -335.0439 -247.1386 31006.7381 -120.2470 -52.9666
ENERGY: 600000 0.2662 3.8526 2.8828 0.0000 -10762.9458 1453.6970 0.0000 0.0000 1753.6399 -7548.6075 298.7885 -9302.2473 -7508.3696 297.5599 -171.3295 -91.0221 30455.6023 -110.8081 -40.2016
ENERGY: 900000 1.5471 4.2621 1.7485 0.0000 -10742.5320 1425.5507 0.0000 0.0000 1754.0066 -7555.4170 298.8509 -9309.4236 -7522.6977 297.0092 -205.3728 -114.9158 30364.4718 -79.2175 -10.8861
ENERGY: 1200000 3.4466 2.2304 2.5749 0.0000 -10743.1691 1435.5144 0.0000 0.0000 1710.7203 -7588.6825 291.4758 -9299.4028 -7516.3212 298.0558 -137.3552 -100.1789 30509.8302 2.0768 68.9930
ENERGY: 1500000 1.6230 3.7344 2.4224 0.0000 -10774.9328 1472.4430 0.0000 0.0000 1676.3374 -7618.3726 285.6175 -9294.7100 -7529.7061 296.4329 164.6335 261.9043 29968.1238 -46.5840 21.5445
TCL: Running FEP window  15: Lambda1 0.7000000000000001 Lambda2 0.7500000000000001 [dLambda 0.050000000000000044]
TCL: Setting parameter firsttimestep to 0
TCL: Setting parameter alchLambda to 0.7000000000000001
Info: NONBONDED TABLE R-SQUARED SPACING: 0.0625
Info: NONBONDED TABLE SIZE: 705 POINTS
TCL: Setting parameter alchLambda2 to 0.7500000000000001
Info: NONBONDED TABLE R-SQUARED SPACING: 0.0625
Info: NONBONDED TABLE SIZE: 705 POINTS
TCL: Running for 1500000 steps
ETITLE: TS BOND ANGLE DIHED IMPRP ELECT VDW BOUNDARY MISC KINETIC TOTAL TEMP POTENTIAL TOTALAVG TEMPAVG PRESSURE GPRESSURE VOLUME PRESSAVG GPRESSAVG
ENERGY: 0 1.6230 3.7344 2.4224 0.0000 -10775.2940 1472.8535 0.0000 0.0000 1675.4662 -7619.1945 285.4691 -9294.6607 -7619.1945 285.4691 182.1306 271.1268 29968.1238 182.1306 271.1268
ENERGY: 300000 0.3359 2.8136 1.2530 0.0000 -10664.0132 1414.9942 0.0000 0.0000 1797.0515 -7447.5651 306.1850 -9244.6165 -7536.9885 294.7532 -87.8676 -67.2096 30783.3408 -97.1085 -60.0251
ENERGY: 600000 1.6688 6.4286 2.7331 0.0000 -10707.5001 1441.9795 0.0000 0.0000 1762.3112 -7492.3790 300.2659 -9254.6902 -7523.8761 297.9146 30.0211 102.4694 30412.5648 108.6921 153.0835
ENERGY: 900000 0.3070 3.9264 2.3889 0.0000 -10637.6155 1398.1812 0.0000 0.0000 1776.8945 -7455.9175 302.7506 -9232.8120 -7510.9304 300.5064 -395.1821 -336.5153 30552.8000 -16.7485 32.7022
ENERGY: 1200000 0.3664 2.8169 2.2589 0.0000 -10719.4244 1435.7584 0.0000 0.0000 1770.3243 -7507.8996 301.6312 -9278.2239 -7511.4513 301.2272 -176.1704 -168.3088 30567.0370 -109.4909 -66.4000
ENERGY: 1500000 1.5814 1.7596 3.0136 0.0000 -10761.7181 1398.0175 0.0000 0.0000 1783.5736 -7573.7723 303.8886 -9357.3460 -7512.5161 301.4093 -327.7056 -233.5827 30000.7601 -156.3024 -114.8491
TCL: Running FEP window  16: Lambda1 0.7500000000000001 Lambda2 0.8000000000000002 [dLambda 0.050000000000000044]
TCL: Setting parameter firsttimestep to 0
TCL: Setting parameter alchLambda to 0.7500000000000001
Info: NONBONDED TABLE R-SQUARED SPACING: 0.0625
Info: NONBONDED TABLE SIZE: 705 POINTS
TCL: Setting parameter alchLambda2 to 0.8000000000000002
Info: NONBONDED TABLE R-SQUARED SPACING: 0.0625
Info: NONBONDED TABLE SIZE: 705 POINTS
TCL: Running for 1500000 steps
ETITLE: TS BOND ANGLE DIHED IMPRP ELECT VDW BOUNDARY MISC KINETIC TOTAL TEMP POTENTIAL TOTALAVG TEMPAVG PRESSURE GPRESSURE VOLUME PRESSAVG GPRESSAVG
ENERGY: 0 1.5814 1.7596 3.0136 0.0000 -10761.7354 1397.5763 0.0000 0.0000 1782.7115 -7575.0931 303.7417 -9357.8046 -7575.0931 303.7417 -308.2358 -229.9053 30000.7601 -308.2358 -229.9053
ENERGY: 300000 1.9660 5.5863 3.1721 0.0000 -10791.9486 1483.0543 0.0000 0.0000 1812.2313 -7485.9385 308.7714 -9298.1699 -7493.1711 304.3751 83.0747 111.4000 30752.8219 -198.7988 -154.6716
ENERGY: 600000 1.6954 1.4079 2.8412 0.0000 -10846.0943 1544.7199 0.0000 0.0000 1771.6884 -7523.7415 301.8636 -9295.4299 -7488.9194 303.3205 1142.0535 1179.6418 29675.9699 94.2960 139.6791
ENERGY: 900000 3.0137 4.2087 2.2742 0.0000 -10589.2996 1352.5081 0.0000 0.0000 1713.5490 -7513.7459 291.9577 -9227.2949 -7488.1314 302.8399 -595.6174 -580.6502 30575.3694 0.6032 43.7699
ENERGY: 1200000 0.2203 3.8796 2.1910 0.0000 -10677.2018 1416.5062 0.0000 0.0000 1719.5333 -7534.8715 292.9773 -9254.4048 -7501.4875 302.0805 1.1381 62.1126 30035.7868 -24.3906 19.2317
ENERGY: 1500000 1.2393 2.0880 2.5813 0.0000 -10719.6906 1445.7116 0.0000 0.0000 1761.9080 -7506.1625 300.1972 -9268.0705 -7495.1916 302.5792 50.9318 75.4398 30394.2646 -59.1063 -12.4004
TCL: Running FEP window  17: Lambda1 0.8000000000000002 Lambda2 0.8500000000000002 [dLambda 0.050000000000000044]
TCL: Setting parameter firsttimestep to 0
TCL: Setting parameter alchLambda to 0.8000000000000002
Info: NONBONDED TABLE R-SQUARED SPACING: 0.0625
Info: NONBONDED TABLE SIZE: 705 POINTS
TCL: Setting parameter alchLambda2 to 0.8500000000000002
Info: NONBONDED TABLE R-SQUARED SPACING: 0.0625
Info: NONBONDED TABLE SIZE: 705 POINTS
TCL: Running for 1500000 steps
ETITLE: TS BOND ANGLE DIHED IMPRP ELECT VDW BOUNDARY MISC KINETIC TOTAL TEMP POTENTIAL TOTALAVG TEMPAVG PRESSURE GPRESSURE VOLUME PRESSAVG GPRESSAVG
ENERGY: 0 1.2393 2.0880 2.5813 0.0000 -10719.8139 1446.3773 0.0000 0.0000 1761.0428 -7506.4853 300.0498 -9267.5281 -7506.4853 300.0498 1.3206 90.6574 30394.2646 1.3206 90.6574
ENERGY: 300000 2.1013 4.6507 1.6952 0.0000 -10748.9024 1412.1312 0.0000 0.0000 1809.5104 -7518.8137 308.3078 -9328.3241 -7481.9039 305.2235 -484.0553 -434.6425 30612.6041 7.1705 56.8252
ENERGY: 600000 1.0028 2.0057 3.1736 0.0000 -10739.9559 1442.6439 0.0000 0.0000 1784.8884 -7506.2415 304.1126 -9291.1299 -7484.1264 303.9300 16.3739 55.8463 30395.6311 -157.6239 -105.6112
ENERGY: 900000 0.9886 2.7378 3.1815 0.0000 -10708.7763 1423.0725 0.0000 0.0000 1736.3709 -7542.4250 295.8461 -9278.7959 -7495.4734 303.0956 -334.6256 -285.6973 30939.3325 -150.4391 -95.4617
ENERGY: 1200000 0.1327 2.3706 1.2309 0.0000 -10880.3480 1538.1333 0.0000 0.0000 1779.4725 -7559.0079 303.1899 -9338.4804 -7505.1171 302.5938 711.3887 775.0511 30231.4907 -83.0475 -22.5935
ENERGY: 1500000 2.1363 2.7709 2.3795 0.0000 -10866.8360 1569.4217 0.0000 0.0000 1772.6095 -7517.5181 302.0205 -9290.1276 -7515.1455 301.8958 791.6389 924.1259 30223.4379 -75.8510 -11.5037
TCL: Running FEP window  18: Lambda1 0.8500000000000002 Lambda2 0.9000000000000002 [dLambda 0.050000000000000044]
TCL: Setting parameter firsttimestep to 0
TCL: Setting parameter alchLambda to 0.8500000000000002
Info: NONBONDED TABLE R-SQUARED SPACING: 0.0625
Info: NONBONDED TABLE SIZE: 705 POINTS
TCL: Setting parameter alchLambda2 to 0.9000000000000002
Info: NONBONDED TABLE R-SQUARED SPACING: 0.0625
Info: NONBONDED TABLE SIZE: 705 POINTS
TCL: Running for 1500000 steps
ETITLE: TS BOND ANGLE DIHED IMPRP ELECT VDW BOUNDARY MISC KINETIC TOTAL TEMP POTENTIAL TOTALAVG TEMPAVG PRESSURE GPRESSURE VOLUME PRESSAVG GPRESSAVG
ENERGY: 0 2.1363 2.7709 2.3795 0.0000 -10867.0022 1569.8232 0.0000 0.0000 1771.6941 -7518.1981 301.8646 -9289.8922 -7518.1981 301.8646 853.1208 941.1046 30223.4379 853.1208 941.1046
ENERGY: 300000 0.6620 4.1140 2.9105 0.0000 -10697.0572 1415.0197 0.0000 0.0000 1727.2146 -7547.1363 294.2861 -9274.3509 -7541.2256 297.0030 -40.1557 46.1297 29922.5332 221.8780 296.4525
ENERGY: 600000 0.5105 3.8524 2.2015 0.0000 -10688.4563 1384.8880 0.0000 0.0000 1768.5366 -7528.4673 301.3266 -9297.0039 -7532.0747 298.2222 -541.9001 -448.4559 30306.7102 34.2911 112.2592
ENERGY: 900000 1.1481 5.1448 1.3760 0.0000 -10688.1166 1444.5382 0.0000 0.0000 1834.0846 -7401.8250 312.4948 -9235.9096 -7516.7070 300.8810 91.5026 187.1497 30592.5245 4.4883 83.6188
ENERGY: 1200000 0.1692 4.0759 1.3564 0.0000 -10701.2022 1404.7523 0.0000 0.0000 1743.9725 -7546.8759 297.1413 -9290.8485 -7519.9823 300.2073 -332.2250 -251.3299 30241.2222 98.7120 168.1447
ENERGY: 1500000 1.9230 7.5345 1.3920 0.0000 -10892.4050 1485.8268 0.0000 0.0000 1750.9468 -7644.7819 298.3296 -9395.7287 -7528.3430 299.2044 79.5721 90.8958 30090.9033 87.5069 148.5871
TCL: Running FEP window  19: Lambda1 0.9000000000000002 Lambda2 0.9500000000000003 [dLambda 0.050000000000000044]
TCL: Setting parameter firsttimestep to 0
TCL: Setting parameter alchLambda to 0.9000000000000002
Info: NONBONDED TABLE R-SQUARED SPACING: 0.0625
Info: NONBONDED TABLE SIZE: 705 POINTS
TCL: Setting parameter alchLambda2 to 0.9500000000000003
Info: NONBONDED TABLE R-SQUARED SPACING: 0.0625
Info: NONBONDED TABLE SIZE: 705 POINTS
TCL: Running for 1500000 steps
ETITLE: TS BOND ANGLE DIHED IMPRP ELECT VDW BOUNDARY MISC KINETIC TOTAL TEMP POTENTIAL TOTALAVG TEMPAVG PRESSURE GPRESSURE VOLUME PRESSAVG GPRESSAVG
ENERGY: 0 1.9230 7.5345 1.3920 0.0000 -10893.1193 1485.6812 0.0000 0.0000 1750.0889 -7646.4996 298.1834 -9396.5885 -7646.4996 298.1834 19.9810 96.5289 30090.9033 19.9810 96.5289
ENERGY: 300000 1.8390 4.0626 1.3881 0.0000 -10728.8807 1498.7355 0.0000 0.0000 1729.8779 -7492.9775 294.7399 -9222.8554 -7528.3693 299.7764 436.0005 411.9138 30634.3778 229.6027 256.5619
ENERGY: 600000 1.9346 2.6025 1.1884 0.0000 -10729.4612 1404.0839 0.0000 0.0000 1789.2068 -7530.4450 304.8484 -9319.6519 -7532.2416 298.8384 -457.7549 -396.3992 30429.8808 128.6009 180.8906
ENERGY: 900000 1.8125 5.3913 1.2467 0.0000 -10662.2402 1431.9920 0.0000 0.0000 1772.5383 -7449.2593 302.0084 -9221.7976 -7530.1131 298.2467 208.0939 267.4261 30348.0471 112.0025 160.3525
ENERGY: 1200000 0.9181 1.9130 2.6791 0.0000 -10611.8661 1427.9979 0.0000 0.0000 1747.2158 -7431.1423 297.6939 -9178.3581 -7521.0760 297.5719 29.3569 81.8053 30845.6812 172.5916 227.8769
ENERGY: 1500000 1.4070 1.8367 1.2583 0.0000 -10632.8006 1400.5514 0.0000 0.0000 1797.2696 -7430.4776 306.2222 -9227.7472 -7513.1235 298.6478 -17.4360 78.3951 30471.8526 218.9460 280.6068
TCL: Running FEP window  20: Lambda1 0.9500000000000003 Lambda2 1.0    [dLambda 0.04999999999999971]
TCL: Setting parameter firsttimestep to 0
TCL: Setting parameter alchLambda to 0.9500000000000003
Info: NONBONDED TABLE R-SQUARED SPACING: 0.0625
Info: NONBONDED TABLE SIZE: 705 POINTS
TCL: Setting parameter alchLambda2 to 1.0
Info: NONBONDED TABLE R-SQUARED SPACING: 0.0625
Info: NONBONDED TABLE SIZE: 705 POINTS
TCL: Running for 1500000 steps
ETITLE: TS BOND ANGLE DIHED IMPRP ELECT VDW BOUNDARY MISC KINETIC TOTAL TEMP POTENTIAL TOTALAVG TEMPAVG PRESSURE GPRESSURE VOLUME PRESSAVG GPRESSAVG
ENERGY: 0 1.4070 1.8367 1.2583 0.0000 -10633.4430 1400.0617 0.0000 0.0000 1796.3998 -7432.4795 306.0740 -9228.8793 -7432.4795 306.0740 -6.8933 82.1070 30471.8526 -6.8933 82.1070
ENERGY: 300000 1.0721 2.7712 1.3196 0.0000 -10676.5346 1397.6441 0.0000 0.0000 1771.0284 -7502.6992 301.7512 -9273.7276 -7528.8166 299.1758 -407.0506 -335.5547 30957.9079 -24.8317 62.4508
ENERGY: 600000 1.4754 2.5965 2.4922 0.0000 -10684.5029 1410.2087 0.0000 0.0000 1763.7669 -7503.9632 300.5139 -9267.7302 -7510.2320 300.2880 -337.9002 -279.0386 30673.3836 -88.1124 -12.3790
ENERGY: 900000 0.5464 2.2407 1.2457 0.0000 -10692.7088 1414.4449 0.0000 0.0000 1752.7218 -7521.5093 298.6320 -9274.2311 -7503.0191 301.4652 -427.9214 -323.9084 31072.0031 -73.9717 7.7547
ENERGY: 1200000 2.3957 3.6155 1.8334 0.0000 -10653.7651 1374.3841 0.0000 0.0000 1769.0879 -7502.4484 301.4205 -9271.5363 -7501.1579 300.8510 -435.6049 -363.6070 30296.7712 -71.9755 6.3998
ENERGY: 1500000 0.7672 3.5133 1.2107 0.0000 -10611.3061 1393.9786 0.0000 0.0000 1773.9387 -7437.8976 302.2470 -9211.8362 -7491.3926 300.8118 -343.0696 -296.6583 30964.6091 -38.2257 38.3270
TCL: Exiting due to exit command.
