Info: SIMULATION PARAMETERS:
Info: TIMESTEP               2
Info: NUMBER OF STEPS        0
Info: STEPS PER CYCLE        10
Info: PERIODIC CELL BASIS 1  31.7999 0 0
Info: PERIODIC CELL BASIS 2  0 30.2139 0
Info: PERIODIC CELL BASIS 3  0 0 32.0736
Info: PERIODIC CELL CENTER   0 0 0
Info: WRAPPING WATERS AROUND PERIODIC BOUNDARIES ON OUTPUT.
Info: WRAPPING ALL CLUSTERS AROUND PERIODIC BOUNDARIES ON OUTPUT.
Info: FIRST LDB TIMESTEP     50
Info: LAST LDB TIMESTEP     -1
Info: HOM BACKGROUND SCALING 1
Info: PME BACKGROUND SCALING 1
Info: MIN ATOMS PER PATCH    40
Info: EMPTY PATCH LOAD       40 ATOMS
Info: VELOCITY FILE          mobley_1792062_equil.vel
Info: CENTER OF MASS MOVING INITIALLY? NO
Info: DIELECTRIC             1
Info: EXCLUDE                SCALED ONE-FOUR
Info: 1-4 ELECTROSTATICS SCALED BY 0.833333
Info: MODIFIED 1-4 VDW PARAMETERS WILL BE USED
Info: DCD FILENAME           mobley_1792062_prod.dcd
Info: DCD FREQUENCY          100000
Info: DCD FIRST STEP         100000
Info: DCD FILE WILL CONTAIN UNIT CELL DATA
Info: XST FILENAME           mobley_1792062_prod.xst
Info: XST FREQUENCY          100000
Info: NO VELOCITY DCD OUTPUT
Info: NO FORCE DCD OUTPUT
Info: OUTPUT FILENAME        mobley_1792062_prod
Info: BINARY OUTPUT FILES WILL BE USED
Info: RESTART FILENAME       mobley_1792062_prod.restart
Info: RESTART FREQUENCY      100000
Info: BINARY RESTART FILES WILL BE USED
Info: CUTOFF                 9
Info: PAIRLIST DISTANCE      11
Info: PAIRLIST SHRINK RATE   0.01
Info: PAIRLIST GROW RATE     0.01
Info: PAIRLIST TRIGGER       0.3
Info: PAIRLISTS PER CYCLE    2
Info: PAIRLISTS ENABLED
Info: MARGIN                 2
Info: HYDROGEN GROUP CUTOFF  2.5
Info: PATCH DIMENSION        15.5
Info: ENERGY OUTPUT STEPS    100000
Info: ENERGY EVALUATION STEPS    100000
Info: OUTPUT ENERGY PRECISION 4
Info: CROSSTERM ENERGY INCLUDED IN DIHEDRAL
Info: TIMING OUTPUT STEPS    1000000
Info: PRESSURE OUTPUT STEPS  100000
Info: ALCHEMICAL FEP ON
Info: FEP CURRENT LAMBDA VALUE     0
Info: FEP COMPARISON LAMBDA VALUE  0.05
Info: FEP INTRA-ALCHEMICAL NON-BONDED INTERACTIONS WILL BE RETAINED
Info: FEP INTRA-ALCHEMICAL BONDED INTERACTIONS WILL BE RETAINED
Info: FEP VDW SHIFTING COEFFICIENT 5
Info: FEP ELEC. ACTIVE FOR ANNIHILATED PARTICLES BETWEEN LAMBDA = 0 AND LAMBDA = 0.5
Info: FEP ELEC. ACTIVE FOR EXNIHILATED PARTICLES BETWEEN LAMBDA = 0.5 AND LAMBDA = 1
Info: FEP VDW ACTIVE FOR ANNIHILATED PARTICLES BETWEEN LAMBDA = 0 AND LAMBDA = 1
Info: FEP VDW ACTIVE FOR EXNIHILATED PARTICLES BETWEEN LAMBDA = 0 AND LAMBDA = 1
Info: FEP BOND ACTIVE FOR ANNIHILATED PARTICLES BETWEEN LAMBDA = 1 AND LAMBDA = 1
Info: FEP BOND ACTIVE FOR EXNIHILATED PARTICLES BETWEEN LAMBDA = 0 AND LAMBDA = 0
Info: LANGEVIN DYNAMICS ACTIVE
Info: LANGEVIN TEMPERATURE   300
Info: LANGEVIN USING BBK INTEGRATOR
Info: LANGEVIN DAMPING COEFFICIENT IS 1 INVERSE PS
Info: LANGEVIN DYNAMICS APPLIED TO HYDROGENS
Info: LANGEVIN PISTON PRESSURE CONTROL ACTIVE
Info:        TARGET PRESSURE IS 1.01325 BAR
Info:     OSCILLATION PERIOD IS 50 FS
Info:             DECAY TIME IS 25 FS
Info:     PISTON TEMPERATURE IS 300 K
Info:       PRESSURE CONTROL IS GROUP-BASED
Info:    INITIAL STRAIN RATE IS -9.33051e-05 -9.33051e-05 -9.33051e-05
Info:       CELL FLUCTUATION IS ISOTROPIC
Info: PARTICLE MESH EWALD (PME) ACTIVE
Info: PME TOLERANCE               1e-06
Info: PME EWALD COEFFICIENT       0.348832
Info: PME INTERPOLATION ORDER     4
Info: PME GRID DIMENSIONS         32 32 36
Info: PME MAXIMUM GRID SPACING    1
Info: PME CALCULATION WILL BE PERFORMED ON GPU
Info: FULL ELECTROSTATIC EVALUATION FREQUENCY      2
Info: USING VERLET I (r-RESPA) MTS SCHEME.
Info: C1 SPLITTING OF LONG RANGE ELECTROSTATICS
Info: PLACING ATOMS IN PATCHES BY HYDROGEN GROUPS
Info: RIGID BONDS TO HYDROGEN : ALL
Info:         ERROR TOLERANCE : 1e-08
Info:          MAX ITERATIONS : 100
Info: RIGID WATER USING SETTLE ALGORITHM
Info: RANDOM NUMBER SEED     1743669563
Info: USE HYDROGEN BONDS?    NO
Info: Using AMBER format force field!
Info: AMBER PARM FILE        mobley_1792062.prmtop
Info: COORDINATE PDB         mobley_1792062.pdb
Info: Exclusions will be read from PARM file!
Info: SCNB (VDW SCALING)     2
Info: USING ARITHMETIC MEAN TO COMBINE L-J SIGMA PARAMETERS
Info: BINARY COORDINATES     mobley_1792062_equil.coor
Info: SUMMARY OF PARAMETERS:
Info: 5 BONDS
Info: 4 ANGLES
Info:   4 HARMONIC
Info:   0 COSINE-BASED
Info: 4 DIHEDRAL
Info: 0 IMPROPER
Info: 0 CROSSTERM
Info: 0 VDW
Info: 15 VDW_PAIRS
Info: 0 NBTHOLE_PAIRS
Info: To read alchdata from file: mobley_1792062.pdb
Info: To read alchflag data from column: 5
Info: STRUCTURE SUMMARY:
Info: 2957 ATOMS
Info: 2956 BONDS
Info: 12 ANGLES
Info: 14 DIHEDRALS
Info: 0 IMPROPERS
Info: 0 CROSSTERMS
Info: 2977 EXCLUSIONS
Info: 2953 RIGID BONDS
Info: ALCH: 0 ATOMS TO DISAPPEAR IN FINAL STATE
Info: ALCH: 8 ATOMS TO APPEAR IN FINAL STATE
Info: 5918 DEGREES OF FREEDOM
Info: 987 HYDROGEN GROUPS
Info: 3 ATOMS IN LARGEST HYDROGEN GROUP
Info: 987 MIGRATION GROUPS
Info: 3 ATOMS IN LARGEST MIGRATION GROUP
Info: TOTAL MASS = 17897.6 amu
Info: TOTAL CHARGE = 0.000200002 e
Info: MASS DENSITY = 0.964437 g/cm^3
Info: ATOM DENSITY = 0.0959559 atoms/A^3
Info: ADDED 0 IMPLICIT EXCLUSIONS
Info: NONBONDED TABLE R-SQUARED SPACING: 0.0625
Info: NONBONDED TABLE SIZE: 705 POINTS
Info: REMOVING COM VELOCITY 0.126131 -0.0644674 -0.0912559
Info: Use 3D box decompostion in PME FFT.
Info: Updated CUDA force table with 4096 elements.
Info: Updated CUDA LJ table with 5 x 5 elements.
Info: Found 11 unique exclusion lists needing 16 bytes
TCL: Running for 1500000 steps
ETITLE: TS BOND ANGLE DIHED IMPRP ELECT VDW BOUNDARY MISC KINETIC TOTAL TEMP POTENTIAL TOTALAVG TEMPAVG PRESSURE GPRESSURE VOLUME PRESSAVG GPRESSAVG
ENERGY: 0 0.7476 2.9731 1.4868 0.0000 -10750.0127 1518.3716 0.0000 0.0000 1732.5763 -7493.8572 294.6509 -9226.4335 -7493.8572 294.6509 513.8489 586.6343 30816.2411 513.8489 586.6343
ENERGY: 300000 0.8785 3.2680 3.1478 0.0000 -10693.0767 1357.4456 0.0000 0.0000 1778.9416 -7549.3952 302.5360 -9328.3368 -7520.2991 302.2510 -962.3172 -861.5603 30435.3462 -50.1431 21.1328
ENERGY: 600000 0.6341 3.1105 3.1795 0.0000 -10857.8860 1483.3723 0.0000 0.0000 1741.8934 -7625.6963 296.2354 -9367.5897 -7528.0423 302.3490 217.7398 349.2879 29992.4922 -4.0809 74.8109
ENERGY: 900000 0.7531 1.7681 1.9764 0.0000 -10774.1853 1469.8136 0.0000 0.0000 1752.5266 -7547.3475 298.0438 -9299.8741 -7520.2332 301.9582 228.6408 304.8903 30024.1807 79.7201 150.0729
ENERGY: 1200000 0.1699 1.6464 3.2404 0.0000 -10764.3968 1408.7287 0.0000 0.0000 1805.4402 -7545.1711 307.0425 -9350.6113 -7521.1039 302.0025 -718.8352 -608.3743 30998.6712 25.5668 94.0386
ENERGY: 1500000 0.4168 2.7658 1.6399 0.0000 -10880.4212 1492.8879 0.0000 0.0000 1715.8793 -7666.8315 291.8113 -9382.7108 -7533.3379 301.1087 113.4161 190.4271 29914.7326 0.1582 69.8995
TCL: Running FEP window   2: Lambda1 0.05   Lambda2 0.1    [dLambda 0.05  ]
TCL: Setting parameter firsttimestep to 0
TCL: Setting parameter alchLambda to 0.05
Info: NONBONDED TABLE R-SQUARED SPACING: 0.0625
Info: NONBONDED TABLE SIZE: 705 POINTS
TCL: Setting parameter alchLambda2 to 0.1
Info: NONBONDED TABLE R-SQUARED SPACING: 0.0625
Info: NONBONDED TABLE SIZE: 705 POINTS
TCL: Running for 1500000 steps
ETITLE: TS BOND ANGLE DIHED IMPRP ELECT VDW BOUNDARY MISC KINETIC TOTAL TEMP POTENTIAL TOTALAVG TEMPAVG PRESSURE GPRESSURE VOLUME PRESSAVG GPRESSAVG
ENERGY: 0 0.4168 2.7658 1.6399 0.0000 -10880.4205 1494.4908 0.0000 0.0000 1714.9987 -7666.1085 291.6616 -9381.1072 -7666.1085 291.6616 112.4330 194.0805 29914.7326 112.4330 194.0805
ENERGY: 300000 0.7251 4.3710 2.2174 0.0000 -10765.2379 1463.2815 0.0000 0.0000 1738.9247 -7555.7182 295.7306 -9294.6429 -7568.6115 296.8303 -16.9910 30.7812 30488.9065 -19.9402 29.1169
ENERGY: 600000 1.7053 2.8211 3.6254 0.0000 -10665.8231 1397.4861 0.0000 0.0000 1773.5640 -7486.6212 301.6215 -9260.1852 -7542.0150 297.9973 -187.8045 -193.4201 30029.3085 -114.3109 -83.4221
ENERGY: 900000 0.9074 2.4675 1.9959 0.0000 -10762.1168 1418.4150 0.0000 0.0000 1774.9248 -7563.4062 301.8529 -9338.3310 -7529.7079 299.6283 -384.0967 -286.7878 30401.3880 -180.7648 -142.8592
ENERGY: 1200000 1.1304 4.5733 1.6315 0.0000 -10664.5051 1415.8794 0.0000 0.0000 1764.5503 -7476.7401 300.0886 -9241.2904 -7512.7701 299.4248 -414.0050 -355.6255 30713.7557 -185.4153 -142.0120
ENERGY: 1500000 0.0155 2.8214 1.7029 0.0000 -10563.4111 1310.9727 0.0000 0.0000 1779.0026 -7468.8959 302.5464 -9247.8985 -7512.0297 300.0874 -898.9388 -821.1862 30298.3245 -264.8245 -217.9259
TCL: Running FEP window   3: Lambda1 0.1    Lambda2 0.15000000000000002 [dLambda 0.05000000000000002]
TCL: Setting parameter firsttimestep to 0
TCL: Setting parameter alchLambda to 0.1
Info: NONBONDED TABLE R-SQUARED SPACING: 0.0625
Info: NONBONDED TABLE SIZE: 705 POINTS
TCL: Setting parameter alchLambda2 to 0.15000000000000002
Info: NONBONDED TABLE R-SQUARED SPACING: 0.0625
Info: NONBONDED TABLE SIZE: 705 POINTS
TCL: Running for 1500000 steps
ETITLE: TS BOND ANGLE DIHED IMPRP ELECT VDW BOUNDARY MISC KINETIC TOTAL TEMP POTENTIAL TOTALAVG TEMPAVG PRESSURE GPRESSURE VOLUME PRESSAVG GPRESSAVG
ENERGY: 0 0.0155 2.8214 1.7029 0.0000 -10563.4121 1313.4541 0.0000 0.0000 1778.0884 -7467.3297 302.3909 -9245.4182 -7467.3297 302.3909 -885.4961 -811.1134 30298.3245 -885.4961 -811.1134
ENERGY: 300000 2.9126 2.8173 1.7846 0.0000 -10678.5180 1421.5152 0.0000 0.0000 1759.0926 -7490.3957 299.1604 -9249.4883 -7486.0297 302.6257 -43.0120 62.5307 30283.7209 10.4946 88.4543
ENERGY: 600000 0.4278 3.4159 2.9293 0.0000 -10618.0435 1454.2220 0.0000 0.0000 1739.5027 -7417.5458 295.8289 -9157.0485 -7483.4483 300.9158 516.6501 580.3361 30371.3495 121.7477 196.5906
ENERGY: 900000 0.7761 3.9756 1.6072 0.0000 -10679.8145 1413.1873 0.0000 0.0000 1746.1428 -7514.1254 296.9581 -9260.2683 -7491.5074 300.3979 -230.1796 -49.9300 30223.1131 11.0452 89.1392
ENERGY: 1200000 1.4608 3.9600 3.5479 0.0000 -10563.7496 1422.4266 0.0000 0.0000 1789.5399 -7342.8144 304.3384 -9132.3543 -7478.1574 300.4396 66.2374 88.6333 30664.4690 -133.0749 -57.0746
ENERGY: 1500000 0.3713 4.1283 1.8461 0.0000 -10922.2652 1556.6733 0.0000 0.0000 1780.5501 -7578.6961 302.8096 -9359.2463 -7493.6768 300.5534 783.7184 805.6254 30208.0905 79.0069 149.1828
TCL: Running FEP window   4: Lambda1 0.15000000000000002 Lambda2 0.2    [dLambda 0.04999999999999999]
TCL: Setting parameter firsttimestep to 0
TCL: Setting parameter alchLambda to 0.15000000000000002
Info: NONBONDED TABLE R-SQUARED SPACING: 0.0625
Info: NONBONDED TABLE SIZE: 705 POINTS
TCL: Setting parameter alchLambda2 to 0.2
Info: NONBONDED TABLE R-SQUARED SPACING: 0.0625
Info: NONBONDED TABLE SIZE: 705 POINTS
TCL: Running for 1500000 steps
ETITLE: TS BOND ANGLE DIHED IMPRP ELECT VDW BOUNDARY MISC KINETIC TOTAL TEMP POTENTIAL TOTALAVG TEMPAVG PRESSURE GPRESSURE VOLUME PRESSAVG GPRESSAVG
ENERGY: 0 0.3713 4.1283 1.8461 0.0000 -10922.2654 1557.5026 0.0000 0.0000 1779.6698 -7578.7474 302.6599 -9358.4171 -7578.7474 302.6599 728.2454 810.8957 30208.0905 728.2454 810.8957
ENERGY: 300000 1.0158 4.7556 3.0480 0.0000 -10671.5793 1407.1117 0.0000 0.0000 1745.7654 -7509.8827 296.8939 -9255.6481 -7538.5439 297.9641 -176.5193 -80.6580 30078.8464 17.2176 114.2509
ENERGY: 600000 0.6542 3.6176 1.5982 0.0000 -10678.3560 1395.7690 0.0000 0.0000 1749.5612 -7527.1557 297.5395 -9276.7170 -7539.0816 298.3042 -617.4163 -534.4784 30905.9223 -42.4241 55.5063
ENERGY: 900000 0.4965 4.3414 2.0011 0.0000 -10815.8014 1549.1946 0.0000 0.0000 1774.8335 -7484.9343 301.8374 -9259.7678 -7524.4611 299.7860 915.5350 989.3078 30349.0551 123.7552 219.6404
ENERGY: 1200000 0.5994 6.3379 3.4497 0.0000 -10780.3862 1448.7878 0.0000 0.0000 1764.3856 -7556.8258 300.0606 -9321.2113 -7528.2699 299.9837 66.4567 195.7317 29908.5682 83.3478 175.5640
ENERGY: 1500000 0.4818 2.6356 3.2065 0.0000 -10610.7388 1421.5603 0.0000 0.0000 1788.8129 -7394.0416 304.2148 -9182.8545 -7514.5943 300.5771 65.0206 96.0611 30518.5536 41.2775 125.5411
TCL: Running FEP window   5: Lambda1 0.2    Lambda2 0.25   [dLambda 0.04999999999999999]
TCL: Setting parameter firsttimestep to 0
TCL: Setting parameter alchLambda to 0.2
Info: NONBONDED TABLE R-SQUARED SPACING: 0.0625
Info: NONBONDED TABLE SIZE: 705 POINTS
TCL: Setting parameter alchLambda2 to 0.25
Info: NONBONDED TABLE R-SQUARED SPACING: 0.0625
Info: NONBONDED TABLE SIZE: 705 POINTS
TCL: Running for 1500000 steps
ETITLE: TS BOND ANGLE DIHED IMPRP ELECT VDW BOUNDARY MISC KINETIC TOTAL TEMP POTENTIAL TOTALAVG TEMPAVG PRESSURE GPRESSURE VOLUME PRESSAVG GPRESSAVG
ENERGY: 0 0.4818 2.6356 3.2065 0.0000 -10610.7386 1421.5639 0.0000 0.0000 1787.9569 -7394.8939 304.0692 -9182.8508 -7394.8939 304.0692 22.3928 98.9874 30518.5536 22.3928 98.9874
ENERGY: 300000 0.5909 5.2684 4.1122 0.0000 -10761.0253 1443.9357 0.0000 0.0000 1793.1568 -7513.9613 304.9535 -9307.1181 -7498.7515 303.0313 193.8499 181.5854 29837.6743 217.3639 238.1936
ENERGY: 600000 1.6675 1.0542 2.1200 0.0000 -10590.0192 1365.5744 0.0000 0.0000 1692.0723 -7527.5307 287.7626 -9219.6030 -7506.0358 300.0771 -552.2746 -482.4193 30448.0051 29.2119 84.0182
ENERGY: 900000 1.1833 3.2729 1.6765 0.0000 -10782.4149 1558.8374 0.0000 0.0000 1777.3152 -7440.1297 302.2595 -9217.4449 -7513.3999 298.3482 1065.1868 1068.6743 30615.3810 140.8519 192.6688
ENERGY: 1200000 0.2740 3.5178 1.8497 0.0000 -10800.6780 1447.6449 0.0000 0.0000 1870.8540 -7476.5376 318.1671 -9347.3916 -7512.4864 299.8309 29.4350 116.8367 30010.6050 154.7494 203.6142
ENERGY: 1500000 0.6156 4.0997 3.9157 0.0000 -10810.9159 1520.8982 0.0000 0.0000 1817.3853 -7464.0015 309.0740 -9281.3868 -7506.8567 300.3943 556.9749 612.5309 30499.2451 132.6321 177.0351
TCL: Running FEP window   6: Lambda1 0.25   Lambda2 0.3    [dLambda 0.04999999999999999]
TCL: Setting parameter firsttimestep to 0
TCL: Setting parameter alchLambda to 0.25
Info: NONBONDED TABLE R-SQUARED SPACING: 0.0625
Info: NONBONDED TABLE SIZE: 705 POINTS
TCL: Setting parameter alchLambda2 to 0.3
Info: NONBONDED TABLE R-SQUARED SPACING: 0.0625
Info: NONBONDED TABLE SIZE: 705 POINTS
TCL: Running for 1500000 steps
ETITLE: TS BOND ANGLE DIHED IMPRP ELECT VDW BOUNDARY MISC KINETIC TOTAL TEMP POTENTIAL TOTALAVG TEMPAVG PRESSURE GPRESSURE VOLUME PRESSAVG GPRESSAVG
ENERGY: 0 0.6156 4.0997 3.9157 0.0000 -10810.9154 1522.0396 0.0000 0.0000 1816.5000 -7463.7449 308.9234 -9280.2449 -7463.7449 308.9234 539.0827 619.6210 30499.2451 539.0827 619.6210
ENERGY: 300000 0.2047 4.9287 3.4270 0.0000 -10773.0780 1425.9201 0.0000 0.0000 1705.6806 -7632.9170 290.0769 -9338.5976 -7535.9537 297.7426 -347.3185 -371.7846 30477.5046 145.8797 162.6179
ENERGY: 600000 1.4182 3.7651 4.0404 0.0000 -10805.7104 1497.3339 0.0000 0.0000 1673.9885 -7625.1643 284.6872 -9299.1528 -7551.8653 295.6002 242.2512 254.2518 30279.1092 135.1522 173.0733
ENERGY: 900000 0.3879 2.7904 3.2371 0.0000 -10780.7599 1457.3547 0.0000 0.0000 1742.7733 -7574.2164 296.3851 -9316.9898 -7547.8412 296.6483 -37.4096 24.1854 30500.5424 64.7890 114.6957
ENERGY: 1200000 0.9597 3.6933 3.7838 0.0000 -10720.2004 1475.1571 0.0000 0.0000 1792.7406 -7443.8660 304.8828 -9236.6066 -7527.9703 298.4515 520.2309 522.1291 30250.2213 25.7222 75.0018
ENERGY: 1500000 2.2935 1.9320 3.9145 0.0000 -10831.0680 1501.6794 0.0000 0.0000 1714.3949 -7606.8536 291.5589 -9321.2486 -7535.7057 298.3940 373.4605 472.1178 30395.3451 79.6306 138.6260
TCL: Running FEP window   7: Lambda1 0.3    Lambda2 0.35   [dLambda 0.04999999999999999]
TCL: Setting parameter firsttimestep to 0
TCL: Setting parameter alchLambda to 0.3
Info: NONBONDED TABLE R-SQUARED SPACING: 0.0625
Info: NONBONDED TABLE SIZE: 705 POINTS
TCL: Setting parameter alchLambda2 to 0.35
Info: NONBONDED TABLE R-SQUARED SPACING: 0.0625
Info: NONBONDED TABLE SIZE: 705 POINTS
TCL: Running for 1500000 steps
ETITLE: TS BOND ANGLE DIHED IMPRP ELECT VDW BOUNDARY MISC KINETIC TOTAL TEMP POTENTIAL TOTALAVG TEMPAVG PRESSURE GPRESSURE VOLUME PRESSAVG GPRESSAVG
ENERGY: 0 2.2935 1.9320 3.9145 0.0000 -10831.0679 1501.1260 0.0000 0.0000 1713.5240 -7608.2778 291.4108 -9321.8018 -7608.2778 291.4108 374.6984 467.7217 30395.3451 374.6984 467.7217
ENERGY: 300000 0.8559 4.4253 3.2918 0.0000 -10612.0679 1364.6611 0.0000 0.0000 1837.2497 -7401.5840 312.4522 -9238.8338 -7497.9803 300.7518 -722.3196 -646.5777 30950.0766 -402.1017 -342.2613
ENERGY: 600000 4.3846 3.9727 2.4117 0.0000 -10702.5172 1449.8993 0.0000 0.0000 1710.0475 -7531.8014 290.8195 -9241.8489 -7513.5355 299.1723 319.3909 432.2339 30279.1191 -139.8212 -64.6330
ENERGY: 900000 1.1439 3.0405 1.6860 0.0000 -10776.4532 1467.9389 0.0000 0.0000 1822.7196 -7479.9243 309.9812 -9302.6439 -7514.1567 300.5474 94.7873 205.3952 30427.0877 -94.4768 -19.6483
ENERGY: 1200000 3.2212 3.2660 3.3659 0.0000 -10764.4196 1494.3547 0.0000 0.0000 1722.2570 -7537.9549 292.8960 -9260.2119 -7512.3921 300.4005 597.6544 609.4807 30170.2516 -100.1015 -29.0628
ENERGY: 1500000 0.6853 4.3584 3.3298 0.0000 -10681.1942 1410.7738 0.0000 0.0000 1792.8161 -7469.2306 304.8956 -9262.0467 -7516.9832 300.4616 -187.7823 -90.8334 30486.3593 -132.7515 -51.5177
TCL: Running FEP window   8: Lambda1 0.35   Lambda2 0.39999999999999997 [dLambda 0.04999999999999999]
TCL: Setting parameter firsttimestep to 0
TCL: Setting parameter alchLambda to 0.35
Info: NONBONDED TABLE R-SQUARED SPACING: 0.0625
Info: NONBONDED TABLE SIZE: 705 POINTS
TCL: Setting parameter alchLambda2 to 0.39999999999999997
Info: NONBONDED TABLE R-SQUARED SPACING: 0.0625
Info: NONBONDED TABLE SIZE: 705 POINTS
TCL: Running for 1500000 steps
ETITLE: TS BOND ANGLE DIHED IMPRP ELECT VDW BOUNDARY MISC KINETIC TOTAL TEMP POTENTIAL TOTALAVG TEMPAVG PRESSURE GPRESSURE VOLUME PRESSAVG GPRESSAVG
ENERGY: 0 0.6853 4.3584 3.3298 0.0000 -10681.1953 1411.2424 0.0000 0.0000 1791.9459 -7469.6334 304.7476 -9261.5793 -7469.6334 304.7476 -163.5808 -85.7422 30486.3593 -163.5808 -85.7422
ENERGY: 300000 0.9650 1.6288 1.5916 0.0000 -10738.3750 1436.6839 0.0000 0.0000 1785.6262 -7511.8795 303.6728 -9297.5057 -7493.3604 302.3883 -206.3620 -170.1428 30400.7278 -142.8034 -93.2237
ENERGY: 600000 3.2464 0.9456 1.7283 0.0000 -10837.0138 1522.3923 0.0000 0.0000 1804.8515 -7503.8496 306.9424 -9308.7012 -7486.0990 304.0662 464.7893 502.9167 30356.2399 -8.3310 45.5213
ENERGY: 900000 0.2358 3.5457 3.8440 0.0000 -10879.0010 1532.1046 0.0000 0.0000 1809.0737 -7530.1973 307.6605 -9339.2710 -7506.4873 302.2993 790.3266 877.8247 29898.1980 62.1635 113.6686
ENERGY: 1200000 0.5949 3.2406 2.9973 0.0000 -10717.9673 1448.2765 0.0000 0.0000 1787.1529 -7475.7052 303.9325 -9262.8581 -7505.6332 302.0529 198.6859 239.8269 30271.4802 172.6305 227.3259
ENERGY: 1500000 0.3478 4.3310 3.5909 0.0000 -10828.8082 1477.5553 0.0000 0.0000 1729.1460 -7613.8372 294.0675 -9342.9832 -7510.3273 301.2043 -7.0321 36.5624 30492.8390 94.1188 149.0713
TCL: Running FEP window   9: Lambda1 0.39999999999999997 Lambda2 0.44999999999999996 [dLambda 0.04999999999999999]
TCL: Setting parameter firsttimestep to 0
TCL: Setting parameter alchLambda to 0.39999999999999997
Info: NONBONDED TABLE R-SQUARED SPACING: 0.0625
Info: NONBONDED TABLE SIZE: 705 POINTS
TCL: Setting parameter alchLambda2 to 0.44999999999999996
Info: NONBONDED TABLE R-SQUARED SPACING: 0.0625
Info: NONBONDED TABLE SIZE: 705 POINTS
TCL: Running for 1500000 steps
ETITLE: TS BOND ANGLE DIHED IMPRP ELECT VDW BOUNDARY MISC KINETIC TOTAL TEMP POTENTIAL TOTALAVG TEMPAVG PRESSURE GPRESSURE VOLUME PRESSAVG GPRESSAVG
ENERGY: 0 0.3478 4.3310 3.5909 0.0000 -10828.8085 1477.8679 0.0000 0.0000 1728.2169 -7614.4539 293.9095 -9342.6709 -7614.4539 293.9095 -44.6290 44.9969 30492.8390 -44.6290 44.9969
ENERGY: 300000 0.6814 3.6067 2.4119 0.0000 -10664.6421 1378.0269 0.0000 0.0000 1798.0786 -7481.8366 305.7906 -9279.9152 -7497.8481 302.8046 -382.0407 -328.7900 30526.5324 171.1701 247.7471
ENERGY: 600000 0.6605 7.1949 1.7916 0.0000 -10802.2460 1441.6459 0.0000 0.0000 1805.8449 -7545.1081 307.1114 -9350.9531 -7512.2208 302.0048 -136.6058 -82.6346 30619.8784 2.1615 66.3129
ENERGY: 900000 0.3344 2.7397 1.9466 0.0000 -10720.5232 1420.6196 0.0000 0.0000 1736.9370 -7557.9460 295.3925 -9294.8830 -7522.1215 302.1508 -264.3479 -181.3607 30586.5099 -123.4096 -53.2192
ENERGY: 1200000 0.2083 3.0535 1.6515 0.0000 -10711.1500 1446.9926 0.0000 0.0000 1724.4643 -7534.7798 293.2713 -9259.2441 -7535.1396 300.4648 -37.4963 -1.2540 30714.0796 -83.8835 -11.6934
ENERGY: 1500000 0.9201 5.3401 2.5688 0.0000 -10890.6623 1483.3405 0.0000 0.0000 1828.0570 -7570.4359 310.8889 -9398.4929 -7543.9636 300.9222 17.4913 133.9780 29941.6475 -49.0812 25.7904
TCL: Running FEP window  10: Lambda1 0.44999999999999996 Lambda2 0.49999999999999994 [dLambda 0.04999999999999999]
TCL: Setting parameter firsttimestep to 0
TCL: Setting parameter alchLambda to 0.44999999999999996
Info: NONBONDED TABLE R-SQUARED SPACING: 0.0625
Info: NONBONDED TABLE SIZE: 705 POINTS
TCL: Setting parameter alchLambda2 to 0.49999999999999994
Info: NONBONDED TABLE R-SQUARED SPACING: 0.0625
Info: NONBONDED TABLE SIZE: 705 POINTS
TCL: Running for 1500000 steps
ETITLE: TS BOND ANGLE DIHED IMPRP ELECT VDW BOUNDARY MISC KINETIC TOTAL TEMP POTENTIAL TOTALAVG TEMPAVG PRESSURE GPRESSURE VOLUME PRESSAVG GPRESSAVG
ENERGY: 0 0.9201 5.3401 2.5688 0.0000 -10890.6625 1483.1155 0.0000 0.0000 1827.1747 -7571.5434 310.7388 -9398.7180 -7571.5434 310.7388 55.6813 138.3714 29941.6475 55.6813 138.3714
ENERGY: 300000 0.3350 2.1458 1.8709 0.0000 -10650.5592 1368.4584 0.0000 0.0000 1821.9587 -7455.7905 309.8517 -9277.7491 -7562.8416 302.3760 -636.9706 -575.3186 30663.0169 -194.0579 -107.9958
ENERGY: 600000 0.8123 4.1962 3.2839 0.0000 -10801.9635 1447.3446 0.0000 0.0000 1728.5457 -7617.7808 293.9654 -9346.3265 -7528.5208 301.9197 45.1506 32.7610 30319.2408 -129.7562 -70.7087
ENERGY: 900000 0.8599 3.3423 3.1809 0.0000 -10904.1021 1532.7915 0.0000 0.0000 1799.5107 -7564.4168 306.0341 -9363.9275 -7543.6015 301.7010 401.3707 477.8636 30460.3705 -66.7820 1.5351
ENERGY: 1200000 1.3440 2.4352 2.1191 0.0000 -10650.9428 1357.1562 0.0000 0.0000 1772.8391 -7515.0491 301.4982 -9287.8882 -7529.1029 301.9850 -890.1836 -773.1803 30740.5077 -206.4617 -140.9879
ENERGY: 1500000 2.0464 3.1475 3.3864 0.0000 -10685.0983 1374.4819 0.0000 0.0000 1749.5273 -7552.5087 297.5337 -9302.0360 -7533.6550 300.7612 -691.6366 -614.4203 30346.7738 -224.6627 -156.2051
TCL: Running FEP window  11: Lambda1 0.49999999999999994 Lambda2 0.5499999999999999 [dLambda 0.04999999999999999]
TCL: Setting parameter firsttimestep to 0
TCL: Setting parameter alchLambda to 0.49999999999999994
Info: NONBONDED TABLE R-SQUARED SPACING: 0.0625
Info: NONBONDED TABLE SIZE: 705 POINTS
TCL: Setting parameter alchLambda2 to 0.5499999999999999
Info: NONBONDED TABLE R-SQUARED SPACING: 0.0625
Info: NONBONDED TABLE SIZE: 705 POINTS
TCL: Running for 1500000 steps
ETITLE: TS BOND ANGLE DIHED IMPRP ELECT VDW BOUNDARY MISC KINETIC TOTAL TEMP POTENTIAL TOTALAVG TEMPAVG PRESSURE GPRESSURE VOLUME PRESSAVG GPRESSAVG
ENERGY: 0 2.0464 3.1475 3.3864 0.0000 -10685.0988 1374.6016 0.0000 0.0000 1748.6540 -7553.2629 297.3852 -9301.9168 -7553.2629 297.3852 -688.6401 -608.5525 30346.7738 -688.6401 -608.5525
ENERGY: 300000 0.8624 5.1167 2.4488 0.0000 -10717.6070 1420.0208 0.0000 0.0000 1780.3866 -7508.7718 302.7818 -9289.1584 -7520.0850 301.2672 -373.8939 -284.3307 30386.5554 -426.3617 -361.0259
ENERGY: 600000 1.7713 2.8220 1.6253 0.0000 -10843.0484 1502.9064 0.0000 0.0000 1700.5834 -7633.3400 289.2100 -9333.9235 -7533.3128 300.1510 -39.5105 -45.2289 30820.7587 -222.5335 -172.6887
ENERGY: 900000 0.3385 3.8647 2.7188 0.0000 -10562.2925 1325.4669 0.0000 0.0000 1729.1424 -7500.7613 294.0669 -9229.9037 -7534.1222 299.1723 -680.9649 -618.6426 30397.0992 -273.4080 -222.5440
ENERGY: 1200000 0.3489 1.6581 1.7241 0.0000 -10837.1834 1496.7350 0.0000 0.0000 1710.9369 -7625.7804 290.9708 -9336.7174 -7532.9679 299.7760 268.3661 294.1487 30341.7782 -160.1654 -112.3199
ENERGY: 1500000 0.9790 4.2270 3.3034 0.0000 -10671.2176 1428.4855 0.0000 0.0000 1797.0460 -7437.1766 305.6150 -9234.2226 -7523.5669 301.0442 -211.9085 -170.0829 30987.8353 -124.6252 -81.5354
TCL: Running FEP window  12: Lambda1 0.5499999999999999 Lambda2 0.6    [dLambda 0.050000000000000044]
TCL: Setting parameter firsttimestep to 0
TCL: Setting parameter alchLambda to 0.5499999999999999
Info: NONBONDED TABLE R-SQUARED SPACING: 0.0625
Info: NONBONDED TABLE SIZE: 705 POINTS
TCL: Setting parameter alchLambda2 to 0.6
Info: NONBONDED TABLE R-SQUARED SPACING: 0.0625
Info: NONBONDED TABLE SIZE: 705 POINTS
TCL: Running for 1500000 steps
ETITLE: TS BOND ANGLE DIHED IMPRP ELECT VDW BOUNDARY MISC KINETIC TOTAL TEMP POTENTIAL TOTALAVG TEMPAVG PRESSURE GPRESSURE VOLUME PRESSAVG GPRESSAVG
ENERGY: 0 0.9790 4.2270 3.3034 0.0000 -10671.1408 1428.4378 0.0000 0.0000 1796.1995 -7437.9940 305.4710 -9234.1935 -7437.9940 305.4710 -229.4717 -163.5763 30987.8353 -229.4717 -163.5763
ENERGY: 300000 0.5338 3.4914 2.2823 0.0000 -10851.2596 1526.9042 0.0000 0.0000 1807.1335 -7510.9145 307.3305 -9318.0480 -7486.0676 303.6879 440.3934 507.0827 30638.3006 -172.0223 -129.8181
ENERGY: 600000 3.0896 2.4923 1.9710 0.0000 -10694.0277 1421.7750 0.0000 0.0000 1799.0081 -7465.6917 305.9487 -9264.6998 -7494.9205 302.3278 70.7897 139.0164 30193.9653 -314.8786 -259.2510
ENERGY: 900000 0.2120 1.1577 3.1465 0.0000 -10763.1651 1444.1132 0.0000 0.0000 1790.1896 -7524.3461 304.4489 -9314.5358 -7497.5278 301.9566 66.9615 139.4550 30110.2809 -229.2442 -167.1523
ENERGY: 1200000 1.2118 3.1162 2.4829 0.0000 -10715.3169 1422.6670 0.0000 0.0000 1773.1980 -7512.6411 301.5592 -9285.8390 -7508.8592 300.4293 -403.0483 -380.5223 30989.2870 -248.0138 -190.1053
ENERGY: 1500000 0.5744 3.2562 3.2058 0.0000 -10745.3363 1439.2711 0.0000 0.0000 1790.6721 -7508.3566 304.5310 -9299.0287 -7512.5054 301.0060 118.1384 167.5859 30190.1967 -212.6493 -150.7872
TCL: Running FEP window  13: Lambda1 0.6    Lambda2 0.65   [dLambda 0.050000000000000044]
TCL: Setting parameter firsttimestep to 0
TCL: Setting parameter alchLambda to 0.6
Info: NONBONDED TABLE R-SQUARED SPACING: 0.0625
Info: NONBONDED TABLE SIZE: 705 POINTS
TCL: Setting parameter alchLambda2 to 0.65
Info: NONBONDED TABLE R-SQUARED SPACING: 0.0625
Info: NONBONDED TABLE SIZE: 705 POINTS
TCL: Running for 1500000 steps
ETITLE: TS BOND ANGLE DIHED IMPRP ELECT VDW BOUNDARY MISC KINETIC TOTAL TEMP POTENTIAL TOTALAVG TEMPAVG PRESSURE GPRESSURE VOLUME PRESSAVG GPRESSAVG
ENERGY: 0 0.5744 3.2562 3.2058 0.0000 -10745.3141 1439.2788 0.0000 0.0000 1789.7762 -7509.2226 304.3786 -9298.9988 -7509.2226 304.3786 95.4361 176.1948 30190.1967 95.4361 176.1948
ENERGY: 300000 0.4557 1.9760 3.3053 0.0000 -10701.1488 1408.1896 0.0000 0.0000 1725.7509 -7561.4712 293.4901 -9287.2221 -7529.8415 302.5624 -608.0575 -531.0433 30892.7545 -69.6228 -5.6030
ENERGY: 600000 0.0596 1.4929 3.2105 0.0000 -10689.1994 1384.4138 0.0000 0.0000 1776.0826 -7523.9400 302.0498 -9300.0226 -7515.6985 303.1532 -173.4946 -119.2725 29941.9189 -28.7490 47.5818
ENERGY: 900000 0.1438 3.6568 1.8916 0.0000 -10652.9731 1408.6433 0.0000 0.0000 1747.3388 -7491.2987 297.1615 -9238.6376 -7520.1199 302.1794 -230.2233 -151.6610 30649.4917 -39.6071 36.1646
ENERGY: 1200000 0.9750 6.3943 1.6853 0.0000 -10770.7477 1466.7070 0.0000 0.0000 1768.1611 -7526.8250 300.7026 -9294.9861 -7508.8139 302.1899 -87.6748 57.2270 30935.7915 0.7529 81.6721
ENERGY: 1500000 0.0465 5.5830 3.1929 0.0000 -10558.2854 1318.6680 0.0000 0.0000 1763.2743 -7467.5206 299.8716 -9230.7949 -7504.5615 302.2734 -1085.9239 -968.4814 30970.6155 -51.0058 35.4044
TCL: Running FEP window  14: Lambda1 0.65   Lambda2 0.7000000000000001 [dLambda 0.050000000000000044]
TCL: Setting parameter firsttimestep to 0
TCL: Setting parameter alchLambda to 0.65
Info: NONBONDED TABLE R-SQUARED SPACING: 0.0625
Info: NONBONDED TABLE SIZE: 705 POINTS
TCL: Setting parameter alchLambda2 to 0.7000000000000001
Info: NONBONDED TABLE R-SQUARED SPACING: 0.0625
Info: NONBONDED TABLE SIZE: 705 POINTS
TCL: Running for 1500000 steps
ETITLE: TS BOND ANGLE DIHED IMPRP ELECT VDW BOUNDARY MISC KINETIC TOTAL TEMP POTENTIAL TOTALAVG TEMPAVG PRESSURE GPRESSURE VOLUME PRESSAVG GPRESSAVG
ENERGY: 0 0.0465 5.5830 3.1929 0.0000 -10558.4144 1318.5321 0.0000 0.0000 1762.4171 -7468.6429 299.7258 -9231.0599 -7468.6429 299.7258 -1049.9640 -963.4534 30970.6155 -1049.9640 -963.4534
ENERGY: 300000 0.7051 2.1514 1.7384 0.0000 -10618.6934 1396.7098 0.0000 0.0000 1748.7992 -7468.5895 297.4099 -9217.3888 -7505.7409 298.4720 -449.1181 -462.2026 30959.0456 -261.1388 -244.0977
ENERGY: 600000 1.4010 2.2472 2.0495 0.0000 -10741.1917 1486.3482 0.0000 0.0000 1776.3629 -7472.7830 302.0975 -9249.1458 -7516.8988 298.5968 972.2809 1073.1102 29636.8778 -62.1679 -24.1503
ENERGY: 900000 0.5168 2.1836 1.8646 0.0000 -10851.9762 1514.8282 0.0000 0.0000 1794.4374 -7538.1456 305.1713 -9332.5830 -7512.2498 299.4706 468.6449 445.0591 30512.7731 11.3259 59.1414
ENERGY: 1200000 0.5407 2.3275 1.8087 0.0000 -10797.1603 1472.6198 0.0000 0.0000 1807.8726 -7511.9910 307.4562 -9319.8636 -7513.2244 300.9579 286.6439 387.8206 30337.2119 73.7486 130.6248
ENERGY: 1500000 0.0125 3.7907 2.4819 0.0000 -10728.1171 1429.1162 0.0000 0.0000 1802.5297 -7490.1861 306.5476 -9292.7158 -7510.0062 301.4203 -12.7279 3.6577 30456.4163 29.1532 80.0291
TCL: Running FEP window  15: Lambda1 0.7000000000000001 Lambda2 0.7500000000000001 [dLambda 0.050000000000000044]
TCL: Setting parameter firsttimestep to 0
TCL: Setting parameter alchLambda to 0.7000000000000001
Info: NONBONDED TABLE R-SQUARED SPACING: 0.0625
Info: NONBONDED TABLE SIZE: 705 POINTS
TCL: Setting parameter alchLambda2 to 0.7500000000000001
Info: NONBONDED TABLE R-SQUARED SPACING: 0.0625
Info: NONBONDED TABLE SIZE: 705 POINTS
TCL: Running for 1500000 steps
ETITLE: TS BOND ANGLE DIHED IMPRP ELECT VDW BOUNDARY MISC KINETIC TOTAL TEMP POTENTIAL TOTALAVG TEMPAVG PRESSURE GPRESSURE VOLUME PRESSAVG GPRESSAVG
ENERGY: 0 0.0125 3.7907 2.4819 0.0000 -10728.2806 1429.7169 0.0000 0.0000 1801.6338 -7490.6447 306.3952 -9292.2785 -7490.6447 306.3952 -77.9290 17.0690 30456.4163 -77.9290 17.0690
ENERGY: 300000 0.8075 4.8790 2.5876 0.0000 -10655.4822 1373.6839 0.0000 0.0000 1816.2805 -7457.2438 308.8861 -9273.5243 -7481.8347 306.6528 -669.5376 -594.8843 30755.0538 -286.9531 -215.0177
ENERGY: 600000 1.0501 4.1463 2.0490 0.0000 -10716.3427 1463.4443 0.0000 0.0000 1763.5289 -7482.1242 299.9149 -9245.6530 -7504.7891 304.1556 114.2943 187.3255 30625.9451 -297.5945 -228.5797
ENERGY: 900000 0.8436 1.9183 1.9478 0.0000 -10647.1600 1453.6132 0.0000 0.0000 1814.6186 -7374.2184 308.6035 -9188.8370 -7501.2904 304.7124 176.6881 177.6125 30990.3202 -232.8424 -173.8222
ENERGY: 1200000 1.6864 3.9847 3.3214 0.0000 -10772.4721 1485.9858 0.0000 0.0000 1793.5572 -7483.9367 305.0216 -9277.4939 -7510.6116 303.0939 275.6936 308.1256 30673.4997 -169.6234 -106.2204
ENERGY: 1500000 2.0090 5.1404 2.0967 0.0000 -10709.9619 1498.4229 0.0000 0.0000 1759.6022 -7442.6906 299.2471 -9202.2929 -7513.7340 302.4345 882.0555 900.2536 30313.0691 -109.3406 -45.2906
TCL: Running FEP window  16: Lambda1 0.7500000000000001 Lambda2 0.8000000000000002 [dLambda 0.050000000000000044]
TCL: Setting parameter firsttimestep to 0
TCL: Setting parameter alchLambda to 0.7500000000000001
Info: NONBONDED TABLE R-SQUARED SPACING: 0.0625
Info: NONBONDED TABLE SIZE: 705 POINTS
TCL: Setting parameter alchLambda2 to 0.8000000000000002
Info: NONBONDED TABLE R-SQUARED SPACING: 0.0625
Info: NONBONDED TABLE SIZE: 705 POINTS
TCL: Running for 1500000 steps
ETITLE: TS BOND ANGLE DIHED IMPRP ELECT VDW BOUNDARY MISC KINETIC TOTAL TEMP POTENTIAL TOTALAVG TEMPAVG PRESSURE GPRESSURE VOLUME PRESSAVG GPRESSAVG
ENERGY: 0 2.0090 5.1404 2.0967 0.0000 -10710.2229 1497.9110 0.0000 0.0000 1758.7168 -7444.3490 299.0965 -9203.0658 -7444.3490 299.0965 818.4868 898.7523 30313.0691 818.4868 898.7523
ENERGY: 300000 0.9539 3.1782 1.6578 0.0000 -10551.4979 1286.9576 0.0000 0.0000 1759.5428 -7499.2074 299.2370 -9258.7502 -7526.0274 298.1807 -1334.2753 -1253.9339 30846.0509 -221.6703 -136.3558
ENERGY: 600000 0.1888 3.3231 3.4863 0.0000 -10812.6354 1453.8320 0.0000 0.0000 1795.0877 -7556.7174 305.2819 -9351.8052 -7531.6395 299.1565 -83.4958 11.4598 30444.0159 -64.7056 12.5092
ENERGY: 900000 0.2933 3.5093 1.8461 0.0000 -10735.8416 1382.7167 0.0000 0.0000 1776.3646 -7571.1116 302.0978 -9347.4762 -7535.5400 298.7956 -837.1699 -729.2220 30923.9127 -178.9201 -111.8930
ENERGY: 1200000 0.3929 3.6305 2.5112 0.0000 -10778.8315 1421.5142 0.0000 0.0000 1792.8908 -7557.8919 304.9083 -9350.7827 -7524.7948 299.9591 -429.5917 -377.1657 30740.8746 -96.4291 -32.7325
ENERGY: 1500000 0.5046 4.3900 1.6716 0.0000 -10799.4675 1499.1091 0.0000 0.0000 1763.5940 -7530.1982 299.9260 -9293.7922 -7528.8605 299.5321 455.2280 523.9375 30384.4304 -48.9311 14.1131
TCL: Running FEP window  17: Lambda1 0.8000000000000002 Lambda2 0.8500000000000002 [dLambda 0.050000000000000044]
TCL: Setting parameter firsttimestep to 0
TCL: Setting parameter alchLambda to 0.8000000000000002
Info: NONBONDED TABLE R-SQUARED SPACING: 0.0625
Info: NONBONDED TABLE SIZE: 705 POINTS
TCL: Setting parameter alchLambda2 to 0.8500000000000002
Info: NONBONDED TABLE R-SQUARED SPACING: 0.0625
Info: NONBONDED TABLE SIZE: 705 POINTS
TCL: Running for 1500000 steps
ETITLE: TS BOND ANGLE DIHED IMPRP ELECT VDW BOUNDARY MISC KINETIC TOTAL TEMP POTENTIAL TOTALAVG TEMPAVG PRESSURE GPRESSURE VOLUME PRESSAVG GPRESSAVG
ENERGY: 0 0.5046 4.3900 1.6716 0.0000 -10799.9574 1499.0560 0.0000 0.0000 1762.6848 -7531.6505 299.7713 -9294.3353 -7531.6505 299.7713 434.2741 531.2378 30384.4304 434.2741 531.2378
ENERGY: 300000 0.6902 3.5817 1.6781 0.0000 -10832.0390 1522.9510 0.0000 0.0000 1723.8137 -7579.3242 293.1607 -9303.1379 -7519.4251 298.9574 532.6166 625.5435 30271.0708 183.6305 275.2195
ENERGY: 600000 0.5069 6.1273 3.4039 0.0000 -10842.0448 1467.4903 0.0000 0.0000 1755.7845 -7608.7319 298.5978 -9364.5164 -7527.6817 299.8015 -56.0698 -3.1664 30349.3881 87.2444 173.3763
ENERGY: 900000 0.1744 4.7985 1.7368 0.0000 -10649.6378 1354.5335 0.0000 0.0000 1754.4163 -7533.9784 298.3651 -9288.3947 -7538.1313 298.7835 -941.9361 -822.6183 30875.7096 -60.3976 25.0363
ENERGY: 1200000 2.6517 4.4071 3.8680 0.0000 -10662.5652 1403.3742 0.0000 0.0000 1765.2001 -7483.0640 300.1991 -9248.2642 -7529.4628 299.4572 -268.6678 -193.0811 30576.2976 56.3131 134.0144
ENERGY: 1500000 2.5350 5.2206 1.8640 0.0000 -10842.3353 1452.2922 0.0000 0.0000 1780.5299 -7599.8936 302.8062 -9380.4236 -7539.0255 300.3836 -387.8464 -291.4523 30537.2453 21.7790 100.1101
TCL: Running FEP window  18: Lambda1 0.8500000000000002 Lambda2 0.9000000000000002 [dLambda 0.050000000000000044]
TCL: Setting parameter firsttimestep to 0
TCL: Setting parameter alchLambda to 0.8500000000000002
Info: NONBONDED TABLE R-SQUARED SPACING: 0.0625
Info: NONBONDED TABLE SIZE: 705 POINTS
TCL: Setting parameter alchLambda2 to 0.9000000000000002
Info: NONBONDED TABLE R-SQUARED SPACING: 0.0625
Info: NONBONDED TABLE SIZE: 705 POINTS
TCL: Running for 1500000 steps
ETITLE: TS BOND ANGLE DIHED IMPRP ELECT VDW BOUNDARY MISC KINETIC TOTAL TEMP POTENTIAL TOTALAVG TEMPAVG PRESSURE GPRESSURE VOLUME PRESSAVG GPRESSAVG
ENERGY: 0 2.5350 5.2206 1.8640 0.0000 -10842.5654 1452.8593 0.0000 0.0000 1779.6180 -7600.4686 302.6511 -9380.0866 -7600.4686 302.6511 -365.8815 -272.9135 30537.2453 -365.8815 -272.9135
ENERGY: 300000 1.1621 2.1269 1.7781 0.0000 -10782.3773 1569.1799 0.0000 0.0000 1765.2653 -7442.8648 300.2102 -9208.1302 -7542.1786 300.2522 1354.9099 1335.9981 30504.1447 343.2983 370.1813
ENERGY: 600000 1.2215 3.2720 1.9915 0.0000 -10761.0586 1471.3555 0.0000 0.0000 1734.9416 -7548.2765 295.0532 -9283.2180 -7546.3636 298.2196 74.8199 110.4327 30654.8083 127.7731 168.5789
ENERGY: 900000 0.9779 2.4595 1.6706 0.0000 -10744.5741 1442.8199 0.0000 0.0000 1834.3507 -7462.2955 311.9592 -9296.6462 -7528.7308 300.7075 153.3526 216.2478 30253.7262 124.6837 163.8949
ENERGY: 1200000 0.4471 2.6873 3.5596 0.0000 -10746.9212 1444.9028 0.0000 0.0000 1748.6413 -7546.6831 297.3830 -9295.3244 -7543.2928 299.9298 100.5023 96.4204 30378.4451 -8.7217 22.8772
ENERGY: 1500000 0.5243 3.6048 1.9164 0.0000 -10803.3487 1475.1466 0.0000 0.0000 1760.2592 -7561.8974 299.3588 -9322.1566 -7539.3529 299.6586 -15.7023 61.8735 30764.6176 -66.6344 -28.0361
TCL: Running FEP window  19: Lambda1 0.9000000000000002 Lambda2 0.9500000000000003 [dLambda 0.050000000000000044]
TCL: Setting parameter firsttimestep to 0
TCL: Setting parameter alchLambda to 0.9000000000000002
Info: NONBONDED TABLE R-SQUARED SPACING: 0.0625
Info: NONBONDED TABLE SIZE: 705 POINTS
TCL: Setting parameter alchLambda2 to 0.9500000000000003
Info: NONBONDED TABLE R-SQUARED SPACING: 0.0625
Info: NONBONDED TABLE SIZE: 705 POINTS
TCL: Running for 1500000 steps
ETITLE: TS BOND ANGLE DIHED IMPRP ELECT VDW BOUNDARY MISC KINETIC TOTAL TEMP POTENTIAL TOTALAVG TEMPAVG PRESSURE GPRESSURE VOLUME PRESSAVG GPRESSAVG
ENERGY: 0 0.5243 3.6048 1.9164 0.0000 -10803.5743 1475.0019 0.0000 0.0000 1759.3682 -7563.1587 299.2073 -9322.5268 -7563.1587 299.2073 -14.3200 69.4239 30764.6176 -14.3200 69.4239
ENERGY: 300000 0.7809 5.7263 2.1847 0.0000 -10531.9226 1292.2014 0.0000 0.0000 1759.8554 -7471.1739 299.2901 -9231.0293 -7494.3951 302.2994 -962.4192 -933.0935 30578.7817 -472.7008 -395.8366
ENERGY: 600000 1.1044 3.8433 1.5716 0.0000 -10633.9731 1383.1385 0.0000 0.0000 1732.2562 -7512.0591 294.5965 -9244.3154 -7515.9261 299.8777 -603.0805 -551.0612 30731.0261 -389.6974 -336.8263
ENERGY: 900000 0.2612 2.5789 1.7825 0.0000 -10703.6666 1362.4085 0.0000 0.0000 1783.6088 -7553.0268 303.3298 -9336.6356 -7523.4730 299.9837 -803.5355 -730.8737 30697.3190 -376.9988 -319.5241
ENERGY: 1200000 0.0281 3.2391 1.6065 0.0000 -10755.2510 1457.5630 0.0000 0.0000 1781.8621 -7510.9522 303.0327 -9292.8143 -7524.7719 299.7414 192.1782 238.0246 30328.7942 -300.4318 -243.9533
ENERGY: 1500000 3.3824 3.0282 1.8744 0.0000 -10671.0914 1405.6947 0.0000 0.0000 1786.1234 -7470.9884 303.7574 -9257.1117 -7523.9519 300.8079 -276.9515 -233.2822 30356.6745 -266.2557 -208.4825
TCL: Running FEP window  20: Lambda1 0.9500000000000003 Lambda2 1.0    [dLambda 0.04999999999999971]
TCL: Setting parameter firsttimestep to 0
TCL: Setting parameter alchLambda to 0.9500000000000003
Info: NONBONDED TABLE R-SQUARED SPACING: 0.0625
Info: NONBONDED TABLE SIZE: 705 POINTS
TCL: Setting parameter alchLambda2 to 1.0
Info: NONBONDED TABLE R-SQUARED SPACING: 0.0625
Info: NONBONDED TABLE SIZE: 705 POINTS
TCL: Running for 1500000 steps
ETITLE: TS BOND ANGLE DIHED IMPRP ELECT VDW BOUNDARY MISC KINETIC TOTAL TEMP POTENTIAL TOTALAVG TEMPAVG PRESSURE GPRESSURE VOLUME PRESSAVG GPRESSAVG
ENERGY: 0 3.3824 3.0282 1.8744 0.0000 -10671.7297 1405.5904 0.0000 0.0000 1785.2266 -7472.6277 303.6049 -9257.8543 -7472.6277 303.6049 -313.4924 -221.8203 30356.6745 -313.4924 -221.8203
ENERGY: 300000 0.2695 3.8238 3.4283 0.0000 -10656.3009 1405.9987 0.0000 0.0000 1807.7235 -7435.0571 307.4308 -9242.7806 -7486.5035 300.9893 -136.0444 -134.9008 30865.2186 49.6148 92.2127
ENERGY: 600000 1.4657 3.5868 3.7253 0.0000 -10558.3504 1360.3174 0.0000 0.0000 1807.1576 -7382.0975 307.3346 -9189.2551 -7495.7413 300.8590 -625.5907 -533.3985 30984.7348 -71.8103 -12.4973
ENERGY: 900000 0.4341 3.2822 1.7009 0.0000 -10748.3234 1452.8207 0.0000 0.0000 1787.6093 -7502.4761 304.0101 -9290.0854 -7485.8225 302.9248 -11.8469 41.6266 30782.4041 -16.5795 45.5939
ENERGY: 1200000 1.4859 3.3567 1.7232 0.0000 -10731.3655 1419.8992 0.0000 0.0000 1775.7756 -7529.1250 301.9976 -9304.9006 -7492.7864 302.9836 -6.6817 106.0923 30175.8215 -15.9838 41.3506
ENERGY: 1500000 0.4128 6.1307 1.7410 0.0000 -10799.1133 1446.8358 0.0000 0.0000 1744.5686 -7599.4244 296.6904 -9343.9930 -7507.1384 302.1217 -84.9683 -23.5520 30388.3290 7.9935 63.1712
TCL: Exiting due to exit command.
