Info: SIMULATION PARAMETERS:
Info: TIMESTEP               2
Info: NUMBER OF STEPS        0
Info: STEPS PER CYCLE        10
Info: PERIODIC CELL BASIS 1  31.6239 0 0
Info: PERIODIC CELL BASIS 2  0 29.9507 0
Info: PERIODIC CELL BASIS 3  0 0 31.529
Info: PERIODIC CELL CENTER   0 0 0
Info: WRAPPING WATERS AROUND PERIODIC BOUNDARIES ON OUTPUT.
Info: WRAPPING ALL CLUSTERS AROUND PERIODIC BOUNDARIES ON OUTPUT.
Info: FIRST LDB TIMESTEP     50
Info: LAST LDB TIMESTEP     -1
Info: HOM BACKGROUND SCALING 1
Info: PME BACKGROUND SCALING 1
Info: MIN ATOMS PER PATCH    40
Info: EMPTY PATCH LOAD       40 ATOMS
Info: VELOCITY FILE          mobley_2689721_equil.vel
Info: CENTER OF MASS MOVING INITIALLY? NO
Info: DIELECTRIC             1
Info: EXCLUDE                SCALED ONE-FOUR
Info: 1-4 ELECTROSTATICS SCALED BY 0.833333
Info: MODIFIED 1-4 VDW PARAMETERS WILL BE USED
Info: DCD FILENAME           mobley_2689721_prod.dcd
Info: DCD FREQUENCY          100000
Info: DCD FIRST STEP         100000
Info: DCD FILE WILL CONTAIN UNIT CELL DATA
Info: XST FILENAME           mobley_2689721_prod.xst
Info: XST FREQUENCY          100000
Info: NO VELOCITY DCD OUTPUT
Info: NO FORCE DCD OUTPUT
Info: OUTPUT FILENAME        mobley_2689721_prod
Info: BINARY OUTPUT FILES WILL BE USED
Info: RESTART FILENAME       mobley_2689721_prod.restart
Info: RESTART FREQUENCY      100000
Info: BINARY RESTART FILES WILL BE USED
Info: CUTOFF                 9
Info: PAIRLIST DISTANCE      11
Info: PAIRLIST SHRINK RATE   0.01
Info: PAIRLIST GROW RATE     0.01
Info: PAIRLIST TRIGGER       0.3
Info: PAIRLISTS PER CYCLE    2
Info: PAIRLISTS ENABLED
Info: MARGIN                 2
Info: HYDROGEN GROUP CUTOFF  2.5
Info: PATCH DIMENSION        15.5
Info: ENERGY OUTPUT STEPS    100000
Info: ENERGY EVALUATION STEPS    100000
Info: OUTPUT ENERGY PRECISION 4
Info: CROSSTERM ENERGY INCLUDED IN DIHEDRAL
Info: TIMING OUTPUT STEPS    1000000
Info: PRESSURE OUTPUT STEPS  100000
Info: ALCHEMICAL FEP ON
Info: FEP CURRENT LAMBDA VALUE     0
Info: FEP COMPARISON LAMBDA VALUE  0.05
Info: FEP INTRA-ALCHEMICAL NON-BONDED INTERACTIONS WILL BE RETAINED
Info: FEP INTRA-ALCHEMICAL BONDED INTERACTIONS WILL BE RETAINED
Info: FEP VDW SHIFTING COEFFICIENT 5
Info: FEP ELEC. ACTIVE FOR ANNIHILATED PARTICLES BETWEEN LAMBDA = 0 AND LAMBDA = 0.5
Info: FEP ELEC. ACTIVE FOR EXNIHILATED PARTICLES BETWEEN LAMBDA = 0.5 AND LAMBDA = 1
Info: FEP VDW ACTIVE FOR ANNIHILATED PARTICLES BETWEEN LAMBDA = 0 AND LAMBDA = 1
Info: FEP VDW ACTIVE FOR EXNIHILATED PARTICLES BETWEEN LAMBDA = 0 AND LAMBDA = 1
Info: FEP BOND ACTIVE FOR ANNIHILATED PARTICLES BETWEEN LAMBDA = 1 AND LAMBDA = 1
Info: FEP BOND ACTIVE FOR EXNIHILATED PARTICLES BETWEEN LAMBDA = 0 AND LAMBDA = 0
Info: LANGEVIN DYNAMICS ACTIVE
Info: LANGEVIN TEMPERATURE   300
Info: LANGEVIN USING BBK INTEGRATOR
Info: LANGEVIN DAMPING COEFFICIENT IS 1 INVERSE PS
Info: LANGEVIN DYNAMICS APPLIED TO HYDROGENS
Info: LANGEVIN PISTON PRESSURE CONTROL ACTIVE
Info:        TARGET PRESSURE IS 1.01325 BAR
Info:     OSCILLATION PERIOD IS 50 FS
Info:             DECAY TIME IS 25 FS
Info:     PISTON TEMPERATURE IS 300 K
Info:       PRESSURE CONTROL IS GROUP-BASED
Info:    INITIAL STRAIN RATE IS 9.4657e-05 9.4657e-05 9.4657e-05
Info:       CELL FLUCTUATION IS ISOTROPIC
Info: PARTICLE MESH EWALD (PME) ACTIVE
Info: PME TOLERANCE               1e-06
Info: PME EWALD COEFFICIENT       0.348832
Info: PME INTERPOLATION ORDER     4
Info: PME GRID DIMENSIONS         32 32 32
Info: PME MAXIMUM GRID SPACING    1
Info: PME CALCULATION WILL BE PERFORMED ON GPU
Info: FULL ELECTROSTATIC EVALUATION FREQUENCY      2
Info: USING VERLET I (r-RESPA) MTS SCHEME.
Info: C1 SPLITTING OF LONG RANGE ELECTROSTATICS
Info: PLACING ATOMS IN PATCHES BY HYDROGEN GROUPS
Info: RIGID BONDS TO HYDROGEN : ALL
Info:         ERROR TOLERANCE : 1e-08
Info:          MAX ITERATIONS : 100
Info: RIGID WATER USING SETTLE ALGORITHM
Info: RANDOM NUMBER SEED     1743597520
Info: USE HYDROGEN BONDS?    NO
Info: Using AMBER format force field!
Info: AMBER PARM FILE        mobley_2689721.prmtop
Info: COORDINATE PDB         mobley_2689721.pdb
Info: Exclusions will be read from PARM file!
Info: SCNB (VDW SCALING)     2
Info: USING ARITHMETIC MEAN TO COMBINE L-J SIGMA PARAMETERS
Info: BINARY COORDINATES     mobley_2689721_equil.coor
Info: SUMMARY OF PARAMETERS:
Info: 4 BONDS
Info: 3 ANGLES
Info:   3 HARMONIC
Info:   0 COSINE-BASED
Info: 5 DIHEDRAL
Info: 0 IMPROPER
Info: 0 CROSSTERM
Info: 0 VDW
Info: 10 VDW_PAIRS
Info: 0 NBTHOLE_PAIRS
Info: To read alchdata from file: mobley_2689721.pdb
Info: To read alchflag data from column: 5
Info: STRUCTURE SUMMARY:
Info: 2916 ATOMS
Info: 2916 BONDS
Info: 36 ANGLES
Info: 66 DIHEDRALS
Info: 0 IMPROPERS
Info: 0 CROSSTERMS
Info: 3003 EXCLUSIONS
Info: 2910 RIGID BONDS
Info: ALCH: 0 ATOMS TO DISAPPEAR IN FINAL STATE
Info: ALCH: 18 ATOMS TO APPEAR IN FINAL STATE
Info: 5838 DEGREES OF FREEDOM
Info: 972 HYDROGEN GROUPS
Info: 3 ATOMS IN LARGEST HYDROGEN GROUP
Info: 972 MIGRATION GROUPS
Info: 3 ATOMS IN LARGEST MIGRATION GROUP
Info: TOTAL MASS = 17487.6 amu
Info: TOTAL CHARGE = 0.000499971 e
Info: MASS DENSITY = 0.972426 g/cm^3
Info: ATOM DENSITY = 0.097646 atoms/A^3
Info: ADDED 0 IMPLICIT EXCLUSIONS
Info: NONBONDED TABLE R-SQUARED SPACING: 0.0625
Info: NONBONDED TABLE SIZE: 705 POINTS
Info: REMOVING COM VELOCITY 0.0948081 0.107703 -0.000844209
Info: Use 3D box decompostion in PME FFT.
Info: Updated CUDA force table with 4096 elements.
Info: Updated CUDA LJ table with 4 x 4 elements.
Info: Found 21 unique exclusion lists needing 56 bytes
TCL: Running for 1500000 steps
ETITLE: TS BOND ANGLE DIHED IMPRP ELECT VDW BOUNDARY MISC KINETIC TOTAL TEMP POTENTIAL TOTALAVG TEMPAVG PRESSURE GPRESSURE VOLUME PRESSAVG GPRESSAVG
ENERGY: 0 3.3153 7.8407 3.5841 0.0000 -10577.1952 1437.7813 0.0000 0.0000 1701.0252 -7423.6486 293.2493 -9124.6738 -7423.6486 293.2493 91.4691 187.0682 29862.9695 91.4691 187.0682
ENERGY: 300000 1.7756 8.0310 2.8844 0.0000 -10500.3640 1350.9292 0.0000 0.0000 1719.3703 -7417.3736 296.4120 -9136.7439 -7376.7158 299.4056 -455.8186 -455.3541 29504.6667 247.2825 294.9247
ENERGY: 600000 1.9553 7.2010 3.1452 0.0000 -10558.4812 1380.6797 0.0000 0.0000 1765.7051 -7399.7949 304.3999 -9165.5000 -7395.2503 298.7591 -516.0963 -480.1117 29928.4960 223.7549 265.4171
ENERGY: 900000 2.3917 9.9932 3.8440 0.0000 -10474.1747 1397.8824 0.0000 0.0000 1778.6615 -7281.4019 306.6335 -9060.0634 -7373.9765 299.9401 -12.7556 -31.8383 29881.7701 267.6763 299.4081
ENERGY: 1200000 0.9775 9.3822 3.0940 0.0000 -10480.4004 1351.4455 0.0000 0.0000 1755.1200 -7360.3811 302.5750 -9115.5011 -7373.2111 300.1839 -551.8126 -560.0816 30133.1821 154.1659 192.4301
ENERGY: 1500000 0.5346 8.6717 4.1473 0.0000 -10497.0609 1402.2593 0.0000 0.0000 1731.3940 -7350.0540 298.4848 -9081.4480 -7378.2300 300.1999 -142.1142 -116.0041 29885.3628 152.4702 189.3939
TCL: Running FEP window   2: Lambda1 0.05   Lambda2 0.1    [dLambda 0.05  ]
TCL: Setting parameter firsttimestep to 0
TCL: Setting parameter alchLambda to 0.05
Info: NONBONDED TABLE R-SQUARED SPACING: 0.0625
Info: NONBONDED TABLE SIZE: 705 POINTS
TCL: Setting parameter alchLambda2 to 0.1
Info: NONBONDED TABLE R-SQUARED SPACING: 0.0625
Info: NONBONDED TABLE SIZE: 705 POINTS
TCL: Running for 1500000 steps
ETITLE: TS BOND ANGLE DIHED IMPRP ELECT VDW BOUNDARY MISC KINETIC TOTAL TEMP POTENTIAL TOTALAVG TEMPAVG PRESSURE GPRESSURE VOLUME PRESSAVG GPRESSAVG
ENERGY: 0 0.5346 8.6717 4.1473 0.0000 -10497.0641 1404.9345 0.0000 0.0000 1730.5526 -7348.2235 298.3397 -9078.7761 -7348.2235 298.3397 -192.1428 -113.3048 29885.3628 -192.1428 -113.3048
ENERGY: 300000 1.9021 10.9424 3.6010 0.0000 -10633.5128 1522.7600 0.0000 0.0000 1748.6896 -7345.6177 301.4665 -9094.3073 -7380.7262 297.2533 817.7535 953.6950 29547.3426 -40.2182 37.0010
ENERGY: 600000 1.4581 5.8613 3.2894 0.0000 -10736.3336 1549.2361 0.0000 0.0000 1757.0034 -7419.4854 302.8997 -9176.4888 -7397.7213 299.0795 785.0031 843.8297 29749.3564 -145.2526 -83.1067
ENERGY: 900000 0.7917 10.0935 3.2799 0.0000 -10569.9901 1410.4749 0.0000 0.0000 1769.3503 -7375.9999 305.0283 -9145.3502 -7400.6917 298.3337 -313.0524 -272.7093 30239.0164 -119.0279 -55.5204
ENERGY: 1200000 2.4475 12.0842 4.6656 0.0000 -10603.8488 1452.2072 0.0000 0.0000 1700.6814 -7431.7629 293.1901 -9132.4443 -7401.4152 297.0926 280.9551 368.1897 29392.2716 -111.0063 -46.1640
ENERGY: 1500000 1.1614 7.6981 3.1303 0.0000 -10710.8791 1502.6032 0.0000 0.0000 1699.1891 -7497.0970 292.9328 -9196.2861 -7395.3535 297.8449 375.1256 391.6782 29594.1336 -28.8369 31.6624
TCL: Running FEP window   3: Lambda1 0.1    Lambda2 0.15000000000000002 [dLambda 0.05000000000000002]
TCL: Setting parameter firsttimestep to 0
TCL: Setting parameter alchLambda to 0.1
Info: NONBONDED TABLE R-SQUARED SPACING: 0.0625
Info: NONBONDED TABLE SIZE: 705 POINTS
TCL: Setting parameter alchLambda2 to 0.15000000000000002
Info: NONBONDED TABLE R-SQUARED SPACING: 0.0625
Info: NONBONDED TABLE SIZE: 705 POINTS
TCL: Running for 1500000 steps
ETITLE: TS BOND ANGLE DIHED IMPRP ELECT VDW BOUNDARY MISC KINETIC TOTAL TEMP POTENTIAL TOTALAVG TEMPAVG PRESSURE GPRESSURE VOLUME PRESSAVG GPRESSAVG
ENERGY: 0 1.1614 7.6981 3.1303 0.0000 -10710.8776 1505.0129 0.0000 0.0000 1698.3374 -7495.5375 292.7860 -9193.8749 -7495.5375 292.7860 301.1473 396.7546 29594.1336 301.1473 396.7546
ENERGY: 300000 1.8027 10.9344 3.6324 0.0000 -10543.4746 1477.1926 0.0000 0.0000 1738.3758 -7311.5367 299.6884 -9049.9125 -7405.6785 297.3546 806.0490 896.8071 29133.3625 461.6481 525.1610
ENERGY: 600000 1.9230 8.8625 3.3118 0.0000 -10602.9218 1443.1705 0.0000 0.0000 1726.0764 -7419.5777 297.5681 -9145.6541 -7409.0864 297.4069 -74.4427 14.4654 29948.4434 254.3330 319.7393
ENERGY: 900000 2.9541 10.7880 3.4888 0.0000 -10531.5540 1366.5323 0.0000 0.0000 1710.3647 -7437.4260 294.8594 -9147.7908 -7411.7329 296.0945 -886.8749 -793.9613 30350.2804 209.2697 279.4632
ENERGY: 1200000 1.4418 5.0265 3.0928 0.0000 -10579.7895 1368.0839 0.0000 0.0000 1767.0230 -7435.1214 304.6271 -9202.1445 -7418.5683 297.4576 -471.4233 -450.0327 29665.5684 61.8805 122.4234
ENERGY: 1500000 2.9941 4.3088 3.1558 0.0000 -10621.1033 1441.8647 0.0000 0.0000 1774.6172 -7394.1627 305.9363 -9168.7800 -7410.0437 298.6489 141.7670 151.6605 29717.7833 70.0406 128.2491
TCL: Running FEP window   4: Lambda1 0.15000000000000002 Lambda2 0.2    [dLambda 0.04999999999999999]
TCL: Setting parameter firsttimestep to 0
TCL: Setting parameter alchLambda to 0.15000000000000002
Info: NONBONDED TABLE R-SQUARED SPACING: 0.0625
Info: NONBONDED TABLE SIZE: 705 POINTS
TCL: Setting parameter alchLambda2 to 0.2
Info: NONBONDED TABLE R-SQUARED SPACING: 0.0625
Info: NONBONDED TABLE SIZE: 705 POINTS
TCL: Running for 1500000 steps
ETITLE: TS BOND ANGLE DIHED IMPRP ELECT VDW BOUNDARY MISC KINETIC TOTAL TEMP POTENTIAL TOTALAVG TEMPAVG PRESSURE GPRESSURE VOLUME PRESSAVG GPRESSAVG
ENERGY: 0 2.9941 4.3088 3.1558 0.0000 -10621.1032 1442.1439 0.0000 0.0000 1773.7405 -7394.7603 305.7851 -9168.5007 -7394.7603 305.7851 75.2950 157.6182 29717.7833 75.2950 157.6182
ENERGY: 300000 1.1126 11.8029 3.4792 0.0000 -10577.6514 1459.2428 0.0000 0.0000 1739.4059 -7362.6080 299.8660 -9102.0138 -7361.1150 299.5477 530.7642 532.1867 29419.1857 188.0932 236.9145
ENERGY: 600000 0.5405 7.6691 3.4337 0.0000 -10616.0240 1436.2268 0.0000 0.0000 1714.6656 -7453.4883 295.6009 -9168.1539 -7362.7022 299.9728 -53.8903 -15.5220 29893.9010 119.3865 173.3799
ENERGY: 900000 1.4881 9.6467 4.5721 0.0000 -10416.6316 1340.2254 0.0000 0.0000 1736.2930 -7324.4063 299.3294 -9060.6993 -7347.9186 301.4899 -597.6461 -509.9335 29965.6671 82.1458 134.0900
ENERGY: 1200000 3.2438 7.9755 3.1093 0.0000 -10737.6595 1569.6928 0.0000 0.0000 1702.0161 -7451.6221 293.4202 -9153.6382 -7356.3417 301.5865 1061.5820 1115.2569 29433.3784 136.1851 188.5925
ENERGY: 1500000 2.7760 7.8540 3.3923 0.0000 -10519.5991 1392.5281 0.0000 0.0000 1653.0697 -7459.9790 284.9820 -9113.0487 -7362.2291 300.5456 -212.5712 -148.1084 29647.4536 86.9251 146.9342
TCL: Running FEP window   5: Lambda1 0.2    Lambda2 0.25   [dLambda 0.04999999999999999]
TCL: Setting parameter firsttimestep to 0
TCL: Setting parameter alchLambda to 0.2
Info: NONBONDED TABLE R-SQUARED SPACING: 0.0625
Info: NONBONDED TABLE SIZE: 705 POINTS
TCL: Setting parameter alchLambda2 to 0.25
Info: NONBONDED TABLE R-SQUARED SPACING: 0.0625
Info: NONBONDED TABLE SIZE: 705 POINTS
TCL: Running for 1500000 steps
ETITLE: TS BOND ANGLE DIHED IMPRP ELECT VDW BOUNDARY MISC KINETIC TOTAL TEMP POTENTIAL TOTALAVG TEMPAVG PRESSURE GPRESSURE VOLUME PRESSAVG GPRESSAVG
ENERGY: 0 2.7760 7.8540 3.3923 0.0000 -10519.5993 1394.0265 0.0000 0.0000 1652.2176 -7459.3328 284.8351 -9111.5504 -7459.3328 284.8351 -218.9821 -139.2861 29647.4536 -218.9821 -139.2861
ENERGY: 300000 2.1825 7.1568 3.5923 0.0000 -10497.9386 1367.1305 0.0000 0.0000 1771.6641 -7346.2124 305.4272 -9117.8764 -7366.8243 299.8718 -552.2166 -454.9499 30052.8717 -228.9765 -136.3997
ENERGY: 600000 2.2188 6.2804 3.3353 0.0000 -10569.5188 1451.2088 0.0000 0.0000 1738.8219 -7367.6536 299.7653 -9106.4755 -7359.1577 299.1125 -11.7011 76.0945 30185.2870 -21.5699 52.7846
ENERGY: 900000 3.2159 8.0207 3.2542 0.0000 -10633.8794 1474.3771 0.0000 0.0000 1740.8709 -7404.1406 300.1186 -9145.0115 -7376.7392 298.0218 417.8397 493.3107 29402.1909 -28.5065 48.1543
ENERGY: 1200000 2.3150 8.7682 3.0994 0.0000 -10686.4991 1500.8124 0.0000 0.0000 1762.9398 -7408.5643 303.9231 -9171.5041 -7374.6418 298.4212 917.6623 1013.7569 29337.9319 26.9283 106.3100
ENERGY: 1500000 2.5516 6.3512 2.9234 0.0000 -10585.5282 1448.5957 0.0000 0.0000 1720.0396 -7405.0668 296.5273 -9125.1064 -7381.6512 297.9078 140.5312 246.2222 29776.3502 38.1611 115.2081
TCL: Running FEP window   6: Lambda1 0.25   Lambda2 0.3    [dLambda 0.04999999999999999]
TCL: Setting parameter firsttimestep to 0
TCL: Setting parameter alchLambda to 0.25
Info: NONBONDED TABLE R-SQUARED SPACING: 0.0625
Info: NONBONDED TABLE SIZE: 705 POINTS
TCL: Setting parameter alchLambda2 to 0.3
Info: NONBONDED TABLE R-SQUARED SPACING: 0.0625
Info: NONBONDED TABLE SIZE: 705 POINTS
TCL: Running for 1500000 steps
ETITLE: TS BOND ANGLE DIHED IMPRP ELECT VDW BOUNDARY MISC KINETIC TOTAL TEMP POTENTIAL TOTALAVG TEMPAVG PRESSURE GPRESSURE VOLUME PRESSAVG GPRESSAVG
ENERGY: 0 2.5516 6.3512 2.9234 0.0000 -10585.5275 1448.5118 0.0000 0.0000 1719.1555 -7406.0341 296.3749 -9125.1895 -7406.0341 296.3749 158.2000 244.8158 29776.3502 158.2000 244.8158
ENERGY: 300000 3.0830 9.2422 4.1364 0.0000 -10593.7356 1442.0804 0.0000 0.0000 1718.0359 -7417.1577 296.1819 -9135.1936 -7392.4711 294.7688 205.6353 269.9593 29738.2122 148.1462 220.4221
ENERGY: 600000 0.8792 5.9270 3.6389 0.0000 -10683.8039 1506.4166 0.0000 0.0000 1755.3249 -7411.6172 302.6104 -9166.9422 -7377.3273 297.5581 562.3106 598.4896 29724.0230 149.5262 223.7243
ENERGY: 900000 1.2340 4.6220 2.8594 0.0000 -10573.0024 1446.7877 0.0000 0.0000 1748.0197 -7369.4796 301.3510 -9117.4993 -7388.7502 297.7018 64.5877 137.0656 30093.8966 40.0476 106.6936
ENERGY: 1200000 0.4297 6.2900 3.2801 0.0000 -10608.0610 1444.2508 0.0000 0.0000 1731.1010 -7422.7095 298.4343 -9153.8105 -7397.8165 298.0591 542.3013 604.9991 29401.9155 64.0444 121.6420
ENERGY: 1500000 1.5591 6.2968 3.3154 0.0000 -10474.3425 1413.0350 0.0000 0.0000 1771.3779 -7278.7582 305.3778 -9050.1362 -7392.5255 298.4793 267.5461 283.5126 29780.3132 123.5835 176.5561
TCL: Running FEP window   7: Lambda1 0.3    Lambda2 0.35   [dLambda 0.04999999999999999]
TCL: Setting parameter firsttimestep to 0
TCL: Setting parameter alchLambda to 0.3
Info: NONBONDED TABLE R-SQUARED SPACING: 0.0625
Info: NONBONDED TABLE SIZE: 705 POINTS
TCL: Setting parameter alchLambda2 to 0.35
Info: NONBONDED TABLE R-SQUARED SPACING: 0.0625
Info: NONBONDED TABLE SIZE: 705 POINTS
TCL: Running for 1500000 steps
ETITLE: TS BOND ANGLE DIHED IMPRP ELECT VDW BOUNDARY MISC KINETIC TOTAL TEMP POTENTIAL TOTALAVG TEMPAVG PRESSURE GPRESSURE VOLUME PRESSAVG GPRESSAVG
ENERGY: 0 1.5591 6.2968 3.3154 0.0000 -10474.3419 1412.5865 0.0000 0.0000 1770.5013 -7280.0827 305.2267 -9050.5840 -7280.0827 305.2267 194.5059 284.8003 29780.3132 194.5059 284.8003
ENERGY: 300000 0.9646 8.3243 3.0780 0.0000 -10563.1920 1490.4640 0.0000 0.0000 1758.0145 -7302.3466 303.0740 -9060.3611 -7326.1962 301.5900 326.6204 421.3822 30557.5552 207.0637 277.3875
ENERGY: 600000 3.0895 6.8465 3.4121 0.0000 -10517.5318 1393.3898 0.0000 0.0000 1773.1863 -7337.6076 305.6896 -9110.7938 -7359.3621 301.0168 -207.0479 -159.5759 30173.5116 65.3198 131.4087
ENERGY: 900000 0.4797 11.2716 3.8970 0.0000 -10413.9628 1331.5583 0.0000 0.0000 1744.3809 -7322.3754 300.7237 -9066.7563 -7349.7056 302.4853 -287.7364 -293.3763 29674.0888 5.1472 59.1781
ENERGY: 1200000 1.3389 9.1055 4.0905 0.0000 -10499.1922 1414.0038 0.0000 0.0000 1749.0637 -7321.5899 301.5310 -9070.6536 -7342.4092 302.7905 -59.9967 -30.8487 30163.0249 59.1661 115.9799
ENERGY: 1500000 1.1001 5.8018 3.1662 0.0000 -10423.9461 1379.1238 0.0000 0.0000 1735.0944 -7299.6599 299.1227 -9034.7543 -7343.0040 302.0870 -10.8707 -1.0836 30015.5835 79.5468 136.2966
TCL: Running FEP window   8: Lambda1 0.35   Lambda2 0.39999999999999997 [dLambda 0.04999999999999999]
TCL: Setting parameter firsttimestep to 0
TCL: Setting parameter alchLambda to 0.35
Info: NONBONDED TABLE R-SQUARED SPACING: 0.0625
Info: NONBONDED TABLE SIZE: 705 POINTS
TCL: Setting parameter alchLambda2 to 0.39999999999999997
Info: NONBONDED TABLE R-SQUARED SPACING: 0.0625
Info: NONBONDED TABLE SIZE: 705 POINTS
TCL: Running for 1500000 steps
ETITLE: TS BOND ANGLE DIHED IMPRP ELECT VDW BOUNDARY MISC KINETIC TOTAL TEMP POTENTIAL TOTALAVG TEMPAVG PRESSURE GPRESSURE VOLUME PRESSAVG GPRESSAVG
ENERGY: 0 1.1001 5.8018 3.1662 0.0000 -10423.9459 1378.7103 0.0000 0.0000 1734.2048 -7300.9627 298.9694 -9035.1675 -7300.9627 298.9694 -66.1469 2.0991 30015.5835 -66.1469 2.0991
ENERGY: 300000 1.4287 6.8991 3.2882 0.0000 -10463.7001 1330.0453 0.0000 0.0000 1754.3262 -7367.7126 302.4382 -9122.0388 -7366.6137 299.9438 -883.5522 -771.3057 30141.4666 -280.9122 -202.1252
ENERGY: 600000 2.3874 8.9262 3.0415 0.0000 -10522.2712 1383.6104 0.0000 0.0000 1696.0767 -7428.2290 292.3962 -9124.3056 -7364.7132 299.6507 -443.9358 -333.1769 29975.8458 -176.7710 -94.1369
ENERGY: 900000 0.9896 10.5348 3.7263 0.0000 -10369.0865 1362.3200 0.0000 0.0000 1732.2286 -7259.2871 298.6287 -8991.5157 -7351.9180 299.8299 -421.6989 -348.0467 30794.1684 -161.2747 -83.4625
ENERGY: 1200000 1.0262 7.6692 2.9907 0.0000 -10634.3427 1469.1254 0.0000 0.0000 1756.2674 -7397.2637 302.7729 -9153.5312 -7355.4116 300.0333 547.1535 591.3221 29530.5119 -187.5770 -115.6000
ENERGY: 1500000 3.3754 5.1079 2.9839 0.0000 -10442.6503 1371.0070 0.0000 0.0000 1795.6603 -7264.5157 309.5640 -9060.1760 -7358.9437 299.7418 23.1584 90.6055 29784.4037 -174.7277 -103.6254
TCL: Running FEP window   9: Lambda1 0.39999999999999997 Lambda2 0.44999999999999996 [dLambda 0.04999999999999999]
TCL: Setting parameter firsttimestep to 0
TCL: Setting parameter alchLambda to 0.39999999999999997
Info: NONBONDED TABLE R-SQUARED SPACING: 0.0625
Info: NONBONDED TABLE SIZE: 705 POINTS
TCL: Setting parameter alchLambda2 to 0.44999999999999996
Info: NONBONDED TABLE R-SQUARED SPACING: 0.0625
Info: NONBONDED TABLE SIZE: 705 POINTS
TCL: Running for 1500000 steps
ETITLE: TS BOND ANGLE DIHED IMPRP ELECT VDW BOUNDARY MISC KINETIC TOTAL TEMP POTENTIAL TOTALAVG TEMPAVG PRESSURE GPRESSURE VOLUME PRESSAVG GPRESSAVG
ENERGY: 0 3.3754 5.1079 2.9839 0.0000 -10442.6512 1370.6875 0.0000 0.0000 1794.7707 -7265.7257 309.4107 -9060.4965 -7265.7257 309.4107 20.7364 93.2770 29784.4037 20.7364 93.2770
ENERGY: 300000 1.1241 10.0082 3.5695 0.0000 -10561.3479 1408.2202 0.0000 0.0000 1746.5642 -7391.8617 301.1001 -9138.4259 -7328.7894 303.1026 -103.6200 -19.5667 29639.9343 24.6112 96.5995
ENERGY: 600000 0.7649 14.3703 4.6981 0.0000 -10508.2436 1512.4226 0.0000 0.0000 1736.0452 -7239.9425 299.2866 -8975.9876 -7322.9827 301.5925 1402.2965 1405.7691 29767.0591 229.4613 284.3375
ENERGY: 900000 0.5941 7.9022 2.9717 0.0000 -10627.9844 1472.2476 0.0000 0.0000 1780.2310 -7364.0377 306.9041 -9144.2688 -7344.1222 301.9701 282.1039 310.1661 30133.1251 88.1652 147.2068
ENERGY: 1200000 1.3508 8.4404 3.4876 0.0000 -10479.4459 1389.0713 0.0000 0.0000 1724.1422 -7352.9537 297.2346 -9077.0959 -7346.4278 301.6476 -357.5799 -311.5866 30594.7309 -1.2677 56.1016
ENERGY: 1500000 3.6027 7.8623 4.0382 0.0000 -10553.4008 1498.8883 0.0000 0.0000 1748.3829 -7290.6265 301.4136 -9039.0094 -7348.9099 301.7652 593.0244 683.0110 30041.4149 96.7156 156.8039
TCL: Running FEP window  10: Lambda1 0.44999999999999996 Lambda2 0.49999999999999994 [dLambda 0.04999999999999999]
TCL: Setting parameter firsttimestep to 0
TCL: Setting parameter alchLambda to 0.44999999999999996
Info: NONBONDED TABLE R-SQUARED SPACING: 0.0625
Info: NONBONDED TABLE SIZE: 705 POINTS
TCL: Setting parameter alchLambda2 to 0.49999999999999994
Info: NONBONDED TABLE R-SQUARED SPACING: 0.0625
Info: NONBONDED TABLE SIZE: 705 POINTS
TCL: Running for 1500000 steps
ETITLE: TS BOND ANGLE DIHED IMPRP ELECT VDW BOUNDARY MISC KINETIC TOTAL TEMP POTENTIAL TOTALAVG TEMPAVG PRESSURE GPRESSURE VOLUME PRESSAVG GPRESSAVG
ENERGY: 0 3.6027 7.8623 4.0382 0.0000 -10553.4003 1499.4125 0.0000 0.0000 1747.4989 -7290.9859 301.2612 -9038.4848 -7290.9859 301.2612 606.3318 693.5855 30041.4149 606.3318 693.5855
ENERGY: 300000 0.8964 10.5443 3.3660 0.0000 -10536.7297 1425.2443 0.0000 0.0000 1788.8466 -7307.8322 308.3894 -9096.6787 -7358.5569 299.8304 21.7077 80.1300 30061.8625 215.2472 282.7056
ENERGY: 600000 1.6603 5.5801 2.9801 0.0000 -10529.8145 1362.0047 0.0000 0.0000 1735.5569 -7422.0324 299.2025 -9157.5893 -7373.9274 298.7675 -663.6201 -566.2622 29931.2787 -101.8754 -31.7314
ENERGY: 900000 2.8788 11.0273 3.0480 0.0000 -10576.0534 1406.5837 0.0000 0.0000 1765.1322 -7387.3834 304.3011 -9152.5156 -7380.8626 298.8209 -378.5242 -309.9447 29834.9663 -203.2053 -141.1834
ENERGY: 1200000 1.3108 8.1107 2.8082 0.0000 -10635.5036 1460.8763 0.0000 0.0000 1722.9259 -7439.4716 297.0249 -9162.3976 -7382.1757 299.0270 359.0033 390.8453 29785.8124 -92.7865 -35.2472
ENERGY: 1500000 3.8581 11.1904 3.2799 0.0000 -10539.0084 1379.7192 0.0000 0.0000 1733.7840 -7407.1768 298.8968 -9140.9608 -7388.7925 298.7369 -266.4506 -211.3862 29886.2609 -124.8690 -63.8353
TCL: Running FEP window  11: Lambda1 0.49999999999999994 Lambda2 0.5499999999999999 [dLambda 0.04999999999999999]
TCL: Setting parameter firsttimestep to 0
TCL: Setting parameter alchLambda to 0.49999999999999994
Info: NONBONDED TABLE R-SQUARED SPACING: 0.0625
Info: NONBONDED TABLE SIZE: 705 POINTS
TCL: Setting parameter alchLambda2 to 0.5499999999999999
Info: NONBONDED TABLE R-SQUARED SPACING: 0.0625
Info: NONBONDED TABLE SIZE: 705 POINTS
TCL: Running for 1500000 steps
ETITLE: TS BOND ANGLE DIHED IMPRP ELECT VDW BOUNDARY MISC KINETIC TOTAL TEMP POTENTIAL TOTALAVG TEMPAVG PRESSURE GPRESSURE VOLUME PRESSAVG GPRESSAVG
ENERGY: 0 3.8581 11.1904 3.2799 0.0000 -10539.0092 1380.0428 0.0000 0.0000 1732.9011 -7407.7370 298.7446 -9140.6380 -7407.7370 298.7446 -278.7377 -199.8671 29886.2609 -278.7377 -199.8671
ENERGY: 300000 0.5195 5.4587 3.6246 0.0000 -10478.2614 1334.2025 0.0000 0.0000 1755.7449 -7378.7112 302.6828 -9134.4561 -7416.2822 300.1707 -658.0851 -576.1078 29837.6963 -255.3012 -192.3587
ENERGY: 600000 0.5741 8.2469 3.5010 0.0000 -10565.4820 1443.0325 0.0000 0.0000 1784.3054 -7325.8221 307.6065 -9110.1275 -7388.9292 302.0880 553.4853 616.3183 29571.5588 -207.2281 -148.1700
ENERGY: 900000 2.5960 5.5341 2.9432 0.0000 -10472.8268 1381.8307 0.0000 0.0000 1740.9491 -7338.9736 300.1320 -9079.9227 -7384.1917 301.6775 72.3329 251.6992 29327.6983 -159.2112 -83.5288
ENERGY: 1200000 0.4914 10.2359 4.6876 0.0000 -10733.2091 1569.7267 0.0000 0.0000 1709.3191 -7438.7485 294.6792 -9148.0675 -7380.7433 300.6887 972.7859 1010.8851 30071.8113 -62.9304 8.1189
ENERGY: 1500000 1.5281 10.2104 3.4404 0.0000 -10528.4495 1419.3446 0.0000 0.0000 1705.9620 -7387.9640 294.1004 -9093.9260 -7378.0518 300.0764 -375.1277 -256.1069 30598.3911 -52.1007 27.0386
TCL: Running FEP window  12: Lambda1 0.5499999999999999 Lambda2 0.6    [dLambda 0.050000000000000044]
TCL: Setting parameter firsttimestep to 0
TCL: Setting parameter alchLambda to 0.5499999999999999
Info: NONBONDED TABLE R-SQUARED SPACING: 0.0625
Info: NONBONDED TABLE SIZE: 705 POINTS
TCL: Setting parameter alchLambda2 to 0.6
Info: NONBONDED TABLE R-SQUARED SPACING: 0.0625
Info: NONBONDED TABLE SIZE: 705 POINTS
TCL: Running for 1500000 steps
ETITLE: TS BOND ANGLE DIHED IMPRP ELECT VDW BOUNDARY MISC KINETIC TOTAL TEMP POTENTIAL TOTALAVG TEMPAVG PRESSURE GPRESSURE VOLUME PRESSAVG GPRESSAVG
ENERGY: 0 1.5281 10.2104 3.4404 0.0000 -10528.4312 1419.5267 0.0000 0.0000 1705.1304 -7388.5951 293.9571 -9093.7256 -7388.5951 293.9571 -323.8178 -248.0759 30598.3911 -323.8178 -248.0759
ENERGY: 300000 3.8878 7.6234 3.4479 0.0000 -10614.3076 1490.9875 0.0000 0.0000 1750.6556 -7357.7055 301.8054 -9108.3610 -7375.8628 297.6107 472.4095 533.6133 29935.5936 -219.0414 -146.2546
ENERGY: 600000 2.6006 7.4221 3.5337 0.0000 -10557.3200 1444.9861 0.0000 0.0000 1776.1101 -7322.6675 306.1936 -9098.7776 -7363.6624 300.0149 298.9269 366.1322 30070.3622 85.4416 153.3381
ENERGY: 900000 1.9368 7.3698 3.7841 0.0000 -10505.4708 1350.4928 0.0000 0.0000 1722.6775 -7419.2098 296.9821 -9141.8873 -7381.4889 298.4389 -502.6854 -377.0013 29413.8687 -97.5635 -20.7439
ENERGY: 1200000 0.8665 9.6810 3.4258 0.0000 -10508.5814 1424.9012 0.0000 0.0000 1748.5398 -7321.1670 301.4407 -9069.7069 -7378.6871 297.4731 31.1322 82.4587 30093.5891 -138.5811 -68.9370
ENERGY: 1500000 3.7478 4.7702 3.5632 0.0000 -10464.4323 1280.4606 0.0000 0.0000 1759.0154 -7412.8751 303.2466 -9171.8905 -7380.7105 297.9266 -1364.6119 -1265.5852 29768.6543 -238.3975 -172.3859
TCL: Running FEP window  13: Lambda1 0.6    Lambda2 0.65   [dLambda 0.050000000000000044]
TCL: Setting parameter firsttimestep to 0
TCL: Setting parameter alchLambda to 0.6
Info: NONBONDED TABLE R-SQUARED SPACING: 0.0625
Info: NONBONDED TABLE SIZE: 705 POINTS
TCL: Setting parameter alchLambda2 to 0.65
Info: NONBONDED TABLE R-SQUARED SPACING: 0.0625
Info: NONBONDED TABLE SIZE: 705 POINTS
TCL: Running for 1500000 steps
ETITLE: TS BOND ANGLE DIHED IMPRP ELECT VDW BOUNDARY MISC KINETIC TOTAL TEMP POTENTIAL TOTALAVG TEMPAVG PRESSURE GPRESSURE VOLUME PRESSAVG GPRESSAVG
ENERGY: 0 3.7478 4.7702 3.5632 0.0000 -10464.4392 1280.7914 0.0000 0.0000 1758.1481 -7413.4185 303.0971 -9171.5666 -7413.4185 303.0971 -1332.3044 -1252.5257 29768.6543 -1332.3044 -1252.5257
ENERGY: 300000 1.5846 9.5315 3.2133 0.0000 -10579.1739 1453.2013 0.0000 0.0000 1775.5414 -7336.1018 306.0956 -9111.6432 -7374.3493 303.4865 572.0356 569.0128 29570.8645 -156.3158 -121.1398
ENERGY: 600000 1.4753 8.7330 3.6517 0.0000 -10405.3219 1339.0568 0.0000 0.0000 1736.4859 -7315.9192 299.3626 -9052.4051 -7358.7748 302.2775 -235.2563 -187.5540 29727.1813 -236.0067 -186.6127
ENERGY: 900000 1.3747 5.0133 3.9171 0.0000 -10471.4350 1331.2209 0.0000 0.0000 1716.8870 -7413.0220 295.9838 -9129.9090 -7372.0984 301.8278 -585.6318 -539.3385 29929.1600 -345.1471 -285.2870
ENERGY: 1200000 0.9230 9.8415 4.3131 0.0000 -10578.9150 1488.9952 0.0000 0.0000 1741.5589 -7333.2834 300.2372 -9074.8423 -7373.6616 300.7411 685.4597 645.9176 29913.9618 -289.7815 -240.3012
ENERGY: 1500000 0.8040 5.4050 3.9831 0.0000 -10677.8838 1476.7409 0.0000 0.0000 1750.3603 -7440.5904 301.7545 -9190.9508 -7384.7947 300.7891 364.7348 397.2843 29547.8029 -218.3601 -161.9963
TCL: Running FEP window  14: Lambda1 0.65   Lambda2 0.7000000000000001 [dLambda 0.050000000000000044]
TCL: Setting parameter firsttimestep to 0
TCL: Setting parameter alchLambda to 0.65
Info: NONBONDED TABLE R-SQUARED SPACING: 0.0625
Info: NONBONDED TABLE SIZE: 705 POINTS
TCL: Setting parameter alchLambda2 to 0.7000000000000001
Info: NONBONDED TABLE R-SQUARED SPACING: 0.0625
Info: NONBONDED TABLE SIZE: 705 POINTS
TCL: Running for 1500000 steps
ETITLE: TS BOND ANGLE DIHED IMPRP ELECT VDW BOUNDARY MISC KINETIC TOTAL TEMP POTENTIAL TOTALAVG TEMPAVG PRESSURE GPRESSURE VOLUME PRESSAVG GPRESSAVG
ENERGY: 0 0.8040 5.4050 3.9831 0.0000 -10677.8931 1476.6340 0.0000 0.0000 1749.5237 -7441.5433 301.6103 -9191.0670 -7441.5433 301.6103 319.5247 404.7943 29547.8029 319.5247 404.7943
ENERGY: 300000 1.2893 8.9101 3.4399 0.0000 -10504.3388 1362.8140 0.0000 0.0000 1783.0027 -7344.8828 307.3819 -9127.8855 -7386.3336 303.4295 -670.4168 -537.5740 30159.2167 -291.1047 -206.8638
ENERGY: 600000 2.0989 7.5070 3.0537 0.0000 -10561.5182 1402.9456 0.0000 0.0000 1744.2049 -7401.7082 300.6933 -9145.9131 -7381.3018 300.0001 -295.2380 -194.0422 30030.8982 -233.6708 -165.7893
ENERGY: 900000 2.6890 11.4451 4.6099 0.0000 -10474.3806 1363.3500 0.0000 0.0000 1744.6100 -7347.6765 300.7632 -9092.2865 -7367.0846 300.6925 -567.2415 -501.5962 30307.5233 -210.6318 -150.3468
ENERGY: 1200000 1.2118 5.2531 2.8566 0.0000 -10522.0275 1422.7995 0.0000 0.0000 1824.1758 -7265.7306 314.4800 -9089.9065 -7353.4767 301.8277 493.5130 602.8692 29456.4522 -175.4522 -112.0501
ENERGY: 1500000 0.6650 10.2600 2.9261 0.0000 -10548.0433 1393.0195 0.0000 0.0000 1704.7412 -7436.4315 293.8900 -9141.1727 -7362.3401 301.2804 -281.8428 -251.6448 30171.6935 -214.1516 -154.6088
TCL: Running FEP window  15: Lambda1 0.7000000000000001 Lambda2 0.7500000000000001 [dLambda 0.050000000000000044]
TCL: Setting parameter firsttimestep to 0
TCL: Setting parameter alchLambda to 0.7000000000000001
Info: NONBONDED TABLE R-SQUARED SPACING: 0.0625
Info: NONBONDED TABLE SIZE: 705 POINTS
TCL: Setting parameter alchLambda2 to 0.7500000000000001
Info: NONBONDED TABLE R-SQUARED SPACING: 0.0625
Info: NONBONDED TABLE SIZE: 705 POINTS
TCL: Running for 1500000 steps
ETITLE: TS BOND ANGLE DIHED IMPRP ELECT VDW BOUNDARY MISC KINETIC TOTAL TEMP POTENTIAL TOTALAVG TEMPAVG PRESSURE GPRESSURE VOLUME PRESSAVG GPRESSAVG
ENERGY: 0 0.6650 10.2600 2.9261 0.0000 -10547.9940 1392.7512 0.0000 0.0000 1703.8915 -7437.5002 293.7435 -9141.3917 -7437.5002 293.7435 -334.2295 -245.3045 30171.6935 -334.2295 -245.3045
ENERGY: 300000 2.6393 7.1113 2.9258 0.0000 -10498.6600 1365.5283 0.0000 0.0000 1707.7334 -7412.7220 294.4058 -9120.4554 -7463.5812 292.1365 -307.1821 -238.1094 29825.5722 -273.2708 -208.3767
ENERGY: 600000 2.7196 7.9727 4.0086 0.0000 -10606.9919 1416.5283 0.0000 0.0000 1786.0242 -7389.7386 307.9028 -9175.7628 -7418.5797 295.8368 -110.5524 -12.4799 29917.8594 -310.4661 -245.0766
ENERGY: 900000 1.1711 12.7299 3.6716 0.0000 -10675.8821 1498.6637 0.0000 0.0000 1768.4603 -7391.1855 304.8749 -9159.6458 -7401.9852 297.4819 241.5649 317.7841 30116.2488 -233.6419 -167.6048
ENERGY: 1200000 0.8849 8.4786 2.9794 0.0000 -10475.8713 1398.4556 0.0000 0.0000 1712.3946 -7352.6781 295.2094 -9065.0728 -7394.6427 296.6486 383.1366 395.7078 29510.4462 -164.6467 -98.9947
ENERGY: 1500000 1.3775 9.0651 3.7802 0.0000 -10608.7537 1440.7707 0.0000 0.0000 1776.9230 -7376.8372 306.3338 -9153.7601 -7388.7925 298.1233 99.7935 152.5733 29884.3300 -138.8782 -75.6747
TCL: Running FEP window  16: Lambda1 0.7500000000000001 Lambda2 0.8000000000000002 [dLambda 0.050000000000000044]
TCL: Setting parameter firsttimestep to 0
TCL: Setting parameter alchLambda to 0.7500000000000001
Info: NONBONDED TABLE R-SQUARED SPACING: 0.0625
Info: NONBONDED TABLE SIZE: 705 POINTS
TCL: Setting parameter alchLambda2 to 0.8000000000000002
Info: NONBONDED TABLE R-SQUARED SPACING: 0.0625
Info: NONBONDED TABLE SIZE: 705 POINTS
TCL: Running for 1500000 steps
ETITLE: TS BOND ANGLE DIHED IMPRP ELECT VDW BOUNDARY MISC KINETIC TOTAL TEMP POTENTIAL TOTALAVG TEMPAVG PRESSURE GPRESSURE VOLUME PRESSAVG GPRESSAVG
ENERGY: 0 1.3775 9.0651 3.7802 0.0000 -10608.7477 1441.3817 0.0000 0.0000 1776.0610 -7377.0822 306.1852 -9153.1431 -7377.0822 306.1852 86.9401 170.2178 29884.3300 86.9401 170.2178
ENERGY: 300000 2.8980 9.3311 4.5081 0.0000 -10540.8149 1443.8804 0.0000 0.0000 1768.9519 -7311.2454 304.9596 -9080.1973 -7340.6179 305.5038 425.5038 500.2933 29667.8125 134.6338 202.7617
ENERGY: 600000 2.0108 8.4588 3.1289 0.0000 -10542.7715 1400.4819 0.0000 0.0000 1717.3107 -7411.3805 296.0569 -9128.6912 -7361.8359 302.2097 -47.2757 19.7275 29459.7943 -84.0657 -32.1973
ENERGY: 900000 1.1369 6.8031 3.2170 0.0000 -10414.7753 1379.8289 0.0000 0.0000 1753.0990 -7270.6904 302.2266 -9023.7895 -7342.6036 302.9870 -311.8495 -192.5042 30417.2621 -116.3170 -46.0883
ENERGY: 1200000 1.9050 7.6693 2.9917 0.0000 -10486.8371 1438.6291 0.0000 0.0000 1800.6432 -7234.9988 310.4230 -9035.6420 -7340.8220 303.2814 488.4221 550.7823 29966.1705 -30.2054 31.6235
ENERGY: 1500000 1.9935 5.6021 3.3189 0.0000 -10494.8925 1374.5450 0.0000 0.0000 1751.9837 -7357.4493 302.0344 -9109.4330 -7344.5749 303.1370 -300.3519 -192.5273 29718.9183 24.1076 87.0122
TCL: Running FEP window  17: Lambda1 0.8000000000000002 Lambda2 0.8500000000000002 [dLambda 0.050000000000000044]
TCL: Setting parameter firsttimestep to 0
TCL: Setting parameter alchLambda to 0.8000000000000002
Info: NONBONDED TABLE R-SQUARED SPACING: 0.0625
Info: NONBONDED TABLE SIZE: 705 POINTS
TCL: Setting parameter alchLambda2 to 0.8500000000000002
Info: NONBONDED TABLE R-SQUARED SPACING: 0.0625
Info: NONBONDED TABLE SIZE: 705 POINTS
TCL: Running for 1500000 steps
ETITLE: TS BOND ANGLE DIHED IMPRP ELECT VDW BOUNDARY MISC KINETIC TOTAL TEMP POTENTIAL TOTALAVG TEMPAVG PRESSURE GPRESSURE VOLUME PRESSAVG GPRESSAVG
ENERGY: 0 1.9935 5.6021 3.3189 0.0000 -10494.8486 1374.4515 0.0000 0.0000 1751.0637 -7358.4189 301.8758 -9109.4826 -7358.4189 301.8758 -267.2546 -184.7463 29718.9183 -267.2546 -184.7463
ENERGY: 300000 1.1090 11.1880 3.1595 0.0000 -10383.5397 1281.0649 0.0000 0.0000 1710.9163 -7376.1021 294.9545 -9087.0184 -7336.7595 300.5782 -936.6545 -862.8225 29986.8501 -501.0527 -453.3435
ENERGY: 600000 1.9587 8.9404 3.4800 0.0000 -10615.8108 1432.3663 0.0000 0.0000 1760.8209 -7408.2444 303.5579 -9169.0653 -7344.0867 301.8813 41.9123 84.0157 29779.4664 -403.8782 -344.0371
ENERGY: 900000 1.1045 10.8426 3.3161 0.0000 -10564.3731 1397.0193 0.0000 0.0000 1716.5111 -7435.5796 295.9190 -9152.0907 -7361.6354 301.1610 -316.3216 -273.6306 30253.6585 -182.8130 -126.5951
ENERGY: 1200000 0.6374 8.5036 2.9723 0.0000 -10702.9475 1471.4358 0.0000 0.0000 1733.0799 -7486.3185 298.7754 -9219.3984 -7373.5571 301.6327 208.5647 298.8138 29831.5498 -102.4826 -44.5239
ENERGY: 1500000 1.7837 12.0414 3.2209 0.0000 -10625.9905 1476.7440 0.0000 0.0000 1804.0058 -7328.1947 311.0027 -9132.2005 -7375.7705 302.2424 540.6338 599.8022 29646.5161 -85.8089 -25.7369
TCL: Running FEP window  18: Lambda1 0.8500000000000002 Lambda2 0.9000000000000002 [dLambda 0.050000000000000044]
TCL: Setting parameter firsttimestep to 0
TCL: Setting parameter alchLambda to 0.8500000000000002
Info: NONBONDED TABLE R-SQUARED SPACING: 0.0625
Info: NONBONDED TABLE SIZE: 705 POINTS
TCL: Setting parameter alchLambda2 to 0.9000000000000002
Info: NONBONDED TABLE R-SQUARED SPACING: 0.0625
Info: NONBONDED TABLE SIZE: 705 POINTS
TCL: Running for 1500000 steps
ETITLE: TS BOND ANGLE DIHED IMPRP ELECT VDW BOUNDARY MISC KINETIC TOTAL TEMP POTENTIAL TOTALAVG TEMPAVG PRESSURE GPRESSURE VOLUME PRESSAVG GPRESSAVG
ENERGY: 0 1.7837 12.0414 3.2209 0.0000 -10626.0111 1476.2482 0.0000 0.0000 1803.1371 -7329.5797 310.8530 -9132.7169 -7329.5797 310.8530 518.5644 601.2261 29646.5161 518.5644 601.2261
ENERGY: 300000 2.7500 4.8707 3.2138 0.0000 -10574.4607 1427.8369 0.0000 0.0000 1792.8584 -7342.9310 309.0810 -9135.7893 -7332.8390 306.1104 205.7111 290.9014 29834.4188 232.1421 320.1536
ENERGY: 600000 1.1658 5.0002 2.9022 0.0000 -10567.7702 1386.0848 0.0000 0.0000 1790.0523 -7382.5648 308.5972 -9172.6171 -7335.9961 307.2324 -459.7716 -333.8264 29906.3248 67.6670 152.4219
ENERGY: 900000 0.7617 7.9071 3.4512 0.0000 -10703.1763 1536.3922 0.0000 0.0000 1730.8802 -7423.7840 298.3962 -9154.6642 -7342.1585 305.2106 958.5206 1013.5698 29746.8462 190.4824 267.9355
ENERGY: 1200000 0.7767 7.2211 3.0289 0.0000 -10410.3441 1393.3358 0.0000 0.0000 1691.0360 -7314.9457 291.5272 -9005.9817 -7344.7821 302.7067 -86.5049 65.3670 30379.4086 80.5815 164.5575
ENERGY: 1500000 1.2391 9.5126 3.6941 0.0000 -10653.9378 1457.7819 0.0000 0.0000 1749.5645 -7432.1454 301.6173 -9181.7100 -7348.5471 303.5654 445.0147 525.2785 29343.1269 45.4850 122.6937
TCL: Running FEP window  19: Lambda1 0.9000000000000002 Lambda2 0.9500000000000003 [dLambda 0.050000000000000044]
TCL: Setting parameter firsttimestep to 0
TCL: Setting parameter alchLambda to 0.9000000000000002
Info: NONBONDED TABLE R-SQUARED SPACING: 0.0625
Info: NONBONDED TABLE SIZE: 705 POINTS
TCL: Setting parameter alchLambda2 to 0.9500000000000003
Info: NONBONDED TABLE R-SQUARED SPACING: 0.0625
Info: NONBONDED TABLE SIZE: 705 POINTS
TCL: Running for 1500000 steps
ETITLE: TS BOND ANGLE DIHED IMPRP ELECT VDW BOUNDARY MISC KINETIC TOTAL TEMP POTENTIAL TOTALAVG TEMPAVG PRESSURE GPRESSURE VOLUME PRESSAVG GPRESSAVG
ENERGY: 0 1.2391 9.5126 3.6941 0.0000 -10653.9069 1458.0639 0.0000 0.0000 1748.7036 -7432.6936 301.4689 -9181.3971 -7432.6936 301.4689 448.7671 541.4004 29343.1269 448.7671 541.4004
ENERGY: 300000 0.4965 7.6288 3.8931 0.0000 -10665.4351 1474.8276 0.0000 0.0000 1793.0544 -7385.5347 309.1148 -9178.5891 -7393.1677 301.0611 481.3993 566.4892 29656.0249 98.3972 171.7407
ENERGY: 600000 0.3342 10.5577 3.4890 0.0000 -10543.9399 1458.2975 0.0000 0.0000 1709.1309 -7362.1307 294.6467 -9071.2616 -7382.3495 299.5162 463.1984 517.7316 29982.1263 91.2095 159.6294
ENERGY: 900000 1.8978 6.2168 3.1998 0.0000 -10425.6928 1343.5838 0.0000 0.0000 1743.9975 -7326.7971 300.6576 -9070.7946 -7372.0097 299.5571 -466.5712 -311.9319 30192.0626 71.5481 147.1725
ENERGY: 1200000 1.3865 10.0923 3.3053 0.0000 -10645.0835 1467.4824 0.0000 0.0000 1755.4247 -7407.3922 302.6276 -9162.8169 -7367.0345 299.8316 287.7473 338.7865 29936.8044 20.9790 89.6383
ENERGY: 1500000 2.5347 8.3735 3.9904 0.0000 -10557.8039 1414.6012 0.0000 0.0000 1685.0927 -7443.2114 290.5026 -9128.3041 -7365.3722 299.2912 108.6291 174.7981 29714.1663 -6.1984 66.6969
TCL: Running FEP window  20: Lambda1 0.9500000000000003 Lambda2 1.0    [dLambda 0.04999999999999971]
TCL: Setting parameter firsttimestep to 0
TCL: Setting parameter alchLambda to 0.9500000000000003
Info: NONBONDED TABLE R-SQUARED SPACING: 0.0625
Info: NONBONDED TABLE SIZE: 705 POINTS
TCL: Setting parameter alchLambda2 to 1.0
Info: NONBONDED TABLE R-SQUARED SPACING: 0.0625
Info: NONBONDED TABLE SIZE: 705 POINTS
TCL: Running for 1500000 steps
ETITLE: TS BOND ANGLE DIHED IMPRP ELECT VDW BOUNDARY MISC KINETIC TOTAL TEMP POTENTIAL TOTALAVG TEMPAVG PRESSURE GPRESSURE VOLUME PRESSAVG GPRESSAVG
ENERGY: 0 2.5347 8.3735 3.9904 0.0000 -10557.7744 1415.7030 0.0000 0.0000 1684.2359 -7442.9368 290.3549 -9127.1727 -7442.9368 290.3549 115.4651 206.5234 29714.1663 115.4651 206.5234
ENERGY: 300000 1.0279 7.0271 2.8837 0.0000 -10564.5381 1431.8833 0.0000 0.0000 1736.2002 -7385.5158 299.3134 -9121.7160 -7420.9593 296.4654 113.8407 174.1605 30048.0388 27.5614 92.5774
ENERGY: 600000 2.8343 12.0266 3.4225 0.0000 -10559.9859 1481.0136 0.0000 0.0000 1767.3231 -7293.3659 304.6788 -9060.6890 -7390.7549 298.3399 650.6636 623.9446 30040.2550 188.7729 239.6968
ENERGY: 900000 1.4790 8.9728 3.5829 0.0000 -10530.9897 1410.8905 0.0000 0.0000 1786.5208 -7319.5438 307.9884 -9106.0645 -7393.6181 299.3343 -73.0526 16.9885 30242.6281 163.5250 223.6959
ENERGY: 1200000 2.6462 7.7362 3.0060 0.0000 -10568.4369 1436.3764 0.0000 0.0000 1762.3541 -7356.3181 303.8222 -9118.6722 -7402.4107 299.8286 145.6592 258.2820 29887.1316 51.1156 118.4015
ENERGY: 1500000 1.0075 8.7035 3.6247 0.0000 -10646.6972 1508.2358 0.0000 0.0000 1782.1375 -7342.9882 307.2327 -9125.1258 -7388.1198 300.9806 723.0951 788.3422 29967.4125 25.3629 94.9760
TCL: Exiting due to exit command.
