Info: SIMULATION PARAMETERS:
Info: TIMESTEP               2
Info: NUMBER OF STEPS        0
Info: STEPS PER CYCLE        10
Info: PERIODIC CELL BASIS 1  31.2429 0 0
Info: PERIODIC CELL BASIS 2  0 30.5946 0
Info: PERIODIC CELL BASIS 3  0 0 32.3261
Info: PERIODIC CELL CENTER   0 0 0
Info: WRAPPING WATERS AROUND PERIODIC BOUNDARIES ON OUTPUT.
Info: WRAPPING ALL CLUSTERS AROUND PERIODIC BOUNDARIES ON OUTPUT.
Info: FIRST LDB TIMESTEP     50
Info: LAST LDB TIMESTEP     -1
Info: HOM BACKGROUND SCALING 1
Info: PME BACKGROUND SCALING 1
Info: MIN ATOMS PER PATCH    40
Info: EMPTY PATCH LOAD       40 ATOMS
Info: VELOCITY FILE          mobley_9246351_equil.vel
Info: CENTER OF MASS MOVING INITIALLY? NO
Info: DIELECTRIC             1
Info: EXCLUDE                SCALED ONE-FOUR
Info: 1-4 ELECTROSTATICS SCALED BY 0.833333
Info: MODIFIED 1-4 VDW PARAMETERS WILL BE USED
Info: DCD FILENAME           mobley_9246351_prod.dcd
Info: DCD FREQUENCY          100000
Info: DCD FIRST STEP         100000
Info: DCD FILE WILL CONTAIN UNIT CELL DATA
Info: XST FILENAME           mobley_9246351_prod.xst
Info: XST FREQUENCY          100000
Info: NO VELOCITY DCD OUTPUT
Info: NO FORCE DCD OUTPUT
Info: OUTPUT FILENAME        mobley_9246351_prod
Info: BINARY OUTPUT FILES WILL BE USED
Info: RESTART FILENAME       mobley_9246351_prod.restart
Info: RESTART FREQUENCY      100000
Info: BINARY RESTART FILES WILL BE USED
Info: CUTOFF                 9
Info: PAIRLIST DISTANCE      11
Info: PAIRLIST SHRINK RATE   0.01
Info: PAIRLIST GROW RATE     0.01
Info: PAIRLIST TRIGGER       0.3
Info: PAIRLISTS PER CYCLE    2
Info: PAIRLISTS ENABLED
Info: MARGIN                 2
Info: HYDROGEN GROUP CUTOFF  2.5
Info: PATCH DIMENSION        15.5
Info: ENERGY OUTPUT STEPS    100000
Info: ENERGY EVALUATION STEPS    100000
Info: OUTPUT ENERGY PRECISION 4
Info: CROSSTERM ENERGY INCLUDED IN DIHEDRAL
Info: TIMING OUTPUT STEPS    1000000
Info: PRESSURE OUTPUT STEPS  100000
Info: ALCHEMICAL FEP ON
Info: FEP CURRENT LAMBDA VALUE     1
Info: FEP COMPARISON LAMBDA VALUE  0.95
Info: FEP INTRA-ALCHEMICAL NON-BONDED INTERACTIONS WILL BE RETAINED
Info: FEP INTRA-ALCHEMICAL BONDED INTERACTIONS WILL BE RETAINED
Info: FEP VDW SHIFTING COEFFICIENT 5
Info: FEP ELEC. ACTIVE FOR ANNIHILATED PARTICLES BETWEEN LAMBDA = 0 AND LAMBDA = 0.5
Info: FEP ELEC. ACTIVE FOR EXNIHILATED PARTICLES BETWEEN LAMBDA = 0.5 AND LAMBDA = 1
Info: FEP VDW ACTIVE FOR ANNIHILATED PARTICLES BETWEEN LAMBDA = 0 AND LAMBDA = 1
Info: FEP VDW ACTIVE FOR EXNIHILATED PARTICLES BETWEEN LAMBDA = 0 AND LAMBDA = 1
Info: FEP BOND ACTIVE FOR ANNIHILATED PARTICLES BETWEEN LAMBDA = 1 AND LAMBDA = 1
Info: FEP BOND ACTIVE FOR EXNIHILATED PARTICLES BETWEEN LAMBDA = 0 AND LAMBDA = 0
Info: LANGEVIN DYNAMICS ACTIVE
Info: LANGEVIN TEMPERATURE   300
Info: LANGEVIN USING BBK INTEGRATOR
Info: LANGEVIN DAMPING COEFFICIENT IS 1 INVERSE PS
Info: LANGEVIN DYNAMICS APPLIED TO HYDROGENS
Info: LANGEVIN PISTON PRESSURE CONTROL ACTIVE
Info:        TARGET PRESSURE IS 1.01325 BAR
Info:     OSCILLATION PERIOD IS 50 FS
Info:             DECAY TIME IS 25 FS
Info:     PISTON TEMPERATURE IS 300 K
Info:       PRESSURE CONTROL IS GROUP-BASED
Info:    INITIAL STRAIN RATE IS -9.28285e-05 -9.28285e-05 -9.28285e-05
Info:       CELL FLUCTUATION IS ISOTROPIC
Info: PARTICLE MESH EWALD (PME) ACTIVE
Info: PME TOLERANCE               1e-06
Info: PME EWALD COEFFICIENT       0.348832
Info: PME INTERPOLATION ORDER     4
Info: PME GRID DIMENSIONS         32 32 36
Info: PME MAXIMUM GRID SPACING    1
Info: PME CALCULATION WILL BE PERFORMED ON GPU
Info: FULL ELECTROSTATIC EVALUATION FREQUENCY      2
Info: USING VERLET I (r-RESPA) MTS SCHEME.
Info: C1 SPLITTING OF LONG RANGE ELECTROSTATICS
Info: PLACING ATOMS IN PATCHES BY HYDROGEN GROUPS
Info: RIGID BONDS TO HYDROGEN : ALL
Info:         ERROR TOLERANCE : 1e-08
Info:          MAX ITERATIONS : 100
Info: RIGID WATER USING SETTLE ALGORITHM
Info: RANDOM NUMBER SEED     1743481341
Info: USE HYDROGEN BONDS?    NO
Info: Using AMBER format force field!
Info: AMBER PARM FILE        mobley_9246351.prmtop
Info: COORDINATE PDB         mobley_9246351.pdb
Info: Exclusions will be read from PARM file!
Info: SCNB (VDW SCALING)     2
Info: USING ARITHMETIC MEAN TO COMBINE L-J SIGMA PARAMETERS
Info: BINARY COORDINATES     mobley_9246351_equil.coor
Info: SUMMARY OF PARAMETERS:
Info: 4 BONDS
Info: 3 ANGLES
Info:   3 HARMONIC
Info:   0 COSINE-BASED
Info: 0 DIHEDRAL
Info: 0 IMPROPER
Info: 0 CROSSTERM
Info: 0 VDW
Info: 15 VDW_PAIRS
Info: 0 NBTHOLE_PAIRS
Info: To read alchdata from file: mobley_9246351.pdb
Info: To read alchflag data from column: 5
Info: STRUCTURE SUMMARY:
Info: 2906 ATOMS
Info: 2905 BONDS
Info: 6 ANGLES
Info: 0 DIHEDRALS
Info: 0 IMPROPERS
Info: 0 CROSSTERMS
Info: 2911 EXCLUSIONS
Info: 2903 RIGID BONDS
Info: ALCH: 0 ATOMS TO DISAPPEAR IN FINAL STATE
Info: ALCH: 5 ATOMS TO APPEAR IN FINAL STATE
Info: 5815 DEGREES OF FREEDOM
Info: 970 HYDROGEN GROUPS
Info: 3 ATOMS IN LARGEST HYDROGEN GROUP
Info: 970 MIGRATION GROUPS
Info: 3 ATOMS IN LARGEST MIGRATION GROUP
Info: TOTAL MASS = 17595.3 amu
Info: TOTAL CHARGE = -0.000100001 e
Info: MASS DENSITY = 0.945597 g/cm^3
Info: ATOM DENSITY = 0.0940472 atoms/A^3
Info: ADDED 0 IMPLICIT EXCLUSIONS
Info: NONBONDED TABLE R-SQUARED SPACING: 0.0625
Info: NONBONDED TABLE SIZE: 705 POINTS
Info: REMOVING COM VELOCITY 0.14592 -0.0130922 -0.175771
Info: Use 3D box decompostion in PME FFT.
Info: Updated CUDA force table with 4096 elements.
Info: Updated CUDA LJ table with 5 x 5 elements.
Info: Found 8 unique exclusion lists needing 8 bytes
TCL: Running for 1500000 steps
ETITLE: TS BOND ANGLE DIHED IMPRP ELECT VDW BOUNDARY MISC KINETIC TOTAL TEMP POTENTIAL TOTALAVG TEMPAVG PRESSURE GPRESSURE VOLUME PRESSAVG GPRESSAVG
ENERGY: 0 2.1221 0.5913 0.0000 0.0000 -10578.8818 1420.1260 0.0000 0.0000 1700.5764 -7455.4660 294.3315 -9156.0424 -7455.4660 294.3315 -517.4863 -427.9261 30899.3706 -517.4863 -427.9261
ENERGY: 300000 1.8655 1.3530 0.0000 0.0000 -10439.6069 1328.7978 0.0000 0.0000 1754.5531 -7353.0376 303.6737 -9107.5907 -7389.9052 303.1201 -395.1305 -310.1555 29836.7256 -77.8783 10.8449
ENERGY: 600000 0.5029 1.2492 0.0000 0.0000 -10556.2038 1459.2779 0.0000 0.0000 1761.5656 -7333.6082 304.8874 -9095.1738 -7381.7181 303.9773 173.2438 181.0718 30344.2432 67.6368 139.0915
ENERGY: 900000 0.4150 1.0071 0.0000 0.0000 -10393.7826 1313.3466 0.0000 0.0000 1745.1255 -7333.8885 302.0420 -9079.0140 -7372.2594 303.2250 -664.0560 -683.3453 30224.8115 -24.7015 44.4701
ENERGY: 1200000 0.0665 1.5716 0.0000 0.0000 -10625.9303 1447.3247 0.0000 0.0000 1761.3900 -7415.5775 304.8570 -9176.9675 -7388.2987 302.6328 237.1121 246.7750 29870.9058 76.1256 138.9279
ENERGY: 1500000 0.7043 3.5856 0.0000 0.0000 -10764.1946 1500.0013 0.0000 0.0000 1710.0135 -7549.8899 295.9649 -9259.9034 -7400.1474 302.0771 318.7763 425.2400 29600.7257 22.8216 90.0694
TCL: Running FEP window   2: Lambda1 0.95   Lambda2 0.8999999999999999 [dLambda -0.050000000000000044]
TCL: Setting parameter firsttimestep to 0
TCL: Setting parameter alchLambda to 0.95
Info: NONBONDED TABLE R-SQUARED SPACING: 0.0625
Info: NONBONDED TABLE SIZE: 705 POINTS
TCL: Setting parameter alchLambda2 to 0.8999999999999999
Info: NONBONDED TABLE R-SQUARED SPACING: 0.0625
Info: NONBONDED TABLE SIZE: 705 POINTS
TCL: Running for 1500000 steps
ETITLE: TS BOND ANGLE DIHED IMPRP ELECT VDW BOUNDARY MISC KINETIC TOTAL TEMP POTENTIAL TOTALAVG TEMPAVG PRESSURE GPRESSURE VOLUME PRESSAVG GPRESSAVG
ENERGY: 0 0.7043 3.5856 0.0000 0.0000 -10763.9654 1500.1230 0.0000 0.0000 1709.1092 -7550.4433 295.8084 -9259.5525 -7550.4433 295.8084 339.6801 421.7069 29600.7257 339.6801 421.7069
ENERGY: 300000 1.5554 1.6288 0.0000 0.0000 -10537.3968 1359.6782 0.0000 0.0000 1737.9520 -7436.5824 300.8004 -9174.5344 -7423.6900 303.0579 -500.2739 -516.1587 29846.3679 11.2632 72.2680
ENERGY: 600000 0.2317 0.9051 0.0000 0.0000 -10583.7847 1409.7681 0.0000 0.0000 1693.4056 -7479.4742 293.0904 -9172.8798 -7432.7160 299.7095 -209.7134 -84.4586 29671.5120 -60.4057 14.7401
ENERGY: 900000 0.1907 2.2500 0.0000 0.0000 -10380.0302 1309.2194 0.0000 0.0000 1699.6637 -7368.7064 294.1736 -9068.3701 -7440.2023 299.1486 -805.4392 -724.7969 30477.7443 -292.0245 -209.0777
ENERGY: 1200000 0.0788 2.5125 0.0000 0.0000 -10675.1496 1488.5313 0.0000 0.0000 1707.2099 -7476.8171 295.4797 -9184.0270 -7431.3986 299.7329 208.1498 292.4625 30082.0226 -300.9835 -218.8239
ENERGY: 1500000 0.1846 1.9414 0.0000 0.0000 -10716.7597 1460.0300 0.0000 0.0000 1757.4360 -7497.1677 304.1727 -9254.6037 -7436.8470 300.2825 244.1794 379.4779 29446.3801 -261.9524 -177.4501
TCL: Running FEP window   3: Lambda1 0.8999999999999999 Lambda2 0.8499999999999999 [dLambda -0.050000000000000044]
TCL: Setting parameter firsttimestep to 0
TCL: Setting parameter alchLambda to 0.8999999999999999
Info: NONBONDED TABLE R-SQUARED SPACING: 0.0625
Info: NONBONDED TABLE SIZE: 705 POINTS
TCL: Setting parameter alchLambda2 to 0.8499999999999999
Info: NONBONDED TABLE R-SQUARED SPACING: 0.0625
Info: NONBONDED TABLE SIZE: 705 POINTS
TCL: Running for 1500000 steps
ETITLE: TS BOND ANGLE DIHED IMPRP ELECT VDW BOUNDARY MISC KINETIC TOTAL TEMP POTENTIAL TOTALAVG TEMPAVG PRESSURE GPRESSURE VOLUME PRESSAVG GPRESSAVG
ENERGY: 0 0.1846 1.9414 0.0000 0.0000 -10716.5545 1460.2767 0.0000 0.0000 1756.5290 -7497.6228 304.0157 -9254.1518 -7497.6228 304.0157 287.7072 372.1326 29446.3801 287.7072 372.1326
ENERGY: 300000 1.1563 3.9067 0.0000 0.0000 -10568.7083 1429.5851 0.0000 0.0000 1737.9605 -7396.0997 300.8019 -9134.0602 -7461.2258 300.8651 115.4956 221.2594 29874.1438 61.2948 153.9116
ENERGY: 600000 0.0884 1.6482 0.0000 0.0000 -10603.7219 1456.7512 0.0000 0.0000 1689.4758 -7455.7582 292.4103 -9145.2340 -7437.2532 301.3915 401.9250 382.0595 29932.6611 77.0266 153.6694
ENERGY: 900000 1.9892 0.5046 0.0000 0.0000 -10437.5394 1329.1605 0.0000 0.0000 1713.2383 -7392.6467 296.5230 -9105.8851 -7420.8404 301.1148 -484.6782 -420.3111 29864.8630 -48.8932 32.2261
ENERGY: 1200000 0.3278 1.7531 0.0000 0.0000 -10662.7402 1498.5601 0.0000 0.0000 1762.1953 -7399.9039 304.9964 -9162.0992 -7421.0297 300.5920 741.5659 827.3821 29456.7480 -26.9407 55.4820
ENERGY: 1500000 1.3928 2.3100 0.0000 0.0000 -10470.8299 1387.9788 0.0000 0.0000 1753.5466 -7325.6018 303.4995 -9079.1483 -7418.3635 300.8066 -110.0209 -48.3397 30180.2952 -27.3830 52.9871
TCL: Running FEP window   4: Lambda1 0.8499999999999999 Lambda2 0.7999999999999998 [dLambda -0.050000000000000044]
TCL: Setting parameter firsttimestep to 0
TCL: Setting parameter alchLambda to 0.8499999999999999
Info: NONBONDED TABLE R-SQUARED SPACING: 0.0625
Info: NONBONDED TABLE SIZE: 705 POINTS
TCL: Setting parameter alchLambda2 to 0.7999999999999998
Info: NONBONDED TABLE R-SQUARED SPACING: 0.0625
Info: NONBONDED TABLE SIZE: 705 POINTS
TCL: Running for 1500000 steps
ETITLE: TS BOND ANGLE DIHED IMPRP ELECT VDW BOUNDARY MISC KINETIC TOTAL TEMP POTENTIAL TOTALAVG TEMPAVG PRESSURE GPRESSURE VOLUME PRESSAVG GPRESSAVG
ENERGY: 0 1.3928 2.3100 0.0000 0.0000 -10470.4840 1388.1652 0.0000 0.0000 1752.6807 -7325.9354 303.3496 -9078.6161 -7325.9354 303.3496 -142.7629 -54.0556 30180.2952 -142.7629 -54.0556
ENERGY: 300000 0.5201 1.0843 0.0000 0.0000 -10754.8058 1530.4441 0.0000 0.0000 1751.9350 -7470.8222 303.2206 -9222.7572 -7402.8214 300.9800 804.8566 856.2056 29696.2983 230.0856 301.2838
ENERGY: 600000 0.3710 1.9475 0.0000 0.0000 -10581.5490 1440.2257 0.0000 0.0000 1727.0635 -7411.9413 298.9159 -9139.0048 -7397.1783 299.2174 175.5071 245.7285 29825.8162 -8.9107 65.6143
ENERGY: 900000 0.0326 4.4894 0.0000 0.0000 -10415.3329 1335.7838 0.0000 0.0000 1671.9416 -7403.0855 289.3755 -9075.0271 -7399.3642 299.3053 -533.0456 -549.0236 30192.5052 -120.3675 -68.4606
ENERGY: 1200000 0.4169 1.1268 0.0000 0.0000 -10406.1385 1370.9791 0.0000 0.0000 1765.1316 -7268.4840 305.5046 -9033.6156 -7388.6037 299.2332 44.6220 56.5313 30072.8401 -72.3288 -18.1077
ENERGY: 1500000 0.2268 1.0833 0.0000 0.0000 -10491.2491 1349.2898 0.0000 0.0000 1771.8446 -7368.8045 306.6665 -9140.6491 -7381.9151 300.2219 -374.8983 -317.0607 30142.8847 -80.1142 -23.8556
TCL: Running FEP window   5: Lambda1 0.7999999999999998 Lambda2 0.7499999999999998 [dLambda -0.050000000000000044]
TCL: Setting parameter firsttimestep to 0
TCL: Setting parameter alchLambda to 0.7999999999999998
Info: NONBONDED TABLE R-SQUARED SPACING: 0.0625
Info: NONBONDED TABLE SIZE: 705 POINTS
TCL: Setting parameter alchLambda2 to 0.7499999999999998
Info: NONBONDED TABLE R-SQUARED SPACING: 0.0625
Info: NONBONDED TABLE SIZE: 705 POINTS
TCL: Running for 1500000 steps
ETITLE: TS BOND ANGLE DIHED IMPRP ELECT VDW BOUNDARY MISC KINETIC TOTAL TEMP POTENTIAL TOTALAVG TEMPAVG PRESSURE GPRESSURE VOLUME PRESSAVG GPRESSAVG
ENERGY: 0 0.2268 1.0833 0.0000 0.0000 -10491.0650 1349.1623 0.0000 0.0000 1771.0028 -7369.5897 306.5208 -9140.5925 -7369.5897 306.5208 -403.8479 -326.9165 30142.8847 -403.8479 -326.9165
ENERGY: 300000 0.7567 3.0368 0.0000 0.0000 -10711.4891 1498.8001 0.0000 0.0000 1788.3085 -7420.5869 309.5160 -9208.8955 -7408.1106 301.4617 544.8754 648.1482 29549.7744 -232.7346 -156.7834
ENERGY: 600000 0.0001 1.7656 0.0000 0.0000 -10368.1597 1328.4735 0.0000 0.0000 1763.4104 -7274.5101 305.2067 -9037.9204 -7376.8033 301.8163 -559.5066 -442.7265 30336.5653 -71.0986 10.5721
ENERGY: 900000 1.3488 3.0745 0.0000 0.0000 -10429.6716 1334.9530 0.0000 0.0000 1681.8526 -7408.4426 291.0909 -9090.2952 -7389.9119 300.5425 -824.3519 -752.8122 30360.6073 -269.3817 -185.0860
ENERGY: 1200000 1.5001 1.2268 0.0000 0.0000 -10571.0899 1381.0751 0.0000 0.0000 1737.7123 -7449.5756 300.7589 -9187.2880 -7400.6980 300.0988 -569.5823 -517.0963 30174.8639 -260.6796 -186.0466
ENERGY: 1500000 0.0148 0.9323 0.0000 0.0000 -10412.7078 1365.3803 0.0000 0.0000 1693.0381 -7353.3423 293.0268 -9046.3804 -7397.1880 299.3426 -359.2665 -276.5261 30293.2101 -238.8523 -166.8816
TCL: Running FEP window   6: Lambda1 0.7499999999999998 Lambda2 0.6999999999999997 [dLambda -0.050000000000000044]
TCL: Setting parameter firsttimestep to 0
TCL: Setting parameter alchLambda to 0.7499999999999998
Info: NONBONDED TABLE R-SQUARED SPACING: 0.0625
Info: NONBONDED TABLE SIZE: 705 POINTS
TCL: Setting parameter alchLambda2 to 0.6999999999999997
Info: NONBONDED TABLE R-SQUARED SPACING: 0.0625
Info: NONBONDED TABLE SIZE: 705 POINTS
TCL: Running for 1500000 steps
ETITLE: TS BOND ANGLE DIHED IMPRP ELECT VDW BOUNDARY MISC KINETIC TOTAL TEMP POTENTIAL TOTALAVG TEMPAVG PRESSURE GPRESSURE VOLUME PRESSAVG GPRESSAVG
ENERGY: 0 0.0148 0.9323 0.0000 0.0000 -10412.7034 1365.7053 0.0000 0.0000 1692.1834 -7353.8676 292.8789 -9046.0510 -7353.8676 292.8789 -358.4149 -279.7054 30293.2101 -358.4149 -279.7054
ENERGY: 300000 0.7150 2.0105 0.0000 0.0000 -10679.4769 1460.0291 0.0000 0.0000 1688.9451 -7527.7772 292.3184 -9216.7223 -7439.5647 296.1226 56.6047 130.3832 30081.5731 -4.5151 54.7652
ENERGY: 600000 0.0953 1.0585 0.0000 0.0000 -10505.9783 1415.5732 0.0000 0.0000 1726.5424 -7362.7088 298.8257 -9089.2513 -7403.2624 298.0072 18.9337 80.5830 30125.0822 -49.2351 17.6786
ENERGY: 900000 0.0869 3.2956 0.0000 0.0000 -10534.8019 1389.1635 0.0000 0.0000 1766.1016 -7376.1542 305.6725 -9142.2558 -7400.6371 299.9501 -509.7300 -462.2731 30483.4632 -85.6263 -26.0358
ENERGY: 1200000 0.3290 1.4509 0.0000 0.0000 -10505.1250 1423.2182 0.0000 0.0000 1708.0427 -7372.0842 295.6238 -9080.1268 -7401.4735 299.0538 92.3586 177.1422 29953.8587 -68.5371 -6.2544
ENERGY: 1500000 0.4082 2.2690 0.0000 0.0000 -10638.2049 1455.0995 0.0000 0.0000 1735.7028 -7444.7254 300.4111 -9180.4282 -7403.5901 300.0326 226.0550 290.8372 29855.7858 -43.0944 19.5282
TCL: Running FEP window   7: Lambda1 0.6999999999999997 Lambda2 0.6499999999999997 [dLambda -0.050000000000000044]
TCL: Setting parameter firsttimestep to 0
TCL: Setting parameter alchLambda to 0.6999999999999997
Info: NONBONDED TABLE R-SQUARED SPACING: 0.0625
Info: NONBONDED TABLE SIZE: 705 POINTS
TCL: Setting parameter alchLambda2 to 0.6499999999999997
Info: NONBONDED TABLE R-SQUARED SPACING: 0.0625
Info: NONBONDED TABLE SIZE: 705 POINTS
TCL: Running for 1500000 steps
ETITLE: TS BOND ANGLE DIHED IMPRP ELECT VDW BOUNDARY MISC KINETIC TOTAL TEMP POTENTIAL TOTALAVG TEMPAVG PRESSURE GPRESSURE VOLUME PRESSAVG GPRESSAVG
ENERGY: 0 0.4082 2.2690 0.0000 0.0000 -10638.0896 1455.2160 0.0000 0.0000 1734.8829 -7445.3136 300.2692 -9180.1964 -7445.3136 300.2692 209.4473 286.1531 29855.7858 209.4473 286.1531
ENERGY: 300000 0.0351 0.7525 0.0000 0.0000 -10667.9800 1459.3783 0.0000 0.0000 1741.7762 -7466.0379 301.4623 -9207.8141 -7396.5611 300.1277 -47.9949 47.7406 29981.5215 -184.1752 -104.2793
ENERGY: 600000 0.4407 0.8779 0.0000 0.0000 -10724.6475 1541.7293 0.0000 0.0000 1724.4161 -7457.1834 298.4577 -9181.5995 -7417.8648 298.2199 598.3819 702.0486 30047.7057 -30.2338 54.0963
ENERGY: 900000 1.2488 0.7281 0.0000 0.0000 -10544.4655 1454.2684 0.0000 0.0000 1732.8522 -7355.3680 299.9178 -9088.2202 -7414.1930 298.8943 401.8028 450.4624 29725.4810 -26.4317 41.7049
ENERGY: 1200000 0.4613 1.9247 0.0000 0.0000 -10488.8415 1420.1413 0.0000 0.0000 1763.0291 -7303.2851 305.1407 -9066.3142 -7405.9390 299.5253 -133.0167 -45.0391 30576.6086 -36.1160 34.9183
ENERGY: 1500000 1.2564 1.2181 0.0000 0.0000 -10408.5783 1317.9196 0.0000 0.0000 1768.4297 -7319.7544 306.0754 -9088.1841 -7404.2137 300.0576 -378.3720 -375.2917 29607.9702 -20.8009 46.3738
TCL: Running FEP window   8: Lambda1 0.6499999999999997 Lambda2 0.5999999999999996 [dLambda -0.050000000000000044]
TCL: Setting parameter firsttimestep to 0
TCL: Setting parameter alchLambda to 0.6499999999999997
Info: NONBONDED TABLE R-SQUARED SPACING: 0.0625
Info: NONBONDED TABLE SIZE: 705 POINTS
TCL: Setting parameter alchLambda2 to 0.5999999999999996
Info: NONBONDED TABLE R-SQUARED SPACING: 0.0625
Info: NONBONDED TABLE SIZE: 705 POINTS
TCL: Running for 1500000 steps
ETITLE: TS BOND ANGLE DIHED IMPRP ELECT VDW BOUNDARY MISC KINETIC TOTAL TEMP POTENTIAL TOTALAVG TEMPAVG PRESSURE GPRESSURE VOLUME PRESSAVG GPRESSAVG
ENERGY: 0 1.2564 1.2181 0.0000 0.0000 -10408.8082 1317.9983 0.0000 0.0000 1767.5676 -7320.7678 305.9262 -9088.3353 -7320.7678 305.9262 -466.0053 -377.6862 29607.9702 -466.0053 -377.6862
ENERGY: 300000 0.2618 0.3905 0.0000 0.0000 -10473.6909 1377.3581 0.0000 0.0000 1752.0199 -7343.6605 303.2353 -9095.6805 -7360.9230 300.2522 -142.2888 -93.8413 29954.4494 -459.4776 -391.0190
ENERGY: 600000 0.6791 0.9289 0.0000 0.0000 -10614.7711 1483.8039 0.0000 0.0000 1735.4679 -7393.8912 300.3705 -9129.3591 -7399.1875 298.5361 664.6278 710.0783 29871.1385 -386.5431 -311.3066
ENERGY: 900000 2.7086 3.4844 0.0000 0.0000 -10549.6967 1442.5826 0.0000 0.0000 1739.1745 -7361.7467 301.0120 -9100.9212 -7392.7162 299.6436 316.4189 386.5710 30092.5502 -275.8677 -197.9671
ENERGY: 1200000 0.4845 2.0381 0.0000 0.0000 -10667.8647 1402.4622 0.0000 0.0000 1749.9593 -7512.9207 302.8786 -9262.8800 -7402.2775 300.1541 -519.5802 -487.8043 29910.9605 -284.5212 -213.3482
ENERGY: 1500000 0.8180 0.5357 0.0000 0.0000 -10499.4423 1329.0802 0.0000 0.0000 1705.7696 -7463.2389 295.2304 -9169.0085 -7396.6387 299.4033 -903.9861 -836.3824 30059.2550 -279.9061 -208.6395
TCL: Running FEP window   9: Lambda1 0.5999999999999996 Lambda2 0.5499999999999996 [dLambda -0.050000000000000044]
TCL: Setting parameter firsttimestep to 0
TCL: Setting parameter alchLambda to 0.5999999999999996
Info: NONBONDED TABLE R-SQUARED SPACING: 0.0625
Info: NONBONDED TABLE SIZE: 705 POINTS
TCL: Setting parameter alchLambda2 to 0.5499999999999996
Info: NONBONDED TABLE R-SQUARED SPACING: 0.0625
Info: NONBONDED TABLE SIZE: 705 POINTS
TCL: Running for 1500000 steps
ETITLE: TS BOND ANGLE DIHED IMPRP ELECT VDW BOUNDARY MISC KINETIC TOTAL TEMP POTENTIAL TOTALAVG TEMPAVG PRESSURE GPRESSURE VOLUME PRESSAVG GPRESSAVG
ENERGY: 0 0.8180 0.5357 0.0000 0.0000 -10498.8782 1328.4969 0.0000 0.0000 1704.9096 -7464.1179 295.0815 -9169.0275 -7464.1179 295.0815 -936.8086 -845.7910 30059.2550 -936.8086 -845.7910
ENERGY: 300000 1.1884 1.5839 0.0000 0.0000 -10437.8467 1392.4803 0.0000 0.0000 1742.5263 -7300.0679 301.5921 -9042.5942 -7436.6659 295.1508 -137.4762 -79.9593 30318.8800 -311.6337 -240.5876
ENERGY: 600000 0.1458 0.9375 0.0000 0.0000 -10686.5623 1501.2411 0.0000 0.0000 1734.4407 -7449.7971 300.1927 -9184.2378 -7416.6405 298.5364 523.7212 577.0497 29790.3057 -217.4115 -149.3071
ENERGY: 900000 0.6946 1.2497 0.0000 0.0000 -10561.1147 1442.2578 0.0000 0.0000 1709.5193 -7407.3932 295.8794 -9116.9125 -7409.5653 299.4699 176.6317 203.1834 30061.3684 -147.1504 -85.1488
ENERGY: 1200000 1.4619 1.3682 0.0000 0.0000 -10575.6343 1405.9930 0.0000 0.0000 1739.6876 -7427.1235 301.1008 -9166.8112 -7405.4659 299.8897 -4.8429 66.8924 29787.5986 -36.4889 14.8158
ENERGY: 1500000 0.4073 2.2549 0.0000 0.0000 -10454.5815 1347.1663 0.0000 0.0000 1726.9987 -7377.7544 298.9046 -9104.7531 -7396.0329 300.6211 -271.2096 -169.4769 29754.1437 -44.2961 9.6054
TCL: Running FEP window  10: Lambda1 0.5499999999999996 Lambda2 0.4999999999999996 [dLambda -0.04999999999999999]
TCL: Setting parameter firsttimestep to 0
TCL: Setting parameter alchLambda to 0.5499999999999996
Info: NONBONDED TABLE R-SQUARED SPACING: 0.0625
Info: NONBONDED TABLE SIZE: 705 POINTS
TCL: Setting parameter alchLambda2 to 0.4999999999999996
Info: NONBONDED TABLE R-SQUARED SPACING: 0.0625
Info: NONBONDED TABLE SIZE: 705 POINTS
TCL: Running for 1500000 steps
ETITLE: TS BOND ANGLE DIHED IMPRP ELECT VDW BOUNDARY MISC KINETIC TOTAL TEMP POTENTIAL TOTALAVG TEMPAVG PRESSURE GPRESSURE VOLUME PRESSAVG GPRESSAVG
ENERGY: 0 0.4073 2.2549 0.0000 0.0000 -10454.9416 1347.3001 0.0000 0.0000 1726.1462 -7378.8332 298.7571 -9104.9793 -7378.8332 298.7571 -266.3209 -173.4990 29754.1437 -266.3209 -173.4990
ENERGY: 300000 0.6505 0.9208 0.0000 0.0000 -10588.6815 1423.8480 0.0000 0.0000 1775.9404 -7387.3217 307.3754 -9163.2621 -7414.4889 301.5672 169.6296 217.3623 29914.2790 19.0859 76.4418
ENERGY: 600000 0.2348 0.9322 0.0000 0.0000 -10673.7510 1500.0986 0.0000 0.0000 1790.0058 -7382.4796 309.8098 -9172.4854 -7424.0569 302.2234 708.9082 767.4788 29543.8307 70.2375 131.6916
ENERGY: 900000 0.2730 2.0702 0.0000 0.0000 -10601.8581 1432.5980 0.0000 0.0000 1720.0884 -7446.8285 297.7086 -9166.9169 -7420.6505 302.2142 -216.4293 -129.2421 30008.5681 10.5011 78.4742
ENERGY: 1200000 0.0365 0.7376 0.0000 0.0000 -10564.7724 1468.6282 0.0000 0.0000 1728.9981 -7366.3719 299.2507 -9095.3700 -7416.6361 301.6413 703.5088 727.9223 29746.4012 145.1982 212.1405
ENERGY: 1500000 0.3732 0.8318 0.0000 0.0000 -10497.4951 1369.9918 0.0000 0.0000 1775.1901 -7351.1081 307.2455 -9126.2982 -7402.1223 302.5842 -318.1834 -280.0834 30106.1779 79.3718 150.3562
TCL: Running FEP window  11: Lambda1 0.4999999999999996 Lambda2 0.4499999999999996 [dLambda -0.04999999999999999]
TCL: Setting parameter firsttimestep to 0
TCL: Setting parameter alchLambda to 0.4999999999999996
Info: NONBONDED TABLE R-SQUARED SPACING: 0.0625
Info: NONBONDED TABLE SIZE: 705 POINTS
TCL: Setting parameter alchLambda2 to 0.4499999999999996
Info: NONBONDED TABLE R-SQUARED SPACING: 0.0625
Info: NONBONDED TABLE SIZE: 705 POINTS
TCL: Running for 1500000 steps
ETITLE: TS BOND ANGLE DIHED IMPRP ELECT VDW BOUNDARY MISC KINETIC TOTAL TEMP POTENTIAL TOTALAVG TEMPAVG PRESSURE GPRESSURE VOLUME PRESSAVG GPRESSAVG
ENERGY: 0 0.3732 0.8318 0.0000 0.0000 -10497.1344 1370.2345 0.0000 0.0000 1774.3166 -7351.3783 307.0943 -9125.6949 -7351.3783 307.0943 -354.3225 -281.9315 30106.1779 -354.3225 -281.9315
ENERGY: 300000 0.8559 0.8469 0.0000 0.0000 -10590.3128 1428.5839 0.0000 0.0000 1737.4649 -7422.5612 300.7161 -9160.0260 -7376.5948 301.1603 -31.2234 101.9090 29766.4001 298.6934 386.8154
ENERGY: 600000 0.1198 1.0568 0.0000 0.0000 -10587.9260 1436.2764 0.0000 0.0000 1728.5541 -7421.9190 299.1739 -9150.4730 -7398.7319 300.9319 41.3382 62.6973 30172.1325 286.6943 349.2872
ENERGY: 900000 0.1420 1.5848 0.0000 0.0000 -10629.1923 1424.9007 0.0000 0.0000 1710.4030 -7492.1618 296.0323 -9202.5648 -7416.8553 300.0249 -305.9041 -227.3276 29931.5948 252.4420 311.2074
ENERGY: 1200000 0.4492 3.3515 0.0000 0.0000 -10727.6586 1506.9402 0.0000 0.0000 1780.1461 -7436.7715 308.1033 -9216.9176 -7424.3325 300.1609 771.9855 859.1435 29574.8628 269.4695 332.8605
ENERGY: 1500000 0.1913 1.3518 0.0000 0.0000 -10599.5292 1444.7722 0.0000 0.0000 1695.5744 -7457.6395 293.4658 -9153.2139 -7423.8632 299.9463 41.9519 81.1415 30289.5922 149.0933 215.1867
TCL: Running FEP window  12: Lambda1 0.4499999999999996 Lambda2 0.39999999999999963 [dLambda -0.04999999999999999]
TCL: Setting parameter firsttimestep to 0
TCL: Setting parameter alchLambda to 0.4499999999999996
Info: NONBONDED TABLE R-SQUARED SPACING: 0.0625
Info: NONBONDED TABLE SIZE: 705 POINTS
TCL: Setting parameter alchLambda2 to 0.39999999999999963
Info: NONBONDED TABLE R-SQUARED SPACING: 0.0625
Info: NONBONDED TABLE SIZE: 705 POINTS
TCL: Running for 1500000 steps
ETITLE: TS BOND ANGLE DIHED IMPRP ELECT VDW BOUNDARY MISC KINETIC TOTAL TEMP POTENTIAL TOTALAVG TEMPAVG PRESSURE GPRESSURE VOLUME PRESSAVG GPRESSAVG
ENERGY: 0 0.1913 1.3518 0.0000 0.0000 -10599.5270 1445.2134 0.0000 0.0000 1694.7020 -7458.0684 293.3148 -9152.7705 -7458.0684 293.3148 13.4037 80.5075 30289.5922 13.4037 80.5075
ENERGY: 300000 1.1939 3.3232 0.0000 0.0000 -10580.2683 1428.3547 0.0000 0.0000 1756.3790 -7391.0174 303.9897 -9147.3964 -7437.1848 298.6382 209.2017 203.1171 29628.5958 -124.0193 -92.1118
ENERGY: 600000 0.0007 1.3132 0.0000 0.0000 -10571.8267 1447.2130 0.0000 0.0000 1727.6126 -7395.6871 299.0109 -9123.2997 -7420.4493 299.9438 354.7807 349.8172 29803.5386 -58.4451 -30.5010
ENERGY: 900000 0.9612 1.3308 0.0000 0.0000 -10468.2273 1342.5986 0.0000 0.0000 1728.7567 -7394.5801 299.2089 -9123.3368 -7425.3900 298.3142 -895.1322 -778.6594 30469.8377 -273.2552 -226.1429
ENERGY: 1200000 0.0268 1.1547 0.0000 0.0000 -10565.8036 1439.8096 0.0000 0.0000 1689.7344 -7435.0781 292.4550 -9124.8125 -7423.1233 299.0675 24.9642 169.8031 30074.8159 -143.5267 -82.1511
ENERGY: 1500000 2.9095 2.3018 0.0000 0.0000 -10554.9634 1399.0882 0.0000 0.0000 1766.7349 -7383.9289 305.7821 -9150.6638 -7410.9722 299.6822 -184.9848 -155.5967 29730.0529 -216.2712 -158.8033
TCL: Running FEP window  13: Lambda1 0.39999999999999963 Lambda2 0.34999999999999964 [dLambda -0.04999999999999999]
TCL: Setting parameter firsttimestep to 0
TCL: Setting parameter alchLambda to 0.39999999999999963
Info: NONBONDED TABLE R-SQUARED SPACING: 0.0625
Info: NONBONDED TABLE SIZE: 705 POINTS
TCL: Setting parameter alchLambda2 to 0.34999999999999964
Info: NONBONDED TABLE R-SQUARED SPACING: 0.0625
Info: NONBONDED TABLE SIZE: 705 POINTS
TCL: Running for 1500000 steps
ETITLE: TS BOND ANGLE DIHED IMPRP ELECT VDW BOUNDARY MISC KINETIC TOTAL TEMP POTENTIAL TOTALAVG TEMPAVG PRESSURE GPRESSURE VOLUME PRESSAVG GPRESSAVG
ENERGY: 0 2.9095 2.3018 0.0000 0.0000 -10554.9626 1399.3715 0.0000 0.0000 1765.8886 -7384.4913 305.6356 -9150.3798 -7384.4913 305.6356 -226.1330 -158.4326 29730.0529 -226.1330 -158.4326
ENERGY: 300000 0.1392 1.4309 0.0000 0.0000 -10526.8439 1365.0255 0.0000 0.0000 1669.7997 -7490.4487 289.0048 -9160.2483 -7442.0264 296.6926 -473.5804 -393.3829 29700.0725 -266.7441 -185.5669
ENERGY: 600000 0.2452 3.3408 0.0000 0.0000 -10639.6713 1484.4476 0.0000 0.0000 1702.6142 -7449.0234 294.6843 -9151.6377 -7436.9632 297.0660 334.9370 424.8231 29987.4975 31.4484 99.1166
ENERGY: 900000 1.0833 1.5599 0.0000 0.0000 -10465.2041 1345.6254 0.0000 0.0000 1717.2396 -7399.6958 297.2156 -9116.9355 -7423.9656 298.4910 -308.2461 -206.5300 29563.2723 38.7205 114.9703
ENERGY: 1200000 0.3520 1.5557 0.0000 0.0000 -10514.1557 1382.7406 0.0000 0.0000 1743.0217 -7386.4857 301.6779 -9129.5074 -7414.1297 298.9706 -211.3717 -176.4519 29829.4511 60.4178 128.9292
ENERGY: 1500000 0.0170 1.5962 0.0000 0.0000 -10501.2812 1322.3138 0.0000 0.0000 1724.4167 -7452.9375 298.4578 -9177.3542 -7416.3923 299.0674 -1066.6937 -1026.3831 30280.0217 -27.3196 28.9640
TCL: Running FEP window  14: Lambda1 0.34999999999999964 Lambda2 0.29999999999999966 [dLambda -0.04999999999999999]
TCL: Setting parameter firsttimestep to 0
TCL: Setting parameter alchLambda to 0.34999999999999964
Info: NONBONDED TABLE R-SQUARED SPACING: 0.0625
Info: NONBONDED TABLE SIZE: 705 POINTS
TCL: Setting parameter alchLambda2 to 0.29999999999999966
Info: NONBONDED TABLE R-SQUARED SPACING: 0.0625
Info: NONBONDED TABLE SIZE: 705 POINTS
TCL: Running for 1500000 steps
ETITLE: TS BOND ANGLE DIHED IMPRP ELECT VDW BOUNDARY MISC KINETIC TOTAL TEMP POTENTIAL TOTALAVG TEMPAVG PRESSURE GPRESSURE VOLUME PRESSAVG GPRESSAVG
ENERGY: 0 0.0170 1.5962 0.0000 0.0000 -10501.2819 1322.3877 0.0000 0.0000 1723.5568 -7453.7243 298.3089 -9177.2811 -7453.7243 298.3089 -1124.9601 -1027.1321 30280.0217 -1124.9601 -1027.1321
ENERGY: 300000 0.4924 1.2846 0.0000 0.0000 -10494.1330 1389.3052 0.0000 0.0000 1709.1883 -7393.8625 295.8221 -9103.0508 -7408.5572 298.1588 -330.7272 -293.8753 30248.9570 -545.5591 -474.1987
ENERGY: 600000 1.8777 1.8689 0.0000 0.0000 -10624.2218 1475.2268 0.0000 0.0000 1729.7489 -7415.4995 299.3807 -9145.2484 -7419.9023 297.6119 187.3900 257.5162 30549.5451 -417.1224 -345.1607
ENERGY: 900000 0.1941 2.1718 0.0000 0.0000 -10492.8397 1422.0308 0.0000 0.0000 1699.2212 -7369.2217 294.0970 -9068.4429 -7401.6592 298.8934 17.3414 86.9310 30116.5974 -254.3438 -184.3944
ENERGY: 1200000 0.4880 1.0907 0.0000 0.0000 -10640.2006 1446.8937 0.0000 0.0000 1749.0944 -7442.6338 302.7289 -9191.7282 -7402.7640 299.5940 -95.4897 -15.6069 29822.5260 -236.3801 -169.4655
ENERGY: 1500000 1.6976 1.8399 0.0000 0.0000 -10678.9559 1458.6154 0.0000 0.0000 1771.5417 -7445.2611 306.6141 -9216.8029 -7400.2225 300.4416 -127.1104 -44.8853 30189.6086 -212.7360 -154.3395
TCL: Running FEP window  15: Lambda1 0.29999999999999966 Lambda2 0.24999999999999967 [dLambda -0.04999999999999999]
TCL: Setting parameter firsttimestep to 0
TCL: Setting parameter alchLambda to 0.29999999999999966
Info: NONBONDED TABLE R-SQUARED SPACING: 0.0625
Info: NONBONDED TABLE SIZE: 705 POINTS
TCL: Setting parameter alchLambda2 to 0.24999999999999967
Info: NONBONDED TABLE R-SQUARED SPACING: 0.0625
Info: NONBONDED TABLE SIZE: 705 POINTS
TCL: Running for 1500000 steps
ETITLE: TS BOND ANGLE DIHED IMPRP ELECT VDW BOUNDARY MISC KINETIC TOTAL TEMP POTENTIAL TOTALAVG TEMPAVG PRESSURE GPRESSURE VOLUME PRESSAVG GPRESSAVG
ENERGY: 0 1.6976 1.8399 0.0000 0.0000 -10678.9572 1458.7843 0.0000 0.0000 1770.6922 -7445.9431 306.4670 -9216.6353 -7445.9431 306.4670 -140.9123 -47.2450 30189.6086 -140.9123 -47.2450
ENERGY: 300000 0.3819 1.3228 0.0000 0.0000 -10664.0772 1445.1903 0.0000 0.0000 1708.7074 -7508.4748 295.7388 -9217.1822 -7442.6407 301.4972 -97.8096 43.4338 29886.1661 -55.0506 55.7279
ENERGY: 600000 2.2151 2.2790 0.0000 0.0000 -10478.8003 1364.5449 0.0000 0.0000 1748.0830 -7361.6783 302.5539 -9109.7613 -7409.0823 301.0319 -876.2614 -780.4215 30471.2496 -240.6381 -143.2980
ENERGY: 900000 1.6820 2.8026 0.0000 0.0000 -10596.6174 1491.6569 0.0000 0.0000 1737.2253 -7363.2506 300.6746 -9100.4759 -7413.1527 300.4212 553.6377 629.8276 29909.6118 -112.3543 -26.2402
ENERGY: 1200000 0.1962 1.3219 0.0000 0.0000 -10548.1411 1398.6909 0.0000 0.0000 1780.6083 -7367.3239 308.1833 -9147.9321 -7407.4499 301.2225 -132.9517 -73.2603 29862.9821 -167.8968 -90.5271
ENERGY: 1500000 0.2399 1.0395 0.0000 0.0000 -10597.9363 1479.8599 0.0000 0.0000 1726.8940 -7389.9030 298.8865 -9116.7970 -7408.0777 301.3119 910.6124 944.0451 29388.7739 -135.7879 -65.2936
TCL: Running FEP window  16: Lambda1 0.24999999999999967 Lambda2 0.19999999999999968 [dLambda -0.04999999999999999]
TCL: Setting parameter firsttimestep to 0
TCL: Setting parameter alchLambda to 0.24999999999999967
Info: NONBONDED TABLE R-SQUARED SPACING: 0.0625
Info: NONBONDED TABLE SIZE: 705 POINTS
TCL: Setting parameter alchLambda2 to 0.19999999999999968
Info: NONBONDED TABLE R-SQUARED SPACING: 0.0625
Info: NONBONDED TABLE SIZE: 705 POINTS
TCL: Running for 1500000 steps
ETITLE: TS BOND ANGLE DIHED IMPRP ELECT VDW BOUNDARY MISC KINETIC TOTAL TEMP POTENTIAL TOTALAVG TEMPAVG PRESSURE GPRESSURE VOLUME PRESSAVG GPRESSAVG
ENERGY: 0 0.2399 1.0395 0.0000 0.0000 -10597.9363 1479.1202 0.0000 0.0000 1726.0792 -7391.4575 298.7455 -9117.5367 -7391.4575 298.7455 853.4970 935.7335 29388.7739 853.4970 935.7335
ENERGY: 300000 3.6258 0.6329 0.0000 0.0000 -10435.0045 1338.3879 0.0000 0.0000 1766.6464 -7325.7115 305.7668 -9092.3580 -7369.5922 303.4598 -702.8614 -607.0227 29868.7511 44.3887 134.8754
ENERGY: 600000 0.8291 1.1292 0.0000 0.0000 -10518.9646 1385.4068 0.0000 0.0000 1719.7804 -7411.8191 297.6553 -9131.5995 -7356.4970 305.3401 -276.5371 -240.5695 30106.3500 -7.2566 63.2554
ENERGY: 900000 1.1870 3.1550 0.0000 0.0000 -10422.3303 1324.6400 0.0000 0.0000 1750.7601 -7342.5882 303.0172 -9093.3483 -7355.6064 304.9225 -562.3019 -447.4679 29835.4629 -0.5866 67.3954
ENERGY: 1200000 0.1993 1.2211 0.0000 0.0000 -10726.5060 1455.0568 0.0000 0.0000 1727.7036 -7542.3252 299.0267 -9270.0288 -7377.9788 304.6145 -127.8685 -85.7517 29746.7656 -18.5813 44.3746
ENERGY: 1500000 1.7359 0.9166 0.0000 0.0000 -10701.8589 1490.6155 0.0000 0.0000 1753.3799 -7455.2110 303.4706 -9208.5909 -7377.8449 304.8092 735.0479 690.4892 29539.2012 23.5502 77.6934
TCL: Running FEP window  17: Lambda1 0.19999999999999968 Lambda2 0.1499999999999997 [dLambda -0.04999999999999999]
TCL: Setting parameter firsttimestep to 0
TCL: Setting parameter alchLambda to 0.19999999999999968
Info: NONBONDED TABLE R-SQUARED SPACING: 0.0625
Info: NONBONDED TABLE SIZE: 705 POINTS
TCL: Setting parameter alchLambda2 to 0.1499999999999997
Info: NONBONDED TABLE R-SQUARED SPACING: 0.0625
Info: NONBONDED TABLE SIZE: 705 POINTS
TCL: Running for 1500000 steps
ETITLE: TS BOND ANGLE DIHED IMPRP ELECT VDW BOUNDARY MISC KINETIC TOTAL TEMP POTENTIAL TOTALAVG TEMPAVG PRESSURE GPRESSURE VOLUME PRESSAVG GPRESSAVG
ENERGY: 0 1.7359 0.9166 0.0000 0.0000 -10701.8596 1490.2849 0.0000 0.0000 1752.5405 -7456.3817 303.3254 -9208.9222 -7456.3817 303.3254 609.6119 686.7652 29539.2012 609.6119 686.7652
ENERGY: 300000 0.2923 3.0694 0.0000 0.0000 -10418.6122 1316.4182 0.0000 0.0000 1739.7464 -7359.0858 301.1110 -9098.8322 -7374.4403 299.8977 -696.7587 -644.2581 29799.4308 -199.7899 -145.0257
ENERGY: 600000 0.3796 0.8317 0.0000 0.0000 -10422.4608 1326.0373 0.0000 0.0000 1722.1437 -7373.0684 298.0644 -9095.2122 -7376.7713 300.1939 -579.4186 -578.1603 30022.2942 -39.5281 -10.9349
ENERGY: 900000 0.2446 1.1569 0.0000 0.0000 -10718.9278 1551.4492 0.0000 0.0000 1716.8537 -7449.2234 297.1488 -9166.0771 -7391.1771 300.2872 752.3207 786.6388 29976.7079 -32.1150 1.2952
ENERGY: 1200000 0.1742 0.8650 0.0000 0.0000 -10638.8481 1489.7624 0.0000 0.0000 1788.1869 -7359.8595 309.4950 -9148.0465 -7396.6036 299.9063 772.0458 778.7793 29378.8294 82.2496 123.6151
ENERGY: 1500000 0.6108 2.9832 0.0000 0.0000 -10601.2071 1462.1949 0.0000 0.0000 1705.5345 -7429.8837 295.1897 -9135.4182 -7391.0205 299.1986 436.9520 549.2092 29519.8585 138.7663 185.3995
TCL: Running FEP window  18: Lambda1 0.1499999999999997 Lambda2 0.09999999999999969 [dLambda -0.05 ]
TCL: Setting parameter firsttimestep to 0
TCL: Setting parameter alchLambda to 0.1499999999999997
Info: NONBONDED TABLE R-SQUARED SPACING: 0.0625
Info: NONBONDED TABLE SIZE: 705 POINTS
TCL: Setting parameter alchLambda2 to 0.09999999999999969
Info: NONBONDED TABLE R-SQUARED SPACING: 0.0625
Info: NONBONDED TABLE SIZE: 705 POINTS
TCL: Running for 1500000 steps
ETITLE: TS BOND ANGLE DIHED IMPRP ELECT VDW BOUNDARY MISC KINETIC TOTAL TEMP POTENTIAL TOTALAVG TEMPAVG PRESSURE GPRESSURE VOLUME PRESSAVG GPRESSAVG
ENERGY: 0 0.6108 2.9832 0.0000 0.0000 -10601.2071 1462.4161 0.0000 0.0000 1704.6690 -7430.5280 295.0399 -9135.1970 -7430.5280 295.0399 465.6066 548.1420 29519.8585 465.6066 548.1420
ENERGY: 300000 0.0113 4.1001 0.0000 0.0000 -10534.8127 1422.3627 0.0000 0.0000 1746.5373 -7361.8013 302.2863 -9108.3387 -7406.1475 298.8952 67.4672 155.3495 29809.1119 117.7247 178.8070
ENERGY: 600000 0.8008 1.4881 0.0000 0.0000 -10734.6814 1588.1835 0.0000 0.0000 1672.9082 -7471.3009 289.5428 -9144.2091 -7436.4898 297.0774 1288.1665 1347.5607 29513.4592 201.8105 264.7086
ENERGY: 900000 1.5905 2.3289 0.0000 0.0000 -10560.8511 1449.7873 0.0000 0.0000 1755.3629 -7351.7816 303.8139 -9107.1445 -7442.8594 297.0539 388.1470 470.6288 29475.7486 178.2412 239.8832
ENERGY: 1200000 0.8223 0.8129 0.0000 0.0000 -10637.7840 1432.6505 0.0000 0.0000 1722.9612 -7480.5371 298.2058 -9203.4983 -7446.0827 295.9719 171.0632 172.9978 29668.8672 202.6739 255.0828
ENERGY: 1500000 1.6896 1.0555 0.0000 0.0000 -10584.5374 1478.0066 0.0000 0.0000 1768.5815 -7335.2042 306.1017 -9103.7857 -7438.3067 296.6621 670.5189 704.3516 29537.8057 212.0503 270.8753
TCL: Running FEP window  19: Lambda1 0.09999999999999969 Lambda2 0.049999999999999684 [dLambda -0.05 ]
TCL: Setting parameter firsttimestep to 0
TCL: Setting parameter alchLambda to 0.09999999999999969
Info: NONBONDED TABLE R-SQUARED SPACING: 0.0625
Info: NONBONDED TABLE SIZE: 705 POINTS
TCL: Setting parameter alchLambda2 to 0.049999999999999684
Info: NONBONDED TABLE R-SQUARED SPACING: 0.0625
Info: NONBONDED TABLE SIZE: 705 POINTS
TCL: Running for 1500000 steps
ETITLE: TS BOND ANGLE DIHED IMPRP ELECT VDW BOUNDARY MISC KINETIC TOTAL TEMP POTENTIAL TOTALAVG TEMPAVG PRESSURE GPRESSURE VOLUME PRESSAVG GPRESSAVG
ENERGY: 0 1.6896 1.0555 0.0000 0.0000 -10584.5385 1476.8456 0.0000 0.0000 1767.7256 -7337.2221 305.9536 -9104.9478 -7337.2221 305.9536 616.9906 692.9224 29537.8057 616.9906 692.9224
ENERGY: 300000 0.8066 0.7068 0.0000 0.0000 -10565.6574 1369.7231 0.0000 0.0000 1728.9746 -7465.4463 299.2466 -9194.4209 -7367.0405 304.3045 -445.2276 -361.2385 29597.3121 295.9961 347.7255
ENERGY: 600000 0.1663 2.5655 0.0000 0.0000 -10562.0155 1429.1841 0.0000 0.0000 1689.5612 -7440.5384 292.4251 -9130.0996 -7375.1181 301.1173 167.8895 182.7613 29685.2038 172.3669 221.6766
ENERGY: 900000 0.6131 1.7675 0.0000 0.0000 -10593.3713 1386.8039 0.0000 0.0000 1747.3269 -7456.8600 302.4230 -9204.1868 -7380.4630 301.2167 -555.2214 -412.9313 29875.9372 112.3096 176.9354
ENERGY: 1200000 1.0252 1.9316 0.0000 0.0000 -10476.5518 1350.7499 0.0000 0.0000 1743.5027 -7379.3424 301.7611 -9122.8451 -7371.0076 301.9232 -683.2081 -587.7020 29746.7188 34.4450 102.6775
ENERGY: 1500000 1.5431 2.3597 0.0000 0.0000 -10598.4669 1414.8841 0.0000 0.0000 1738.1066 -7441.5734 300.8272 -9179.6800 -7366.3251 302.7861 -333.9050 -245.7938 30152.5088 21.2570 89.8648
TCL: Running FEP window  20: Lambda1 0.049999999999999684 Lambda2 0.0    [dLambda -0.049999999999999684]
TCL: Setting parameter firsttimestep to 0
TCL: Setting parameter alchLambda to 0.049999999999999684
Info: NONBONDED TABLE R-SQUARED SPACING: 0.0625
Info: NONBONDED TABLE SIZE: 705 POINTS
TCL: Setting parameter alchLambda2 to 0.0
Info: NONBONDED TABLE R-SQUARED SPACING: 0.0625
Info: NONBONDED TABLE SIZE: 705 POINTS
TCL: Running for 1500000 steps
ETITLE: TS BOND ANGLE DIHED IMPRP ELECT VDW BOUNDARY MISC KINETIC TOTAL TEMP POTENTIAL TOTALAVG TEMPAVG PRESSURE GPRESSURE VOLUME PRESSAVG GPRESSAVG
ENERGY: 0 1.5431 2.3597 0.0000 0.0000 -10598.4671 1415.0367 0.0000 0.0000 1737.2249 -7442.3027 300.6746 -9179.5276 -7442.3027 300.6746 -312.9349 -243.2239 30152.5088 -312.9349 -243.2239
ENERGY: 300000 0.2154 3.5448 0.0000 0.0000 -10546.5039 1427.7031 0.0000 0.0000 1737.3408 -7377.6997 300.6946 -9115.0406 -7425.7572 301.1269 -99.4741 0.0331 30158.0371 -96.5326 -29.8655
ENERGY: 600000 0.1772 1.9953 0.0000 0.0000 -10670.5981 1485.1953 0.0000 0.0000 1790.1592 -7393.0712 309.8363 -9183.2304 -7406.9672 303.7152 496.8225 464.0115 29787.9101 -101.9091 -52.2955
ENERGY: 900000 0.0904 0.8730 0.0000 0.0000 -10564.6134 1386.7424 0.0000 0.0000 1757.1414 -7419.7662 304.1217 -9176.9076 -7412.5394 303.6629 -343.2151 -259.8333 29916.8673 45.2230 100.0489
ENERGY: 1200000 1.8814 1.3634 0.0000 0.0000 -10548.2653 1407.8126 0.0000 0.0000 1715.0325 -7422.1754 296.8336 -9137.2079 -7410.5790 301.6074 -165.4891 -133.7290 29845.2596 35.4052 92.9074
ENERGY: 1500000 0.5145 2.5489 0.0000 0.0000 -10490.4244 1344.8262 0.0000 0.0000 1737.4215 -7405.1133 300.7086 -9142.5348 -7418.8867 300.9138 -796.6765 -749.3456 30032.6439 -38.0938 22.5994
TCL: Exiting due to exit command.
