Info: SIMULATION PARAMETERS:
Info: TIMESTEP               2
Info: NUMBER OF STEPS        0
Info: STEPS PER CYCLE        10
Info: PERIODIC CELL BASIS 1  30.9944 0 0
Info: PERIODIC CELL BASIS 2  0 29.7152 0
Info: PERIODIC CELL BASIS 3  0 0 32.9514
Info: PERIODIC CELL CENTER   0 0 0
Info: WRAPPING WATERS AROUND PERIODIC BOUNDARIES ON OUTPUT.
Info: WRAPPING ALL CLUSTERS AROUND PERIODIC BOUNDARIES ON OUTPUT.
Info: FIRST LDB TIMESTEP     50
Info: LAST LDB TIMESTEP     -1
Info: HOM BACKGROUND SCALING 1
Info: PME BACKGROUND SCALING 1
Info: MIN ATOMS PER PATCH    40
Info: EMPTY PATCH LOAD       40 ATOMS
Info: VELOCITY FILE          mobley_8809274_equil.vel
Info: CENTER OF MASS MOVING INITIALLY? NO
Info: DIELECTRIC             1
Info: EXCLUDE                SCALED ONE-FOUR
Info: 1-4 ELECTROSTATICS SCALED BY 0.833333
Info: MODIFIED 1-4 VDW PARAMETERS WILL BE USED
Info: DCD FILENAME           mobley_8809274_prod.dcd
Info: DCD FREQUENCY          100000
Info: DCD FIRST STEP         100000
Info: DCD FILE WILL CONTAIN UNIT CELL DATA
Info: XST FILENAME           mobley_8809274_prod.xst
Info: XST FREQUENCY          100000
Info: NO VELOCITY DCD OUTPUT
Info: NO FORCE DCD OUTPUT
Info: OUTPUT FILENAME        mobley_8809274_prod
Info: BINARY OUTPUT FILES WILL BE USED
Info: RESTART FILENAME       mobley_8809274_prod.restart
Info: RESTART FREQUENCY      100000
Info: BINARY RESTART FILES WILL BE USED
Info: CUTOFF                 9
Info: PAIRLIST DISTANCE      11
Info: PAIRLIST SHRINK RATE   0.01
Info: PAIRLIST GROW RATE     0.01
Info: PAIRLIST TRIGGER       0.3
Info: PAIRLISTS PER CYCLE    2
Info: PAIRLISTS ENABLED
Info: MARGIN                 2
Info: HYDROGEN GROUP CUTOFF  2.5
Info: PATCH DIMENSION        15.5
Info: ENERGY OUTPUT STEPS    100000
Info: ENERGY EVALUATION STEPS    100000
Info: OUTPUT ENERGY PRECISION 4
Info: CROSSTERM ENERGY INCLUDED IN DIHEDRAL
Info: TIMING OUTPUT STEPS    1000000
Info: PRESSURE OUTPUT STEPS  100000
Info: ALCHEMICAL FEP ON
Info: FEP CURRENT LAMBDA VALUE     1
Info: FEP COMPARISON LAMBDA VALUE  0.95
Info: FEP INTRA-ALCHEMICAL NON-BONDED INTERACTIONS WILL BE RETAINED
Info: FEP INTRA-ALCHEMICAL BONDED INTERACTIONS WILL BE RETAINED
Info: FEP VDW SHIFTING COEFFICIENT 5
Info: FEP ELEC. ACTIVE FOR ANNIHILATED PARTICLES BETWEEN LAMBDA = 0 AND LAMBDA = 0.5
Info: FEP ELEC. ACTIVE FOR EXNIHILATED PARTICLES BETWEEN LAMBDA = 0.5 AND LAMBDA = 1
Info: FEP VDW ACTIVE FOR ANNIHILATED PARTICLES BETWEEN LAMBDA = 0 AND LAMBDA = 1
Info: FEP VDW ACTIVE FOR EXNIHILATED PARTICLES BETWEEN LAMBDA = 0 AND LAMBDA = 1
Info: FEP BOND ACTIVE FOR ANNIHILATED PARTICLES BETWEEN LAMBDA = 1 AND LAMBDA = 1
Info: FEP BOND ACTIVE FOR EXNIHILATED PARTICLES BETWEEN LAMBDA = 0 AND LAMBDA = 0
Info: LANGEVIN DYNAMICS ACTIVE
Info: LANGEVIN TEMPERATURE   300
Info: LANGEVIN USING BBK INTEGRATOR
Info: LANGEVIN DAMPING COEFFICIENT IS 1 INVERSE PS
Info: LANGEVIN DYNAMICS APPLIED TO HYDROGENS
Info: LANGEVIN PISTON PRESSURE CONTROL ACTIVE
Info:        TARGET PRESSURE IS 1.01325 BAR
Info:     OSCILLATION PERIOD IS 50 FS
Info:             DECAY TIME IS 25 FS
Info:     PISTON TEMPERATURE IS 300 K
Info:       PRESSURE CONTROL IS GROUP-BASED
Info:    INITIAL STRAIN RATE IS -0.000528527 -0.000528527 -0.000528527
Info:       CELL FLUCTUATION IS ISOTROPIC
Info: PARTICLE MESH EWALD (PME) ACTIVE
Info: PME TOLERANCE               1e-06
Info: PME EWALD COEFFICIENT       0.348832
Info: PME INTERPOLATION ORDER     4
Info: PME GRID DIMENSIONS         32 32 36
Info: PME MAXIMUM GRID SPACING    1
Info: PME CALCULATION WILL BE PERFORMED ON GPU
Info: FULL ELECTROSTATIC EVALUATION FREQUENCY      2
Info: USING VERLET I (r-RESPA) MTS SCHEME.
Info: C1 SPLITTING OF LONG RANGE ELECTROSTATICS
Info: PLACING ATOMS IN PATCHES BY HYDROGEN GROUPS
Info: RIGID BONDS TO HYDROGEN : ALL
Info:         ERROR TOLERANCE : 1e-08
Info:          MAX ITERATIONS : 100
Info: RIGID WATER USING SETTLE ALGORITHM
Info: RANDOM NUMBER SEED     1743591055
Info: USE HYDROGEN BONDS?    NO
Info: Using AMBER format force field!
Info: AMBER PARM FILE        mobley_8809274.prmtop
Info: COORDINATE PDB         mobley_8809274.pdb
Info: Exclusions will be read from PARM file!
Info: SCNB (VDW SCALING)     2
Info: USING ARITHMETIC MEAN TO COMBINE L-J SIGMA PARAMETERS
Info: BINARY COORDINATES     mobley_8809274_equil.coor
Info: SUMMARY OF PARAMETERS:
Info: 6 BONDS
Info: 5 ANGLES
Info:   5 HARMONIC
Info:   0 COSINE-BASED
Info: 3 DIHEDRAL
Info: 0 IMPROPER
Info: 0 CROSSTERM
Info: 0 VDW
Info: 21 VDW_PAIRS
Info: 0 NBTHOLE_PAIRS
Info: To read alchdata from file: mobley_8809274.pdb
Info: To read alchflag data from column: 5
Info: STRUCTURE SUMMARY:
Info: 2940 ATOMS
Info: 2940 BONDS
Info: 24 ANGLES
Info: 36 DIHEDRALS
Info: 0 IMPROPERS
Info: 0 CROSSTERMS
Info: 2991 EXCLUSIONS
Info: 2930 RIGID BONDS
Info: ALCH: 0 ATOMS TO DISAPPEAR IN FINAL STATE
Info: ALCH: 15 ATOMS TO APPEAR IN FINAL STATE
Info: 5890 DEGREES OF FREEDOM
Info: 985 HYDROGEN GROUPS
Info: 3 ATOMS IN LARGEST HYDROGEN GROUP
Info: 985 MIGRATION GROUPS
Info: 3 ATOMS IN LARGEST MIGRATION GROUP
Info: TOTAL MASS = 17711.7 amu
Info: TOTAL CHARGE = 9.99644e-05 e
Info: MASS DENSITY = 0.969136 g/cm^3
Info: ATOM DENSITY = 0.0968751 atoms/A^3
Info: ADDED 0 IMPLICIT EXCLUSIONS
Info: NONBONDED TABLE R-SQUARED SPACING: 0.0625
Info: NONBONDED TABLE SIZE: 705 POINTS
Info: REMOVING COM VELOCITY -0.0341805 0.101056 0.081672
Info: Use 3D box decompostion in PME FFT.
Info: Updated CUDA force table with 4096 elements.
Info: Updated CUDA LJ table with 6 x 6 elements.
Info: Found 17 unique exclusion lists needing 36 bytes
TCL: Running for 1500000 steps
ETITLE: TS BOND ANGLE DIHED IMPRP ELECT VDW BOUNDARY MISC KINETIC TOTAL TEMP POTENTIAL TOTALAVG TEMPAVG PRESSURE GPRESSURE VOLUME PRESSAVG GPRESSAVG
ENERGY: 0 2.8669 4.3284 2.5752 0.0000 -10665.8220 1465.0220 0.0000 0.0000 1824.1803 -7366.8491 311.7043 -9191.0295 -7366.8491 311.7043 349.8364 425.2491 30348.3515 349.8364 425.2491
ENERGY: 300000 1.5667 2.7409 2.5051 0.0000 -10692.8146 1462.5298 0.0000 0.0000 1785.2535 -7438.2185 305.0528 -9223.4720 -7449.0381 302.3527 272.1799 332.3649 30369.8630 212.7168 285.5406
ENERGY: 600000 3.9055 3.3800 1.9335 0.0000 -10436.1377 1353.7809 0.0000 0.0000 1749.8464 -7323.2913 299.0026 -9073.1378 -7423.7067 301.5021 -218.5670 -210.7288 30867.6248 140.3368 208.7153
ENERGY: 900000 2.6918 6.4404 3.9475 0.0000 -10635.4736 1469.8949 0.0000 0.0000 1724.4264 -7428.0726 294.6590 -9152.4990 -7432.0413 300.4715 482.2053 560.4352 30160.1444 113.9377 178.9820
ENERGY: 1200000 4.4675 3.6035 4.6519 0.0000 -10625.1033 1417.2242 0.0000 0.0000 1773.8232 -7421.3329 303.0996 -9195.1561 -7459.0620 299.6634 -101.5577 -53.5124 30100.1612 162.2077 233.0461
ENERGY: 1500000 2.1795 2.4042 3.4285 0.0000 -10591.9636 1413.8745 0.0000 0.0000 1715.4474 -7454.6296 293.1247 -9170.0769 -7455.1351 299.8685 -172.2790 -143.0533 30451.5817 64.6072 135.4017
TCL: Running FEP window   2: Lambda1 0.95   Lambda2 0.8999999999999999 [dLambda -0.050000000000000044]
TCL: Setting parameter firsttimestep to 0
TCL: Setting parameter alchLambda to 0.95
Info: NONBONDED TABLE R-SQUARED SPACING: 0.0625
Info: NONBONDED TABLE SIZE: 705 POINTS
TCL: Setting parameter alchLambda2 to 0.8999999999999999
Info: NONBONDED TABLE R-SQUARED SPACING: 0.0625
Info: NONBONDED TABLE SIZE: 705 POINTS
TCL: Running for 1500000 steps
ETITLE: TS BOND ANGLE DIHED IMPRP ELECT VDW BOUNDARY MISC KINETIC TOTAL TEMP POTENTIAL TOTALAVG TEMPAVG PRESSURE GPRESSURE VOLUME PRESSAVG GPRESSAVG
ENERGY: 0 2.1795 2.4042 3.4285 0.0000 -10591.0339 1414.0950 0.0000 0.0000 1714.5600 -7454.3667 292.9731 -9168.9267 -7454.3667 292.9731 -224.9541 -147.0792 30451.5817 -224.9541 -147.0792
ENERGY: 300000 1.9713 5.0923 3.1483 0.0000 -10504.5304 1380.5986 0.0000 0.0000 1757.6239 -7356.0961 300.3316 -9113.7200 -7409.8700 299.4000 -465.5987 -384.1403 30803.1882 -81.2570 -13.3454
ENERGY: 600000 3.3455 8.3358 2.7788 0.0000 -10662.1712 1504.7236 0.0000 0.0000 1760.6223 -7382.3652 300.8439 -9142.9874 -7424.2792 298.4709 649.6254 669.7117 30681.6345 1.4253 58.6572
ENERGY: 900000 1.8686 3.9218 4.7757 0.0000 -10564.4050 1311.8583 0.0000 0.0000 1825.4026 -7416.5780 311.9132 -9241.9806 -7442.3656 299.2520 -1166.7365 -1093.9965 30543.4431 -71.0236 -11.0018
ENERGY: 1200000 2.3336 3.4769 3.0836 0.0000 -10522.9796 1361.6592 0.0000 0.0000 1742.8188 -7409.6075 297.8018 -9152.4263 -7433.4833 300.2587 -617.1084 -600.8962 30698.2150 -5.6928 47.3201
ENERGY: 1500000 1.8269 3.2503 2.5247 0.0000 -10800.8006 1514.7005 0.0000 0.0000 1724.4478 -7554.0504 294.6627 -9278.4982 -7440.1237 299.4645 835.0549 847.2453 29730.6110 -41.8171 5.1539
TCL: Running FEP window   3: Lambda1 0.8999999999999999 Lambda2 0.8499999999999999 [dLambda -0.050000000000000044]
TCL: Setting parameter firsttimestep to 0
TCL: Setting parameter alchLambda to 0.8999999999999999
Info: NONBONDED TABLE R-SQUARED SPACING: 0.0625
Info: NONBONDED TABLE SIZE: 705 POINTS
TCL: Setting parameter alchLambda2 to 0.8499999999999999
Info: NONBONDED TABLE R-SQUARED SPACING: 0.0625
Info: NONBONDED TABLE SIZE: 705 POINTS
TCL: Running for 1500000 steps
ETITLE: TS BOND ANGLE DIHED IMPRP ELECT VDW BOUNDARY MISC KINETIC TOTAL TEMP POTENTIAL TOTALAVG TEMPAVG PRESSURE GPRESSURE VOLUME PRESSAVG GPRESSAVG
ENERGY: 0 1.8269 3.2503 2.5247 0.0000 -10800.3341 1514.8945 0.0000 0.0000 1723.6336 -7554.2042 294.5236 -9277.8377 -7554.2042 294.5236 749.5009 838.4704 29730.6110 749.5009 838.4704
ENERGY: 300000 2.3405 3.9440 4.2747 0.0000 -10730.1634 1465.7298 0.0000 0.0000 1735.1974 -7518.6770 296.4995 -9253.8744 -7500.6081 297.2067 38.3812 123.6155 30313.7484 237.3146 298.1147
ENERGY: 600000 4.8648 3.6480 3.6055 0.0000 -10695.5692 1517.0770 0.0000 0.0000 1799.4162 -7366.9577 307.4728 -9166.3739 -7468.0148 299.9294 762.4741 803.8286 30004.1238 42.5034 105.0470
ENERGY: 900000 2.0697 2.8965 3.1823 0.0000 -10596.0415 1351.2624 0.0000 0.0000 1783.4707 -7453.1600 304.7481 -9236.6307 -7456.9414 300.7332 -618.6371 -579.5623 30465.1134 56.1989 110.6950
ENERGY: 1200000 4.5559 4.0858 1.4034 0.0000 -10601.2291 1403.7891 0.0000 0.0000 1711.5327 -7475.8621 292.4558 -9187.3948 -7452.5935 299.6305 -487.2515 -415.2388 30465.6554 -58.2544 0.4726
ENERGY: 1500000 1.7322 3.9151 3.2951 0.0000 -10752.3929 1534.2853 0.0000 0.0000 1758.2694 -7450.8958 300.4419 -9209.1653 -7446.5980 298.7029 846.5598 892.6734 29954.3416 -16.9545 39.7823
TCL: Running FEP window   4: Lambda1 0.8499999999999999 Lambda2 0.7999999999999998 [dLambda -0.050000000000000044]
TCL: Setting parameter firsttimestep to 0
TCL: Setting parameter alchLambda to 0.8499999999999999
Info: NONBONDED TABLE R-SQUARED SPACING: 0.0625
Info: NONBONDED TABLE SIZE: 705 POINTS
TCL: Setting parameter alchLambda2 to 0.7999999999999998
Info: NONBONDED TABLE R-SQUARED SPACING: 0.0625
Info: NONBONDED TABLE SIZE: 705 POINTS
TCL: Running for 1500000 steps
ETITLE: TS BOND ANGLE DIHED IMPRP ELECT VDW BOUNDARY MISC KINETIC TOTAL TEMP POTENTIAL TOTALAVG TEMPAVG PRESSURE GPRESSURE VOLUME PRESSAVG GPRESSAVG
ENERGY: 0 1.7322 3.9151 3.2951 0.0000 -10751.6788 1534.2534 0.0000 0.0000 1757.3947 -7451.0883 300.2924 -9208.4831 -7451.0883 300.2924 794.7837 881.8379 29954.3416 794.7837 881.8379
ENERGY: 300000 3.1004 3.5887 1.9131 0.0000 -10691.3569 1462.0213 0.0000 0.0000 1707.2952 -7513.4381 291.7318 -9220.7334 -7426.7769 300.5549 464.1316 538.0895 29796.2805 472.0280 551.9505
ENERGY: 600000 3.2315 3.7374 1.6897 0.0000 -10559.9254 1338.8330 0.0000 0.0000 1732.1852 -7480.2485 295.9848 -9212.4337 -7431.4664 299.6199 -758.9948 -653.3956 30487.7801 202.1407 286.8521
ENERGY: 900000 2.5646 4.5355 1.0473 0.0000 -10453.3401 1357.3857 0.0000 0.0000 1732.4394 -7355.3676 296.0282 -9087.8070 -7426.8255 298.9892 -218.6730 -142.5402 30124.4857 173.4068 257.6887
ENERGY: 1200000 3.7805 3.8036 1.2968 0.0000 -10647.8369 1444.0245 0.0000 0.0000 1676.8159 -7518.1156 286.5237 -9194.9315 -7439.9749 298.3594 48.9422 55.8140 30461.8322 141.7455 219.3879
ENERGY: 1500000 7.1237 6.2286 2.5304 0.0000 -10535.2720 1333.1157 0.0000 0.0000 1748.2945 -7437.9790 298.7375 -9186.2736 -7437.6027 299.6034 -1070.0770 -1005.0169 30721.9764 88.3603 165.5013
TCL: Running FEP window   5: Lambda1 0.7999999999999998 Lambda2 0.7499999999999998 [dLambda -0.050000000000000044]
TCL: Setting parameter firsttimestep to 0
TCL: Setting parameter alchLambda to 0.7999999999999998
Info: NONBONDED TABLE R-SQUARED SPACING: 0.0625
Info: NONBONDED TABLE SIZE: 705 POINTS
TCL: Setting parameter alchLambda2 to 0.7499999999999998
Info: NONBONDED TABLE R-SQUARED SPACING: 0.0625
Info: NONBONDED TABLE SIZE: 705 POINTS
TCL: Running for 1500000 steps
ETITLE: TS BOND ANGLE DIHED IMPRP ELECT VDW BOUNDARY MISC KINETIC TOTAL TEMP POTENTIAL TOTALAVG TEMPAVG PRESSURE GPRESSURE VOLUME PRESSAVG GPRESSAVG
ENERGY: 0 7.1237 6.2286 2.5304 0.0000 -10534.5010 1333.4930 0.0000 0.0000 1747.4328 -7437.6924 298.5902 -9185.1252 -7437.6924 298.5902 -1093.8283 -1007.7252 30721.9764 -1093.8283 -1007.7252
ENERGY: 300000 3.1855 3.7098 2.3124 0.0000 -10674.5118 1390.9957 0.0000 0.0000 1757.9366 -7516.3718 300.3850 -9274.3084 -7414.4698 301.1472 -374.5382 -284.7529 29974.8816 -385.0947 -311.8816
ENERGY: 600000 3.6728 6.2753 4.0380 0.0000 -10709.1750 1466.1531 0.0000 0.0000 1737.2647 -7491.7711 296.8528 -9229.0359 -7433.8773 301.4354 150.6432 218.3769 30283.8343 -140.9366 -87.9686
ENERGY: 900000 1.6538 3.0072 1.9072 0.0000 -10670.2088 1465.7173 0.0000 0.0000 1838.8976 -7359.0258 314.2191 -9197.9234 -7439.8125 301.4236 631.0761 689.0799 29915.5415 -52.1413 5.7535
ENERGY: 1200000 1.8805 5.1436 3.4041 0.0000 -10605.4439 1466.5132 0.0000 0.0000 1760.9646 -7367.5379 300.9024 -9128.5024 -7438.8928 301.5204 322.3622 365.6692 30481.3010 16.2518 70.5593
ENERGY: 1500000 5.0294 4.5443 2.8624 0.0000 -10743.8521 1456.8443 0.0000 0.0000 1743.5217 -7531.0500 297.9219 -9274.5718 -7445.5722 300.8124 -186.7521 -96.3035 30017.7024 18.9480 72.6563
TCL: Running FEP window   6: Lambda1 0.7499999999999998 Lambda2 0.6999999999999997 [dLambda -0.050000000000000044]
TCL: Setting parameter firsttimestep to 0
TCL: Setting parameter alchLambda to 0.7499999999999998
Info: NONBONDED TABLE R-SQUARED SPACING: 0.0625
Info: NONBONDED TABLE SIZE: 705 POINTS
TCL: Setting parameter alchLambda2 to 0.6999999999999997
Info: NONBONDED TABLE R-SQUARED SPACING: 0.0625
Info: NONBONDED TABLE SIZE: 705 POINTS
TCL: Running for 1500000 steps
ETITLE: TS BOND ANGLE DIHED IMPRP ELECT VDW BOUNDARY MISC KINETIC TOTAL TEMP POTENTIAL TOTALAVG TEMPAVG PRESSURE GPRESSURE VOLUME PRESSAVG GPRESSAVG
ENERGY: 0 5.0294 4.5443 2.8624 0.0000 -10743.0365 1456.4765 0.0000 0.0000 1742.6133 -7531.5106 297.7667 -9274.1239 -7531.5106 297.7667 -191.4546 -107.7907 30017.7024 -191.4546 -107.7907
ENERGY: 300000 3.0256 4.2946 1.4223 0.0000 -10581.8950 1445.5643 0.0000 0.0000 1770.2843 -7357.3038 302.4949 -9127.5881 -7450.6872 299.3617 33.6207 139.8580 30565.7608 -393.0844 -315.9491
ENERGY: 600000 6.7086 6.2471 4.4275 0.0000 -10735.8241 1496.9176 0.0000 0.0000 1749.9298 -7471.5935 299.0169 -9221.5233 -7429.3654 300.6668 390.2423 479.0037 30313.0488 -243.1708 -166.7409
ENERGY: 900000 2.1033 4.6689 1.4959 0.0000 -10562.5967 1404.8620 0.0000 0.0000 1772.6950 -7376.7716 302.9069 -9149.4666 -7423.4079 300.5734 -44.3324 28.9476 30275.0454 -227.7901 -160.7550
ENERGY: 1200000 3.6374 3.5364 2.6421 0.0000 -10644.2399 1451.0877 0.0000 0.0000 1781.1416 -7402.1948 304.3502 -9183.3363 -7423.3012 301.1124 80.4300 161.5532 30485.8322 -216.0805 -144.8533
ENERGY: 1500000 4.4346 3.0592 0.8224 0.0000 -10734.6444 1503.2063 0.0000 0.0000 1803.3953 -7419.7267 308.1527 -9223.1220 -7422.8675 300.9837 678.3502 717.5581 29976.2379 -193.9442 -127.5709
TCL: Running FEP window   7: Lambda1 0.6999999999999997 Lambda2 0.6499999999999997 [dLambda -0.050000000000000044]
TCL: Setting parameter firsttimestep to 0
TCL: Setting parameter alchLambda to 0.6999999999999997
Info: NONBONDED TABLE R-SQUARED SPACING: 0.0625
Info: NONBONDED TABLE SIZE: 705 POINTS
TCL: Setting parameter alchLambda2 to 0.6499999999999997
Info: NONBONDED TABLE R-SQUARED SPACING: 0.0625
Info: NONBONDED TABLE SIZE: 705 POINTS
TCL: Running for 1500000 steps
ETITLE: TS BOND ANGLE DIHED IMPRP ELECT VDW BOUNDARY MISC KINETIC TOTAL TEMP POTENTIAL TOTALAVG TEMPAVG PRESSURE GPRESSURE VOLUME PRESSAVG GPRESSAVG
ENERGY: 0 4.4346 3.0592 0.8224 0.0000 -10733.8988 1503.7127 0.0000 0.0000 1802.5322 -7419.3377 308.0053 -9221.8700 -7419.3377 308.0053 628.9309 713.1023 29976.2379 628.9309 713.1023
ENERGY: 300000 1.1619 4.6003 3.3365 0.0000 -10621.3275 1371.9627 0.0000 0.0000 1699.8008 -7540.4653 290.4512 -9240.2661 -7471.9075 299.3791 -521.5903 -471.4772 30156.7251 73.8153 155.2993
ENERGY: 600000 3.5270 2.1940 1.4424 0.0000 -10519.9648 1349.1311 0.0000 0.0000 1694.8136 -7468.8568 289.5990 -9163.6703 -7444.5757 298.3789 -916.2140 -819.8891 30762.5945 -133.8798 -48.3970
ENERGY: 900000 5.8249 3.3355 3.5013 0.0000 -10610.2594 1411.8666 0.0000 0.0000 1803.6744 -7382.0568 308.2004 -9185.7311 -7426.6401 299.8547 -384.4956 -326.6522 30591.7177 -101.2414 -22.1957
ENERGY: 1200000 1.5186 2.8059 3.9236 0.0000 -10746.2391 1493.6132 0.0000 0.0000 1749.5258 -7494.8521 298.9479 -9244.3779 -7431.5707 300.5554 332.3728 430.3690 30192.5038 16.1597 93.0390
ENERGY: 1500000 2.0290 3.5152 0.9677 0.0000 -10705.4351 1465.4959 0.0000 0.0000 1751.2118 -7482.2156 299.2360 -9233.4274 -7434.7913 300.6901 218.4639 311.1385 29961.3155 93.0692 173.2032
TCL: Running FEP window   8: Lambda1 0.6499999999999997 Lambda2 0.5999999999999996 [dLambda -0.050000000000000044]
TCL: Setting parameter firsttimestep to 0
TCL: Setting parameter alchLambda to 0.6499999999999997
Info: NONBONDED TABLE R-SQUARED SPACING: 0.0625
Info: NONBONDED TABLE SIZE: 705 POINTS
TCL: Setting parameter alchLambda2 to 0.5999999999999996
Info: NONBONDED TABLE R-SQUARED SPACING: 0.0625
Info: NONBONDED TABLE SIZE: 705 POINTS
TCL: Running for 1500000 steps
ETITLE: TS BOND ANGLE DIHED IMPRP ELECT VDW BOUNDARY MISC KINETIC TOTAL TEMP POTENTIAL TOTALAVG TEMPAVG PRESSURE GPRESSURE VOLUME PRESSAVG GPRESSAVG
ENERGY: 0 2.0290 3.5152 0.9677 0.0000 -10705.0780 1465.4755 0.0000 0.0000 1750.3786 -7482.7121 299.0936 -9233.0907 -7482.7121 299.0936 232.3584 303.5596 29961.3155 232.3584 303.5596
ENERGY: 300000 3.6600 3.7318 2.5901 0.0000 -10577.1660 1371.4055 0.0000 0.0000 1785.1786 -7410.6000 305.0400 -9195.7786 -7485.0488 299.0125 -544.4794 -505.6773 30400.8480 158.2810 199.9754
ENERGY: 600000 3.8048 3.3798 2.0783 0.0000 -10651.1715 1403.2635 0.0000 0.0000 1761.3044 -7477.3407 300.9605 -9238.6451 -7481.9325 298.0321 -486.1250 -460.8621 30150.9646 -67.9670 -28.1537
ENERGY: 900000 4.6510 3.9156 2.5930 0.0000 -10731.3123 1468.3577 0.0000 0.0000 1779.6997 -7472.0955 304.1038 -9251.7951 -7470.3447 299.4812 331.8079 401.8993 29657.3866 -173.4644 -122.7885
ENERGY: 1200000 3.0820 2.8536 1.9245 0.0000 -10759.5411 1468.6219 0.0000 0.0000 1728.5263 -7554.5328 295.3596 -9283.0590 -7476.0428 298.6353 351.2103 394.4956 29923.3238 -127.8738 -71.6047
ENERGY: 1500000 4.9448 1.4273 1.4253 0.0000 -10522.4851 1364.2451 0.0000 0.0000 1770.2454 -7380.1972 302.4883 -9150.4426 -7459.8005 299.4776 -499.1523 -439.5132 30197.5180 -154.0877 -99.5242
TCL: Running FEP window   9: Lambda1 0.5999999999999996 Lambda2 0.5499999999999996 [dLambda -0.050000000000000044]
TCL: Setting parameter firsttimestep to 0
TCL: Setting parameter alchLambda to 0.5999999999999996
Info: NONBONDED TABLE R-SQUARED SPACING: 0.0625
Info: NONBONDED TABLE SIZE: 705 POINTS
TCL: Setting parameter alchLambda2 to 0.5499999999999996
Info: NONBONDED TABLE R-SQUARED SPACING: 0.0625
Info: NONBONDED TABLE SIZE: 705 POINTS
TCL: Running for 1500000 steps
ETITLE: TS BOND ANGLE DIHED IMPRP ELECT VDW BOUNDARY MISC KINETIC TOTAL TEMP POTENTIAL TOTALAVG TEMPAVG PRESSURE GPRESSURE VOLUME PRESSAVG GPRESSAVG
ENERGY: 0 4.9448 1.4273 1.4253 0.0000 -10521.6914 1364.1071 0.0000 0.0000 1769.3416 -7380.4453 302.3338 -9149.7869 -7380.4453 302.3338 -528.4990 -445.4697 30197.5180 -528.4990 -445.4697
ENERGY: 300000 2.2536 7.2981 5.6986 0.0000 -10662.3344 1472.8027 0.0000 0.0000 1734.5879 -7439.6934 296.3954 -9174.2813 -7430.7213 300.0754 254.0865 314.2605 30448.2441 -8.7544 35.8366
ENERGY: 600000 2.2373 7.6819 2.1014 0.0000 -10583.9349 1419.3110 0.0000 0.0000 1777.7114 -7374.8919 303.7640 -9152.6033 -7412.0161 301.3663 -326.6748 -268.3939 30615.8036 71.0599 117.2240
ENERGY: 900000 4.7440 6.3048 2.3849 0.0000 -10701.5254 1480.3264 0.0000 0.0000 1746.4729 -7461.2926 298.4262 -9207.7654 -7405.0058 302.9044 142.1357 199.7377 30458.5071 117.5146 172.6432
ENERGY: 1200000 2.2958 2.5047 3.3787 0.0000 -10670.7411 1466.7736 0.0000 0.0000 1771.5774 -7424.2109 302.7159 -9195.7883 -7421.9770 301.5032 168.2114 277.2171 30099.5519 135.6229 199.9949
ENERGY: 1500000 2.5885 1.5349 3.6648 0.0000 -10620.9207 1411.1992 0.0000 0.0000 1818.2581 -7383.6751 310.6924 -9201.9332 -7414.8578 301.7955 -231.9627 -211.5329 30253.2197 19.9813 75.5084
TCL: Running FEP window  10: Lambda1 0.5499999999999996 Lambda2 0.4999999999999996 [dLambda -0.04999999999999999]
TCL: Setting parameter firsttimestep to 0
TCL: Setting parameter alchLambda to 0.5499999999999996
Info: NONBONDED TABLE R-SQUARED SPACING: 0.0625
Info: NONBONDED TABLE SIZE: 705 POINTS
TCL: Setting parameter alchLambda2 to 0.4999999999999996
Info: NONBONDED TABLE R-SQUARED SPACING: 0.0625
Info: NONBONDED TABLE SIZE: 705 POINTS
TCL: Running for 1500000 steps
ETITLE: TS BOND ANGLE DIHED IMPRP ELECT VDW BOUNDARY MISC KINETIC TOTAL TEMP POTENTIAL TOTALAVG TEMPAVG PRESSURE GPRESSURE VOLUME PRESSAVG GPRESSAVG
ENERGY: 0 2.5885 1.5349 3.6648 0.0000 -10620.7804 1411.6671 0.0000 0.0000 1817.3940 -7383.9310 310.5447 -9201.3250 -7383.9310 310.5447 -292.7938 -213.1197 30253.2197 -292.7938 -213.1197
ENERGY: 300000 2.0098 6.9701 2.3047 0.0000 -10565.0584 1361.4649 0.0000 0.0000 1815.4055 -7376.9034 310.2050 -9192.3089 -7402.7053 304.1001 -404.4829 -375.1639 30258.0052 -319.5287 -243.3731
ENERGY: 600000 6.3543 3.5442 5.0508 0.0000 -10507.1573 1336.6032 0.0000 0.0000 1698.7543 -7456.8505 290.2723 -9155.6048 -7413.3941 300.3849 -1036.1330 -968.3861 30893.3616 -283.9080 -216.9917
ENERGY: 900000 1.7809 7.8371 3.2031 0.0000 -10602.9900 1405.4158 0.0000 0.0000 1712.4355 -7472.3176 292.6101 -9184.7531 -7445.0954 298.9953 -651.3474 -580.4835 30680.2608 -331.1200 -272.6081
ENERGY: 1200000 4.1778 2.4824 2.1924 0.0000 -10605.4717 1442.3745 0.0000 0.0000 1691.9682 -7462.2764 289.1128 -9154.2447 -7425.9141 299.4815 9.4390 22.5806 30309.5828 -244.2179 -191.4818
ENERGY: 1500000 2.5063 3.2099 2.5024 0.0000 -10620.3003 1403.2293 0.0000 0.0000 1777.8451 -7431.0074 303.7869 -9208.8525 -7424.7084 299.4056 -529.0707 -425.1669 30640.4273 -272.1013 -215.9492
TCL: Running FEP window  11: Lambda1 0.4999999999999996 Lambda2 0.4499999999999996 [dLambda -0.04999999999999999]
TCL: Setting parameter firsttimestep to 0
TCL: Setting parameter alchLambda to 0.4999999999999996
Info: NONBONDED TABLE R-SQUARED SPACING: 0.0625
Info: NONBONDED TABLE SIZE: 705 POINTS
TCL: Setting parameter alchLambda2 to 0.4499999999999996
Info: NONBONDED TABLE R-SQUARED SPACING: 0.0625
Info: NONBONDED TABLE SIZE: 705 POINTS
TCL: Running for 1500000 steps
ETITLE: TS BOND ANGLE DIHED IMPRP ELECT VDW BOUNDARY MISC KINETIC TOTAL TEMP POTENTIAL TOTALAVG TEMPAVG PRESSURE GPRESSURE VOLUME PRESSAVG GPRESSAVG
ENERGY: 0 2.5063 3.2099 2.5024 0.0000 -10619.8211 1403.6238 0.0000 0.0000 1776.9498 -7431.0290 303.6339 -9207.9788 -7431.0290 303.6339 -506.4355 -427.3108 30640.4273 -506.4355 -427.3108
ENERGY: 300000 2.1477 5.1091 2.2226 0.0000 -10687.5608 1521.8462 0.0000 0.0000 1749.8102 -7406.4249 298.9965 -9156.2352 -7427.7698 300.0066 704.3336 846.2575 29991.1908 179.2862 277.1709
ENERGY: 600000 2.3448 3.5654 2.9550 0.0000 -10646.3477 1376.4473 0.0000 0.0000 1748.9360 -7512.0992 298.8471 -9261.0352 -7428.0658 300.6576 -747.8778 -685.3147 30649.7189 95.1439 171.8717
ENERGY: 900000 6.0483 3.6786 2.9812 0.0000 -10613.9761 1457.0198 0.0000 0.0000 1766.7174 -7377.5308 301.8854 -9144.2481 -7437.0887 300.7852 359.1564 433.6624 29801.1396 342.8141 415.9744
ENERGY: 1200000 6.0704 6.0279 1.5749 0.0000 -10744.4569 1516.4709 0.0000 0.0000 1739.4669 -7474.8459 297.2291 -9214.3128 -7425.1553 301.6503 443.2350 539.3366 30098.7410 379.3600 444.7174
ENERGY: 1500000 2.9475 8.1835 1.3274 0.0000 -10661.6738 1426.9686 0.0000 0.0000 1743.1120 -7479.1348 297.8519 -9222.2468 -7424.1955 301.4198 -363.8218 -313.2942 30217.9717 277.9263 338.6818
TCL: Running FEP window  12: Lambda1 0.4499999999999996 Lambda2 0.39999999999999963 [dLambda -0.04999999999999999]
TCL: Setting parameter firsttimestep to 0
TCL: Setting parameter alchLambda to 0.4499999999999996
Info: NONBONDED TABLE R-SQUARED SPACING: 0.0625
Info: NONBONDED TABLE SIZE: 705 POINTS
TCL: Setting parameter alchLambda2 to 0.39999999999999963
Info: NONBONDED TABLE R-SQUARED SPACING: 0.0625
Info: NONBONDED TABLE SIZE: 705 POINTS
TCL: Running for 1500000 steps
ETITLE: TS BOND ANGLE DIHED IMPRP ELECT VDW BOUNDARY MISC KINETIC TOTAL TEMP POTENTIAL TOTALAVG TEMPAVG PRESSURE GPRESSURE VOLUME PRESSAVG GPRESSAVG
ENERGY: 0 2.9475 8.1835 1.3274 0.0000 -10661.6726 1426.7795 0.0000 0.0000 1742.2479 -7480.1868 297.7043 -9222.4347 -7480.1868 297.7043 -413.2481 -321.2447 30217.9717 -413.2481 -321.2447
ENERGY: 300000 3.4326 2.8494 5.4589 0.0000 -10681.5692 1464.3391 0.0000 0.0000 1781.2952 -7424.1939 304.3764 -9205.4891 -7445.3829 301.4956 -13.5414 95.5756 30266.5615 -66.2115 36.5500
ENERGY: 600000 4.6658 5.5891 2.2271 0.0000 -10741.6582 1499.3384 0.0000 0.0000 1755.5934 -7474.2443 299.9847 -9229.8377 -7435.0544 301.7834 489.1515 477.8375 30117.1660 44.3475 123.1176
ENERGY: 900000 2.2119 4.5616 1.6232 0.0000 -10602.2956 1413.3155 0.0000 0.0000 1773.4948 -7407.0886 303.0435 -9180.5834 -7440.6244 301.5862 -146.5930 -94.4081 30769.1179 -14.4830 57.0038
ENERGY: 1200000 4.1272 5.9873 2.2443 0.0000 -10762.9236 1483.1717 0.0000 0.0000 1740.2855 -7527.1076 297.3689 -9267.3931 -7447.0202 300.9288 -74.0062 -28.5318 30638.1125 71.9474 140.8177
ENERGY: 1500000 2.3122 4.5205 2.7150 0.0000 -10608.6379 1411.4778 0.0000 0.0000 1776.1159 -7411.4964 303.4914 -9187.6123 -7437.6828 301.2976 -86.0176 6.4107 29949.7130 56.8550 122.7169
TCL: Running FEP window  13: Lambda1 0.39999999999999963 Lambda2 0.34999999999999964 [dLambda -0.04999999999999999]
TCL: Setting parameter firsttimestep to 0
TCL: Setting parameter alchLambda to 0.39999999999999963
Info: NONBONDED TABLE R-SQUARED SPACING: 0.0625
Info: NONBONDED TABLE SIZE: 705 POINTS
TCL: Setting parameter alchLambda2 to 0.34999999999999964
Info: NONBONDED TABLE R-SQUARED SPACING: 0.0625
Info: NONBONDED TABLE SIZE: 705 POINTS
TCL: Running for 1500000 steps
ETITLE: TS BOND ANGLE DIHED IMPRP ELECT VDW BOUNDARY MISC KINETIC TOTAL TEMP POTENTIAL TOTALAVG TEMPAVG PRESSURE GPRESSURE VOLUME PRESSAVG GPRESSAVG
ENERGY: 0 2.3122 4.5205 2.7150 0.0000 -10608.6389 1411.5617 0.0000 0.0000 1775.2691 -7412.2603 303.3467 -9187.5295 -7412.2603 303.3467 -93.5926 0.2880 29949.7130 -93.5926 0.2880
ENERGY: 300000 5.4033 2.4800 1.8593 0.0000 -10616.2099 1442.0168 0.0000 0.0000 1754.1535 -7410.2971 299.7386 -9164.4506 -7419.6851 302.1017 -170.3692 -139.4394 30562.0131 132.1077 183.1286
ENERGY: 600000 3.9622 4.3790 1.2773 0.0000 -10718.7783 1453.4045 0.0000 0.0000 1832.5764 -7423.1789 313.1390 -9255.7553 -7411.9218 303.2371 -42.9259 10.2436 30624.0483 -73.1077 -11.9323
ENERGY: 900000 5.1074 3.0899 1.8595 0.0000 -10653.4872 1502.9622 0.0000 0.0000 1705.8879 -7434.5803 291.4913 -9140.4682 -7424.4128 301.6930 402.0607 461.4581 30276.8551 49.1275 108.8511
ENERGY: 1200000 4.3227 6.9593 1.7078 0.0000 -10694.8833 1523.8634 0.0000 0.0000 1746.3602 -7411.6699 298.4069 -9158.0301 -7438.0327 299.8187 360.8813 438.3015 30936.2417 82.5771 145.3340
ENERGY: 1500000 2.7980 2.7684 3.7014 0.0000 -10630.4850 1422.7573 0.0000 0.0000 1764.5563 -7433.9037 301.5162 -9198.4599 -7437.2858 299.8924 -297.2259 -207.0000 30144.5963 106.9562 170.4587
TCL: Running FEP window  14: Lambda1 0.34999999999999964 Lambda2 0.29999999999999966 [dLambda -0.04999999999999999]
TCL: Setting parameter firsttimestep to 0
TCL: Setting parameter alchLambda to 0.34999999999999964
Info: NONBONDED TABLE R-SQUARED SPACING: 0.0625
Info: NONBONDED TABLE SIZE: 705 POINTS
TCL: Setting parameter alchLambda2 to 0.29999999999999966
Info: NONBONDED TABLE R-SQUARED SPACING: 0.0625
Info: NONBONDED TABLE SIZE: 705 POINTS
TCL: Running for 1500000 steps
ETITLE: TS BOND ANGLE DIHED IMPRP ELECT VDW BOUNDARY MISC KINETIC TOTAL TEMP POTENTIAL TOTALAVG TEMPAVG PRESSURE GPRESSURE VOLUME PRESSAVG GPRESSAVG
ENERGY: 0 2.7980 2.7684 3.7014 0.0000 -10630.4858 1422.9885 0.0000 0.0000 1763.6916 -7434.5379 301.3684 -9198.2295 -7434.5379 301.3684 -278.6241 -210.0862 30144.5963 -278.6241 -210.0862
ENERGY: 300000 4.1078 3.6089 1.7991 0.0000 -10704.9654 1487.3032 0.0000 0.0000 1752.0815 -7456.0648 299.3846 -9208.1463 -7452.1479 295.9601 297.5681 349.0190 29893.8753 -271.1591 -203.4510
ENERGY: 600000 3.5917 2.0815 4.6342 0.0000 -10505.6305 1388.5576 0.0000 0.0000 1745.8025 -7360.9631 298.3116 -9106.7655 -7434.6233 296.6589 -495.8476 -371.0966 30460.2479 -293.0035 -224.5986
ENERGY: 900000 4.2028 2.7814 4.6073 0.0000 -10677.1506 1383.1146 0.0000 0.0000 1781.2344 -7501.2100 304.3660 -9282.4444 -7441.2726 297.9432 -735.0557 -639.6420 30078.1369 -262.9886 -182.1976
ENERGY: 1200000 2.9124 5.3482 2.5831 0.0000 -10724.2314 1484.7878 0.0000 0.0000 1764.5271 -7464.0728 301.5112 -9228.5999 -7450.2841 297.5946 520.0456 581.0492 29902.4322 -161.6413 -89.1675
ENERGY: 1500000 4.4337 0.9111 2.3727 0.0000 -10580.7507 1434.5808 0.0000 0.0000 1713.0963 -7425.3561 292.7230 -9138.4524 -7446.4662 297.4187 -65.0515 21.6371 30223.5910 -152.0046 -81.6574
TCL: Running FEP window  15: Lambda1 0.29999999999999966 Lambda2 0.24999999999999967 [dLambda -0.04999999999999999]
TCL: Setting parameter firsttimestep to 0
TCL: Setting parameter alchLambda to 0.29999999999999966
Info: NONBONDED TABLE R-SQUARED SPACING: 0.0625
Info: NONBONDED TABLE SIZE: 705 POINTS
TCL: Setting parameter alchLambda2 to 0.24999999999999967
Info: NONBONDED TABLE R-SQUARED SPACING: 0.0625
Info: NONBONDED TABLE SIZE: 705 POINTS
TCL: Running for 1500000 steps
ETITLE: TS BOND ANGLE DIHED IMPRP ELECT VDW BOUNDARY MISC KINETIC TOTAL TEMP POTENTIAL TOTALAVG TEMPAVG PRESSURE GPRESSURE VOLUME PRESSAVG GPRESSAVG
ENERGY: 0 4.4337 0.9111 2.3727 0.0000 -10580.7489 1435.0397 0.0000 0.0000 1712.1986 -7425.7931 292.5696 -9137.9917 -7425.7931 292.5696 -69.5390 21.5146 30223.5910 -69.5390 21.5146
ENERGY: 300000 4.5798 4.6881 2.9448 0.0000 -10583.8407 1419.3723 0.0000 0.0000 1821.0944 -7331.1613 311.1770 -9152.2557 -7468.2691 296.8106 -8.7207 84.4611 30081.8071 -268.0700 -179.9100
ENERGY: 600000 3.9699 6.7659 3.4828 0.0000 -10757.9271 1508.6386 0.0000 0.0000 1793.3607 -7441.7092 306.4381 -9235.0699 -7457.5244 297.4268 491.6662 545.3112 30088.1297 -62.9061 6.9211
ENERGY: 900000 6.5032 2.4749 1.1979 0.0000 -10736.1843 1520.6907 0.0000 0.0000 1766.4240 -7438.8936 301.8353 -9205.3176 -7444.5804 297.5494 689.5867 713.9505 30177.3113 88.7550 151.7276
ENERGY: 1200000 4.3462 7.0495 3.5831 0.0000 -10598.9849 1397.7208 0.0000 0.0000 1836.7044 -7349.5809 313.8444 -9186.2853 -7443.8644 298.5556 -518.2185 -426.0298 30635.2626 -100.9649 -35.4058
ENERGY: 1500000 0.8925 9.4679 1.5474 0.0000 -10744.0631 1530.3307 0.0000 0.0000 1720.0662 -7481.7585 293.9140 -9201.8246 -7453.6925 298.5710 675.1808 750.8154 30060.0730 -28.6893 36.4807
TCL: Running FEP window  16: Lambda1 0.24999999999999967 Lambda2 0.19999999999999968 [dLambda -0.04999999999999999]
TCL: Setting parameter firsttimestep to 0
TCL: Setting parameter alchLambda to 0.24999999999999967
Info: NONBONDED TABLE R-SQUARED SPACING: 0.0625
Info: NONBONDED TABLE SIZE: 705 POINTS
TCL: Setting parameter alchLambda2 to 0.19999999999999968
Info: NONBONDED TABLE R-SQUARED SPACING: 0.0625
Info: NONBONDED TABLE SIZE: 705 POINTS
TCL: Running for 1500000 steps
ETITLE: TS BOND ANGLE DIHED IMPRP ELECT VDW BOUNDARY MISC KINETIC TOTAL TEMP POTENTIAL TOTALAVG TEMPAVG PRESSURE GPRESSURE VOLUME PRESSAVG GPRESSAVG
ENERGY: 0 0.8925 9.4679 1.5474 0.0000 -10744.0623 1530.4911 0.0000 0.0000 1719.2064 -7482.4570 293.7671 -9201.6634 -7482.4570 293.7671 674.4562 745.9680 30060.0730 674.4562 745.9680
ENERGY: 300000 4.0465 5.6954 2.0973 0.0000 -10622.1405 1426.2870 0.0000 0.0000 1793.7312 -7390.2832 306.5014 -9184.0143 -7485.8068 297.4497 -298.1356 -248.4352 30305.4522 -225.7389 -147.2935
ENERGY: 600000 1.3013 7.7181 5.1504 0.0000 -10466.7912 1358.6650 0.0000 0.0000 1733.4816 -7360.4747 296.2063 -9093.9564 -7459.9827 297.5803 -319.1241 -285.2116 30204.7118 -268.6466 -193.9307
ENERGY: 900000 4.4532 0.9878 2.7691 0.0000 -10635.6369 1425.4838 0.0000 0.0000 1752.9687 -7448.9743 299.5362 -9201.9431 -7454.5266 299.2109 -89.1609 -59.0476 29965.0086 -133.3896 -65.2471
ENERGY: 1200000 1.1946 2.4769 2.2366 0.0000 -10755.6228 1448.5498 0.0000 0.0000 1731.5312 -7569.6338 295.8730 -9301.1649 -7460.4394 299.0490 -157.6602 -115.8757 30120.5535 -210.1484 -139.2119
ENERGY: 1500000 2.3984 2.5427 1.5271 0.0000 -10691.9410 1506.2361 0.0000 0.0000 1789.3377 -7389.8991 305.7507 -9179.2368 -7450.3448 299.8098 496.1913 605.6096 30263.8798 -153.9177 -80.2288
TCL: Running FEP window  17: Lambda1 0.19999999999999968 Lambda2 0.1499999999999997 [dLambda -0.04999999999999999]
TCL: Setting parameter firsttimestep to 0
TCL: Setting parameter alchLambda to 0.19999999999999968
Info: NONBONDED TABLE R-SQUARED SPACING: 0.0625
Info: NONBONDED TABLE SIZE: 705 POINTS
TCL: Setting parameter alchLambda2 to 0.1499999999999997
Info: NONBONDED TABLE R-SQUARED SPACING: 0.0625
Info: NONBONDED TABLE SIZE: 705 POINTS
TCL: Running for 1500000 steps
ETITLE: TS BOND ANGLE DIHED IMPRP ELECT VDW BOUNDARY MISC KINETIC TOTAL TEMP POTENTIAL TOTALAVG TEMPAVG PRESSURE GPRESSURE VOLUME PRESSAVG GPRESSAVG
ENERGY: 0 2.3984 2.5427 1.5271 0.0000 -10691.9410 1506.2779 0.0000 0.0000 1788.4607 -7390.7343 305.6008 -9179.1950 -7390.7343 305.6008 525.1734 600.4677 30263.8798 525.1734 600.4677
ENERGY: 300000 3.2391 3.4546 3.4216 0.0000 -10706.9409 1432.3709 0.0000 0.0000 1724.5896 -7539.8652 294.6869 -9264.4547 -7484.7880 296.3255 -430.0717 -408.4155 30252.7420 -343.4501 -293.7147
ENERGY: 600000 2.2916 6.7978 3.0852 0.0000 -10661.8261 1497.5177 0.0000 0.0000 1725.5873 -7426.5465 294.8574 -9152.1338 -7469.6234 297.7947 332.0622 418.3531 30159.5071 -190.4297 -130.7747
ENERGY: 900000 2.5352 7.0092 1.9289 0.0000 -10649.7948 1442.6120 0.0000 0.0000 1749.4863 -7446.2231 298.9411 -9195.7094 -7475.5024 297.9039 100.1954 202.8515 29940.5093 -203.9528 -139.5743
ENERGY: 1200000 1.1778 2.6306 1.7051 0.0000 -10617.4095 1454.8468 0.0000 0.0000 1761.4772 -7395.5720 300.9900 -9157.0492 -7463.7098 298.9047 109.3454 220.3004 30514.9991 -117.4609 -52.8062
ENERGY: 1500000 1.8383 5.3849 1.6759 0.0000 -10618.8552 1449.7670 0.0000 0.0000 1774.3073 -7385.8818 303.1824 -9160.1891 -7449.8167 300.2999 348.0208 341.3702 30169.6678 -110.0912 -49.9100
TCL: Running FEP window  18: Lambda1 0.1499999999999997 Lambda2 0.09999999999999969 [dLambda -0.05 ]
TCL: Setting parameter firsttimestep to 0
TCL: Setting parameter alchLambda to 0.1499999999999997
Info: NONBONDED TABLE R-SQUARED SPACING: 0.0625
Info: NONBONDED TABLE SIZE: 705 POINTS
TCL: Setting parameter alchLambda2 to 0.09999999999999969
Info: NONBONDED TABLE R-SQUARED SPACING: 0.0625
Info: NONBONDED TABLE SIZE: 705 POINTS
TCL: Running for 1500000 steps
ETITLE: TS BOND ANGLE DIHED IMPRP ELECT VDW BOUNDARY MISC KINETIC TOTAL TEMP POTENTIAL TOTALAVG TEMPAVG PRESSURE GPRESSURE VOLUME PRESSAVG GPRESSAVG
ENERGY: 0 1.8384 5.3849 1.6759 0.0000 -10618.8572 1449.1518 0.0000 0.0000 1773.3781 -7387.4281 303.0236 -9160.8062 -7387.4281 303.0236 266.5729 338.1642 30169.6678 266.5729 338.1642
ENERGY: 300000 4.0975 6.3127 1.1404 0.0000 -10580.9334 1467.2126 0.0000 0.0000 1775.4448 -7326.7254 303.3767 -9102.1702 -7393.2377 303.3588 254.3070 347.8207 30419.9502 262.5686 350.6472
ENERGY: 600000 4.0152 6.1859 2.5665 0.0000 -10639.0098 1443.3452 0.0000 0.0000 1742.1557 -7440.7413 297.6885 -9182.8970 -7413.6413 301.4388 -267.3032 -201.2269 30356.7586 143.5114 224.3934
ENERGY: 900000 3.2481 4.3557 1.8313 0.0000 -10717.0638 1400.9564 0.0000 0.0000 1777.4169 -7529.2554 303.7137 -9306.6724 -7431.9933 302.1374 -665.1726 -587.2358 30422.0139 26.7776 104.4340
ENERGY: 1200000 4.5329 4.6690 2.5943 0.0000 -10679.7077 1474.9887 0.0000 0.0000 1750.0118 -7442.9110 299.0309 -9192.9227 -7431.6116 300.8677 69.4856 182.6604 30075.4437 1.4366 83.2780
ENERGY: 1500000 2.7864 3.5090 3.1345 0.0000 -10787.7491 1581.7451 0.0000 0.0000 1724.1732 -7472.4008 294.6158 -9196.5740 -7433.2786 300.7802 1190.9916 1259.6766 29710.9744 51.3125 129.6106
TCL: Running FEP window  19: Lambda1 0.09999999999999969 Lambda2 0.049999999999999684 [dLambda -0.05 ]
TCL: Setting parameter firsttimestep to 0
TCL: Setting parameter alchLambda to 0.09999999999999969
Info: NONBONDED TABLE R-SQUARED SPACING: 0.0625
Info: NONBONDED TABLE SIZE: 705 POINTS
TCL: Setting parameter alchLambda2 to 0.049999999999999684
Info: NONBONDED TABLE R-SQUARED SPACING: 0.0625
Info: NONBONDED TABLE SIZE: 705 POINTS
TCL: Running for 1500000 steps
ETITLE: TS BOND ANGLE DIHED IMPRP ELECT VDW BOUNDARY MISC KINETIC TOTAL TEMP POTENTIAL TOTALAVG TEMPAVG PRESSURE GPRESSURE VOLUME PRESSAVG GPRESSAVG
ENERGY: 0 2.7864 3.5090 3.1345 0.0000 -10787.7495 1581.7984 0.0000 0.0000 1723.2703 -7473.2509 294.4615 -9196.5212 -7473.2509 294.4615 1167.9751 1255.5388 29710.9744 1167.9751 1255.5388
ENERGY: 300000 3.0178 4.3671 5.6388 0.0000 -10666.7028 1478.1413 0.0000 0.0000 1714.3226 -7461.2152 292.9326 -9175.5378 -7434.3596 294.7147 322.5499 430.7647 30133.7777 213.8665 294.4659
ENERGY: 600000 1.7118 2.7238 1.8917 0.0000 -10736.7967 1505.4092 0.0000 0.0000 1709.4935 -7515.5668 292.1074 -9225.0603 -7456.1712 294.9411 470.1960 500.8796 30202.2547 342.2688 393.0018
ENERGY: 900000 7.5044 4.7592 2.3584 0.0000 -10546.0800 1393.5126 0.0000 0.0000 1735.9198 -7402.0256 296.6229 -9137.9453 -7450.3775 295.4923 -460.4959 -361.8898 30182.3911 119.6408 176.7120
ENERGY: 1200000 2.4371 3.3772 1.2215 0.0000 -10724.2853 1475.8237 0.0000 0.0000 1756.0824 -7485.3434 300.0682 -9241.4258 -7442.3955 297.8609 51.4007 72.9048 30241.0297 52.6890 116.5573
ENERGY: 1500000 2.8511 3.8522 0.8213 0.0000 -10623.9446 1350.0291 0.0000 0.0000 1788.9415 -7477.4493 305.6830 -9266.3908 -7444.8708 298.4490 -928.5756 -902.0388 30127.1306 -51.8345 10.9468
TCL: Running FEP window  20: Lambda1 0.049999999999999684 Lambda2 0.0    [dLambda -0.049999999999999684]
TCL: Setting parameter firsttimestep to 0
TCL: Setting parameter alchLambda to 0.049999999999999684
Info: NONBONDED TABLE R-SQUARED SPACING: 0.0625
Info: NONBONDED TABLE SIZE: 705 POINTS
TCL: Setting parameter alchLambda2 to 0.0
Info: NONBONDED TABLE R-SQUARED SPACING: 0.0625
Info: NONBONDED TABLE SIZE: 705 POINTS
TCL: Running for 1500000 steps
ETITLE: TS BOND ANGLE DIHED IMPRP ELECT VDW BOUNDARY MISC KINETIC TOTAL TEMP POTENTIAL TOTALAVG TEMPAVG PRESSURE GPRESSURE VOLUME PRESSAVG GPRESSAVG
ENERGY: 0 2.8511 3.8522 0.8213 0.0000 -10623.9455 1348.4022 0.0000 0.0000 1788.0577 -7479.9611 305.5319 -9268.0188 -7479.9611 305.5319 -992.7593 -908.2954 30127.1306 -992.7593 -908.2954
ENERGY: 300000 5.2260 3.6991 4.8667 0.0000 -10527.1853 1372.0146 0.0000 0.0000 1756.4842 -7384.8948 300.1369 -9141.3790 -7423.1577 300.2522 -432.2597 -412.3036 30251.7432 -424.7841 -354.3878
ENERGY: 600000 5.4371 2.5984 2.4454 0.0000 -10574.1146 1362.6992 0.0000 0.0000 1760.0661 -7440.8684 300.7489 -9200.9345 -7417.8256 300.0725 -694.7011 -683.9879 30174.8247 -448.8471 -390.5569
ENERGY: 900000 4.9470 5.6867 2.2308 0.0000 -10653.5320 1405.2387 0.0000 0.0000 1756.1162 -7479.3126 300.0740 -9235.4288 -7421.2818 301.9149 -736.1502 -669.5549 30442.1856 -293.4443 -232.5302
ENERGY: 1200000 2.2990 3.9226 3.3432 0.0000 -10600.0015 1407.0748 0.0000 0.0000 1718.6567 -7464.7052 293.6731 -9183.3619 -7427.4334 301.4155 -309.7767 -206.6515 30315.8392 -274.3872 -210.3148
ENERGY: 1500000 4.5359 3.0337 1.8489 0.0000 -10487.8935 1381.6881 0.0000 0.0000 1720.2771 -7376.5098 293.9500 -9096.7869 -7426.9427 301.3976 -423.4365 -388.2061 30353.6411 -225.7013 -161.4793
TCL: Exiting due to exit command.
