Info: SIMULATION PARAMETERS:
Info: TIMESTEP               2
Info: NUMBER OF STEPS        0
Info: STEPS PER CYCLE        10
Info: PERIODIC CELL BASIS 1  31.0312 0 0
Info: PERIODIC CELL BASIS 2  0 31.3866 0
Info: PERIODIC CELL BASIS 3  0 0 31.5932
Info: PERIODIC CELL CENTER   0 0 0
Info: WRAPPING WATERS AROUND PERIODIC BOUNDARIES ON OUTPUT.
Info: WRAPPING ALL CLUSTERS AROUND PERIODIC BOUNDARIES ON OUTPUT.
Info: FIRST LDB TIMESTEP     50
Info: LAST LDB TIMESTEP     -1
Info: HOM BACKGROUND SCALING 1
Info: PME BACKGROUND SCALING 1
Info: MIN ATOMS PER PATCH    40
Info: EMPTY PATCH LOAD       40 ATOMS
Info: VELOCITY FILE          mobley_8899867_equil.vel
Info: CENTER OF MASS MOVING INITIALLY? NO
Info: DIELECTRIC             1
Info: EXCLUDE                SCALED ONE-FOUR
Info: 1-4 ELECTROSTATICS SCALED BY 0.833333
Info: MODIFIED 1-4 VDW PARAMETERS WILL BE USED
Info: DCD FILENAME           mobley_8899867_prod.dcd
Info: DCD FREQUENCY          100000
Info: DCD FIRST STEP         100000
Info: DCD FILE WILL CONTAIN UNIT CELL DATA
Info: XST FILENAME           mobley_8899867_prod.xst
Info: XST FREQUENCY          100000
Info: NO VELOCITY DCD OUTPUT
Info: NO FORCE DCD OUTPUT
Info: OUTPUT FILENAME        mobley_8899867_prod
Info: BINARY OUTPUT FILES WILL BE USED
Info: RESTART FILENAME       mobley_8899867_prod.restart
Info: RESTART FREQUENCY      100000
Info: BINARY RESTART FILES WILL BE USED
Info: CUTOFF                 9
Info: PAIRLIST DISTANCE      11
Info: PAIRLIST SHRINK RATE   0.01
Info: PAIRLIST GROW RATE     0.01
Info: PAIRLIST TRIGGER       0.3
Info: PAIRLISTS PER CYCLE    2
Info: PAIRLISTS ENABLED
Info: MARGIN                 2
Info: HYDROGEN GROUP CUTOFF  2.5
Info: PATCH DIMENSION        15.5
Info: ENERGY OUTPUT STEPS    100000
Info: ENERGY EVALUATION STEPS    100000
Info: OUTPUT ENERGY PRECISION 4
Info: CROSSTERM ENERGY INCLUDED IN DIHEDRAL
Info: TIMING OUTPUT STEPS    1000000
Info: PRESSURE OUTPUT STEPS  100000
Info: ALCHEMICAL FEP ON
Info: FEP CURRENT LAMBDA VALUE     1
Info: FEP COMPARISON LAMBDA VALUE  0.95
Info: FEP INTRA-ALCHEMICAL NON-BONDED INTERACTIONS WILL BE RETAINED
Info: FEP INTRA-ALCHEMICAL BONDED INTERACTIONS WILL BE RETAINED
Info: FEP VDW SHIFTING COEFFICIENT 5
Info: FEP ELEC. ACTIVE FOR ANNIHILATED PARTICLES BETWEEN LAMBDA = 0 AND LAMBDA = 0.5
Info: FEP ELEC. ACTIVE FOR EXNIHILATED PARTICLES BETWEEN LAMBDA = 0.5 AND LAMBDA = 1
Info: FEP VDW ACTIVE FOR ANNIHILATED PARTICLES BETWEEN LAMBDA = 0 AND LAMBDA = 1
Info: FEP VDW ACTIVE FOR EXNIHILATED PARTICLES BETWEEN LAMBDA = 0 AND LAMBDA = 1
Info: FEP BOND ACTIVE FOR ANNIHILATED PARTICLES BETWEEN LAMBDA = 1 AND LAMBDA = 1
Info: FEP BOND ACTIVE FOR EXNIHILATED PARTICLES BETWEEN LAMBDA = 0 AND LAMBDA = 0
Info: LANGEVIN DYNAMICS ACTIVE
Info: LANGEVIN TEMPERATURE   300
Info: LANGEVIN USING BBK INTEGRATOR
Info: LANGEVIN DAMPING COEFFICIENT IS 1 INVERSE PS
Info: LANGEVIN DYNAMICS APPLIED TO HYDROGENS
Info: LANGEVIN PISTON PRESSURE CONTROL ACTIVE
Info:        TARGET PRESSURE IS 1.01325 BAR
Info:     OSCILLATION PERIOD IS 50 FS
Info:             DECAY TIME IS 25 FS
Info:     PISTON TEMPERATURE IS 300 K
Info:       PRESSURE CONTROL IS GROUP-BASED
Info:    INITIAL STRAIN RATE IS -0.000471475 -0.000471475 -0.000471475
Info:       CELL FLUCTUATION IS ISOTROPIC
Info: PARTICLE MESH EWALD (PME) ACTIVE
Info: PME TOLERANCE               1e-06
Info: PME EWALD COEFFICIENT       0.348832
Info: PME INTERPOLATION ORDER     4
Info: PME GRID DIMENSIONS         32 32 32
Info: PME MAXIMUM GRID SPACING    1
Info: PME CALCULATION WILL BE PERFORMED ON GPU
Info: FULL ELECTROSTATIC EVALUATION FREQUENCY      2
Info: USING VERLET I (r-RESPA) MTS SCHEME.
Info: C1 SPLITTING OF LONG RANGE ELECTROSTATICS
Info: PLACING ATOMS IN PATCHES BY HYDROGEN GROUPS
Info: RIGID BONDS TO HYDROGEN : ALL
Info:         ERROR TOLERANCE : 1e-08
Info:          MAX ITERATIONS : 100
Info: RIGID WATER USING SETTLE ALGORITHM
Info: RANDOM NUMBER SEED     1743600709
Info: USE HYDROGEN BONDS?    NO
Info: Using AMBER format force field!
Info: AMBER PARM FILE        mobley_8899867.prmtop
Info: COORDINATE PDB         mobley_8899867.pdb
Info: Exclusions will be read from PARM file!
Info: SCNB (VDW SCALING)     2
Info: USING ARITHMETIC MEAN TO COMBINE L-J SIGMA PARAMETERS
Info: BINARY COORDINATES     mobley_8899867_equil.coor
Info: SUMMARY OF PARAMETERS:
Info: 7 BONDS
Info: 7 ANGLES
Info:   7 HARMONIC
Info:   0 COSINE-BASED
Info: 9 DIHEDRAL
Info: 0 IMPROPER
Info: 0 CROSSTERM
Info: 0 VDW
Info: 21 VDW_PAIRS
Info: 0 NBTHOLE_PAIRS
Info: To read alchdata from file: mobley_8899867.pdb
Info: To read alchflag data from column: 5
Info: STRUCTURE SUMMARY:
Info: 2956 ATOMS
Info: 2956 BONDS
Info: 31 ANGLES
Info: 64 DIHEDRALS
Info: 0 IMPROPERS
Info: 0 CROSSTERMS
Info: 3030 EXCLUSIONS
Info: 2950 RIGID BONDS
Info: ALCH: 0 ATOMS TO DISAPPEAR IN FINAL STATE
Info: ALCH: 16 ATOMS TO APPEAR IN FINAL STATE
Info: 5918 DEGREES OF FREEDOM
Info: 986 HYDROGEN GROUPS
Info: 3 ATOMS IN LARGEST HYDROGEN GROUP
Info: 986 MIGRATION GROUPS
Info: 3 ATOMS IN LARGEST MIGRATION GROUP
Info: TOTAL MASS = 17741.8 amu
Info: TOTAL CHARGE = 0.000200015 e
Info: MASS DENSITY = 0.95746 g/cm^3
Info: ATOM DENSITY = 0.0960656 atoms/A^3
Info: ADDED 0 IMPLICIT EXCLUSIONS
Info: NONBONDED TABLE R-SQUARED SPACING: 0.0625
Info: NONBONDED TABLE SIZE: 705 POINTS
Info: REDUCING NUMBER OF PATCHES TO IMPROVE LOAD BALANCE
Info: REMOVING COM VELOCITY 0.245931 0.157485 -0.000742753
Info: Use 3D box decompostion in PME FFT.
Info: Updated CUDA force table with 4096 elements.
Info: Updated CUDA LJ table with 6 x 6 elements.
Info: Found 19 unique exclusion lists needing 48 bytes
TCL: Running for 1500000 steps
ETITLE: TS BOND ANGLE DIHED IMPRP ELECT VDW BOUNDARY MISC KINETIC TOTAL TEMP POTENTIAL TOTALAVG TEMPAVG PRESSURE GPRESSURE VOLUME PRESSAVG GPRESSAVG
ENERGY: 0 3.2800 8.2307 13.1263 0.0000 -10711.0355 1430.3475 0.0000 0.0000 1784.2682 -7471.7828 303.4419 -9256.0510 -7471.7828 303.4419 -136.9144 -46.3665 30770.6442 -136.9144 -46.3665
ENERGY: 300000 0.7064 8.9361 10.7457 0.0000 -10723.3422 1437.7948 0.0000 0.0000 1822.3415 -7442.8178 309.9168 -9265.1592 -7498.0715 302.9086 -306.3164 -123.0226 30927.5179 -110.0660 -37.4702
ENERGY: 600000 0.6661 15.1195 9.1072 0.0000 -10750.8225 1455.1405 0.0000 0.0000 1719.6933 -7551.0960 292.4600 -9270.7892 -7495.3670 301.1283 310.8966 359.5652 29920.0644 -121.4627 -60.8567
ENERGY: 900000 0.3777 10.3145 11.6443 0.0000 -10678.7009 1404.8349 0.0000 0.0000 1778.6369 -7472.8926 302.4842 -9251.5295 -7505.5793 300.0014 -221.7698 -85.8036 30370.7255 -155.8490 -93.7990
ENERGY: 1200000 1.3433 9.4378 9.1488 0.0000 -10807.8738 1503.2570 0.0000 0.0000 1797.3639 -7487.3229 305.6690 -9284.6869 -7502.1175 300.6363 465.8856 553.0433 30217.6190 -100.0514 -42.5817
ENERGY: 1500000 0.5351 14.7017 9.1637 0.0000 -10529.7559 1348.5743 0.0000 0.0000 1788.6592 -7368.1218 304.1887 -9156.7811 -7489.5001 301.5675 -360.3846 -226.3788 30530.4762 -133.4790 -73.3836
TCL: Running FEP window   2: Lambda1 0.95   Lambda2 0.8999999999999999 [dLambda -0.050000000000000044]
TCL: Setting parameter firsttimestep to 0
TCL: Setting parameter alchLambda to 0.95
Info: NONBONDED TABLE R-SQUARED SPACING: 0.0625
Info: NONBONDED TABLE SIZE: 705 POINTS
TCL: Setting parameter alchLambda2 to 0.8999999999999999
Info: NONBONDED TABLE R-SQUARED SPACING: 0.0625
Info: NONBONDED TABLE SIZE: 705 POINTS
TCL: Running for 1500000 steps
ETITLE: TS BOND ANGLE DIHED IMPRP ELECT VDW BOUNDARY MISC KINETIC TOTAL TEMP POTENTIAL TOTALAVG TEMPAVG PRESSURE GPRESSURE VOLUME PRESSAVG GPRESSAVG
ENERGY: 0 0.5351 14.7017 9.1637 0.0000 -10528.0598 1348.3047 0.0000 0.0000 1787.7883 -7367.5662 304.0406 -9155.3546 -7367.5662 304.0406 -317.3094 -235.3994 30530.4762 -317.3094 -235.3994
ENERGY: 300000 3.1285 10.3649 10.4349 0.0000 -10678.4389 1400.0791 0.0000 0.0000 1802.5568 -7451.8747 306.5522 -9254.4315 -7466.7067 301.1627 -311.1912 -283.7476 30433.9302 -213.6813 -169.9071
ENERGY: 600000 0.4261 7.6803 9.8417 0.0000 -10817.0881 1410.8419 0.0000 0.0000 1770.8540 -7617.4442 301.1606 -9388.2982 -7483.0095 300.5737 -500.9728 -401.8308 30174.1340 -310.2599 -245.8693
ENERGY: 900000 2.0849 10.6474 8.6271 0.0000 -10716.7445 1393.5140 0.0000 0.0000 1766.7218 -7535.1493 300.4579 -9301.8711 -7487.6897 300.6327 -339.8180 -283.9890 30496.5984 -161.1265 -94.8077
ENERGY: 1200000 2.4048 11.1920 9.7083 0.0000 -10657.1975 1413.6079 0.0000 0.0000 1785.0901 -7435.1944 303.5817 -9220.2845 -7489.8841 300.0857 -256.3112 -213.2221 30996.5732 -49.0115 11.2431
ENERGY: 1500000 1.6624 10.6400 9.6441 0.0000 -10743.6862 1475.3625 0.0000 0.0000 1710.2430 -7536.1342 290.8528 -9246.3772 -7490.3693 299.5059 539.3551 557.4392 30371.3164 -24.2462 34.6487
TCL: Running FEP window   3: Lambda1 0.8999999999999999 Lambda2 0.8499999999999999 [dLambda -0.050000000000000044]
TCL: Setting parameter firsttimestep to 0
TCL: Setting parameter alchLambda to 0.8999999999999999
Info: NONBONDED TABLE R-SQUARED SPACING: 0.0625
Info: NONBONDED TABLE SIZE: 705 POINTS
TCL: Setting parameter alchLambda2 to 0.8499999999999999
Info: NONBONDED TABLE R-SQUARED SPACING: 0.0625
Info: NONBONDED TABLE SIZE: 705 POINTS
TCL: Running for 1500000 steps
ETITLE: TS BOND ANGLE DIHED IMPRP ELECT VDW BOUNDARY MISC KINETIC TOTAL TEMP POTENTIAL TOTALAVG TEMPAVG PRESSURE GPRESSURE VOLUME PRESSAVG GPRESSAVG
ENERGY: 0 1.6624 10.6400 9.6441 0.0000 -10741.9160 1474.9470 0.0000 0.0000 1709.3555 -7535.6670 290.7019 -9245.0225 -7535.6670 290.7019 463.7508 546.4781 30371.3164 463.7508 546.4781
ENERGY: 300000 1.2150 12.2433 10.9292 0.0000 -10778.9770 1446.5956 0.0000 0.0000 1794.0964 -7513.8975 305.1133 -9307.9939 -7520.4442 300.0943 148.8040 232.1458 30052.5936 198.3551 284.8936
ENERGY: 600000 0.5737 9.4118 11.1308 0.0000 -10650.6710 1362.6871 0.0000 0.0000 1741.5122 -7525.3555 296.1706 -9266.8677 -7518.5404 298.0788 -829.2884 -780.6585 30594.2210 47.8293 127.1157
ENERGY: 900000 1.8119 10.3892 12.4104 0.0000 -10613.2165 1392.0884 0.0000 0.0000 1696.6402 -7499.8765 288.5394 -9196.5167 -7509.5200 297.3219 -416.7969 -358.2877 30650.3054 -34.9008 27.5970
ENERGY: 1200000 2.4302 12.6460 9.8550 0.0000 -10750.1697 1490.7050 0.0000 0.0000 1702.2485 -7532.2850 289.4932 -9234.5335 -7514.6052 296.3032 530.8132 598.0905 30066.7005 -14.4654 50.9672
ENERGY: 1500000 3.9792 13.5576 8.7842 0.0000 -10720.5300 1408.0777 0.0000 0.0000 1750.5590 -7535.5724 297.7091 -9286.1313 -7510.3918 296.7344 -345.2789 -258.1116 30350.2000 13.8501 78.6290
TCL: Running FEP window   4: Lambda1 0.8499999999999999 Lambda2 0.7999999999999998 [dLambda -0.050000000000000044]
TCL: Setting parameter firsttimestep to 0
TCL: Setting parameter alchLambda to 0.8499999999999999
Info: NONBONDED TABLE R-SQUARED SPACING: 0.0625
Info: NONBONDED TABLE SIZE: 705 POINTS
TCL: Setting parameter alchLambda2 to 0.7999999999999998
Info: NONBONDED TABLE R-SQUARED SPACING: 0.0625
Info: NONBONDED TABLE SIZE: 705 POINTS
TCL: Running for 1500000 steps
ETITLE: TS BOND ANGLE DIHED IMPRP ELECT VDW BOUNDARY MISC KINETIC TOTAL TEMP POTENTIAL TOTALAVG TEMPAVG PRESSURE GPRESSURE VOLUME PRESSAVG GPRESSAVG
ENERGY: 0 3.9792 13.5576 8.7842 0.0000 -10718.6982 1407.6803 0.0000 0.0000 1749.6673 -7535.0296 297.5575 -9284.6969 -7535.0296 297.5575 -351.0946 -267.5846 30350.2000 -351.0946 -267.5846
ENERGY: 300000 1.4240 12.6393 13.6937 0.0000 -10533.2475 1394.6788 0.0000 0.0000 1678.0118 -7432.7999 285.3714 -9110.8116 -7516.9400 295.8183 38.7995 53.6019 30623.7727 -22.2637 15.4700
ENERGY: 600000 1.4373 17.3746 9.8941 0.0000 -10635.7109 1400.1299 0.0000 0.0000 1779.2943 -7427.5807 302.5960 -9206.8750 -7501.9648 297.3733 -14.3074 20.8921 29985.3973 -13.1146 39.6155
ENERGY: 900000 1.9707 14.3315 10.1801 0.0000 -10814.0373 1507.1169 0.0000 0.0000 1751.1967 -7529.2415 297.8176 -9280.4381 -7512.2593 297.5842 360.0336 486.0007 30367.2637 122.8450 195.0403
ENERGY: 1200000 2.8851 11.2815 10.6301 0.0000 -10618.2522 1364.3130 0.0000 0.0000 1754.1484 -7474.9941 298.3196 -9229.1425 -7512.8776 297.2985 -558.1316 -454.0387 30552.3774 -18.5487 67.8968
ENERGY: 1500000 0.9036 11.3162 11.2203 0.0000 -10646.3263 1376.2683 0.0000 0.0000 1726.7483 -7519.8696 293.6598 -9246.6179 -7509.2609 297.5291 -522.8140 -481.8542 30459.2648 -42.8427 34.5596
TCL: Running FEP window   5: Lambda1 0.7999999999999998 Lambda2 0.7499999999999998 [dLambda -0.050000000000000044]
TCL: Setting parameter firsttimestep to 0
TCL: Setting parameter alchLambda to 0.7999999999999998
Info: NONBONDED TABLE R-SQUARED SPACING: 0.0625
Info: NONBONDED TABLE SIZE: 705 POINTS
TCL: Setting parameter alchLambda2 to 0.7499999999999998
Info: NONBONDED TABLE R-SQUARED SPACING: 0.0625
Info: NONBONDED TABLE SIZE: 705 POINTS
TCL: Running for 1500000 steps
ETITLE: TS BOND ANGLE DIHED IMPRP ELECT VDW BOUNDARY MISC KINETIC TOTAL TEMP POTENTIAL TOTALAVG TEMPAVG PRESSURE GPRESSURE VOLUME PRESSAVG GPRESSAVG
ENERGY: 0 0.9036 11.3162 11.2203 0.0000 -10644.5114 1375.8557 0.0000 0.0000 1725.8537 -7519.3618 293.5076 -9245.2155 -7519.3618 293.5076 -584.7441 -493.4806 30459.2648 -584.7441 -493.4806
ENERGY: 300000 3.0528 12.8322 9.7686 0.0000 -10667.8818 1362.3644 0.0000 0.0000 1783.1003 -7496.7635 303.2433 -9279.8638 -7524.7822 297.6080 -797.1883 -698.4330 30529.9661 -137.2843 -77.6667
ENERGY: 600000 2.3184 7.9727 11.2567 0.0000 -10680.2032 1380.2044 0.0000 0.0000 1737.7343 -7540.7167 295.5281 -9278.4510 -7518.1730 297.3982 -513.8066 -472.0660 30127.0717 -78.8874 -30.8785
ENERGY: 900000 1.9228 11.2267 9.8146 0.0000 -10649.6531 1360.0432 0.0000 0.0000 1795.8479 -7470.7979 305.4112 -9266.6458 -7508.7828 298.5434 -795.3736 -777.0215 31126.5713 -49.0785 -1.4108
ENERGY: 1200000 0.7406 9.9851 12.2443 0.0000 -10818.7678 1532.5482 0.0000 0.0000 1755.8845 -7507.3651 298.6148 -9263.2496 -7500.2071 299.3002 602.2539 679.7310 30314.4270 27.8633 71.5391
ENERGY: 1500000 1.4802 9.3414 11.1998 0.0000 -10799.8508 1507.9477 0.0000 0.0000 1817.4188 -7452.4628 309.0797 -9269.8817 -7492.0973 300.3503 512.0569 573.6819 30251.9768 12.6009 55.7384
TCL: Running FEP window   6: Lambda1 0.7499999999999998 Lambda2 0.6999999999999997 [dLambda -0.050000000000000044]
TCL: Setting parameter firsttimestep to 0
TCL: Setting parameter alchLambda to 0.7499999999999998
Info: NONBONDED TABLE R-SQUARED SPACING: 0.0625
Info: NONBONDED TABLE SIZE: 705 POINTS
TCL: Setting parameter alchLambda2 to 0.6999999999999997
Info: NONBONDED TABLE R-SQUARED SPACING: 0.0625
Info: NONBONDED TABLE SIZE: 705 POINTS
TCL: Running for 1500000 steps
ETITLE: TS BOND ANGLE DIHED IMPRP ELECT VDW BOUNDARY MISC KINETIC TOTAL TEMP POTENTIAL TOTALAVG TEMPAVG PRESSURE GPRESSURE VOLUME PRESSAVG GPRESSAVG
ENERGY: 0 1.4802 9.3414 11.1998 0.0000 -10797.9749 1507.0889 0.0000 0.0000 1816.5354 -7452.3291 308.9294 -9268.8645 -7452.3291 308.9294 482.4771 562.1433 30251.9768 482.4771 562.1433
ENERGY: 300000 0.4418 6.6395 11.7102 0.0000 -10685.3397 1409.8747 0.0000 0.0000 1760.9415 -7495.7320 299.4748 -9256.6735 -7488.5184 300.9889 -393.9362 -373.0721 30604.9770 14.1761 104.5701
ENERGY: 600000 0.8638 9.1835 10.4567 0.0000 -10776.6741 1434.4569 0.0000 0.0000 1793.4587 -7528.2546 305.0049 -9321.7132 -7480.2560 302.6074 -77.7880 5.2135 30100.4885 56.1433 119.9029
ENERGY: 900000 2.9022 9.4450 10.1643 0.0000 -10735.4118 1416.6949 0.0000 0.0000 1796.9713 -7499.2340 305.6023 -9296.2053 -7470.4054 302.3032 -415.9789 -319.5288 30409.7649 -22.8955 52.0544
ENERGY: 1200000 1.3090 13.9720 10.4607 0.0000 -10715.9707 1405.9723 0.0000 0.0000 1739.1127 -7545.1441 295.7625 -9284.2568 -7479.4708 301.1566 -170.4739 -145.6223 29912.6278 103.1891 175.4301
ENERGY: 1500000 2.8703 13.5064 10.4955 0.0000 -10687.2482 1445.7706 0.0000 0.0000 1804.6288 -7409.9767 306.9045 -9214.6055 -7473.5376 301.2856 230.4082 302.5437 30246.6049 24.6830 98.7832
TCL: Running FEP window   7: Lambda1 0.6999999999999997 Lambda2 0.6499999999999997 [dLambda -0.050000000000000044]
TCL: Setting parameter firsttimestep to 0
TCL: Setting parameter alchLambda to 0.6999999999999997
Info: NONBONDED TABLE R-SQUARED SPACING: 0.0625
Info: NONBONDED TABLE SIZE: 705 POINTS
TCL: Setting parameter alchLambda2 to 0.6499999999999997
Info: NONBONDED TABLE R-SQUARED SPACING: 0.0625
Info: NONBONDED TABLE SIZE: 705 POINTS
TCL: Running for 1500000 steps
ETITLE: TS BOND ANGLE DIHED IMPRP ELECT VDW BOUNDARY MISC KINETIC TOTAL TEMP POTENTIAL TOTALAVG TEMPAVG PRESSURE GPRESSURE VOLUME PRESSAVG GPRESSAVG
ENERGY: 0 2.8703 13.5064 10.4955 0.0000 -10686.8877 1445.9749 0.0000 0.0000 1803.7432 -7410.2973 306.7539 -9214.0405 -7410.2973 306.7539 195.1285 297.5457 30246.6049 195.1285 297.5457
ENERGY: 300000 1.4569 7.5129 10.7801 0.0000 -10580.0923 1292.2966 0.0000 0.0000 1793.4040 -7474.6419 304.9956 -9268.0459 -7464.9660 304.4482 -1121.8006 -1041.8000 30114.2440 -178.0834 -89.2972
ENERGY: 600000 2.8946 10.1636 10.6186 0.0000 -10599.5226 1388.9813 0.0000 0.0000 1796.5396 -7390.3249 305.5288 -9186.8645 -7458.6986 302.6728 -404.5175 -376.1660 30867.5397 -335.4760 -254.7329
ENERGY: 900000 0.3854 9.8116 10.0599 0.0000 -10760.6069 1461.4788 0.0000 0.0000 1778.3604 -7500.5108 302.4372 -9278.8712 -7473.8588 302.3694 77.4721 123.5806 30516.8028 -283.9682 -210.4020
ENERGY: 1200000 2.5756 7.4284 10.8422 0.0000 -10774.5269 1441.5742 0.0000 0.0000 1749.8081 -7562.2984 297.5815 -9312.1066 -7482.3683 301.3286 -60.2520 -16.6670 30117.7822 -255.0575 -182.8419
ENERGY: 1500000 3.1785 11.3396 10.0130 0.0000 -10805.6222 1457.7381 0.0000 0.0000 1750.8790 -7572.4742 297.7636 -9323.3531 -7504.1037 300.3037 192.6019 205.7600 30193.5465 -170.9831 -104.5181
TCL: Running FEP window   8: Lambda1 0.6499999999999997 Lambda2 0.5999999999999996 [dLambda -0.050000000000000044]
TCL: Setting parameter firsttimestep to 0
TCL: Setting parameter alchLambda to 0.6499999999999997
Info: NONBONDED TABLE R-SQUARED SPACING: 0.0625
Info: NONBONDED TABLE SIZE: 705 POINTS
TCL: Setting parameter alchLambda2 to 0.5999999999999996
Info: NONBONDED TABLE R-SQUARED SPACING: 0.0625
Info: NONBONDED TABLE SIZE: 705 POINTS
TCL: Running for 1500000 steps
ETITLE: TS BOND ANGLE DIHED IMPRP ELECT VDW BOUNDARY MISC KINETIC TOTAL TEMP POTENTIAL TOTALAVG TEMPAVG PRESSURE GPRESSURE VOLUME PRESSAVG GPRESSAVG
ENERGY: 0 3.1785 11.3395 10.0130 0.0000 -10805.4087 1457.6572 0.0000 0.0000 1749.9948 -7573.2257 297.6132 -9323.2205 -7573.2257 297.6132 112.8559 198.5479 30193.5465 112.8559 198.5479
ENERGY: 300000 1.5406 11.6294 8.6769 0.0000 -10884.7015 1536.1852 0.0000 0.0000 1782.8436 -7543.8258 303.1996 -9326.6693 -7509.2822 300.5306 300.4219 388.2359 30617.6226 -66.3458 12.9455
ENERGY: 600000 0.8159 9.7348 9.6016 0.0000 -10594.0874 1419.2317 0.0000 0.0000 1715.6421 -7439.0614 291.7710 -9154.7034 -7476.1157 300.8079 -150.8468 -92.9481 30704.4397 56.5461 126.7323
ENERGY: 900000 1.6172 13.2809 8.6250 0.0000 -10740.8650 1478.9567 0.0000 0.0000 1759.5482 -7478.8369 299.2379 -9238.3851 -7478.9498 299.9448 529.6837 610.9569 30226.6208 72.3059 130.1007
ENERGY: 1200000 0.5784 11.8216 11.9631 0.0000 -10700.2620 1409.0566 0.0000 0.0000 1745.7783 -7521.0639 296.8961 -9266.8422 -7487.8012 299.7337 -370.6244 -294.9306 30472.7628 16.2504 78.6588
ENERGY: 1500000 0.4276 8.1785 10.8681 0.0000 -10676.1387 1408.6773 0.0000 0.0000 1786.2809 -7461.7062 303.7842 -9247.9871 -7486.1042 299.8182 -203.7282 -178.9475 30476.6583 -58.4531 3.9721
TCL: Running FEP window   9: Lambda1 0.5999999999999996 Lambda2 0.5499999999999996 [dLambda -0.050000000000000044]
TCL: Setting parameter firsttimestep to 0
TCL: Setting parameter alchLambda to 0.5999999999999996
Info: NONBONDED TABLE R-SQUARED SPACING: 0.0625
Info: NONBONDED TABLE SIZE: 705 POINTS
TCL: Setting parameter alchLambda2 to 0.5499999999999996
Info: NONBONDED TABLE R-SQUARED SPACING: 0.0625
Info: NONBONDED TABLE SIZE: 705 POINTS
TCL: Running for 1500000 steps
ETITLE: TS BOND ANGLE DIHED IMPRP ELECT VDW BOUNDARY MISC KINETIC TOTAL TEMP POTENTIAL TOTALAVG TEMPAVG PRESSURE GPRESSURE VOLUME PRESSAVG GPRESSAVG
ENERGY: 0 0.4276 8.1785 10.8681 0.0000 -10675.2419 1408.9031 0.0000 0.0000 1785.4078 -7461.4568 303.6357 -9246.8646 -7461.4568 303.6357 -256.7768 -183.2026 30476.6583 -256.7768 -183.2026
ENERGY: 300000 0.9007 6.4414 10.9944 0.0000 -10606.2955 1368.8057 0.0000 0.0000 1797.2804 -7421.8729 305.6548 -9219.1533 -7455.9384 300.1790 -209.3953 -158.1324 30288.0750 -118.3394 -54.1099
ENERGY: 600000 2.6734 12.3778 9.4063 0.0000 -10759.2978 1437.5555 0.0000 0.0000 1783.8225 -7513.4622 303.3661 -9297.2847 -7467.6730 300.9269 -218.0571 -183.6006 30510.2076 -29.5954 31.2670
ENERGY: 900000 1.0762 8.4272 9.0622 0.0000 -10638.9879 1358.6202 0.0000 0.0000 1813.3597 -7448.4423 308.3894 -9261.8021 -7467.8319 302.1534 -396.9970 -336.6056 30088.1077 -108.1795 -35.2762
ENERGY: 1200000 2.2635 9.8929 12.9133 0.0000 -10888.7061 1528.9582 0.0000 0.0000 1725.0385 -7609.6397 293.3690 -9334.6782 -7478.3765 300.5384 484.5978 543.5065 30112.2652 -135.2119 -67.9231
ENERGY: 1500000 2.6778 11.7314 9.7360 0.0000 -10703.0137 1434.7797 0.0000 0.0000 1772.5342 -7471.5546 301.4464 -9244.0889 -7480.0123 300.3821 231.9813 259.9527 30067.0613 -130.3579 -66.8128
TCL: Running FEP window  10: Lambda1 0.5499999999999996 Lambda2 0.4999999999999996 [dLambda -0.04999999999999999]
TCL: Setting parameter firsttimestep to 0
TCL: Setting parameter alchLambda to 0.5499999999999996
Info: NONBONDED TABLE R-SQUARED SPACING: 0.0625
Info: NONBONDED TABLE SIZE: 705 POINTS
TCL: Setting parameter alchLambda2 to 0.4999999999999996
Info: NONBONDED TABLE R-SQUARED SPACING: 0.0625
Info: NONBONDED TABLE SIZE: 705 POINTS
TCL: Running for 1500000 steps
ETITLE: TS BOND ANGLE DIHED IMPRP ELECT VDW BOUNDARY MISC KINETIC TOTAL TEMP POTENTIAL TOTALAVG TEMPAVG PRESSURE GPRESSURE VOLUME PRESSAVG GPRESSAVG
ENERGY: 0 2.6778 11.7314 9.7360 0.0000 -10702.3165 1434.5057 0.0000 0.0000 1771.6595 -7472.0062 301.2976 -9243.6657 -7472.0062 301.2976 161.8775 253.4353 30067.0613 161.8775 253.4353
ENERGY: 300000 1.0924 12.4498 10.7238 0.0000 -10579.9110 1336.7335 0.0000 0.0000 1798.7965 -7420.1150 305.9127 -9218.9114 -7421.2354 301.9227 -737.1084 -696.3808 30552.4559 -176.0677 -96.9079
ENERGY: 600000 2.2272 9.6137 11.7769 0.0000 -10668.4236 1397.9255 0.0000 0.0000 1777.1400 -7469.7403 302.2296 -9246.8803 -7452.7269 301.2623 -563.2898 -520.2080 30514.1160 -194.9908 -101.2692
ENERGY: 900000 0.3486 11.7923 9.0711 0.0000 -10804.9911 1397.1693 0.0000 0.0000 1742.2903 -7644.3195 296.3029 -9386.6098 -7483.6584 300.6151 -549.9907 -492.8683 29757.8421 -96.2712 -22.8989
ENERGY: 1200000 1.2609 7.8031 12.5063 0.0000 -10707.0270 1400.5189 0.0000 0.0000 1755.5158 -7529.4221 298.5521 -9284.9379 -7493.1422 300.3100 -230.1388 -181.1725 30075.6865 -65.2322 9.3760
ENERGY: 1500000 1.6469 14.8312 11.5396 0.0000 -10792.9628 1467.0194 0.0000 0.0000 1800.3023 -7497.6235 306.1688 -9297.9258 -7502.0594 300.0495 99.5347 184.7903 30337.4631 -44.8869 21.0179
TCL: Running FEP window  11: Lambda1 0.4999999999999996 Lambda2 0.4499999999999996 [dLambda -0.04999999999999999]
TCL: Setting parameter firsttimestep to 0
TCL: Setting parameter alchLambda to 0.4999999999999996
Info: NONBONDED TABLE R-SQUARED SPACING: 0.0625
Info: NONBONDED TABLE SIZE: 705 POINTS
TCL: Setting parameter alchLambda2 to 0.4499999999999996
Info: NONBONDED TABLE R-SQUARED SPACING: 0.0625
Info: NONBONDED TABLE SIZE: 705 POINTS
TCL: Running for 1500000 steps
ETITLE: TS BOND ANGLE DIHED IMPRP ELECT VDW BOUNDARY MISC KINETIC TOTAL TEMP POTENTIAL TOTALAVG TEMPAVG PRESSURE GPRESSURE VOLUME PRESSAVG GPRESSAVG
ENERGY: 0 1.6469 14.8312 11.5396 0.0000 -10793.1170 1467.3864 0.0000 0.0000 1799.4362 -7498.2767 306.0215 -9297.7129 -7498.2767 306.0215 95.7885 181.2039 30337.4631 95.7885 181.2039
ENERGY: 300000 4.0083 12.3314 10.2879 0.0000 -10728.8656 1452.9697 0.0000 0.0000 1746.2453 -7503.0230 296.9755 -9249.2684 -7481.5575 302.5866 108.0307 189.0893 30279.5171 211.5890 253.5037
ENERGY: 600000 0.5842 7.7264 11.5674 0.0000 -10625.4527 1360.5329 0.0000 0.0000 1681.1594 -7563.8825 285.9067 -9245.0419 -7491.0501 301.0420 -695.3485 -619.0186 30379.3053 66.8022 128.4079
ENERGY: 900000 1.5679 8.0639 10.4387 0.0000 -10731.0046 1460.3625 0.0000 0.0000 1765.3934 -7485.1783 300.2320 -9250.5717 -7483.5211 299.3969 182.5215 199.5872 30194.2511 -0.6089 61.1880
ENERGY: 1200000 0.5894 10.9791 9.5344 0.0000 -10786.2613 1463.1694 0.0000 0.0000 1707.9463 -7594.0428 290.4622 -9301.9891 -7486.6345 299.4616 197.9808 288.6382 29831.0697 -24.5543 42.4387
ENERGY: 1500000 1.4778 11.2989 10.4903 0.0000 -10700.7016 1441.9686 0.0000 0.0000 1780.1232 -7455.3427 302.7370 -9235.4659 -7479.4518 299.9288 -179.1339 -107.8366 30880.7786 -69.5143 1.2296
TCL: Running FEP window  12: Lambda1 0.4499999999999996 Lambda2 0.39999999999999963 [dLambda -0.04999999999999999]
TCL: Setting parameter firsttimestep to 0
TCL: Setting parameter alchLambda to 0.4499999999999996
Info: NONBONDED TABLE R-SQUARED SPACING: 0.0625
Info: NONBONDED TABLE SIZE: 705 POINTS
TCL: Setting parameter alchLambda2 to 0.39999999999999963
Info: NONBONDED TABLE R-SQUARED SPACING: 0.0625
Info: NONBONDED TABLE SIZE: 705 POINTS
TCL: Running for 1500000 steps
ETITLE: TS BOND ANGLE DIHED IMPRP ELECT VDW BOUNDARY MISC KINETIC TOTAL TEMP POTENTIAL TOTALAVG TEMPAVG PRESSURE GPRESSURE VOLUME PRESSAVG GPRESSAVG
ENERGY: 0 1.4778 11.2989 10.4903 0.0000 -10700.7008 1442.2635 0.0000 0.0000 1779.2507 -7455.9195 302.5886 -9235.1702 -7455.9195 302.5886 -186.5997 -109.7032 30880.7786 -186.5997 -109.7032
ENERGY: 300000 3.3637 11.7494 11.1302 0.0000 -10814.6157 1485.0996 0.0000 0.0000 1788.0897 -7515.1830 304.0918 -9303.2727 -7475.2377 303.9570 119.3386 231.4258 30381.8734 -121.6499 -40.2809
ENERGY: 600000 1.3411 9.0700 11.7432 0.0000 -10796.1812 1472.0647 0.0000 0.0000 1734.2239 -7567.7381 294.9311 -9301.9620 -7486.3630 302.9418 -155.9160 -115.7637 30686.8816 -402.4765 -319.1148
ENERGY: 900000 2.6785 10.1489 11.9026 0.0000 -10670.9795 1453.1638 0.0000 0.0000 1743.5948 -7449.4910 296.5248 -9193.0858 -7481.6648 301.6556 298.0627 341.8818 30169.3067 -283.6073 -208.4786
ENERGY: 1200000 2.8102 11.9494 12.6726 0.0000 -10614.8519 1353.7023 0.0000 0.0000 1775.3191 -7458.3984 301.9200 -9233.7174 -7477.6859 301.2876 -182.7965 -147.1679 29903.0524 -223.1106 -151.3594
ENERGY: 1500000 0.7628 8.5192 10.3720 0.0000 -10692.2203 1419.4877 0.0000 0.0000 1781.0212 -7472.0574 302.8897 -9253.0786 -7477.7431 301.6663 -128.4404 -62.9776 30293.3005 -195.3600 -128.2467
TCL: Running FEP window  13: Lambda1 0.39999999999999963 Lambda2 0.34999999999999964 [dLambda -0.04999999999999999]
TCL: Setting parameter firsttimestep to 0
TCL: Setting parameter alchLambda to 0.39999999999999963
Info: NONBONDED TABLE R-SQUARED SPACING: 0.0625
Info: NONBONDED TABLE SIZE: 705 POINTS
TCL: Setting parameter alchLambda2 to 0.34999999999999964
Info: NONBONDED TABLE R-SQUARED SPACING: 0.0625
Info: NONBONDED TABLE SIZE: 705 POINTS
TCL: Running for 1500000 steps
ETITLE: TS BOND ANGLE DIHED IMPRP ELECT VDW BOUNDARY MISC KINETIC TOTAL TEMP POTENTIAL TOTALAVG TEMPAVG PRESSURE GPRESSURE VOLUME PRESSAVG GPRESSAVG
ENERGY: 0 0.7628 8.5192 10.3720 0.0000 -10692.2182 1419.9304 0.0000 0.0000 1780.1548 -7472.4790 302.7424 -9252.6338 -7472.4790 302.7424 -149.7031 -61.9116 30293.3005 -149.7031 -61.9116
ENERGY: 300000 1.5838 14.7537 10.6257 0.0000 -10726.7771 1518.5608 0.0000 0.0000 1827.4767 -7353.7765 310.7902 -9181.2532 -7430.9383 302.0078 815.4847 841.2321 30131.1749 -97.6708 -28.3095
ENERGY: 600000 2.4439 14.0275 9.9139 0.0000 -10713.5168 1379.7426 0.0000 0.0000 1738.9530 -7568.4359 295.7354 -9307.3889 -7461.7474 299.7908 -632.3108 -583.2303 30271.0190 -98.2350 -24.1711
ENERGY: 900000 2.1926 9.6944 13.8113 0.0000 -10721.2111 1458.3772 0.0000 0.0000 1814.6517 -7422.4839 308.6091 -9237.1355 -7471.2806 300.1723 76.4012 182.8183 30228.6732 -131.2179 -62.0568
ENERGY: 1200000 2.3626 10.4365 11.0353 0.0000 -10807.0030 1518.0805 0.0000 0.0000 1838.9491 -7426.1390 312.7412 -9265.0881 -7478.2591 300.9489 526.2925 603.2835 30258.7507 -19.1864 53.0842
ENERGY: 1500000 0.7985 7.0797 12.8411 0.0000 -10547.2203 1365.8248 0.0000 0.0000 1709.7470 -7450.9294 290.7684 -9160.6763 -7472.0289 300.4046 -285.1545 -237.9978 30416.0998 -94.5145 -21.5676
TCL: Running FEP window  14: Lambda1 0.34999999999999964 Lambda2 0.29999999999999966 [dLambda -0.04999999999999999]
TCL: Setting parameter firsttimestep to 0
TCL: Setting parameter alchLambda to 0.34999999999999964
Info: NONBONDED TABLE R-SQUARED SPACING: 0.0625
Info: NONBONDED TABLE SIZE: 705 POINTS
TCL: Setting parameter alchLambda2 to 0.29999999999999966
Info: NONBONDED TABLE R-SQUARED SPACING: 0.0625
Info: NONBONDED TABLE SIZE: 705 POINTS
TCL: Running for 1500000 steps
ETITLE: TS BOND ANGLE DIHED IMPRP ELECT VDW BOUNDARY MISC KINETIC TOTAL TEMP POTENTIAL TOTALAVG TEMPAVG PRESSURE GPRESSURE VOLUME PRESSAVG GPRESSAVG
ENERGY: 0 0.7985 7.0797 12.8411 0.0000 -10547.2210 1366.0447 0.0000 0.0000 1708.8869 -7451.5702 290.6222 -9160.4571 -7451.5702 290.6222 -330.8735 -241.8366 30416.0998 -330.8735 -241.8366
ENERGY: 300000 1.3556 15.5538 8.9515 0.0000 -10548.0078 1327.9618 0.0000 0.0000 1743.2539 -7450.9311 296.4668 -9194.1849 -7485.8535 296.1420 -745.4723 -720.1800 30431.3685 -369.5581 -291.1374
ENERGY: 600000 1.0678 16.1512 10.0209 0.0000 -10759.9034 1464.4650 0.0000 0.0000 1783.6070 -7484.5915 303.3295 -9268.1985 -7496.3616 298.6077 -233.8964 -152.1617 30765.3303 -276.5890 -195.1070
ENERGY: 900000 0.6714 8.1151 12.7288 0.0000 -10690.9354 1417.8131 0.0000 0.0000 1784.1400 -7467.4670 303.4201 -9251.6070 -7480.8579 299.8826 -151.3831 -81.3140 30339.8690 -240.6526 -165.9740
ENERGY: 1200000 0.9511 10.4314 9.3797 0.0000 -10692.1713 1459.8526 0.0000 0.0000 1774.8561 -7436.7005 301.8412 -9211.5566 -7467.9590 301.1208 227.3226 333.4162 30383.2987 -222.8037 -146.1480
ENERGY: 1500000 1.2728 9.8706 11.9215 0.0000 -10618.7021 1390.0548 0.0000 0.0000 1745.8738 -7459.7086 296.9124 -9205.5824 -7476.5539 300.5726 -548.3205 -410.4461 30695.8390 -218.2076 -141.4304
TCL: Running FEP window  15: Lambda1 0.29999999999999966 Lambda2 0.24999999999999967 [dLambda -0.04999999999999999]
TCL: Setting parameter firsttimestep to 0
TCL: Setting parameter alchLambda to 0.29999999999999966
Info: NONBONDED TABLE R-SQUARED SPACING: 0.0625
Info: NONBONDED TABLE SIZE: 705 POINTS
TCL: Setting parameter alchLambda2 to 0.24999999999999967
Info: NONBONDED TABLE R-SQUARED SPACING: 0.0625
Info: NONBONDED TABLE SIZE: 705 POINTS
TCL: Running for 1500000 steps
ETITLE: TS BOND ANGLE DIHED IMPRP ELECT VDW BOUNDARY MISC KINETIC TOTAL TEMP POTENTIAL TOTALAVG TEMPAVG PRESSURE GPRESSURE VOLUME PRESSAVG GPRESSAVG
ENERGY: 0 1.2728 9.8706 11.9215 0.0000 -10618.7015 1390.2265 0.0000 0.0000 1744.9913 -7460.4188 296.7623 -9205.4101 -7460.4188 296.7623 -497.5429 -410.4875 30695.8390 -497.5429 -410.4875
ENERGY: 300000 1.6922 11.9457 9.4037 0.0000 -10719.4959 1422.7215 0.0000 0.0000 1783.2291 -7490.5037 303.2652 -9273.7328 -7498.4941 301.0939 159.6607 262.8840 29661.0616 88.3349 182.6273
ENERGY: 600000 1.7232 11.4874 10.0579 0.0000 -10568.4304 1295.3911 0.0000 0.0000 1769.2427 -7480.5280 300.8866 -9249.7707 -7488.0729 302.3760 -1554.2890 -1415.7236 31067.6396 -103.5727 -10.2722
ENERGY: 900000 2.6417 9.7099 10.8811 0.0000 -10625.3464 1332.6398 0.0000 0.0000 1777.1667 -7492.3073 302.2342 -9269.4740 -7491.9796 301.7867 -955.7185 -930.6265 30466.9303 -187.0816 -112.8317
ENERGY: 1200000 1.7777 13.5352 9.5903 0.0000 -10681.8974 1338.5668 0.0000 0.0000 1760.6350 -7557.7923 299.4227 -9318.4273 -7497.2444 301.0243 -837.3344 -749.1006 30034.9931 -285.2132 -215.3827
ENERGY: 1500000 1.4776 9.0992 10.4320 0.0000 -10756.3257 1466.3250 0.0000 0.0000 1707.2174 -7561.7745 290.3383 -9268.9919 -7493.6628 300.4963 -22.9763 24.4727 30423.1184 -291.5730 -225.8588
TCL: Running FEP window  16: Lambda1 0.24999999999999967 Lambda2 0.19999999999999968 [dLambda -0.04999999999999999]
TCL: Setting parameter firsttimestep to 0
TCL: Setting parameter alchLambda to 0.24999999999999967
Info: NONBONDED TABLE R-SQUARED SPACING: 0.0625
Info: NONBONDED TABLE SIZE: 705 POINTS
TCL: Setting parameter alchLambda2 to 0.19999999999999968
Info: NONBONDED TABLE R-SQUARED SPACING: 0.0625
Info: NONBONDED TABLE SIZE: 705 POINTS
TCL: Running for 1500000 steps
ETITLE: TS BOND ANGLE DIHED IMPRP ELECT VDW BOUNDARY MISC KINETIC TOTAL TEMP POTENTIAL TOTALAVG TEMPAVG PRESSURE GPRESSURE VOLUME PRESSAVG GPRESSAVG
ENERGY: 0 1.4776 9.0992 10.4320 0.0000 -10756.3243 1466.5843 0.0000 0.0000 1706.3724 -7562.3588 290.1945 -9268.7312 -7562.3588 290.1945 -54.2262 22.7608 30423.1184 -54.2262 22.7608
ENERGY: 300000 1.0955 12.7745 10.4929 0.0000 -10730.6302 1442.0395 0.0000 0.0000 1778.7172 -7485.5106 302.4979 -9264.2277 -7490.2102 300.2110 -104.7009 -61.4121 30402.4395 -321.3434 -249.0251
ENERGY: 600000 2.1586 8.9011 11.2553 0.0000 -10645.8724 1362.1604 0.0000 0.0000 1760.2300 -7501.1670 299.3539 -9261.3970 -7516.6386 298.9941 -790.6810 -707.9001 30723.5138 -260.0359 -178.4770
ENERGY: 900000 2.6397 10.3522 10.5173 0.0000 -10664.0428 1422.1770 0.0000 0.0000 1723.1313 -7495.2252 293.0447 -9218.3566 -7514.0905 298.3913 -195.9353 -123.5537 29999.6976 -180.2817 -97.6296
ENERGY: 1200000 2.8108 14.2013 9.9115 0.0000 -10745.8023 1448.1359 0.0000 0.0000 1789.6881 -7481.0548 304.3636 -9270.7429 -7507.0561 299.2231 -18.7164 3.7509 30251.9148 -287.4071 -213.9522
ENERGY: 1500000 1.7796 8.6172 12.0965 0.0000 -10765.8585 1501.3693 0.0000 0.0000 1784.3934 -7457.6024 303.4632 -9241.9958 -7504.4210 299.5896 637.2304 650.5299 30106.4717 -269.9859 -203.4706
TCL: Running FEP window  17: Lambda1 0.19999999999999968 Lambda2 0.1499999999999997 [dLambda -0.04999999999999999]
TCL: Setting parameter firsttimestep to 0
TCL: Setting parameter alchLambda to 0.19999999999999968
Info: NONBONDED TABLE R-SQUARED SPACING: 0.0625
Info: NONBONDED TABLE SIZE: 705 POINTS
TCL: Setting parameter alchLambda2 to 0.1499999999999997
Info: NONBONDED TABLE R-SQUARED SPACING: 0.0625
Info: NONBONDED TABLE SIZE: 705 POINTS
TCL: Running for 1500000 steps
ETITLE: TS BOND ANGLE DIHED IMPRP ELECT VDW BOUNDARY MISC KINETIC TOTAL TEMP POTENTIAL TOTALAVG TEMPAVG PRESSURE GPRESSURE VOLUME PRESSAVG GPRESSAVG
ENERGY: 0 1.7797 8.6172 12.0965 0.0000 -10765.8581 1501.6599 0.0000 0.0000 1783.4897 -7458.2151 303.3095 -9241.7048 -7458.2151 303.3095 565.7573 648.8762 30106.4717 565.7573 648.8762
ENERGY: 300000 1.7550 11.4529 10.9973 0.0000 -10771.8810 1449.1496 0.0000 0.0000 1741.6475 -7556.8788 296.1936 -9298.5263 -7476.0106 302.4344 -124.8670 -85.1397 30203.5873 -282.2750 -225.5204
ENERGY: 600000 3.3886 8.1362 12.9505 0.0000 -10773.7981 1460.1960 0.0000 0.0000 1817.8405 -7471.2862 309.1514 -9289.1267 -7471.0447 304.9407 154.5737 218.1993 30115.5162 -25.1141 27.9599
ENERGY: 900000 3.1661 13.3412 8.7392 0.0000 -10722.4230 1406.5200 0.0000 0.0000 1746.8105 -7543.8459 297.0717 -9290.6564 -7486.8708 302.2577 -318.0723 -282.4036 30159.3001 -172.8939 -131.7881
ENERGY: 1200000 1.4072 13.6082 9.1702 0.0000 -10732.4071 1486.7337 0.0000 0.0000 1774.9356 -7446.5521 301.8548 -9221.4877 -7474.2483 302.1622 472.7095 485.6727 30257.8481 -179.2847 -146.3236
ENERGY: 1500000 1.9777 9.6030 11.3282 0.0000 -10651.5299 1395.7656 0.0000 0.0000 1699.9814 -7532.8742 289.1077 -9232.8555 -7487.8352 300.4201 -381.0900 -313.1337 30569.8978 -172.0413 -133.5556
TCL: Running FEP window  18: Lambda1 0.1499999999999997 Lambda2 0.09999999999999969 [dLambda -0.05 ]
TCL: Setting parameter firsttimestep to 0
TCL: Setting parameter alchLambda to 0.1499999999999997
Info: NONBONDED TABLE R-SQUARED SPACING: 0.0625
Info: NONBONDED TABLE SIZE: 705 POINTS
TCL: Setting parameter alchLambda2 to 0.09999999999999969
Info: NONBONDED TABLE R-SQUARED SPACING: 0.0625
Info: NONBONDED TABLE SIZE: 705 POINTS
TCL: Running for 1500000 steps
ETITLE: TS BOND ANGLE DIHED IMPRP ELECT VDW BOUNDARY MISC KINETIC TOTAL TEMP POTENTIAL TOTALAVG TEMPAVG PRESSURE GPRESSURE VOLUME PRESSAVG GPRESSAVG
ENERGY: 0 1.9777 9.6030 11.3282 0.0000 -10651.5306 1395.7818 0.0000 0.0000 1699.0972 -7533.7428 288.9573 -9232.8400 -7533.7428 288.9573 -400.3858 -317.7078 30569.8978 -400.3858 -317.7078
ENERGY: 300000 1.4283 17.1127 10.2960 0.0000 -10767.8800 1482.5879 0.0000 0.0000 1758.2532 -7498.2019 299.0177 -9256.4551 -7510.8898 295.6369 134.5730 223.2925 30421.7780 -144.5657 -61.2236
ENERGY: 600000 3.4780 7.5536 11.7395 0.0000 -10626.7528 1422.7757 0.0000 0.0000 1766.4515 -7414.7546 300.4119 -9181.2061 -7494.2068 297.5060 22.6258 7.1542 30501.1405 -182.6567 -126.1159
ENERGY: 900000 5.1785 9.1352 10.4480 0.0000 -10673.0345 1428.1920 0.0000 0.0000 1776.9862 -7443.0947 302.2035 -9220.0808 -7464.8850 300.9181 -382.4269 -344.5280 30644.2989 -179.8773 -121.2546
ENERGY: 1200000 2.0770 10.5129 9.6475 0.0000 -10753.7270 1455.4831 0.0000 0.0000 1773.5905 -7502.4159 301.6260 -9276.0065 -7467.7523 300.2580 -338.3270 -269.4749 30895.3198 -81.3841 -24.4105
ENERGY: 1500000 3.0908 9.0923 10.3944 0.0000 -10760.8560 1455.1959 0.0000 0.0000 1792.0282 -7491.0544 304.7616 -9283.0827 -7473.3383 301.0327 -98.2179 -46.4331 30500.0056 -112.6058 -60.0936
TCL: Running FEP window  19: Lambda1 0.09999999999999969 Lambda2 0.049999999999999684 [dLambda -0.05 ]
TCL: Setting parameter firsttimestep to 0
TCL: Setting parameter alchLambda to 0.09999999999999969
Info: NONBONDED TABLE R-SQUARED SPACING: 0.0625
Info: NONBONDED TABLE SIZE: 705 POINTS
TCL: Setting parameter alchLambda2 to 0.049999999999999684
Info: NONBONDED TABLE R-SQUARED SPACING: 0.0625
Info: NONBONDED TABLE SIZE: 705 POINTS
TCL: Running for 1500000 steps
ETITLE: TS BOND ANGLE DIHED IMPRP ELECT VDW BOUNDARY MISC KINETIC TOTAL TEMP POTENTIAL TOTALAVG TEMPAVG PRESSURE GPRESSURE VOLUME PRESSAVG GPRESSAVG
ENERGY: 0 3.0908 9.0923 10.3944 0.0000 -10760.8576 1454.2176 0.0000 0.0000 1791.1307 -7492.9318 304.6090 -9284.0625 -7492.9318 304.6090 -133.0835 -52.2820 30500.0056 -133.0835 -52.2820
ENERGY: 300000 0.6822 15.7268 10.4691 0.0000 -10521.6110 1347.3889 0.0000 0.0000 1759.1381 -7388.2059 299.1682 -9147.3440 -7477.8561 297.9120 -941.8103 -831.4256 31355.0556 -272.3591 -189.5461
ENERGY: 600000 3.6506 11.0632 10.3992 0.0000 -10724.6644 1413.9500 0.0000 0.0000 1795.1057 -7490.4957 305.2850 -9285.6014 -7491.1083 300.0974 -321.0419 -214.2708 30217.1167 -255.1611 -187.3637
ENERGY: 900000 0.3343 9.6405 11.6412 0.0000 -10674.1916 1477.3709 0.0000 0.0000 1755.8809 -7419.3238 298.6142 -9175.2047 -7495.1794 299.2903 351.5509 462.3204 30274.0653 -93.6153 -20.2786
ENERGY: 1200000 1.3515 10.8907 10.7943 0.0000 -10633.4237 1390.3762 0.0000 0.0000 1811.1180 -7408.8930 308.0081 -9220.0110 -7486.0858 300.2870 -305.3594 -180.5494 30425.6649 -48.7543 17.8780
ENERGY: 1500000 1.4081 11.0162 10.7821 0.0000 -10635.7038 1395.8829 0.0000 0.0000 1759.4281 -7457.1865 299.2175 -9216.6146 -7473.6978 300.9288 -305.0013 -300.6402 30385.8416 -98.1668 -36.0565
TCL: Running FEP window  20: Lambda1 0.049999999999999684 Lambda2 0.0    [dLambda -0.049999999999999684]
TCL: Setting parameter firsttimestep to 0
TCL: Setting parameter alchLambda to 0.049999999999999684
Info: NONBONDED TABLE R-SQUARED SPACING: 0.0625
Info: NONBONDED TABLE SIZE: 705 POINTS
TCL: Setting parameter alchLambda2 to 0.0
Info: NONBONDED TABLE R-SQUARED SPACING: 0.0625
Info: NONBONDED TABLE SIZE: 705 POINTS
TCL: Running for 1500000 steps
ETITLE: TS BOND ANGLE DIHED IMPRP ELECT VDW BOUNDARY MISC KINETIC TOTAL TEMP POTENTIAL TOTALAVG TEMPAVG PRESSURE GPRESSURE VOLUME PRESSAVG GPRESSAVG
ENERGY: 0 1.4081 11.0162 10.7821 0.0000 -10635.7032 1395.6688 0.0000 0.0000 1758.5868 -7458.2412 299.0744 -9216.8281 -7458.2412 299.0744 -384.2464 -303.2095 30385.8416 -384.2464 -303.2095
ENERGY: 300000 2.8071 10.0737 11.5906 0.0000 -10653.1952 1439.0895 0.0000 0.0000 1806.0758 -7383.5585 307.1506 -9189.6343 -7491.4392 300.3366 197.8650 240.4066 30515.9887 32.2966 91.2179
ENERGY: 600000 1.2561 12.9055 13.2925 0.0000 -10801.0346 1490.2195 0.0000 0.0000 1778.6613 -7504.6998 302.4884 -9283.3610 -7477.5659 302.4568 159.4520 234.6046 30290.6295 236.6739 309.3673
ENERGY: 900000 1.9519 11.5707 10.1318 0.0000 -10628.9988 1439.1577 0.0000 0.0000 1803.6459 -7362.5409 306.7374 -9166.1867 -7470.6391 302.6617 173.6828 189.8775 30601.4607 139.9795 206.4563
ENERGY: 1200000 2.8719 13.2269 10.7787 0.0000 -10720.4814 1431.6099 0.0000 0.0000 1753.5934 -7508.4006 298.2252 -9261.9940 -7485.8217 302.2892 -84.6428 -39.6721 30336.7276 -57.1023 3.6212
ENERGY: 1500000 3.1432 12.8978 12.2167 0.0000 -10844.9484 1545.6178 0.0000 0.0000 1708.6285 -7562.4443 290.5782 -9271.0728 -7487.9775 301.5516 776.0725 847.3747 30294.0990 -37.5916 17.6332
TCL: Exiting due to exit command.
