Info: SIMULATION PARAMETERS:
Info: TIMESTEP               2
Info: NUMBER OF STEPS        0
Info: STEPS PER CYCLE        10
Info: PERIODIC CELL BASIS 1  32.2238 0 0
Info: PERIODIC CELL BASIS 2  0 31.057 0
Info: PERIODIC CELL BASIS 3  0 0 30.54
Info: PERIODIC CELL CENTER   0 0 0
Info: WRAPPING WATERS AROUND PERIODIC BOUNDARIES ON OUTPUT.
Info: WRAPPING ALL CLUSTERS AROUND PERIODIC BOUNDARIES ON OUTPUT.
Info: FIRST LDB TIMESTEP     50
Info: LAST LDB TIMESTEP     -1
Info: HOM BACKGROUND SCALING 1
Info: PME BACKGROUND SCALING 1
Info: MIN ATOMS PER PATCH    40
Info: EMPTY PATCH LOAD       40 ATOMS
Info: VELOCITY FILE          mobley_1800170_equil.vel
Info: CENTER OF MASS MOVING INITIALLY? NO
Info: DIELECTRIC             1
Info: EXCLUDE                SCALED ONE-FOUR
Info: 1-4 ELECTROSTATICS SCALED BY 0.833333
Info: MODIFIED 1-4 VDW PARAMETERS WILL BE USED
Info: DCD FILENAME           mobley_1800170_prod.dcd
Info: DCD FREQUENCY          100000
Info: DCD FIRST STEP         100000
Info: DCD FILE WILL CONTAIN UNIT CELL DATA
Info: XST FILENAME           mobley_1800170_prod.xst
Info: XST FREQUENCY          100000
Info: NO VELOCITY DCD OUTPUT
Info: NO FORCE DCD OUTPUT
Info: OUTPUT FILENAME        mobley_1800170_prod
Info: BINARY OUTPUT FILES WILL BE USED
Info: RESTART FILENAME       mobley_1800170_prod.restart
Info: RESTART FREQUENCY      100000
Info: BINARY RESTART FILES WILL BE USED
Info: CUTOFF                 9
Info: PAIRLIST DISTANCE      11
Info: PAIRLIST SHRINK RATE   0.01
Info: PAIRLIST GROW RATE     0.01
Info: PAIRLIST TRIGGER       0.3
Info: PAIRLISTS PER CYCLE    2
Info: PAIRLISTS ENABLED
Info: MARGIN                 2
Info: HYDROGEN GROUP CUTOFF  2.5
Info: PATCH DIMENSION        15.5
Info: ENERGY OUTPUT STEPS    100000
Info: ENERGY EVALUATION STEPS    100000
Info: OUTPUT ENERGY PRECISION 4
Info: CROSSTERM ENERGY INCLUDED IN DIHEDRAL
Info: TIMING OUTPUT STEPS    1000000
Info: PRESSURE OUTPUT STEPS  100000
Info: ALCHEMICAL FEP ON
Info: FEP CURRENT LAMBDA VALUE     0
Info: FEP COMPARISON LAMBDA VALUE  0.05
Info: FEP INTRA-ALCHEMICAL NON-BONDED INTERACTIONS WILL BE RETAINED
Info: FEP INTRA-ALCHEMICAL BONDED INTERACTIONS WILL BE RETAINED
Info: FEP VDW SHIFTING COEFFICIENT 5
Info: FEP ELEC. ACTIVE FOR ANNIHILATED PARTICLES BETWEEN LAMBDA = 0 AND LAMBDA = 0.5
Info: FEP ELEC. ACTIVE FOR EXNIHILATED PARTICLES BETWEEN LAMBDA = 0.5 AND LAMBDA = 1
Info: FEP VDW ACTIVE FOR ANNIHILATED PARTICLES BETWEEN LAMBDA = 0 AND LAMBDA = 1
Info: FEP VDW ACTIVE FOR EXNIHILATED PARTICLES BETWEEN LAMBDA = 0 AND LAMBDA = 1
Info: FEP BOND ACTIVE FOR ANNIHILATED PARTICLES BETWEEN LAMBDA = 1 AND LAMBDA = 1
Info: FEP BOND ACTIVE FOR EXNIHILATED PARTICLES BETWEEN LAMBDA = 0 AND LAMBDA = 0
Info: LANGEVIN DYNAMICS ACTIVE
Info: LANGEVIN TEMPERATURE   300
Info: LANGEVIN USING BBK INTEGRATOR
Info: LANGEVIN DAMPING COEFFICIENT IS 1 INVERSE PS
Info: LANGEVIN DYNAMICS APPLIED TO HYDROGENS
Info: LANGEVIN PISTON PRESSURE CONTROL ACTIVE
Info:        TARGET PRESSURE IS 1.01325 BAR
Info:     OSCILLATION PERIOD IS 50 FS
Info:             DECAY TIME IS 25 FS
Info:     PISTON TEMPERATURE IS 300 K
Info:       PRESSURE CONTROL IS GROUP-BASED
Info:    INITIAL STRAIN RATE IS 3.04831e-05 3.04831e-05 3.04831e-05
Info:       CELL FLUCTUATION IS ISOTROPIC
Info: PARTICLE MESH EWALD (PME) ACTIVE
Info: PME TOLERANCE               1e-06
Info: PME EWALD COEFFICIENT       0.348832
Info: PME INTERPOLATION ORDER     4
Info: PME GRID DIMENSIONS         36 32 32
Info: PME MAXIMUM GRID SPACING    1
Info: PME CALCULATION WILL BE PERFORMED ON GPU
Info: FULL ELECTROSTATIC EVALUATION FREQUENCY      2
Info: USING VERLET I (r-RESPA) MTS SCHEME.
Info: C1 SPLITTING OF LONG RANGE ELECTROSTATICS
Info: PLACING ATOMS IN PATCHES BY HYDROGEN GROUPS
Info: RIGID BONDS TO HYDROGEN : ALL
Info:         ERROR TOLERANCE : 1e-08
Info:          MAX ITERATIONS : 100
Info: RIGID WATER USING SETTLE ALGORITHM
Info: RANDOM NUMBER SEED     1743495532
Info: USE HYDROGEN BONDS?    NO
Info: Using AMBER format force field!
Info: AMBER PARM FILE        mobley_1800170.prmtop
Info: COORDINATE PDB         mobley_1800170.pdb
Info: Exclusions will be read from PARM file!
Info: SCNB (VDW SCALING)     2
Info: USING ARITHMETIC MEAN TO COMBINE L-J SIGMA PARAMETERS
Info: BINARY COORDINATES     mobley_1800170_equil.coor
Info: SUMMARY OF PARAMETERS:
Info: 7 BONDS
Info: 7 ANGLES
Info:   7 HARMONIC
Info:   0 COSINE-BASED
Info: 2 DIHEDRAL
Info: 0 IMPROPER
Info: 0 CROSSTERM
Info: 0 VDW
Info: 28 VDW_PAIRS
Info: 0 NBTHOLE_PAIRS
Info: To read alchdata from file: mobley_1800170.pdb
Info: To read alchflag data from column: 5
Info: STRUCTURE SUMMARY:
Info: 2952 ATOMS
Info: 2951 BONDS
Info: 13 ANGLES
Info: 12 DIHEDRALS
Info: 0 IMPROPERS
Info: 0 CROSSTERMS
Info: 2976 EXCLUSIONS
Info: 2949 RIGID BONDS
Info: ALCH: 0 ATOMS TO DISAPPEAR IN FINAL STATE
Info: ALCH: 9 ATOMS TO APPEAR IN FINAL STATE
Info: 5907 DEGREES OF FREEDOM
Info: 984 HYDROGEN GROUPS
Info: 4 ATOMS IN LARGEST HYDROGEN GROUP
Info: 984 MIGRATION GROUPS
Info: 4 ATOMS IN LARGEST MIGRATION GROUP
Info: TOTAL MASS = 17735.8 amu
Info: TOTAL CHARGE = 1.58325e-08 e
Info: MASS DENSITY = 0.963619 g/cm^3
Info: ATOM DENSITY = 0.0965853 atoms/A^3
Info: ADDED 0 IMPLICIT EXCLUSIONS
Info: NONBONDED TABLE R-SQUARED SPACING: 0.0625
Info: NONBONDED TABLE SIZE: 705 POINTS
Info: REDUCING NUMBER OF PATCHES TO IMPROVE LOAD BALANCE
Info: REMOVING COM VELOCITY 0.0792886 -0.150165 0.0281096
Info: Use 3D box decompostion in PME FFT.
Info: Updated CUDA force table with 4096 elements.
Info: Updated CUDA LJ table with 7 x 7 elements.
Info: Found 12 unique exclusion lists needing 16 bytes
TCL: Running for 1500000 steps
ETITLE: TS BOND ANGLE DIHED IMPRP ELECT VDW BOUNDARY MISC KINETIC TOTAL TEMP POTENTIAL TOTALAVG TEMPAVG PRESSURE GPRESSURE VOLUME PRESSAVG GPRESSAVG
ENERGY: 0 0.9454 4.0338 0.3948 0.0000 -10650.0119 1472.6043 0.0000 0.0000 1790.7197 -7381.3139 305.1062 -9172.0336 -7381.3139 305.1062 248.5971 334.6410 30563.6582 248.5971 334.6410
ENERGY: 300000 1.3845 3.7747 0.8926 0.0000 -10695.9958 1449.0157 0.0000 0.0000 1784.4268 -7456.5016 304.0340 -9240.9283 -7453.5274 305.8242 232.7893 215.5905 30123.6932 266.9880 290.7727
ENERGY: 600000 1.1770 3.5857 0.3507 0.0000 -10695.7402 1413.6163 0.0000 0.0000 1707.2353 -7569.7752 290.8820 -9277.0105 -7486.9395 302.6299 -312.3981 -228.8409 30329.0352 124.6288 174.4203
ENERGY: 900000 0.2736 5.6441 0.5993 0.0000 -10705.0447 1485.1619 0.0000 0.0000 1762.3454 -7451.0204 300.2717 -9213.3658 -7492.6871 300.4255 455.0923 490.8884 30523.8415 111.8677 159.3421
ENERGY: 1200000 0.4258 2.8453 0.8170 0.0000 -10807.3127 1510.8896 0.0000 0.0000 1810.2778 -7482.0572 308.4385 -9292.3350 -7491.8444 301.5609 310.6587 386.2322 30343.0324 93.1301 144.8692
ENERGY: 1500000 0.0641 4.9485 0.4424 0.0000 -10740.2089 1480.2387 0.0000 0.0000 1770.2741 -7484.2410 301.6226 -9254.5151 -7490.5697 301.3502 383.8746 456.4927 30181.7611 40.8976 95.8737
TCL: Running FEP window   2: Lambda1 0.05   Lambda2 0.1    [dLambda 0.05  ]
TCL: Setting parameter firsttimestep to 0
TCL: Setting parameter alchLambda to 0.05
Info: NONBONDED TABLE R-SQUARED SPACING: 0.0625
Info: NONBONDED TABLE SIZE: 705 POINTS
TCL: Setting parameter alchLambda2 to 0.1
Info: NONBONDED TABLE R-SQUARED SPACING: 0.0625
Info: NONBONDED TABLE SIZE: 705 POINTS
TCL: Running for 1500000 steps
ETITLE: TS BOND ANGLE DIHED IMPRP ELECT VDW BOUNDARY MISC KINETIC TOTAL TEMP POTENTIAL TOTALAVG TEMPAVG PRESSURE GPRESSURE VOLUME PRESSAVG GPRESSAVG
ENERGY: 0 0.0641 4.9485 0.4424 0.0000 -10740.2107 1483.0771 0.0000 0.0000 1769.3536 -7482.3249 301.4658 -9251.6785 -7482.3249 301.4658 375.0925 462.6099 30181.7611 375.0925 462.6099
ENERGY: 300000 0.2262 3.7952 0.0487 0.0000 -10755.8890 1478.0899 0.0000 0.0000 1757.8034 -7515.9256 299.4978 -9273.7290 -7529.1362 298.8013 272.7881 332.4890 30133.1740 144.0102 190.7671
ENERGY: 600000 1.1996 2.3571 0.1291 0.0000 -10630.2035 1354.2459 0.0000 0.0000 1708.8813 -7563.3904 291.1624 -9272.2718 -7541.7741 297.9273 -972.4565 -964.7440 30709.2062 -11.4309 36.0243
ENERGY: 900000 0.4998 2.2299 0.0513 0.0000 -10720.0016 1414.2755 0.0000 0.0000 1713.1221 -7589.8229 291.8850 -9302.9450 -7525.5991 298.4067 -487.4086 -409.6867 30260.9576 -55.6908 -2.9217
ENERGY: 1200000 0.3293 1.7854 0.3486 0.0000 -10673.2129 1444.3723 0.0000 0.0000 1760.3883 -7465.9890 299.9383 -9226.3773 -7519.5845 299.3092 86.3949 103.7477 30490.1823 -56.6892 -3.4968
ENERGY: 1500000 1.8760 3.5528 0.2374 0.0000 -10672.2114 1411.9763 0.0000 0.0000 1720.0780 -7534.4911 293.0701 -9254.5690 -7516.3369 299.6375 -65.8568 -14.1135 30111.1590 -127.4474 -79.2534
TCL: Running FEP window   3: Lambda1 0.1    Lambda2 0.15000000000000002 [dLambda 0.05000000000000002]
TCL: Setting parameter firsttimestep to 0
TCL: Setting parameter alchLambda to 0.1
Info: NONBONDED TABLE R-SQUARED SPACING: 0.0625
Info: NONBONDED TABLE SIZE: 705 POINTS
TCL: Setting parameter alchLambda2 to 0.15000000000000002
Info: NONBONDED TABLE R-SQUARED SPACING: 0.0625
Info: NONBONDED TABLE SIZE: 705 POINTS
TCL: Running for 1500000 steps
ETITLE: TS BOND ANGLE DIHED IMPRP ELECT VDW BOUNDARY MISC KINETIC TOTAL TEMP POTENTIAL TOTALAVG TEMPAVG PRESSURE GPRESSURE VOLUME PRESSAVG GPRESSAVG
ENERGY: 0 1.8760 3.5528 0.2374 0.0000 -10672.2121 1412.8191 0.0000 0.0000 1719.1659 -7534.5609 292.9147 -9253.7268 -7534.5609 292.9147 -96.1691 -10.5345 30111.1590 -96.1691 -10.5345
ENERGY: 300000 0.6886 2.4791 0.5450 0.0000 -10782.4144 1425.9146 0.0000 0.0000 1794.1105 -7558.6767 305.6839 -9352.7872 -7493.3470 298.9003 -485.9820 -439.3066 30438.7032 -352.8247 -277.1606
ENERGY: 600000 0.1297 3.5238 1.6062 0.0000 -10620.6577 1396.8145 0.0000 0.0000 1702.1970 -7516.3865 290.0235 -9218.5835 -7492.5779 297.3599 -480.7993 -402.7001 30847.0958 -464.3904 -387.9322
ENERGY: 900000 0.3724 1.6242 0.3389 0.0000 -10771.1193 1471.2757 0.0000 0.0000 1738.6404 -7558.8677 296.2328 -9297.5081 -7492.5461 298.1090 195.9782 286.2201 30193.8459 -344.6513 -278.2007
ENERGY: 1200000 1.5028 4.9894 0.5211 0.0000 -10709.1639 1414.7501 0.0000 0.0000 1822.3250 -7465.0754 310.4912 -9287.4004 -7494.6949 298.2545 -219.7208 -117.2638 29983.8229 -247.4820 -177.2393
ENERGY: 1500000 0.5407 3.5024 0.4080 0.0000 -10576.9381 1319.9631 0.0000 0.0000 1806.1527 -7446.3711 307.7357 -9252.5238 -7490.6656 298.6275 -760.9724 -734.6221 30084.0929 -277.5105 -208.9240
TCL: Running FEP window   4: Lambda1 0.15000000000000002 Lambda2 0.2    [dLambda 0.04999999999999999]
TCL: Setting parameter firsttimestep to 0
TCL: Setting parameter alchLambda to 0.15000000000000002
Info: NONBONDED TABLE R-SQUARED SPACING: 0.0625
Info: NONBONDED TABLE SIZE: 705 POINTS
TCL: Setting parameter alchLambda2 to 0.2
Info: NONBONDED TABLE R-SQUARED SPACING: 0.0625
Info: NONBONDED TABLE SIZE: 705 POINTS
TCL: Running for 1500000 steps
ETITLE: TS BOND ANGLE DIHED IMPRP ELECT VDW BOUNDARY MISC KINETIC TOTAL TEMP POTENTIAL TOTALAVG TEMPAVG PRESSURE GPRESSURE VOLUME PRESSAVG GPRESSAVG
ENERGY: 0 0.5407 3.5024 0.4080 0.0000 -10576.9380 1323.7896 0.0000 0.0000 1805.2622 -7443.4350 307.5840 -9248.6972 -7443.4350 307.5840 -803.7506 -720.4332 30084.0929 -803.7506 -720.4332
ENERGY: 300000 0.1335 3.2412 1.1732 0.0000 -10609.2745 1397.9349 0.0000 0.0000 1799.2993 -7407.4924 306.5680 -9206.7917 -7440.3671 303.3162 -366.3731 -260.1635 30614.6940 95.5756 173.5584
ENERGY: 600000 0.1034 2.6266 1.9477 0.0000 -10697.9302 1447.0480 0.0000 0.0000 1774.2097 -7471.9947 302.2932 -9246.2044 -7473.1177 302.4590 149.4497 210.7789 30200.3343 145.9884 220.7899
ENERGY: 900000 1.1919 1.3327 1.3622 0.0000 -10646.6032 1448.0187 0.0000 0.0000 1697.2335 -7497.4642 289.1778 -9194.6977 -7467.4259 301.5329 361.6720 326.0583 30237.6153 88.4832 138.9406
ENERGY: 1200000 0.7573 4.7277 1.2457 0.0000 -10629.2402 1319.7185 0.0000 0.0000 1749.7616 -7553.0294 298.1277 -9302.7910 -7479.1613 300.8811 -891.3502 -875.8564 30054.8257 16.1794 58.8262
ENERGY: 1500000 0.4366 5.3410 0.3935 0.0000 -10579.8327 1323.0197 0.0000 0.0000 1744.8580 -7505.7839 297.2922 -9250.6419 -7489.0643 300.1143 -1141.1799 -1119.8359 30846.2343 -9.0520 34.6851
TCL: Running FEP window   5: Lambda1 0.2    Lambda2 0.25   [dLambda 0.04999999999999999]
TCL: Setting parameter firsttimestep to 0
TCL: Setting parameter alchLambda to 0.2
Info: NONBONDED TABLE R-SQUARED SPACING: 0.0625
Info: NONBONDED TABLE SIZE: 705 POINTS
TCL: Setting parameter alchLambda2 to 0.25
Info: NONBONDED TABLE R-SQUARED SPACING: 0.0625
Info: NONBONDED TABLE SIZE: 705 POINTS
TCL: Running for 1500000 steps
ETITLE: TS BOND ANGLE DIHED IMPRP ELECT VDW BOUNDARY MISC KINETIC TOTAL TEMP POTENTIAL TOTALAVG TEMPAVG PRESSURE GPRESSURE VOLUME PRESSAVG GPRESSAVG
ENERGY: 0 0.4366 5.3410 0.3935 0.0000 -10579.8325 1323.3540 0.0000 0.0000 1743.9517 -7506.3558 297.1378 -9250.3075 -7506.3558 297.1378 -1193.3436 -1116.2485 30846.2343 -1193.3436 -1116.2485
ENERGY: 300000 0.4585 2.7086 0.6823 0.0000 -10631.6306 1393.2975 0.0000 0.0000 1743.3874 -7491.0962 297.0416 -9234.4836 -7520.1563 301.8552 -748.9818 -605.8536 30998.7086 -224.1126 -145.9494
ENERGY: 600000 0.7633 3.6465 0.0655 0.0000 -10658.6293 1458.7996 0.0000 0.0000 1754.9950 -7440.3594 299.0193 -9195.3544 -7515.2716 300.3113 6.4661 57.5880 30717.3816 129.0665 201.6838
ENERGY: 900000 0.1763 1.1416 0.0155 0.0000 -10695.8670 1450.8231 0.0000 0.0000 1751.3273 -7492.3832 298.3944 -9243.7104 -7507.4939 300.2593 -148.9517 -111.9624 30919.8958 -0.9294 70.3835
ENERGY: 1200000 0.3089 2.6396 1.8212 0.0000 -10680.9987 1431.3980 0.0000 0.0000 1742.2550 -7502.5760 296.8487 -9244.8310 -7511.1165 299.5627 -273.8579 -170.1797 30503.4162 -19.7827 57.4966
ENERGY: 1500000 0.2356 5.2963 0.6636 0.0000 -10719.8336 1459.9923 0.0000 0.0000 1769.1879 -7484.4578 301.4376 -9253.6457 -7511.0743 300.0271 52.1121 45.8404 30665.6259 -4.5181 63.6163
TCL: Running FEP window   6: Lambda1 0.25   Lambda2 0.3    [dLambda 0.04999999999999999]
TCL: Setting parameter firsttimestep to 0
TCL: Setting parameter alchLambda to 0.25
Info: NONBONDED TABLE R-SQUARED SPACING: 0.0625
Info: NONBONDED TABLE SIZE: 705 POINTS
TCL: Setting parameter alchLambda2 to 0.3
Info: NONBONDED TABLE R-SQUARED SPACING: 0.0625
Info: NONBONDED TABLE SIZE: 705 POINTS
TCL: Running for 1500000 steps
ETITLE: TS BOND ANGLE DIHED IMPRP ELECT VDW BOUNDARY MISC KINETIC TOTAL TEMP POTENTIAL TOTALAVG TEMPAVG PRESSURE GPRESSURE VOLUME PRESSAVG GPRESSAVG
ENERGY: 0 0.2356 5.2963 0.6636 0.0000 -10719.8330 1461.0320 0.0000 0.0000 1768.3527 -7484.2526 301.2953 -9252.6054 -7484.2526 301.2953 -21.9902 53.8862 30665.6259 -21.9902 53.8862
ENERGY: 300000 0.2767 4.2177 0.1998 0.0000 -10626.3321 1431.5320 0.0000 0.0000 1779.4441 -7410.6618 303.1850 -9190.1059 -7459.9041 303.9498 319.6479 364.9639 30033.2434 3.6735 74.5814
ENERGY: 600000 0.4254 4.8444 1.0044 0.0000 -10799.9102 1453.5520 0.0000 0.0000 1809.6088 -7530.4752 308.3246 -9340.0841 -7483.6745 304.0888 -77.3882 17.9325 30163.5048 22.9355 93.3353
ENERGY: 900000 1.8940 2.4302 0.6300 0.0000 -10686.3048 1451.5218 0.0000 0.0000 1794.9149 -7434.9139 305.8210 -9229.8288 -7466.5915 304.6823 62.3967 115.5254 30547.8732 37.8629 104.0369
ENERGY: 1200000 0.4878 1.5071 0.4545 0.0000 -10900.9981 1523.8447 0.0000 0.0000 1772.2062 -7602.4977 301.9518 -9374.7039 -7469.9258 303.4869 509.4369 559.8839 29925.5052 43.8380 108.4258
ENERGY: 1500000 0.9825 2.9263 1.2156 0.0000 -10619.8773 1453.7558 0.0000 0.0000 1782.3830 -7378.6140 303.6858 -9160.9971 -7471.3439 303.8779 115.8434 197.6130 30828.2423 62.5823 126.7262
TCL: Running FEP window   7: Lambda1 0.3    Lambda2 0.35   [dLambda 0.04999999999999999]
TCL: Setting parameter firsttimestep to 0
TCL: Setting parameter alchLambda to 0.3
Info: NONBONDED TABLE R-SQUARED SPACING: 0.0625
Info: NONBONDED TABLE SIZE: 705 POINTS
TCL: Setting parameter alchLambda2 to 0.35
Info: NONBONDED TABLE R-SQUARED SPACING: 0.0625
Info: NONBONDED TABLE SIZE: 705 POINTS
TCL: Running for 1500000 steps
ETITLE: TS BOND ANGLE DIHED IMPRP ELECT VDW BOUNDARY MISC KINETIC TOTAL TEMP POTENTIAL TOTALAVG TEMPAVG PRESSURE GPRESSURE VOLUME PRESSAVG GPRESSAVG
ENERGY: 0 0.9825 2.9263 1.2156 0.0000 -10619.8762 1453.9128 0.0000 0.0000 1781.5070 -7379.3320 303.5365 -9160.8390 -7379.3320 303.5365 96.3314 201.9299 30828.2423 96.3314 201.9299
ENERGY: 300000 1.4729 1.7601 0.0245 0.0000 -10778.9233 1462.0501 0.0000 0.0000 1768.2318 -7545.3839 301.2747 -9313.6157 -7460.7700 301.4806 -58.8417 77.9829 30266.1208 -219.4182 -144.2446
ENERGY: 600000 0.5473 4.7931 0.2812 0.0000 -10674.1156 1406.8825 0.0000 0.0000 1718.8464 -7542.7651 292.8603 -9261.6115 -7495.7704 299.6456 -306.0298 -233.9417 30317.4126 -233.7774 -174.0738
ENERGY: 900000 0.5876 3.0709 0.1959 0.0000 -10909.4205 1538.7465 0.0000 0.0000 1706.2824 -7660.5371 290.7196 -9366.8195 -7513.9679 298.7590 484.2849 503.5251 30183.0563 -174.6463 -120.4330
ENERGY: 1200000 2.3502 1.2317 0.2872 0.0000 -10772.6080 1498.8805 0.0000 0.0000 1772.7119 -7497.1465 302.0380 -9269.8583 -7502.9395 299.6418 699.7905 784.8609 30025.3237 -40.0740 18.9648
ENERGY: 1500000 0.0687 2.5190 0.6823 0.0000 -10655.0375 1435.3519 0.0000 0.0000 1773.9313 -7442.4843 302.2458 -9216.4156 -7498.9040 300.2007 421.7825 358.2220 30147.1287 3.8373 62.1903
TCL: Running FEP window   8: Lambda1 0.35   Lambda2 0.39999999999999997 [dLambda 0.04999999999999999]
TCL: Setting parameter firsttimestep to 0
TCL: Setting parameter alchLambda to 0.35
Info: NONBONDED TABLE R-SQUARED SPACING: 0.0625
Info: NONBONDED TABLE SIZE: 705 POINTS
TCL: Setting parameter alchLambda2 to 0.39999999999999997
Info: NONBONDED TABLE R-SQUARED SPACING: 0.0625
Info: NONBONDED TABLE SIZE: 705 POINTS
TCL: Running for 1500000 steps
ETITLE: TS BOND ANGLE DIHED IMPRP ELECT VDW BOUNDARY MISC KINETIC TOTAL TEMP POTENTIAL TOTALAVG TEMPAVG PRESSURE GPRESSURE VOLUME PRESSAVG GPRESSAVG
ENERGY: 0 0.0687 2.5190 0.6823 0.0000 -10655.0360 1436.3512 0.0000 0.0000 1773.0356 -7442.3793 302.0931 -9215.4149 -7442.3793 302.0931 283.6985 365.6203 30147.1287 283.6985 365.6203
ENERGY: 300000 0.7589 3.6471 1.1743 0.0000 -10792.1178 1503.0059 0.0000 0.0000 1706.5761 -7576.9556 290.7696 -9283.5316 -7490.0903 297.4627 233.8449 338.2653 30311.0188 -6.3888 72.4513
ENERGY: 600000 1.1504 4.2768 0.4388 0.0000 -10621.3623 1368.2783 0.0000 0.0000 1728.3701 -7518.8479 294.4830 -9247.2180 -7495.8296 298.5507 -700.2421 -634.6203 30622.6370 98.8772 170.9048
ENERGY: 900000 2.6534 1.5405 0.4241 0.0000 -10693.2957 1437.3831 0.0000 0.0000 1792.2073 -7459.0872 305.3597 -9251.2945 -7490.7646 299.5600 -160.0957 -118.2165 30266.7340 27.2699 92.4997
ENERGY: 1200000 0.8143 3.4127 0.1889 0.0000 -10765.3486 1489.8686 0.0000 0.0000 1752.0303 -7519.0338 298.5142 -9271.0641 -7493.1245 299.1532 480.1015 476.1823 30187.7496 6.8768 57.9039
ENERGY: 1500000 0.0314 2.1607 1.3261 0.0000 -10579.2813 1390.2693 0.0000 0.0000 1797.8493 -7387.6446 306.3210 -9185.4939 -7484.1012 298.9320 -150.0419 -104.4436 30573.4430 -45.5414 2.4369
TCL: Running FEP window   9: Lambda1 0.39999999999999997 Lambda2 0.44999999999999996 [dLambda 0.04999999999999999]
TCL: Setting parameter firsttimestep to 0
TCL: Setting parameter alchLambda to 0.39999999999999997
Info: NONBONDED TABLE R-SQUARED SPACING: 0.0625
Info: NONBONDED TABLE SIZE: 705 POINTS
TCL: Setting parameter alchLambda2 to 0.44999999999999996
Info: NONBONDED TABLE R-SQUARED SPACING: 0.0625
Info: NONBONDED TABLE SIZE: 705 POINTS
TCL: Running for 1500000 steps
ETITLE: TS BOND ANGLE DIHED IMPRP ELECT VDW BOUNDARY MISC KINETIC TOTAL TEMP POTENTIAL TOTALAVG TEMPAVG PRESSURE GPRESSURE VOLUME PRESSAVG GPRESSAVG
ENERGY: 0 0.0314 2.1607 1.3261 0.0000 -10579.2817 1390.2070 0.0000 0.0000 1796.9340 -7388.6226 306.1650 -9185.5566 -7388.6226 306.1650 -190.2136 -105.3679 30573.4430 -190.2136 -105.3679
ENERGY: 300000 0.0961 1.9935 0.2650 0.0000 -10632.2294 1443.7570 0.0000 0.0000 1757.4338 -7428.6839 299.4349 -9186.1177 -7484.9265 301.2455 -142.3145 -39.7066 31059.7082 -2.2701 52.6623
ENERGY: 600000 1.1244 2.7566 0.2521 0.0000 -10705.6414 1466.3436 0.0000 0.0000 1793.4367 -7441.7280 305.5691 -9235.1647 -7460.1068 301.5569 381.8377 392.5448 29951.0596 -90.1264 -41.3149
ENERGY: 900000 0.0384 3.8094 0.4864 0.0000 -10717.3555 1474.2722 0.0000 0.0000 1774.1761 -7464.5730 302.2875 -9238.7491 -7465.8215 301.6549 492.9538 522.3100 30187.0809 35.0830 92.0439
ENERGY: 1200000 0.0822 2.3216 1.1436 0.0000 -10676.0589 1382.3930 0.0000 0.0000 1785.9040 -7504.2145 304.2857 -9290.1185 -7465.8200 301.6382 -422.8027 -338.1903 30140.3344 -73.9167 -15.7206
ENERGY: 1500000 0.2001 6.9772 0.1999 0.0000 -10607.1726 1370.0202 0.0000 0.0000 1753.2752 -7476.5000 298.7263 -9229.7753 -7465.5096 301.1447 -684.7597 -687.2893 30869.2326 -45.7508 8.5645
TCL: Running FEP window  10: Lambda1 0.44999999999999996 Lambda2 0.49999999999999994 [dLambda 0.04999999999999999]
TCL: Setting parameter firsttimestep to 0
TCL: Setting parameter alchLambda to 0.44999999999999996
Info: NONBONDED TABLE R-SQUARED SPACING: 0.0625
Info: NONBONDED TABLE SIZE: 705 POINTS
TCL: Setting parameter alchLambda2 to 0.49999999999999994
Info: NONBONDED TABLE R-SQUARED SPACING: 0.0625
Info: NONBONDED TABLE SIZE: 705 POINTS
TCL: Running for 1500000 steps
ETITLE: TS BOND ANGLE DIHED IMPRP ELECT VDW BOUNDARY MISC KINETIC TOTAL TEMP POTENTIAL TOTALAVG TEMPAVG PRESSURE GPRESSURE VOLUME PRESSAVG GPRESSAVG
ENERGY: 0 0.2001 6.9772 0.1999 0.0000 -10607.1730 1370.4806 0.0000 0.0000 1752.3958 -7476.9194 298.5765 -9229.3152 -7476.9194 298.5765 -764.2501 -681.3920 30869.2326 -764.2501 -681.3920
ENERGY: 300000 0.7821 4.0963 1.3395 0.0000 -10699.8066 1397.8598 0.0000 0.0000 1724.5994 -7571.1295 293.8405 -9295.7289 -7525.6243 298.0359 -566.4029 -452.7095 30562.2913 -586.5719 -498.7977
ENERGY: 600000 0.2727 3.2638 0.1639 0.0000 -10677.8561 1465.0396 0.0000 0.0000 1777.7696 -7431.3465 302.8997 -9209.1161 -7520.7729 299.6589 194.2079 274.3069 30508.8214 -320.0110 -241.7228
ENERGY: 900000 0.7995 5.3302 0.3871 0.0000 -10677.8881 1426.4517 0.0000 0.0000 1735.8338 -7509.0858 295.7546 -9244.9196 -7527.8353 299.2749 -134.5118 -69.9372 30429.4716 -354.4087 -275.5058
ENERGY: 1200000 0.7806 3.2604 0.4472 0.0000 -10588.4494 1418.2681 0.0000 0.0000 1741.2602 -7424.4329 296.6792 -9165.6931 -7508.7113 300.1548 -72.1664 75.7848 30543.5423 -264.5484 -175.4066
ENERGY: 1500000 0.6229 3.4446 0.0547 0.0000 -10809.9733 1508.0536 0.0000 0.0000 1725.7203 -7572.0773 294.0315 -9297.7976 -7505.9055 299.8177 647.0100 679.7744 29711.1762 -173.3612 -87.6210
TCL: Running FEP window  11: Lambda1 0.49999999999999994 Lambda2 0.5499999999999999 [dLambda 0.04999999999999999]
TCL: Setting parameter firsttimestep to 0
TCL: Setting parameter alchLambda to 0.49999999999999994
Info: NONBONDED TABLE R-SQUARED SPACING: 0.0625
Info: NONBONDED TABLE SIZE: 705 POINTS
TCL: Setting parameter alchLambda2 to 0.5499999999999999
Info: NONBONDED TABLE R-SQUARED SPACING: 0.0625
Info: NONBONDED TABLE SIZE: 705 POINTS
TCL: Running for 1500000 steps
ETITLE: TS BOND ANGLE DIHED IMPRP ELECT VDW BOUNDARY MISC KINETIC TOTAL TEMP POTENTIAL TOTALAVG TEMPAVG PRESSURE GPRESSURE VOLUME PRESSAVG GPRESSAVG
ENERGY: 0 0.6229 3.4446 0.0547 0.0000 -10809.9750 1508.4847 0.0000 0.0000 1724.8132 -7572.5550 293.8769 -9297.3682 -7572.5550 293.8769 602.7918 686.3682 29711.1762 602.7918 686.3682
ENERGY: 300000 0.0990 4.2947 0.8033 0.0000 -10619.7878 1397.0200 0.0000 0.0000 1793.6744 -7423.8965 305.6096 -9217.5708 -7502.1000 299.0829 -377.6079 -338.6235 30808.5837 169.7054 232.4177
ENERGY: 600000 2.2139 4.8907 0.2192 0.0000 -10726.8632 1488.8545 0.0000 0.0000 1742.1918 -7488.4932 296.8379 -9230.6849 -7516.8751 298.0299 622.8036 698.7587 29970.5270 90.9907 146.4759
ENERGY: 900000 0.3040 6.1011 0.2812 0.0000 -10778.6710 1500.0235 0.0000 0.0000 1735.8253 -7536.1359 295.7532 -9271.9612 -7517.6824 297.2871 207.4365 243.2370 30679.6220 -29.2066 31.9595
ENERGY: 1200000 0.3434 2.9431 0.4844 0.0000 -10777.0782 1529.9573 0.0000 0.0000 1826.2372 -7417.1128 311.1577 -9243.3500 -7510.0023 299.1336 871.2821 954.8390 30138.3947 11.8650 74.4065
ENERGY: 1500000 0.0683 2.2157 0.4574 0.0000 -10874.2997 1556.9466 0.0000 0.0000 1759.9219 -7554.6898 299.8588 -9314.6118 -7518.9175 299.4693 976.6593 963.9805 29904.8543 171.8136 229.1098
TCL: Running FEP window  12: Lambda1 0.5499999999999999 Lambda2 0.6    [dLambda 0.050000000000000044]
TCL: Setting parameter firsttimestep to 0
TCL: Setting parameter alchLambda to 0.5499999999999999
Info: NONBONDED TABLE R-SQUARED SPACING: 0.0625
Info: NONBONDED TABLE SIZE: 705 POINTS
TCL: Setting parameter alchLambda2 to 0.6
Info: NONBONDED TABLE R-SQUARED SPACING: 0.0625
Info: NONBONDED TABLE SIZE: 705 POINTS
TCL: Running for 1500000 steps
ETITLE: TS BOND ANGLE DIHED IMPRP ELECT VDW BOUNDARY MISC KINETIC TOTAL TEMP POTENTIAL TOTALAVG TEMPAVG PRESSURE GPRESSURE VOLUME PRESSAVG GPRESSAVG
ENERGY: 0 0.0683 2.2157 0.4574 0.0000 -10874.6099 1556.6303 0.0000 0.0000 1759.0346 -7556.2036 299.7076 -9315.2382 -7556.2036 299.7076 868.7680 961.9558 29904.8543 868.7680 961.9558
ENERGY: 300000 0.3670 2.6542 0.4681 0.0000 -10653.0907 1431.0816 0.0000 0.0000 1760.3112 -7458.2085 299.9251 -9218.5198 -7501.5677 298.5761 -36.7103 11.8683 30603.0624 261.5898 327.5328
ENERGY: 600000 0.1362 3.1691 1.4404 0.0000 -10674.5973 1442.6914 0.0000 0.0000 1833.2403 -7393.9199 312.3509 -9227.1602 -7469.9227 301.3342 233.0068 320.2596 30336.2061 312.0520 381.4131
ENERGY: 900000 0.8013 3.7801 0.5988 0.0000 -10736.9421 1539.8923 0.0000 0.0000 1725.5872 -7466.2825 294.0088 -9191.8697 -7469.7413 301.0635 1029.8876 1048.1038 30481.1863 310.3195 370.8814
ENERGY: 1200000 0.7904 3.2190 0.3258 0.0000 -10804.0871 1491.1209 0.0000 0.0000 1721.4163 -7587.2148 293.2981 -9308.6311 -7474.3631 300.8508 239.6991 377.2571 30201.6423 240.1562 308.9159
ENERGY: 1500000 0.2426 3.7153 0.4586 0.0000 -10741.7330 1444.2965 0.0000 0.0000 1722.3965 -7570.6235 293.4652 -9293.0200 -7489.4906 299.7199 -200.3159 -148.4986 30633.0732 162.8832 233.5609
TCL: Running FEP window  13: Lambda1 0.6    Lambda2 0.65   [dLambda 0.050000000000000044]
TCL: Setting parameter firsttimestep to 0
TCL: Setting parameter alchLambda to 0.6
Info: NONBONDED TABLE R-SQUARED SPACING: 0.0625
Info: NONBONDED TABLE SIZE: 705 POINTS
TCL: Setting parameter alchLambda2 to 0.65
Info: NONBONDED TABLE R-SQUARED SPACING: 0.0625
Info: NONBONDED TABLE SIZE: 705 POINTS
TCL: Running for 1500000 steps
ETITLE: TS BOND ANGLE DIHED IMPRP ELECT VDW BOUNDARY MISC KINETIC TOTAL TEMP POTENTIAL TOTALAVG TEMPAVG PRESSURE GPRESSURE VOLUME PRESSAVG GPRESSAVG
ENERGY: 0 0.2426 3.7153 0.4586 0.0000 -10742.1073 1444.3221 0.0000 0.0000 1721.5510 -7571.8176 293.3211 -9293.3686 -7571.8176 293.3211 -214.7141 -145.0583 30633.0732 -214.7141 -145.0583
ENERGY: 300000 0.1620 2.2872 0.9443 0.0000 -10649.9116 1330.6459 0.0000 0.0000 1762.7903 -7553.0819 300.3475 -9315.8722 -7500.2627 300.1276 -1050.3380 -976.0372 30352.1673 -342.7056 -267.7591
ENERGY: 600000 0.4287 2.0524 0.7150 0.0000 -10619.0092 1368.2911 0.0000 0.0000 1752.5352 -7494.9868 298.6003 -9247.5220 -7506.8523 299.5617 -867.9082 -722.3816 30794.7486 -274.7310 -184.9097
ENERGY: 900000 0.0412 2.1256 0.2433 0.0000 -10632.7848 1436.5328 0.0000 0.0000 1732.3151 -7461.5268 295.1551 -9193.8419 -7489.1075 300.0552 151.7241 249.3690 30208.4367 -132.3242 -49.0151
ENERGY: 1200000 0.3296 3.2080 0.6969 0.0000 -10723.6873 1422.7150 0.0000 0.0000 1764.7401 -7531.9977 300.6797 -9296.7378 -7495.1154 299.7697 -273.4474 -167.3265 30243.3109 -32.9063 44.3206
ENERGY: 1500000 1.3898 5.9611 0.4760 0.0000 -10604.2786 1378.7058 0.0000 0.0000 1703.9947 -7513.7512 290.3298 -9217.7458 -7486.5376 299.6829 -401.2060 -409.6999 30562.8049 -22.9786 52.0534
TCL: Running FEP window  14: Lambda1 0.65   Lambda2 0.7000000000000001 [dLambda 0.050000000000000044]
TCL: Setting parameter firsttimestep to 0
TCL: Setting parameter alchLambda to 0.65
Info: NONBONDED TABLE R-SQUARED SPACING: 0.0625
Info: NONBONDED TABLE SIZE: 705 POINTS
TCL: Setting parameter alchLambda2 to 0.7000000000000001
Info: NONBONDED TABLE R-SQUARED SPACING: 0.0625
Info: NONBONDED TABLE SIZE: 705 POINTS
TCL: Running for 1500000 steps
ETITLE: TS BOND ANGLE DIHED IMPRP ELECT VDW BOUNDARY MISC KINETIC TOTAL TEMP POTENTIAL TOTALAVG TEMPAVG PRESSURE GPRESSURE VOLUME PRESSAVG GPRESSAVG
ENERGY: 0 1.3898 5.9611 0.4760 0.0000 -10604.1578 1378.4046 0.0000 0.0000 1703.1221 -7514.8041 290.1811 -9217.9261 -7514.8041 290.1811 -487.3483 -411.0119 30562.8049 -487.3483 -411.0119
ENERGY: 300000 2.5592 3.8979 0.8712 0.0000 -10631.7172 1386.2222 0.0000 0.0000 1773.4599 -7464.7068 302.1654 -9238.1667 -7475.3139 301.6180 -306.5449 -182.8282 30216.9414 -416.6610 -339.3450
ENERGY: 600000 0.4737 1.2700 0.6334 0.0000 -10668.2519 1447.4625 0.0000 0.0000 1811.7038 -7406.7085 308.6815 -9218.4122 -7473.5552 301.3297 464.0328 545.2178 30048.6643 -78.6876 12.5861
ENERGY: 900000 0.2848 3.1334 0.6849 0.0000 -10676.7106 1419.6654 0.0000 0.0000 1753.5871 -7499.3550 298.7795 -9252.9421 -7472.7517 301.9257 -343.8015 -246.6143 30672.5912 -138.6019 -49.8009
ENERGY: 1200000 3.6372 1.6396 0.1535 0.0000 -10725.8755 1463.9117 0.0000 0.0000 1725.2673 -7531.2662 293.9543 -9256.5334 -7479.9011 301.1051 351.9256 367.4755 30232.8419 -89.7878 -16.3551
ENERGY: 1500000 0.2022 3.3092 0.6204 0.0000 -10807.8665 1512.1226 0.0000 0.0000 1796.6212 -7494.9909 306.1117 -9291.6122 -7491.8931 300.3567 672.2243 779.1524 29925.0943 -9.9166 61.3986
TCL: Running FEP window  15: Lambda1 0.7000000000000001 Lambda2 0.7500000000000001 [dLambda 0.050000000000000044]
TCL: Setting parameter firsttimestep to 0
TCL: Setting parameter alchLambda to 0.7000000000000001
Info: NONBONDED TABLE R-SQUARED SPACING: 0.0625
Info: NONBONDED TABLE SIZE: 705 POINTS
TCL: Setting parameter alchLambda2 to 0.7500000000000001
Info: NONBONDED TABLE R-SQUARED SPACING: 0.0625
Info: NONBONDED TABLE SIZE: 705 POINTS
TCL: Running for 1500000 steps
ETITLE: TS BOND ANGLE DIHED IMPRP ELECT VDW BOUNDARY MISC KINETIC TOTAL TEMP POTENTIAL TOTALAVG TEMPAVG PRESSURE GPRESSURE VOLUME PRESSAVG GPRESSAVG
ENERGY: 0 0.2022 3.3092 0.6204 0.0000 -10807.9699 1512.7676 0.0000 0.0000 1795.7277 -7495.3429 305.9595 -9291.0706 -7495.3429 305.9595 706.6127 792.1791 29925.0943 706.6127 792.1791
ENERGY: 300000 1.4613 1.4758 0.1366 0.0000 -10684.2073 1411.6813 0.0000 0.0000 1753.5326 -7515.9197 298.7702 -9269.4523 -7523.3691 302.3077 -310.0791 -228.7545 30394.3038 174.1581 267.0287
ENERGY: 600000 0.5365 2.6031 2.5320 0.0000 -10636.5769 1408.3758 0.0000 0.0000 1754.6153 -7467.9142 298.9547 -9222.5295 -7537.2172 298.2948 -37.4783 -11.0282 30465.6317 71.2653 137.4317
ENERGY: 900000 0.4068 1.5154 0.4138 0.0000 -10630.5300 1371.8501 0.0000 0.0000 1784.4688 -7471.8751 304.0412 -9256.3439 -7518.0414 298.9018 -477.2422 -388.3523 30156.8759 -39.4648 40.0529
ENERGY: 1200000 0.0723 3.8144 0.6560 0.0000 -10711.9573 1424.3224 0.0000 0.0000 1736.8967 -7546.1955 295.9357 -9283.0922 -7528.2178 298.6615 -175.4356 -191.7606 30333.8166 -52.2169 14.5314
ENERGY: 1500000 1.3845 4.3513 0.2189 0.0000 -10736.2398 1449.0348 0.0000 0.0000 1816.1689 -7465.0813 309.4423 -9281.2502 -7518.8666 299.8221 112.7409 190.7524 30451.2350 -44.1708 24.9122
TCL: Running FEP window  16: Lambda1 0.7500000000000001 Lambda2 0.8000000000000002 [dLambda 0.050000000000000044]
TCL: Setting parameter firsttimestep to 0
TCL: Setting parameter alchLambda to 0.7500000000000001
Info: NONBONDED TABLE R-SQUARED SPACING: 0.0625
Info: NONBONDED TABLE SIZE: 705 POINTS
TCL: Setting parameter alchLambda2 to 0.8000000000000002
Info: NONBONDED TABLE R-SQUARED SPACING: 0.0625
Info: NONBONDED TABLE SIZE: 705 POINTS
TCL: Running for 1500000 steps
ETITLE: TS BOND ANGLE DIHED IMPRP ELECT VDW BOUNDARY MISC KINETIC TOTAL TEMP POTENTIAL TOTALAVG TEMPAVG PRESSURE GPRESSURE VOLUME PRESSAVG GPRESSAVG
ENERGY: 0 1.3845 4.3514 0.2189 0.0000 -10736.9264 1449.9298 0.0000 0.0000 1815.2489 -7465.7929 309.2855 -9281.0418 -7465.7929 309.2855 120.5001 207.6417 30451.2350 120.5001 207.6417
ENERGY: 300000 0.0734 3.5890 0.3535 0.0000 -10808.2589 1455.9367 0.0000 0.0000 1722.8381 -7625.4682 293.5404 -9348.3063 -7561.8453 299.7128 153.9843 187.1192 30118.3117 114.6995 174.8230
ENERGY: 600000 0.2935 2.2004 0.1420 0.0000 -10665.7922 1377.6926 0.0000 0.0000 1775.6030 -7509.8606 302.5306 -9285.4636 -7533.6870 301.0448 -766.6463 -701.6123 30783.1853 -66.2103 6.5085
ENERGY: 900000 0.1748 4.7936 1.1018 0.0000 -10630.6349 1393.4374 0.0000 0.0000 1796.1445 -7434.9827 306.0305 -9231.1272 -7528.2537 299.9920 -182.9079 -188.5360 30563.1562 -60.2234 10.4099
ENERGY: 1200000 0.3743 3.5216 0.4985 0.0000 -10640.7576 1362.5963 0.0000 0.0000 1791.1551 -7482.6119 305.1804 -9273.7670 -7515.0795 300.7889 -713.3632 -625.5716 30655.7400 -91.9250 -10.7640
ENERGY: 1500000 0.1717 2.6836 0.4796 0.0000 -10898.6900 1548.2792 0.0000 0.0000 1739.2663 -7607.8097 296.3395 -9347.0760 -7518.5432 300.3791 643.8341 649.9577 30209.3186 -75.5374 2.7268
TCL: Running FEP window  17: Lambda1 0.8000000000000002 Lambda2 0.8500000000000002 [dLambda 0.050000000000000044]
TCL: Setting parameter firsttimestep to 0
TCL: Setting parameter alchLambda to 0.8000000000000002
Info: NONBONDED TABLE R-SQUARED SPACING: 0.0625
Info: NONBONDED TABLE SIZE: 705 POINTS
TCL: Setting parameter alchLambda2 to 0.8500000000000002
Info: NONBONDED TABLE R-SQUARED SPACING: 0.0625
Info: NONBONDED TABLE SIZE: 705 POINTS
TCL: Running for 1500000 steps
ETITLE: TS BOND ANGLE DIHED IMPRP ELECT VDW BOUNDARY MISC KINETIC TOTAL TEMP POTENTIAL TOTALAVG TEMPAVG PRESSURE GPRESSURE VOLUME PRESSAVG GPRESSAVG
ENERGY: 0 0.1717 2.6836 0.4796 0.0000 -10899.2498 1548.2665 0.0000 0.0000 1738.3475 -7609.3009 296.1829 -9347.6485 -7609.3009 296.1829 571.8121 653.6258 30209.3186 571.8121 653.6258
ENERGY: 300000 2.3204 2.5994 0.1110 0.0000 -10746.1169 1399.0409 0.0000 0.0000 1672.7435 -7669.3017 285.0052 -9342.0451 -7586.1980 293.2232 -343.4159 -295.7554 30220.3449 -44.3591 32.8141
ENERGY: 600000 0.5381 1.9372 0.7689 0.0000 -10500.5929 1319.8946 0.0000 0.0000 1745.7884 -7431.6656 297.4507 -9177.4540 -7551.0813 295.9280 -795.9473 -710.0551 30500.9322 -277.6452 -188.2918
ENERGY: 900000 0.1952 5.0100 0.6065 0.0000 -10597.5444 1362.0093 0.0000 0.0000 1789.2333 -7440.4901 304.8529 -9229.7234 -7521.7126 299.2399 -513.6808 -386.4808 30659.7140 -272.3561 -190.9771
ENERGY: 1200000 0.4349 5.0317 0.7634 0.0000 -10674.0765 1394.6604 0.0000 0.0000 1770.5890 -7502.5972 301.6763 -9273.1862 -7517.9588 299.2356 -147.6718 -97.7584 30066.9352 -276.0319 -193.7697
ENERGY: 1500000 0.8629 4.3354 0.3528 0.0000 -10669.4272 1424.8242 0.0000 0.0000 1772.6630 -7466.3889 302.0297 -9239.0519 -7514.2239 300.1811 29.6718 128.2895 30406.0492 -231.0881 -149.4994
TCL: Running FEP window  18: Lambda1 0.8500000000000002 Lambda2 0.9000000000000002 [dLambda 0.050000000000000044]
TCL: Setting parameter firsttimestep to 0
TCL: Setting parameter alchLambda to 0.8500000000000002
Info: NONBONDED TABLE R-SQUARED SPACING: 0.0625
Info: NONBONDED TABLE SIZE: 705 POINTS
TCL: Setting parameter alchLambda2 to 0.9000000000000002
Info: NONBONDED TABLE R-SQUARED SPACING: 0.0625
Info: NONBONDED TABLE SIZE: 705 POINTS
TCL: Running for 1500000 steps
ETITLE: TS BOND ANGLE DIHED IMPRP ELECT VDW BOUNDARY MISC KINETIC TOTAL TEMP POTENTIAL TOTALAVG TEMPAVG PRESSURE GPRESSURE VOLUME PRESSAVG GPRESSAVG
ENERGY: 0 0.8629 4.3353 0.3528 0.0000 -10669.8714 1425.1205 0.0000 0.0000 1771.7872 -7467.4126 301.8804 -9239.1998 -7467.4126 301.8804 55.3373 138.2922 30406.0492 55.3373 138.2922
ENERGY: 300000 0.4327 2.7612 0.3436 0.0000 -10878.9790 1559.1128 0.0000 0.0000 1758.3228 -7558.0059 299.5863 -9316.3287 -7515.2666 298.9360 853.3512 930.8119 29995.9647 295.6768 398.3041
ENERGY: 600000 0.2364 3.3593 0.2485 0.0000 -10692.5325 1409.6914 0.0000 0.0000 1764.2882 -7514.7086 300.6028 -9278.9968 -7524.6831 297.1285 -288.5321 -191.3861 30240.1250 192.6506 277.7142
ENERGY: 900000 2.5029 3.3983 2.3707 0.0000 -10711.8050 1448.8035 0.0000 0.0000 1818.9682 -7435.7614 309.9192 -9254.7296 -7523.0750 297.8300 -15.1112 27.6576 30557.0996 -35.0086 38.3127
ENERGY: 1200000 0.1902 2.6001 0.5703 0.0000 -10692.0271 1448.4323 0.0000 0.0000 1756.1406 -7484.0936 299.2145 -9240.2342 -7522.7226 297.7467 158.1701 177.6794 30393.7011 22.2129 95.2217
ENERGY: 1500000 0.9579 1.3609 1.5697 0.0000 -10764.8077 1488.2520 0.0000 0.0000 1759.1482 -7513.5190 299.7270 -9272.6673 -7518.6423 299.4454 440.0039 492.9159 29981.0319 91.3464 162.0872
TCL: Running FEP window  19: Lambda1 0.9000000000000002 Lambda2 0.9500000000000003 [dLambda 0.050000000000000044]
TCL: Setting parameter firsttimestep to 0
TCL: Setting parameter alchLambda to 0.9000000000000002
Info: NONBONDED TABLE R-SQUARED SPACING: 0.0625
Info: NONBONDED TABLE SIZE: 705 POINTS
TCL: Setting parameter alchLambda2 to 0.9500000000000003
Info: NONBONDED TABLE R-SQUARED SPACING: 0.0625
Info: NONBONDED TABLE SIZE: 705 POINTS
TCL: Running for 1500000 steps
ETITLE: TS BOND ANGLE DIHED IMPRP ELECT VDW BOUNDARY MISC KINETIC TOTAL TEMP POTENTIAL TOTALAVG TEMPAVG PRESSURE GPRESSURE VOLUME PRESSAVG GPRESSAVG
ENERGY: 0 0.9579 1.3609 1.5697 0.0000 -10765.2983 1488.8459 0.0000 0.0000 1758.2876 -7514.2763 299.5803 -9272.5639 -7514.2763 299.5803 429.4779 505.7049 29981.0319 429.4779 505.7049
ENERGY: 300000 0.8687 4.0266 0.3415 0.0000 -10662.5652 1387.2519 0.0000 0.0000 1742.9340 -7527.1426 296.9644 -9270.0765 -7504.5246 299.3916 -773.9162 -685.7042 31244.6166 -204.1115 -133.2147
ENERGY: 600000 0.0049 2.8097 0.4608 0.0000 -10711.8950 1457.4093 0.0000 0.0000 1782.1449 -7469.0654 303.6452 -9251.2103 -7501.5752 300.0980 261.9378 235.8165 30334.3171 -230.4664 -172.6497
ENERGY: 900000 2.1060 4.4643 1.6282 0.0000 -10628.1895 1366.4258 0.0000 0.0000 1728.2555 -7525.3097 294.4634 -9253.5652 -7500.8430 299.4942 -573.0215 -532.4604 30445.2671 -336.2030 -270.4418
ENERGY: 1200000 0.1376 4.3265 1.7681 0.0000 -10575.3803 1352.0621 0.0000 0.0000 1781.3528 -7435.7332 303.5102 -9217.0860 -7494.8274 300.1240 -742.8951 -642.0030 30973.2718 -331.5147 -261.2837
ENERGY: 1500000 1.9239 3.2784 0.2215 0.0000 -10845.2534 1533.8877 0.0000 0.0000 1780.2367 -7525.7052 303.3201 -9305.9419 -7501.3136 300.2434 971.3726 1056.6144 29787.6061 -204.3992 -134.3723
TCL: Running FEP window  20: Lambda1 0.9500000000000003 Lambda2 1.0    [dLambda 0.04999999999999971]
TCL: Setting parameter firsttimestep to 0
TCL: Setting parameter alchLambda to 0.9500000000000003
Info: NONBONDED TABLE R-SQUARED SPACING: 0.0625
Info: NONBONDED TABLE SIZE: 705 POINTS
TCL: Setting parameter alchLambda2 to 1.0
Info: NONBONDED TABLE R-SQUARED SPACING: 0.0625
Info: NONBONDED TABLE SIZE: 705 POINTS
TCL: Running for 1500000 steps
ETITLE: TS BOND ANGLE DIHED IMPRP ELECT VDW BOUNDARY MISC KINETIC TOTAL TEMP POTENTIAL TOTALAVG TEMPAVG PRESSURE GPRESSURE VOLUME PRESSAVG GPRESSAVG
ENERGY: 0 1.9239 3.2784 0.2215 0.0000 -10845.7780 1534.9702 0.0000 0.0000 1779.4070 -7525.9769 303.1787 -9305.3839 -7525.9769 303.1787 997.9109 1076.4359 29787.6061 997.9109 1076.4359
ENERGY: 300000 0.2233 3.0262 0.5481 0.0000 -10806.7461 1496.3669 0.0000 0.0000 1761.8875 -7544.6942 300.1937 -9306.5817 -7557.1822 298.1656 283.7489 362.0354 30303.8160 288.0159 349.0195
ENERGY: 600000 0.3707 2.2250 0.3446 0.0000 -10657.7883 1424.7116 0.0000 0.0000 1773.5721 -7456.5643 302.1846 -9230.1364 -7513.5777 300.3393 -64.5924 21.3677 30532.9665 292.8321 357.0680
ENERGY: 900000 0.5644 2.9810 1.3730 0.0000 -10629.8059 1392.1643 0.0000 0.0000 1742.2951 -7490.4282 296.8555 -9232.7233 -7509.9113 299.7929 -457.2199 -407.0603 30820.2589 145.4072 217.9726
ENERGY: 1200000 0.4075 2.8089 1.2021 0.0000 -10511.8685 1254.8137 0.0000 0.0000 1771.0063 -7481.6301 301.7474 -9252.6364 -7504.3728 300.0731 -1457.7606 -1391.0718 30700.2397 -92.0720 -15.4153
ENERGY: 1500000 1.0272 6.8770 0.5280 0.0000 -10796.0702 1472.7450 0.0000 0.0000 1764.6474 -7550.2457 300.6640 -9314.8931 -7500.9035 299.5210 408.9906 505.5388 29857.5498 -33.2946 38.9247
TCL: Exiting due to exit command.
