Info: SIMULATION PARAMETERS:
Info: TIMESTEP               2
Info: NUMBER OF STEPS        0
Info: STEPS PER CYCLE        10
Info: PERIODIC CELL BASIS 1  32.0783 0 0
Info: PERIODIC CELL BASIS 2  0 31.043 0
Info: PERIODIC CELL BASIS 3  0 0 30.4022
Info: PERIODIC CELL CENTER   0 0 0
Info: WRAPPING WATERS AROUND PERIODIC BOUNDARIES ON OUTPUT.
Info: WRAPPING ALL CLUSTERS AROUND PERIODIC BOUNDARIES ON OUTPUT.
Info: FIRST LDB TIMESTEP     50
Info: LAST LDB TIMESTEP     -1
Info: HOM BACKGROUND SCALING 1
Info: PME BACKGROUND SCALING 1
Info: MIN ATOMS PER PATCH    40
Info: EMPTY PATCH LOAD       40 ATOMS
Info: VELOCITY FILE          mobley_9565165_equil.vel
Info: CENTER OF MASS MOVING INITIALLY? NO
Info: DIELECTRIC             1
Info: EXCLUDE                SCALED ONE-FOUR
Info: 1-4 ELECTROSTATICS SCALED BY 0.833333
Info: MODIFIED 1-4 VDW PARAMETERS WILL BE USED
Info: DCD FILENAME           mobley_9565165_prod.dcd
Info: DCD FREQUENCY          100000
Info: DCD FIRST STEP         100000
Info: DCD FILE WILL CONTAIN UNIT CELL DATA
Info: XST FILENAME           mobley_9565165_prod.xst
Info: XST FREQUENCY          100000
Info: NO VELOCITY DCD OUTPUT
Info: NO FORCE DCD OUTPUT
Info: OUTPUT FILENAME        mobley_9565165_prod
Info: BINARY OUTPUT FILES WILL BE USED
Info: RESTART FILENAME       mobley_9565165_prod.restart
Info: RESTART FREQUENCY      100000
Info: BINARY RESTART FILES WILL BE USED
Info: CUTOFF                 9
Info: PAIRLIST DISTANCE      11
Info: PAIRLIST SHRINK RATE   0.01
Info: PAIRLIST GROW RATE     0.01
Info: PAIRLIST TRIGGER       0.3
Info: PAIRLISTS PER CYCLE    2
Info: PAIRLISTS ENABLED
Info: MARGIN                 2
Info: HYDROGEN GROUP CUTOFF  2.5
Info: PATCH DIMENSION        15.5
Info: ENERGY OUTPUT STEPS    100000
Info: ENERGY EVALUATION STEPS    100000
Info: OUTPUT ENERGY PRECISION 4
Info: CROSSTERM ENERGY INCLUDED IN DIHEDRAL
Info: TIMING OUTPUT STEPS    1000000
Info: PRESSURE OUTPUT STEPS  100000
Info: ALCHEMICAL FEP ON
Info: FEP CURRENT LAMBDA VALUE     0
Info: FEP COMPARISON LAMBDA VALUE  0.05
Info: FEP INTRA-ALCHEMICAL NON-BONDED INTERACTIONS WILL BE RETAINED
Info: FEP INTRA-ALCHEMICAL BONDED INTERACTIONS WILL BE RETAINED
Info: FEP VDW SHIFTING COEFFICIENT 5
Info: FEP ELEC. ACTIVE FOR ANNIHILATED PARTICLES BETWEEN LAMBDA = 0 AND LAMBDA = 0.5
Info: FEP ELEC. ACTIVE FOR EXNIHILATED PARTICLES BETWEEN LAMBDA = 0.5 AND LAMBDA = 1
Info: FEP VDW ACTIVE FOR ANNIHILATED PARTICLES BETWEEN LAMBDA = 0 AND LAMBDA = 1
Info: FEP VDW ACTIVE FOR EXNIHILATED PARTICLES BETWEEN LAMBDA = 0 AND LAMBDA = 1
Info: FEP BOND ACTIVE FOR ANNIHILATED PARTICLES BETWEEN LAMBDA = 1 AND LAMBDA = 1
Info: FEP BOND ACTIVE FOR EXNIHILATED PARTICLES BETWEEN LAMBDA = 0 AND LAMBDA = 0
Info: LANGEVIN DYNAMICS ACTIVE
Info: LANGEVIN TEMPERATURE   300
Info: LANGEVIN USING BBK INTEGRATOR
Info: LANGEVIN DAMPING COEFFICIENT IS 1 INVERSE PS
Info: LANGEVIN DYNAMICS APPLIED TO HYDROGENS
Info: LANGEVIN PISTON PRESSURE CONTROL ACTIVE
Info:        TARGET PRESSURE IS 1.01325 BAR
Info:     OSCILLATION PERIOD IS 50 FS
Info:             DECAY TIME IS 25 FS
Info:     PISTON TEMPERATURE IS 300 K
Info:       PRESSURE CONTROL IS GROUP-BASED
Info:    INITIAL STRAIN RATE IS 0.000199056 0.000199056 0.000199056
Info:       CELL FLUCTUATION IS ISOTROPIC
Info: PARTICLE MESH EWALD (PME) ACTIVE
Info: PME TOLERANCE               1e-06
Info: PME EWALD COEFFICIENT       0.348832
Info: PME INTERPOLATION ORDER     4
Info: PME GRID DIMENSIONS         36 32 32
Info: PME MAXIMUM GRID SPACING    1
Info: PME CALCULATION WILL BE PERFORMED ON GPU
Info: FULL ELECTROSTATIC EVALUATION FREQUENCY      2
Info: USING VERLET I (r-RESPA) MTS SCHEME.
Info: C1 SPLITTING OF LONG RANGE ELECTROSTATICS
Info: PLACING ATOMS IN PATCHES BY HYDROGEN GROUPS
Info: RIGID BONDS TO HYDROGEN : ALL
Info:         ERROR TOLERANCE : 1e-08
Info:          MAX ITERATIONS : 100
Info: RIGID WATER USING SETTLE ALGORITHM
Info: RANDOM NUMBER SEED     1743639380
Info: USE HYDROGEN BONDS?    NO
Info: Using AMBER format force field!
Info: AMBER PARM FILE        mobley_9565165.prmtop
Info: COORDINATE PDB         mobley_9565165.pdb
Info: Exclusions will be read from PARM file!
Info: SCNB (VDW SCALING)     2
Info: USING ARITHMETIC MEAN TO COMBINE L-J SIGMA PARAMETERS
Info: BINARY COORDINATES     mobley_9565165_equil.coor
Info: SUMMARY OF PARAMETERS:
Info: 8 BONDS
Info: 11 ANGLES
Info:   11 HARMONIC
Info:   0 COSINE-BASED
Info: 4 DIHEDRAL
Info: 0 IMPROPER
Info: 0 CROSSTERM
Info: 0 VDW
Info: 21 VDW_PAIRS
Info: 0 NBTHOLE_PAIRS
Info: To read alchdata from file: mobley_9565165.pdb
Info: To read alchflag data from column: 5
Info: STRUCTURE SUMMARY:
Info: 2945 ATOMS
Info: 2947 BONDS
Info: 42 ANGLES
Info: 76 DIHEDRALS
Info: 0 IMPROPERS
Info: 0 CROSSTERMS
Info: 3042 EXCLUSIONS
Info: 2932 RIGID BONDS
Info: ALCH: 0 ATOMS TO DISAPPEAR IN FINAL STATE
Info: ALCH: 23 ATOMS TO APPEAR IN FINAL STATE
Info: 5903 DEGREES OF FREEDOM
Info: 987 HYDROGEN GROUPS
Info: 3 ATOMS IN LARGEST HYDROGEN GROUP
Info: 987 MIGRATION GROUPS
Info: 3 ATOMS IN LARGEST MIGRATION GROUP
Info: TOTAL MASS = 17713.8 amu
Info: TOTAL CHARGE = 0.000100026 e
Info: MASS DENSITY = 0.971606 g/cm^3
Info: ATOM DENSITY = 0.0972758 atoms/A^3
Info: ADDED 0 IMPLICIT EXCLUSIONS
Info: NONBONDED TABLE R-SQUARED SPACING: 0.0625
Info: NONBONDED TABLE SIZE: 705 POINTS
Info: REDUCING NUMBER OF PATCHES TO IMPROVE LOAD BALANCE
Info: REMOVING COM VELOCITY -0.0361677 -0.0781677 -0.103639
Info: Use 3D box decompostion in PME FFT.
Info: Updated CUDA force table with 4096 elements.
Info: Updated CUDA LJ table with 6 x 6 elements.
Info: Found 23 unique exclusion lists needing 72 bytes
TCL: Running for 1500000 steps
ETITLE: TS BOND ANGLE DIHED IMPRP ELECT VDW BOUNDARY MISC KINETIC TOTAL TEMP POTENTIAL TOTALAVG TEMPAVG PRESSURE GPRESSURE VOLUME PRESSAVG GPRESSAVG
ENERGY: 0 3.2789 23.4942 4.6750 0.0000 -10704.6365 1464.3305 0.0000 0.0000 1770.8606 -7437.9973 301.9270 -9208.8579 -7437.9973 301.9270 -83.5060 -11.9487 30274.7414 -83.5060 -11.9487
ENERGY: 300000 4.8022 28.6202 4.6459 0.0000 -10713.1974 1519.7361 0.0000 0.0000 1755.0802 -7400.3128 299.2365 -9155.3930 -7431.7599 301.7152 194.4855 341.1851 30374.3123 183.3201 257.3604
ENERGY: 600000 5.6878 25.6679 8.8416 0.0000 -10532.4093 1380.5461 0.0000 0.0000 1759.0741 -7352.5918 299.9175 -9111.6659 -7410.2460 301.1724 -164.2051 -50.8133 30048.4791 182.6244 262.0443
ENERGY: 900000 4.4031 23.9657 3.6964 0.0000 -10509.0513 1395.3322 0.0000 0.0000 1811.2041 -7270.4499 308.8055 -9081.6540 -7400.5362 302.2742 68.1277 102.4955 30009.7086 134.6772 204.2304
ENERGY: 1200000 3.7608 25.5472 2.9806 0.0000 -10589.1169 1449.9469 0.0000 0.0000 1769.8791 -7337.0022 301.7597 -9106.8813 -7394.3659 301.4964 378.4262 389.6640 30074.6635 178.9945 246.9316
ENERGY: 1500000 7.3769 26.6462 3.1910 0.0000 -10774.3879 1482.8464 0.0000 0.0000 1745.7173 -7508.6101 297.6402 -9254.3274 -7401.6686 301.5981 -46.6068 37.9065 29768.8910 202.8591 269.3305
TCL: Running FEP window   2: Lambda1 0.05   Lambda2 0.1    [dLambda 0.05  ]
TCL: Setting parameter firsttimestep to 0
TCL: Setting parameter alchLambda to 0.05
Info: NONBONDED TABLE R-SQUARED SPACING: 0.0625
Info: NONBONDED TABLE SIZE: 705 POINTS
TCL: Setting parameter alchLambda2 to 0.1
Info: NONBONDED TABLE R-SQUARED SPACING: 0.0625
Info: NONBONDED TABLE SIZE: 705 POINTS
TCL: Running for 1500000 steps
ETITLE: TS BOND ANGLE DIHED IMPRP ELECT VDW BOUNDARY MISC KINETIC TOTAL TEMP POTENTIAL TOTALAVG TEMPAVG PRESSURE GPRESSURE VOLUME PRESSAVG GPRESSAVG
ENERGY: 0 7.3769 26.6462 3.1910 0.0000 -10774.3883 1486.2322 0.0000 0.0000 1744.8725 -7506.0695 297.4961 -9250.9420 -7506.0695 297.4961 -40.7464 47.4727 29768.8910 -40.7464 47.4727
ENERGY: 300000 3.2112 25.3107 4.9476 0.0000 -10634.9572 1416.5990 0.0000 0.0000 1772.3541 -7412.5346 302.1817 -9184.8888 -7435.9166 300.2373 -415.3485 -367.3348 30332.7274 -77.6217 12.9673
ENERGY: 600000 10.0263 22.6476 6.6918 0.0000 -10573.3335 1390.3815 0.0000 0.0000 1759.0514 -7384.5348 299.9136 -9143.5862 -7410.1739 299.8142 -364.3315 -334.1661 29858.6327 70.4899 141.0789
ENERGY: 900000 5.4287 22.4446 8.3937 0.0000 -10513.4605 1352.3253 0.0000 0.0000 1760.2414 -7364.6267 300.1165 -9124.8681 -7389.6378 299.7658 -727.1761 -696.4511 30455.0376 -156.1473 -93.2406
ENERGY: 1200000 2.9404 24.2472 4.3868 0.0000 -10693.1041 1489.8072 0.0000 0.0000 1760.8175 -7410.9049 300.2147 -9171.7224 -7401.6335 299.0498 547.1409 690.9516 29929.2535 -145.1076 -74.8321
ENERGY: 1500000 4.7798 22.1150 7.7675 0.0000 -10554.9987 1396.9061 0.0000 0.0000 1714.4733 -7408.9570 292.3131 -9123.4303 -7404.4413 297.8143 -258.7210 -138.4722 29971.1386 -112.9842 -36.5557
TCL: Running FEP window   3: Lambda1 0.1    Lambda2 0.15000000000000002 [dLambda 0.05000000000000002]
TCL: Setting parameter firsttimestep to 0
TCL: Setting parameter alchLambda to 0.1
Info: NONBONDED TABLE R-SQUARED SPACING: 0.0625
Info: NONBONDED TABLE SIZE: 705 POINTS
TCL: Setting parameter alchLambda2 to 0.15000000000000002
Info: NONBONDED TABLE R-SQUARED SPACING: 0.0625
Info: NONBONDED TABLE SIZE: 705 POINTS
TCL: Running for 1500000 steps
ETITLE: TS BOND ANGLE DIHED IMPRP ELECT VDW BOUNDARY MISC KINETIC TOTAL TEMP POTENTIAL TOTALAVG TEMPAVG PRESSURE GPRESSURE VOLUME PRESSAVG GPRESSAVG
ENERGY: 0 4.7798 22.1150 7.7675 0.0000 -10554.9981 1399.7881 0.0000 0.0000 1713.6174 -7406.9302 292.1672 -9120.5477 -7406.9302 292.1672 -210.8011 -124.4048 29971.1386 -210.8011 -124.4048
ENERGY: 300000 3.3853 28.1708 5.7916 0.0000 -10689.3308 1462.5890 0.0000 0.0000 1720.4256 -7468.9685 293.3280 -9189.3942 -7391.5991 297.0259 31.5462 91.6823 30403.1298 -137.5860 -57.8931
ENERGY: 600000 4.2618 26.1899 4.5047 0.0000 -10631.6660 1449.2647 0.0000 0.0000 1753.2532 -7394.1917 298.9250 -9147.4449 -7385.4336 298.6873 13.5076 88.5623 30290.6337 -77.6795 3.6027
ENERGY: 900000 4.3363 22.2072 2.0163 0.0000 -10685.5725 1456.6791 0.0000 0.0000 1740.0200 -7460.3137 296.6688 -9200.3337 -7402.2738 298.5910 187.8308 324.3530 29298.9546 -31.3324 45.4355
ENERGY: 1200000 4.7180 22.3435 6.4414 0.0000 -10738.5704 1430.1222 0.0000 0.0000 1727.9854 -7546.9599 294.6169 -9274.9452 -7411.5465 298.9334 -387.9640 -329.8684 29965.3091 -18.0083 55.4357
ENERGY: 1500000 5.0775 22.2513 3.9840 0.0000 -10667.8387 1495.3483 0.0000 0.0000 1792.3235 -7348.8541 305.5864 -9141.1776 -7412.8860 299.5090 849.5205 933.0424 29455.4299 39.0495 117.1083
TCL: Running FEP window   4: Lambda1 0.15000000000000002 Lambda2 0.2    [dLambda 0.04999999999999999]
TCL: Setting parameter firsttimestep to 0
TCL: Setting parameter alchLambda to 0.15000000000000002
Info: NONBONDED TABLE R-SQUARED SPACING: 0.0625
Info: NONBONDED TABLE SIZE: 705 POINTS
TCL: Setting parameter alchLambda2 to 0.2
Info: NONBONDED TABLE R-SQUARED SPACING: 0.0625
Info: NONBONDED TABLE SIZE: 705 POINTS
TCL: Running for 1500000 steps
ETITLE: TS BOND ANGLE DIHED IMPRP ELECT VDW BOUNDARY MISC KINETIC TOTAL TEMP POTENTIAL TOTALAVG TEMPAVG PRESSURE GPRESSURE VOLUME PRESSAVG GPRESSAVG
ENERGY: 0 5.0774 22.2513 3.9840 0.0000 -10667.8379 1495.8203 0.0000 0.0000 1791.4915 -7349.2133 305.4445 -9140.7048 -7349.2133 305.4445 840.1391 941.2699 29455.4299 840.1391 941.2699
ENERGY: 300000 3.1812 25.0137 5.4801 0.0000 -10870.3045 1541.8883 0.0000 0.0000 1725.6347 -7569.1065 294.2161 -9294.7412 -7443.3206 299.7952 407.0937 425.9260 29698.8286 318.1796 370.9937
ENERGY: 600000 3.6809 25.5771 2.8914 0.0000 -10544.5130 1401.9442 0.0000 0.0000 1772.2048 -7338.2146 302.1562 -9110.4195 -7421.9373 300.1114 -508.6294 -478.9156 30517.2792 30.2374 90.8110
ENERGY: 900000 4.5469 23.6080 5.9559 0.0000 -10734.8696 1481.8677 0.0000 0.0000 1748.3595 -7470.5316 298.0906 -9218.8911 -7424.6742 299.7425 -174.5124 -75.8167 30288.0864 0.0525 60.4744
ENERGY: 1200000 3.1295 24.1069 3.6441 0.0000 -10674.1197 1454.2140 0.0000 0.0000 1757.1994 -7431.8258 299.5978 -9189.0251 -7417.9074 299.7416 165.9802 226.9413 30260.9083 31.2142 83.6144
ENERGY: 1500000 3.2287 25.4877 7.1922 0.0000 -10514.9367 1374.8700 0.0000 0.0000 1785.6607 -7318.4974 304.4504 -9104.1581 -7420.4493 300.0541 -421.1814 -340.5809 30302.3462 -39.2931 12.7638
TCL: Running FEP window   5: Lambda1 0.2    Lambda2 0.25   [dLambda 0.04999999999999999]
TCL: Setting parameter firsttimestep to 0
TCL: Setting parameter alchLambda to 0.2
Info: NONBONDED TABLE R-SQUARED SPACING: 0.0625
Info: NONBONDED TABLE SIZE: 705 POINTS
TCL: Setting parameter alchLambda2 to 0.25
Info: NONBONDED TABLE R-SQUARED SPACING: 0.0625
Info: NONBONDED TABLE SIZE: 705 POINTS
TCL: Running for 1500000 steps
ETITLE: TS BOND ANGLE DIHED IMPRP ELECT VDW BOUNDARY MISC KINETIC TOTAL TEMP POTENTIAL TOTALAVG TEMPAVG PRESSURE GPRESSURE VOLUME PRESSAVG GPRESSAVG
ENERGY: 0 3.2287 25.4877 7.1922 0.0000 -10514.9372 1374.4018 0.0000 0.0000 1784.8140 -7319.8129 304.3060 -9104.6269 -7319.8129 304.3060 -441.3761 -340.2075 30302.3462 -441.3761 -340.2075
ENERGY: 300000 6.1643 23.9033 5.0178 0.0000 -10515.2444 1357.9870 0.0000 0.0000 1730.9194 -7391.2525 295.1171 -9122.1719 -7384.7292 297.2398 -457.5674 -322.4090 29974.0119 -365.1257 -287.0200
ENERGY: 600000 5.1303 23.9806 4.7244 0.0000 -10713.2306 1445.1274 0.0000 0.0000 1711.2735 -7522.9944 291.7676 -9234.2679 -7423.2031 295.2960 52.5314 129.4073 29820.1465 -481.3750 -409.9429
ENERGY: 900000 2.8036 23.9034 4.5254 0.0000 -10628.4553 1476.8411 0.0000 0.0000 1796.1978 -7324.1840 306.2469 -9120.3818 -7408.1814 296.3669 344.3103 400.1601 30496.9811 -303.1674 -240.3255
ENERGY: 1200000 6.6641 23.4114 6.2774 0.0000 -10590.5666 1460.7126 0.0000 0.0000 1744.4906 -7349.0104 297.4310 -9093.5011 -7399.5782 297.3194 302.4021 352.1196 30288.7737 -145.0336 -82.9693
ENERGY: 1500000 7.1259 21.7990 7.2771 0.0000 -10685.3741 1447.7965 0.0000 0.0000 1758.9671 -7442.4085 299.8992 -9201.3756 -7403.8749 297.6564 155.3011 229.7917 29829.0447 -110.7605 -46.4214
TCL: Running FEP window   6: Lambda1 0.25   Lambda2 0.3    [dLambda 0.04999999999999999]
TCL: Setting parameter firsttimestep to 0
TCL: Setting parameter alchLambda to 0.25
Info: NONBONDED TABLE R-SQUARED SPACING: 0.0625
Info: NONBONDED TABLE SIZE: 705 POINTS
TCL: Setting parameter alchLambda2 to 0.3
Info: NONBONDED TABLE R-SQUARED SPACING: 0.0625
Info: NONBONDED TABLE SIZE: 705 POINTS
TCL: Running for 1500000 steps
ETITLE: TS BOND ANGLE DIHED IMPRP ELECT VDW BOUNDARY MISC KINETIC TOTAL TEMP POTENTIAL TOTALAVG TEMPAVG PRESSURE GPRESSURE VOLUME PRESSAVG GPRESSAVG
ENERGY: 0 7.1259 21.7990 7.2771 0.0000 -10685.3752 1447.9312 0.0000 0.0000 1758.0595 -7443.1826 299.7445 -9201.2420 -7443.1826 299.7445 145.7748 237.2897 29829.0447 145.7748 237.2897
ENERGY: 300000 1.8701 23.0950 6.7467 0.0000 -10696.2630 1457.1567 0.0000 0.0000 1743.0265 -7464.3680 297.1814 -9207.3945 -7415.3412 299.4457 -165.9006 -99.8278 30376.7309 -84.2518 6.3497
ENERGY: 600000 2.5784 25.0945 7.2032 0.0000 -10645.9443 1478.5114 0.0000 0.0000 1728.0491 -7404.5078 294.6278 -9132.5570 -7408.6531 298.2886 273.1843 285.9079 30641.8171 -1.5861 62.4581
ENERGY: 900000 4.2983 21.7662 5.9114 0.0000 -10657.5323 1448.9856 0.0000 0.0000 1774.0300 -7402.5408 302.4674 -9176.5708 -7395.9003 299.9005 13.4795 101.6141 30449.1390 11.7461 79.8122
ENERGY: 1200000 3.7985 23.0667 5.8867 0.0000 -10686.8426 1476.8436 0.0000 0.0000 1860.4291 -7316.8180 317.1982 -9177.2470 -7401.9562 300.7889 138.3729 192.2362 30744.9613 35.5667 104.9532
ENERGY: 1500000 7.0016 25.1672 5.0115 0.0000 -10667.4055 1511.3122 0.0000 0.0000 1720.9971 -7397.9160 293.4254 -9118.9131 -7408.1104 299.6586 455.8251 501.8789 30258.5469 106.1569 169.9557
TCL: Running FEP window   7: Lambda1 0.3    Lambda2 0.35   [dLambda 0.04999999999999999]
TCL: Setting parameter firsttimestep to 0
TCL: Setting parameter alchLambda to 0.3
Info: NONBONDED TABLE R-SQUARED SPACING: 0.0625
Info: NONBONDED TABLE SIZE: 705 POINTS
TCL: Setting parameter alchLambda2 to 0.35
Info: NONBONDED TABLE R-SQUARED SPACING: 0.0625
Info: NONBONDED TABLE SIZE: 705 POINTS
TCL: Running for 1500000 steps
ETITLE: TS BOND ANGLE DIHED IMPRP ELECT VDW BOUNDARY MISC KINETIC TOTAL TEMP POTENTIAL TOTALAVG TEMPAVG PRESSURE GPRESSURE VOLUME PRESSAVG GPRESSAVG
ENERGY: 0 7.0015 25.1672 5.0115 0.0000 -10667.4040 1512.0202 0.0000 0.0000 1720.1180 -7398.0855 293.2755 -9118.2035 -7398.0855 293.2755 430.6773 509.4578 30258.5469 430.6773 509.4578
ENERGY: 300000 7.0790 26.2632 3.9270 0.0000 -10524.0030 1368.2764 0.0000 0.0000 1766.5115 -7351.9458 301.1855 -9118.4573 -7396.3686 296.9016 -575.6369 -550.8632 30141.8974 -273.9682 -230.3131
ENERGY: 600000 4.5276 27.0908 4.4190 0.0000 -10680.9035 1477.4291 0.0000 0.0000 1762.8212 -7404.6158 300.5563 -9167.4370 -7409.9431 296.9399 37.7903 132.1966 30547.5022 -295.7733 -250.0032
ENERGY: 900000 5.9230 27.8440 7.3400 0.0000 -10675.7375 1416.1158 0.0000 0.0000 1670.8293 -7547.6855 284.8719 -9218.5148 -7425.3477 296.9151 -832.9733 -735.4845 30856.0877 -371.4181 -321.8949
ENERGY: 1200000 6.0868 24.8959 4.6407 0.0000 -10576.1519 1405.8658 0.0000 0.0000 1781.3063 -7353.3564 303.7080 -9134.6627 -7415.9129 298.2157 -301.4657 -254.3650 30425.4812 -318.9132 -258.0832
ENERGY: 1500000 1.7655 25.4317 7.1862 0.0000 -10580.8340 1396.1590 0.0000 0.0000 1746.8384 -7403.4533 297.8313 -9150.2917 -7416.6956 298.5754 -120.2306 -73.0580 29985.0375 -215.3107 -151.8991
TCL: Running FEP window   8: Lambda1 0.35   Lambda2 0.39999999999999997 [dLambda 0.04999999999999999]
TCL: Setting parameter firsttimestep to 0
TCL: Setting parameter alchLambda to 0.35
Info: NONBONDED TABLE R-SQUARED SPACING: 0.0625
Info: NONBONDED TABLE SIZE: 705 POINTS
TCL: Setting parameter alchLambda2 to 0.39999999999999997
Info: NONBONDED TABLE R-SQUARED SPACING: 0.0625
Info: NONBONDED TABLE SIZE: 705 POINTS
TCL: Running for 1500000 steps
ETITLE: TS BOND ANGLE DIHED IMPRP ELECT VDW BOUNDARY MISC KINETIC TOTAL TEMP POTENTIAL TOTALAVG TEMPAVG PRESSURE GPRESSURE VOLUME PRESSAVG GPRESSAVG
ENERGY: 0 1.7655 25.4317 7.1862 0.0000 -10580.8334 1395.8764 0.0000 0.0000 1745.9308 -7404.6428 297.6766 -9150.5736 -7404.6428 297.6766 -165.7459 -63.8035 29985.0375 -165.7459 -63.8035
ENERGY: 300000 6.1374 24.7297 5.4405 0.0000 -10615.2689 1415.0026 0.0000 0.0000 1803.8663 -7360.0923 307.5544 -9163.9587 -7379.5205 302.2546 -112.2511 -75.9844 30310.0744 -183.5126 -111.7323
ENERGY: 600000 4.2072 23.4691 5.1529 0.0000 -10696.5990 1509.1788 0.0000 0.0000 1768.3349 -7386.2561 301.4964 -9154.5910 -7385.6947 300.3432 742.6292 865.2257 30045.8221 37.3246 102.1607
ENERGY: 900000 2.9381 25.0885 6.7893 0.0000 -10684.7708 1487.1129 0.0000 0.0000 1739.6398 -7423.2022 296.6040 -9162.8420 -7396.4184 298.6390 479.5991 489.2241 30101.3414 -47.2874 3.6462
ENERGY: 1200000 3.0715 26.3398 5.2176 0.0000 -10559.4751 1370.0946 0.0000 0.0000 1775.6785 -7379.0731 302.7485 -9154.7516 -7394.3300 300.1801 -465.1346 -435.8122 30295.8211 -99.3442 -53.4507
ENERGY: 1500000 6.4312 32.4939 6.2798 0.0000 -10413.4793 1268.1758 0.0000 0.0000 1760.9423 -7339.1562 300.2360 -9100.0985 -7387.7017 300.7360 -1295.9155 -1235.9812 30475.2968 -116.6797 -68.9130
TCL: Running FEP window   9: Lambda1 0.39999999999999997 Lambda2 0.44999999999999996 [dLambda 0.04999999999999999]
TCL: Setting parameter firsttimestep to 0
TCL: Setting parameter alchLambda to 0.39999999999999997
Info: NONBONDED TABLE R-SQUARED SPACING: 0.0625
Info: NONBONDED TABLE SIZE: 705 POINTS
TCL: Setting parameter alchLambda2 to 0.44999999999999996
Info: NONBONDED TABLE R-SQUARED SPACING: 0.0625
Info: NONBONDED TABLE SIZE: 705 POINTS
TCL: Running for 1500000 steps
ETITLE: TS BOND ANGLE DIHED IMPRP ELECT VDW BOUNDARY MISC KINETIC TOTAL TEMP POTENTIAL TOTALAVG TEMPAVG PRESSURE GPRESSURE VOLUME PRESSAVG GPRESSAVG
ENERGY: 0 6.4312 32.4939 6.2798 0.0000 -10413.4793 1269.6398 0.0000 0.0000 1760.0918 -7338.5428 300.0910 -9098.6346 -7338.5428 300.0910 -1307.2151 -1219.1398 30475.2968 -1307.2151 -1219.1398
ENERGY: 300000 5.8237 20.5438 4.8106 0.0000 -10602.2185 1492.2595 0.0000 0.0000 1786.7679 -7292.0129 304.6392 -9078.7809 -7343.2099 305.0547 651.6683 755.8426 30119.2804 -225.7791 -150.7323
ENERGY: 600000 5.0042 21.5480 7.6507 0.0000 -10613.7493 1455.6222 0.0000 0.0000 1790.2932 -7333.6310 305.2402 -9123.9243 -7356.0641 303.6291 408.7247 485.6609 30041.1658 -105.6821 -21.9059
ENERGY: 900000 7.1896 22.9898 4.2718 0.0000 -10577.1567 1424.0638 0.0000 0.0000 1707.7143 -7410.9275 291.1607 -9118.6417 -7381.1377 301.3974 -372.3144 -321.7214 30593.4190 -160.4633 -78.7312
ENERGY: 1200000 5.9402 25.4981 3.0798 0.0000 -10677.5233 1452.3061 0.0000 0.0000 1773.6052 -7417.0939 302.3950 -9190.6990 -7381.5150 300.5343 -15.8002 67.2465 30211.0951 -72.6404 1.1748
ENERGY: 1500000 2.7227 26.3837 7.1094 0.0000 -10601.7580 1436.9158 0.0000 0.0000 1731.3615 -7397.2649 295.1925 -9128.6264 -7390.0402 299.9864 -36.6991 56.6247 30417.2593 -164.4053 -93.7359
TCL: Running FEP window  10: Lambda1 0.44999999999999996 Lambda2 0.49999999999999994 [dLambda 0.04999999999999999]
TCL: Setting parameter firsttimestep to 0
TCL: Setting parameter alchLambda to 0.44999999999999996
Info: NONBONDED TABLE R-SQUARED SPACING: 0.0625
Info: NONBONDED TABLE SIZE: 705 POINTS
TCL: Setting parameter alchLambda2 to 0.49999999999999994
Info: NONBONDED TABLE R-SQUARED SPACING: 0.0625
Info: NONBONDED TABLE SIZE: 705 POINTS
TCL: Running for 1500000 steps
ETITLE: TS BOND ANGLE DIHED IMPRP ELECT VDW BOUNDARY MISC KINETIC TOTAL TEMP POTENTIAL TOTALAVG TEMPAVG PRESSURE GPRESSURE VOLUME PRESSAVG GPRESSAVG
ENERGY: 0 2.7227 26.3837 7.1094 0.0000 -10601.7585 1437.1507 0.0000 0.0000 1730.5121 -7397.8799 295.0477 -9128.3920 -7397.8799 295.0477 -24.1376 66.2001 30417.2593 -24.1376 66.2001
ENERGY: 300000 4.2204 24.8606 8.1337 0.0000 -10464.5652 1348.7084 0.0000 0.0000 1767.0515 -7311.5905 301.2776 -9078.6420 -7373.2005 300.4204 -519.6290 -511.6037 30655.3526 -11.9762 25.1968
ENERGY: 600000 5.7991 24.7068 4.1074 0.0000 -10517.6167 1379.0101 0.0000 0.0000 1816.7134 -7287.2799 309.7448 -9103.9933 -7367.0820 301.5519 -505.2462 -491.4600 30644.6861 20.5208 62.8951
ENERGY: 900000 4.2335 23.1957 5.8719 0.0000 -10658.7792 1390.6375 0.0000 0.0000 1731.4249 -7503.4158 295.2033 -9234.8407 -7381.9160 299.6702 -591.0647 -560.7727 30190.9178 -76.8821 -29.6257
ENERGY: 1200000 6.9491 29.6473 7.5961 0.0000 -10723.4894 1487.1234 0.0000 0.0000 1817.6619 -7374.5116 309.9065 -9192.1735 -7389.8079 299.6484 691.1867 678.2234 29580.1686 29.6666 80.5940
ENERGY: 1500000 8.6349 23.8196 6.6333 0.0000 -10544.1024 1329.3652 0.0000 0.0000 1799.9476 -7375.7019 306.8863 -9175.6495 -7389.3151 300.5793 -1296.0153 -1184.4257 30731.0026 -141.2368 -89.5777
TCL: Running FEP window  11: Lambda1 0.49999999999999994 Lambda2 0.5499999999999999 [dLambda 0.04999999999999999]
TCL: Setting parameter firsttimestep to 0
TCL: Setting parameter alchLambda to 0.49999999999999994
Info: NONBONDED TABLE R-SQUARED SPACING: 0.0625
Info: NONBONDED TABLE SIZE: 705 POINTS
TCL: Setting parameter alchLambda2 to 0.5499999999999999
Info: NONBONDED TABLE R-SQUARED SPACING: 0.0625
Info: NONBONDED TABLE SIZE: 705 POINTS
TCL: Running for 1500000 steps
ETITLE: TS BOND ANGLE DIHED IMPRP ELECT VDW BOUNDARY MISC KINETIC TOTAL TEMP POTENTIAL TOTALAVG TEMPAVG PRESSURE GPRESSURE VOLUME PRESSAVG GPRESSAVG
ENERGY: 0 8.6349 23.8196 6.6333 0.0000 -10544.1033 1329.4419 0.0000 0.0000 1799.1020 -7376.4717 306.7421 -9175.5736 -7376.4717 306.7421 -1257.8820 -1178.8189 30731.0026 -1257.8820 -1178.8189
ENERGY: 300000 8.9959 23.9400 6.6900 0.0000 -10706.5385 1414.6189 0.0000 0.0000 1734.6810 -7517.6127 295.7585 -9252.2937 -7441.9014 298.2325 -520.3434 -442.5884 30031.0397 -490.0337 -433.1915
ENERGY: 600000 2.9112 22.3483 5.0389 0.0000 -10749.3918 1521.2114 0.0000 0.0000 1773.0070 -7424.8750 302.2930 -9197.8819 -7427.1398 299.5181 313.7609 354.5419 30875.8228 -210.2364 -164.9408
ENERGY: 900000 4.5324 28.1894 4.8346 0.0000 -10653.1277 1472.4991 0.0000 0.0000 1714.4064 -7428.6658 292.3017 -9143.0722 -7424.3070 298.6575 617.7296 620.9786 30033.7041 -66.6878 -21.3930
ENERGY: 1200000 7.0106 33.1331 4.9588 0.0000 -10641.1898 1463.8524 0.0000 0.0000 1785.8051 -7346.4300 304.4750 -9132.2351 -7414.7994 299.8990 708.0877 703.1778 30081.5830 93.3223 126.5213
ENERGY: 1500000 2.8855 23.1507 5.7536 0.0000 -10493.3299 1336.0483 0.0000 0.0000 1743.0235 -7382.4683 297.1809 -9125.4918 -7408.4231 299.5754 -373.4129 -267.8818 30073.1579 62.8923 105.7635
TCL: Running FEP window  12: Lambda1 0.5499999999999999 Lambda2 0.6    [dLambda 0.050000000000000044]
TCL: Setting parameter firsttimestep to 0
TCL: Setting parameter alchLambda to 0.5499999999999999
Info: NONBONDED TABLE R-SQUARED SPACING: 0.0625
Info: NONBONDED TABLE SIZE: 705 POINTS
TCL: Setting parameter alchLambda2 to 0.6
Info: NONBONDED TABLE R-SQUARED SPACING: 0.0625
Info: NONBONDED TABLE SIZE: 705 POINTS
TCL: Running for 1500000 steps
ETITLE: TS BOND ANGLE DIHED IMPRP ELECT VDW BOUNDARY MISC KINETIC TOTAL TEMP POTENTIAL TOTALAVG TEMPAVG PRESSURE GPRESSURE VOLUME PRESSAVG GPRESSAVG
ENERGY: 0 2.8855 23.1507 5.7536 0.0000 -10493.5343 1335.9998 0.0000 0.0000 1742.1504 -7383.5943 297.0320 -9125.7447 -7383.5943 297.0320 -346.0869 -258.6776 30073.1579 -346.0869 -258.6776
ENERGY: 300000 6.6544 23.5506 6.4142 0.0000 -10750.0538 1513.0896 0.0000 0.0000 1725.6912 -7474.6538 294.2258 -9200.3451 -7419.1522 299.0422 508.3852 686.4059 29642.0240 -39.3064 70.0930
ENERGY: 600000 5.6262 26.2608 4.6996 0.0000 -10649.2605 1462.4493 0.0000 0.0000 1787.3192 -7362.9053 304.7332 -9150.2245 -7404.1937 300.2309 439.8000 529.5189 30007.2636 -125.8475 -32.7541
ENERGY: 900000 5.4785 23.1123 3.8360 0.0000 -10597.7176 1469.1962 0.0000 0.0000 1789.0509 -7307.0436 305.0284 -9096.0946 -7394.9649 300.6152 450.3287 505.8431 30409.5825 -51.4561 33.6805
ENERGY: 1200000 6.1931 27.8132 5.4898 0.0000 -10563.4148 1382.2720 0.0000 0.0000 1765.6789 -7375.9679 301.0435 -9141.6468 -7392.7452 300.9783 -234.4484 -202.4482 30329.6432 -108.0698 -22.7431
ENERGY: 1500000 3.5702 28.0714 4.5294 0.0000 -10540.4851 1356.4692 0.0000 0.0000 1703.1672 -7444.6778 290.3855 -9147.8449 -7395.2802 300.1721 -721.5434 -609.9594 30368.8652 -207.1280 -120.9035
TCL: Running FEP window  13: Lambda1 0.6    Lambda2 0.65   [dLambda 0.050000000000000044]
TCL: Setting parameter firsttimestep to 0
TCL: Setting parameter alchLambda to 0.6
Info: NONBONDED TABLE R-SQUARED SPACING: 0.0625
Info: NONBONDED TABLE SIZE: 705 POINTS
TCL: Setting parameter alchLambda2 to 0.65
Info: NONBONDED TABLE R-SQUARED SPACING: 0.0625
Info: NONBONDED TABLE SIZE: 705 POINTS
TCL: Running for 1500000 steps
ETITLE: TS BOND ANGLE DIHED IMPRP ELECT VDW BOUNDARY MISC KINETIC TOTAL TEMP POTENTIAL TOTALAVG TEMPAVG PRESSURE GPRESSURE VOLUME PRESSAVG GPRESSAVG
ENERGY: 0 3.5702 28.0714 4.5294 0.0000 -10540.7682 1356.6806 0.0000 0.0000 1702.3114 -7445.6053 290.2396 -9147.9167 -7445.6053 290.2396 -686.5235 -599.1065 30368.8652 -686.5235 -599.1065
ENERGY: 300000 6.5556 20.8743 7.7332 0.0000 -10588.9118 1395.3193 0.0000 0.0000 1784.3513 -7374.0780 304.2272 -9158.4293 -7431.1194 300.1457 -273.1559 -194.6400 30232.4850 -194.8256 -137.1651
ENERGY: 600000 6.7245 27.6526 4.5790 0.0000 -10648.8964 1428.3667 0.0000 0.0000 1729.9304 -7451.6432 294.9485 -9181.5736 -7450.5563 299.5168 88.6677 136.2652 29996.0239 -120.2412 -48.7041
ENERGY: 900000 6.4724 21.9618 8.4643 0.0000 -10676.4875 1434.4467 0.0000 0.0000 1757.7109 -7447.4314 299.6850 -9205.1423 -7448.1045 299.0862 -126.3373 -112.3699 30139.5403 -206.6627 -146.4915
ENERGY: 1200000 6.0530 26.6979 9.0102 0.0000 -10593.6877 1413.4742 0.0000 0.0000 1743.8055 -7394.6469 297.3142 -9138.4524 -7429.5356 299.5945 -53.6686 -13.3516 30330.0806 -168.1957 -112.3029
ENERGY: 1500000 3.0740 28.8707 5.5549 0.0000 -10545.2335 1435.8871 0.0000 0.0000 1801.6196 -7270.2271 307.1713 -9071.8467 -7414.9596 300.5579 646.2376 690.9814 30104.9856 -72.9793 -26.2151
TCL: Running FEP window  14: Lambda1 0.65   Lambda2 0.7000000000000001 [dLambda 0.050000000000000044]
TCL: Setting parameter firsttimestep to 0
TCL: Setting parameter alchLambda to 0.65
Info: NONBONDED TABLE R-SQUARED SPACING: 0.0625
Info: NONBONDED TABLE SIZE: 705 POINTS
TCL: Setting parameter alchLambda2 to 0.7000000000000001
Info: NONBONDED TABLE R-SQUARED SPACING: 0.0625
Info: NONBONDED TABLE SIZE: 705 POINTS
TCL: Running for 1500000 steps
ETITLE: TS BOND ANGLE DIHED IMPRP ELECT VDW BOUNDARY MISC KINETIC TOTAL TEMP POTENTIAL TOTALAVG TEMPAVG PRESSURE GPRESSURE VOLUME PRESSAVG GPRESSAVG
ENERGY: 0 3.0740 28.8707 5.5549 0.0000 -10545.0264 1435.0514 0.0000 0.0000 1800.7914 -7271.6840 307.0301 -9072.4754 -7271.6840 307.0301 616.4060 693.8300 30104.9856 616.4060 693.8300
ENERGY: 300000 6.8941 24.3609 7.0222 0.0000 -10680.3379 1489.8118 0.0000 0.0000 1749.5746 -7402.6743 298.2978 -9152.2489 -7367.2162 302.8215 498.5560 602.0147 30408.8402 32.5859 131.0262
ENERGY: 600000 1.1796 25.8559 1.3696 0.0000 -10849.4779 1586.5495 0.0000 0.0000 1794.6155 -7439.9078 305.9772 -9234.5233 -7408.5492 302.0971 1233.7829 1284.1034 30137.2402 325.2742 399.1497
ENERGY: 900000 5.8159 26.6013 6.5199 0.0000 -10622.7922 1393.6016 0.0000 0.0000 1802.8362 -7387.4172 307.3788 -9190.2534 -7386.1607 303.0816 -332.1839 -253.0033 30319.5981 178.8568 246.6888
ENERGY: 1200000 3.7568 27.7160 5.5064 0.0000 -10603.7832 1461.8463 0.0000 0.0000 1820.1381 -7284.8196 310.3287 -9104.9577 -7387.8482 303.5414 505.9712 560.7020 30250.9094 135.8377 198.5564
ENERGY: 1500000 4.5521 28.1665 5.0003 0.0000 -10499.9102 1324.4276 0.0000 0.0000 1745.7618 -7392.0020 297.6477 -9137.7637 -7391.1303 302.8425 -980.5428 -909.7821 30730.6902 -2.8899 57.1568
TCL: Running FEP window  15: Lambda1 0.7000000000000001 Lambda2 0.7500000000000001 [dLambda 0.050000000000000044]
TCL: Setting parameter firsttimestep to 0
TCL: Setting parameter alchLambda to 0.7000000000000001
Info: NONBONDED TABLE R-SQUARED SPACING: 0.0625
Info: NONBONDED TABLE SIZE: 705 POINTS
TCL: Setting parameter alchLambda2 to 0.7500000000000001
Info: NONBONDED TABLE R-SQUARED SPACING: 0.0625
Info: NONBONDED TABLE SIZE: 705 POINTS
TCL: Running for 1500000 steps
ETITLE: TS BOND ANGLE DIHED IMPRP ELECT VDW BOUNDARY MISC KINETIC TOTAL TEMP POTENTIAL TOTALAVG TEMPAVG PRESSURE GPRESSURE VOLUME PRESSAVG GPRESSAVG
ENERGY: 0 4.5521 28.1665 5.0003 0.0000 -10500.5710 1323.9231 0.0000 0.0000 1744.9246 -7394.0044 297.5050 -9138.9290 -7394.0044 297.5050 -971.6207 -905.7708 30730.6902 -971.6207 -905.7708
ENERGY: 300000 2.8737 22.2371 5.7574 0.0000 -10643.1236 1407.0984 0.0000 0.0000 1754.5886 -7450.5684 299.1527 -9205.1569 -7427.1057 299.5555 -333.3616 -338.0605 30213.2383 -589.8204 -538.6849
ENERGY: 600000 3.4363 23.5018 5.1067 0.0000 -10607.6366 1359.2974 0.0000 0.0000 1771.3534 -7444.9410 302.0110 -9216.2944 -7426.1404 300.8257 -671.0334 -648.4581 30448.2904 -168.8392 -123.8095
ENERGY: 900000 5.8384 21.4611 4.7980 0.0000 -10608.8146 1344.5536 0.0000 0.0000 1802.3627 -7429.8008 307.2980 -9232.1635 -7436.1193 300.8404 -767.0573 -728.6475 30376.3146 -172.5983 -119.8717
ENERGY: 1200000 3.1287 26.9147 6.7489 0.0000 -10433.3458 1337.1779 0.0000 0.0000 1756.7862 -7302.5894 299.5274 -9059.3756 -7421.1066 301.1622 -701.6831 -544.2917 30636.0941 -241.6856 -171.0420
ENERGY: 1500000 5.4887 23.3053 6.5739 0.0000 -10750.1882 1482.7514 0.0000 0.0000 1791.9617 -7440.1073 305.5247 -9232.0690 -7413.2250 301.6121 130.0226 275.1248 30184.3792 -153.2387 -82.9499
TCL: Running FEP window  16: Lambda1 0.7500000000000001 Lambda2 0.8000000000000002 [dLambda 0.050000000000000044]
TCL: Setting parameter firsttimestep to 0
TCL: Setting parameter alchLambda to 0.7500000000000001
Info: NONBONDED TABLE R-SQUARED SPACING: 0.0625
Info: NONBONDED TABLE SIZE: 705 POINTS
TCL: Setting parameter alchLambda2 to 0.8000000000000002
Info: NONBONDED TABLE R-SQUARED SPACING: 0.0625
Info: NONBONDED TABLE SIZE: 705 POINTS
TCL: Running for 1500000 steps
ETITLE: TS BOND ANGLE DIHED IMPRP ELECT VDW BOUNDARY MISC KINETIC TOTAL TEMP POTENTIAL TOTALAVG TEMPAVG PRESSURE GPRESSURE VOLUME PRESSAVG GPRESSAVG
ENERGY: 0 5.4887 23.3053 6.5739 0.0000 -10751.4225 1482.2984 0.0000 0.0000 1791.1140 -7442.6422 305.3802 -9233.7562 -7442.6422 305.3802 194.7965 279.4040 30184.3792 194.7965 279.4040
ENERGY: 300000 6.1429 24.6479 6.7461 0.0000 -10553.6472 1333.2098 0.0000 0.0000 1746.3186 -7436.5819 297.7427 -9182.9005 -7376.7419 303.2564 -1054.3931 -984.6194 30588.8263 -198.5530 -140.4579
ENERGY: 600000 6.6765 26.3166 6.4522 0.0000 -10784.9018 1510.7801 0.0000 0.0000 1805.2643 -7429.4121 307.7928 -9234.6764 -7374.6945 305.0955 593.9679 642.2530 29754.6030 -134.2006 -83.1497
ENERGY: 900000 4.0636 27.4357 5.7317 0.0000 -10587.1265 1383.3180 0.0000 0.0000 1710.9607 -7455.6169 291.7142 -9166.5776 -7384.5311 302.9193 -676.6459 -615.4830 30447.1757 -248.2557 -190.5228
ENERGY: 1200000 1.7840 24.3777 5.6183 0.0000 -10554.2808 1356.9022 0.0000 0.0000 1824.2667 -7341.3319 311.0326 -9165.5986 -7393.5827 303.6998 -869.9507 -778.2929 30800.0417 -206.0524 -147.0454
ENERGY: 1500000 3.2394 24.6370 3.7892 0.0000 -10694.4800 1544.0649 0.0000 0.0000 1801.0314 -7317.7181 307.0711 -9118.7495 -7393.3052 303.3842 752.9626 791.4602 30651.5005 -104.0624 -51.3365
TCL: Running FEP window  17: Lambda1 0.8000000000000002 Lambda2 0.8500000000000002 [dLambda 0.050000000000000044]
TCL: Setting parameter firsttimestep to 0
TCL: Setting parameter alchLambda to 0.8000000000000002
Info: NONBONDED TABLE R-SQUARED SPACING: 0.0625
Info: NONBONDED TABLE SIZE: 705 POINTS
TCL: Setting parameter alchLambda2 to 0.8500000000000002
Info: NONBONDED TABLE R-SQUARED SPACING: 0.0625
Info: NONBONDED TABLE SIZE: 705 POINTS
TCL: Running for 1500000 steps
ETITLE: TS BOND ANGLE DIHED IMPRP ELECT VDW BOUNDARY MISC KINETIC TOTAL TEMP POTENTIAL TOTALAVG TEMPAVG PRESSURE GPRESSURE VOLUME PRESSAVG GPRESSAVG
ENERGY: 0 3.2394 24.6370 3.7892 0.0000 -10694.8657 1543.2294 0.0000 0.0000 1800.1455 -7319.8251 306.9200 -9119.9706 -7319.8251 306.9200 713.9400 792.9593 30651.5005 713.9400 792.9593
ENERGY: 300000 4.2032 27.5473 9.7903 0.0000 -10572.4601 1399.1302 0.0000 0.0000 1762.5270 -7369.2620 300.5062 -9131.7890 -7393.9301 301.0546 -170.4141 -138.8734 30335.7949 422.9607 490.7264
ENERGY: 600000 5.4907 30.5916 6.6542 0.0000 -10619.8929 1431.3978 0.0000 0.0000 1766.2936 -7379.4651 301.1483 -9145.7587 -7386.3186 301.0777 57.1142 49.3649 30312.1961 314.2254 362.8507
ENERGY: 900000 4.2463 24.4698 5.7054 0.0000 -10703.0202 1442.4351 0.0000 0.0000 1758.4156 -7467.7481 299.8052 -9226.1637 -7400.2458 300.1165 -83.1041 -121.0985 30384.6214 238.5831 278.5751
ENERGY: 1200000 7.3543 24.7318 2.3198 0.0000 -10588.2398 1342.7704 0.0000 0.0000 1747.1734 -7463.8902 297.8884 -9211.0636 -7412.8963 300.5354 -943.5715 -851.9151 30348.1981 108.8891 159.1287
ENERGY: 1500000 5.2245 22.0267 5.9675 0.0000 -10663.9854 1469.9224 0.0000 0.0000 1704.0149 -7456.8295 290.5300 -9160.8443 -7417.2219 299.4233 365.9536 447.1656 30320.5149 142.0109 193.7931
TCL: Running FEP window  18: Lambda1 0.8500000000000002 Lambda2 0.9000000000000002 [dLambda 0.050000000000000044]
TCL: Setting parameter firsttimestep to 0
TCL: Setting parameter alchLambda to 0.8500000000000002
Info: NONBONDED TABLE R-SQUARED SPACING: 0.0625
Info: NONBONDED TABLE SIZE: 705 POINTS
TCL: Setting parameter alchLambda2 to 0.9000000000000002
Info: NONBONDED TABLE R-SQUARED SPACING: 0.0625
Info: NONBONDED TABLE SIZE: 705 POINTS
TCL: Running for 1500000 steps
ETITLE: TS BOND ANGLE DIHED IMPRP ELECT VDW BOUNDARY MISC KINETIC TOTAL TEMP POTENTIAL TOTALAVG TEMPAVG PRESSURE GPRESSURE VOLUME PRESSAVG GPRESSAVG
ENERGY: 0 5.2245 22.0267 5.9675 0.0000 -10665.3303 1469.5049 0.0000 0.0000 1703.1643 -7459.4425 290.3850 -9162.6068 -7459.4425 290.3850 390.5718 456.7027 30320.5149 390.5718 456.7027
ENERGY: 300000 2.7263 24.0577 2.3681 0.0000 -10748.0291 1503.4378 0.0000 0.0000 1791.1629 -7424.2762 305.3885 -9215.4392 -7445.0744 297.9519 795.3338 830.8909 30093.7550 168.7195 204.1631
ENERGY: 600000 4.7306 24.9247 7.3376 0.0000 -10546.0881 1356.2195 0.0000 0.0000 1695.3454 -7457.5304 289.0519 -9152.8758 -7447.8334 296.4746 -703.2078 -605.1305 30620.3358 -151.6463 -88.8399
ENERGY: 900000 4.9060 26.0182 6.0620 0.0000 -10639.8772 1415.8751 0.0000 0.0000 1718.4350 -7468.5810 292.9886 -9187.0160 -7432.9416 296.8264 -330.1192 -236.7464 30466.2814 -216.7545 -154.2196
ENERGY: 1200000 5.0513 24.4087 5.9625 0.0000 -10698.4676 1530.2691 0.0000 0.0000 1681.1465 -7451.6295 286.6310 -9132.7760 -7424.1951 296.9030 803.1963 897.8247 30555.0580 -47.8744 8.0023
ENERGY: 1500000 4.4190 27.6911 5.2275 0.0000 -10679.5520 1479.4614 0.0000 0.0000 1744.2797 -7418.4733 297.3950 -9162.7530 -7421.5476 296.9511 604.6039 649.1921 30209.1842 -1.2614 58.5379
TCL: Running FEP window  19: Lambda1 0.9000000000000002 Lambda2 0.9500000000000003 [dLambda 0.050000000000000044]
TCL: Setting parameter firsttimestep to 0
TCL: Setting parameter alchLambda to 0.9000000000000002
Info: NONBONDED TABLE R-SQUARED SPACING: 0.0625
Info: NONBONDED TABLE SIZE: 705 POINTS
TCL: Setting parameter alchLambda2 to 0.9500000000000003
Info: NONBONDED TABLE R-SQUARED SPACING: 0.0625
Info: NONBONDED TABLE SIZE: 705 POINTS
TCL: Running for 1500000 steps
ETITLE: TS BOND ANGLE DIHED IMPRP ELECT VDW BOUNDARY MISC KINETIC TOTAL TEMP POTENTIAL TOTALAVG TEMPAVG PRESSURE GPRESSURE VOLUME PRESSAVG GPRESSAVG
ENERGY: 0 4.4191 27.6911 5.2275 0.0000 -10680.8067 1479.6333 0.0000 0.0000 1743.4085 -7420.4274 297.2465 -9163.8358 -7420.4274 297.2465 583.1976 665.6203 30209.1842 583.1976 665.6203
ENERGY: 300000 8.8271 22.6040 3.3206 0.0000 -10611.9333 1389.9621 0.0000 0.0000 1750.4915 -7436.7279 298.4541 -9187.2194 -7419.1056 296.5105 -229.5360 -107.3466 30253.5642 31.9859 86.0193
ENERGY: 600000 3.9921 25.4759 6.6094 0.0000 -10761.6998 1484.7214 0.0000 0.0000 1706.8114 -7534.0896 291.0068 -9240.9010 -7434.7790 299.2710 -65.8727 22.5225 30406.0767 116.4025 174.6350
ENERGY: 900000 6.0614 22.4768 3.9397 0.0000 -10589.6471 1400.1901 0.0000 0.0000 1794.8823 -7362.0968 306.0227 -9156.9791 -7429.4089 299.1252 -132.2810 -62.7076 30328.9794 71.2498 129.7613
ENERGY: 1200000 2.9365 23.9438 4.9856 0.0000 -10690.6638 1475.9799 0.0000 0.0000 1798.2017 -7384.6164 306.5886 -9182.8181 -7422.6926 299.2572 196.7634 194.9004 30747.9298 85.8776 133.7430
ENERGY: 1500000 5.7911 28.2073 7.5025 0.0000 -10539.1352 1327.9400 0.0000 0.0000 1777.0557 -7392.6386 302.9833 -9169.6943 -7413.9376 299.4091 -381.1600 -321.8277 30218.5811 76.6222 126.8776
TCL: Running FEP window  20: Lambda1 0.9500000000000003 Lambda2 1.0    [dLambda 0.04999999999999971]
TCL: Setting parameter firsttimestep to 0
TCL: Setting parameter alchLambda to 0.9500000000000003
Info: NONBONDED TABLE R-SQUARED SPACING: 0.0625
Info: NONBONDED TABLE SIZE: 705 POINTS
TCL: Setting parameter alchLambda2 to 1.0
Info: NONBONDED TABLE R-SQUARED SPACING: 0.0625
Info: NONBONDED TABLE SIZE: 705 POINTS
TCL: Running for 1500000 steps
ETITLE: TS BOND ANGLE DIHED IMPRP ELECT VDW BOUNDARY MISC KINETIC TOTAL TEMP POTENTIAL TOTALAVG TEMPAVG PRESSURE GPRESSURE VOLUME PRESSAVG GPRESSAVG
ENERGY: 0 5.7911 28.2073 7.5025 0.0000 -10539.8924 1328.4682 0.0000 0.0000 1776.1691 -7393.7542 302.8321 -9169.9233 -7393.7542 302.8321 -379.9273 -301.4346 30218.5811 -379.9273 -301.4346
ENERGY: 300000 6.0579 23.9364 10.4575 0.0000 -10638.0523 1400.9665 0.0000 0.0000 1737.5916 -7459.0424 296.2547 -9196.6340 -7389.9920 299.9658 -490.3810 -425.1393 30698.0411 -425.3722 -364.8918
ENERGY: 600000 7.0969 27.2643 2.7287 0.0000 -10669.5533 1416.3677 0.0000 0.0000 1811.3606 -7404.7350 308.8322 -9216.0957 -7411.6645 300.6358 -297.2294 -224.8858 30391.3769 -291.3949 -246.5658
ENERGY: 900000 3.0632 27.6093 7.5367 0.0000 -10660.5518 1419.7712 0.0000 0.0000 1819.8549 -7382.7165 310.2804 -9202.5714 -7414.4140 300.8451 -1.5179 35.9160 30340.2424 -274.5066 -233.8737
ENERGY: 1200000 4.0749 26.2298 5.8731 0.0000 -10718.5535 1510.6739 0.0000 0.0000 1772.6730 -7399.0288 302.2360 -9171.7018 -7411.9855 300.7471 638.2056 700.9265 30098.3385 -83.3068 -35.4710
ENERGY: 1500000 5.2956 25.8228 1.6452 0.0000 -10733.1283 1476.1544 0.0000 0.0000 1753.1842 -7471.0261 298.9132 -9224.2103 -7415.3467 300.6169 493.3889 539.0650 29883.8938 -6.0162 44.6053
TCL: Exiting due to exit command.
