Info: SIMULATION PARAMETERS:
Info: TIMESTEP               2
Info: NUMBER OF STEPS        0
Info: STEPS PER CYCLE        10
Info: PERIODIC CELL BASIS 1  30.8737 0 0
Info: PERIODIC CELL BASIS 2  0 32.4409 0
Info: PERIODIC CELL BASIS 3  0 0 30.2056
Info: PERIODIC CELL CENTER   0 0 0
Info: WRAPPING WATERS AROUND PERIODIC BOUNDARIES ON OUTPUT.
Info: WRAPPING ALL CLUSTERS AROUND PERIODIC BOUNDARIES ON OUTPUT.
Info: FIRST LDB TIMESTEP     50
Info: LAST LDB TIMESTEP     -1
Info: HOM BACKGROUND SCALING 1
Info: PME BACKGROUND SCALING 1
Info: MIN ATOMS PER PATCH    40
Info: EMPTY PATCH LOAD       40 ATOMS
Info: VELOCITY FILE          mobley_8966374_equil.vel
Info: CENTER OF MASS MOVING INITIALLY? NO
Info: DIELECTRIC             1
Info: EXCLUDE                SCALED ONE-FOUR
Info: 1-4 ELECTROSTATICS SCALED BY 0.833333
Info: MODIFIED 1-4 VDW PARAMETERS WILL BE USED
Info: DCD FILENAME           mobley_8966374_prod.dcd
Info: DCD FREQUENCY          100000
Info: DCD FIRST STEP         100000
Info: DCD FILE WILL CONTAIN UNIT CELL DATA
Info: XST FILENAME           mobley_8966374_prod.xst
Info: XST FREQUENCY          100000
Info: NO VELOCITY DCD OUTPUT
Info: NO FORCE DCD OUTPUT
Info: OUTPUT FILENAME        mobley_8966374_prod
Info: BINARY OUTPUT FILES WILL BE USED
Info: RESTART FILENAME       mobley_8966374_prod.restart
Info: RESTART FREQUENCY      100000
Info: BINARY RESTART FILES WILL BE USED
Info: CUTOFF                 9
Info: PAIRLIST DISTANCE      11
Info: PAIRLIST SHRINK RATE   0.01
Info: PAIRLIST GROW RATE     0.01
Info: PAIRLIST TRIGGER       0.3
Info: PAIRLISTS PER CYCLE    2
Info: PAIRLISTS ENABLED
Info: MARGIN                 2
Info: HYDROGEN GROUP CUTOFF  2.5
Info: PATCH DIMENSION        15.5
Info: ENERGY OUTPUT STEPS    100000
Info: ENERGY EVALUATION STEPS    100000
Info: OUTPUT ENERGY PRECISION 4
Info: CROSSTERM ENERGY INCLUDED IN DIHEDRAL
Info: TIMING OUTPUT STEPS    1000000
Info: PRESSURE OUTPUT STEPS  100000
Info: ALCHEMICAL FEP ON
Info: FEP CURRENT LAMBDA VALUE     0
Info: FEP COMPARISON LAMBDA VALUE  0.05
Info: FEP INTRA-ALCHEMICAL NON-BONDED INTERACTIONS WILL BE RETAINED
Info: FEP INTRA-ALCHEMICAL BONDED INTERACTIONS WILL BE RETAINED
Info: FEP VDW SHIFTING COEFFICIENT 5
Info: FEP ELEC. ACTIVE FOR ANNIHILATED PARTICLES BETWEEN LAMBDA = 0 AND LAMBDA = 0.5
Info: FEP ELEC. ACTIVE FOR EXNIHILATED PARTICLES BETWEEN LAMBDA = 0.5 AND LAMBDA = 1
Info: FEP VDW ACTIVE FOR ANNIHILATED PARTICLES BETWEEN LAMBDA = 0 AND LAMBDA = 1
Info: FEP VDW ACTIVE FOR EXNIHILATED PARTICLES BETWEEN LAMBDA = 0 AND LAMBDA = 1
Info: FEP BOND ACTIVE FOR ANNIHILATED PARTICLES BETWEEN LAMBDA = 1 AND LAMBDA = 1
Info: FEP BOND ACTIVE FOR EXNIHILATED PARTICLES BETWEEN LAMBDA = 0 AND LAMBDA = 0
Info: LANGEVIN DYNAMICS ACTIVE
Info: LANGEVIN TEMPERATURE   300
Info: LANGEVIN USING BBK INTEGRATOR
Info: LANGEVIN DAMPING COEFFICIENT IS 1 INVERSE PS
Info: LANGEVIN DYNAMICS APPLIED TO HYDROGENS
Info: LANGEVIN PISTON PRESSURE CONTROL ACTIVE
Info:        TARGET PRESSURE IS 1.01325 BAR
Info:     OSCILLATION PERIOD IS 50 FS
Info:             DECAY TIME IS 25 FS
Info:     PISTON TEMPERATURE IS 300 K
Info:       PRESSURE CONTROL IS GROUP-BASED
Info:    INITIAL STRAIN RATE IS 4.49215e-05 4.49215e-05 4.49215e-05
Info:       CELL FLUCTUATION IS ISOTROPIC
Info: PARTICLE MESH EWALD (PME) ACTIVE
Info: PME TOLERANCE               1e-06
Info: PME EWALD COEFFICIENT       0.348832
Info: PME INTERPOLATION ORDER     4
Info: PME GRID DIMENSIONS         32 36 32
Info: PME MAXIMUM GRID SPACING    1
Info: PME CALCULATION WILL BE PERFORMED ON GPU
Info: FULL ELECTROSTATIC EVALUATION FREQUENCY      2
Info: USING VERLET I (r-RESPA) MTS SCHEME.
Info: C1 SPLITTING OF LONG RANGE ELECTROSTATICS
Info: PLACING ATOMS IN PATCHES BY HYDROGEN GROUPS
Info: RIGID BONDS TO HYDROGEN : ALL
Info:         ERROR TOLERANCE : 1e-08
Info:          MAX ITERATIONS : 100
Info: RIGID WATER USING SETTLE ALGORITHM
Info: RANDOM NUMBER SEED     1743553340
Info: USE HYDROGEN BONDS?    NO
Info: Using AMBER format force field!
Info: AMBER PARM FILE        mobley_8966374.prmtop
Info: COORDINATE PDB         mobley_8966374.pdb
Info: Exclusions will be read from PARM file!
Info: SCNB (VDW SCALING)     2
Info: USING ARITHMETIC MEAN TO COMBINE L-J SIGMA PARAMETERS
Info: BINARY COORDINATES     mobley_8966374_equil.coor
Info: SUMMARY OF PARAMETERS:
Info: 7 BONDS
Info: 8 ANGLES
Info:   8 HARMONIC
Info:   0 COSINE-BASED
Info: 4 DIHEDRAL
Info: 0 IMPROPER
Info: 0 CROSSTERM
Info: 0 VDW
Info: 28 VDW_PAIRS
Info: 0 NBTHOLE_PAIRS
Info: To read alchdata from file: mobley_8966374.pdb
Info: To read alchflag data from column: 5
Info: STRUCTURE SUMMARY:
Info: 2923 ATOMS
Info: 2923 BONDS
Info: 20 ANGLES
Info: 26 DIHEDRALS
Info: 0 IMPROPERS
Info: 0 CROSSTERMS
Info: 2962 EXCLUSIONS
Info: 2916 RIGID BONDS
Info: ALCH: 0 ATOMS TO DISAPPEAR IN FINAL STATE
Info: ALCH: 13 ATOMS TO APPEAR IN FINAL STATE
Info: 5853 DEGREES OF FREEDOM
Info: 977 HYDROGEN GROUPS
Info: 4 ATOMS IN LARGEST HYDROGEN GROUP
Info: 977 MIGRATION GROUPS
Info: 4 ATOMS IN LARGEST MIGRATION GROUP
Info: TOTAL MASS = 17569.6 amu
Info: TOTAL CHARGE = 0.000200011 e
Info: MASS DENSITY = 0.96439 g/cm^3
Info: ATOM DENSITY = 0.0966184 atoms/A^3
Info: ADDED 0 IMPLICIT EXCLUSIONS
Info: NONBONDED TABLE R-SQUARED SPACING: 0.0625
Info: NONBONDED TABLE SIZE: 705 POINTS
Info: REMOVING COM VELOCITY -0.147846 -0.177608 0.245814
Info: Use 3D box decompostion in PME FFT.
Info: Updated CUDA force table with 4096 elements.
Info: Updated CUDA LJ table with 7 x 7 elements.
Info: Found 14 unique exclusion lists needing 28 bytes
TCL: Running for 1500000 steps
ETITLE: TS BOND ANGLE DIHED IMPRP ELECT VDW BOUNDARY MISC KINETIC TOTAL TEMP POTENTIAL TOTALAVG TEMPAVG PRESSURE GPRESSURE VOLUME PRESSAVG GPRESSAVG
ENERGY: 0 2.3226 5.6261 2.5687 0.0000 -10581.6160 1417.4421 0.0000 0.0000 1760.6199 -7393.0366 302.7453 -9153.6565 -7393.0366 302.7453 -370.7947 -291.6223 30253.0487 -370.7947 -291.6223
ENERGY: 300000 7.3800 2.8230 2.8552 0.0000 -10601.3555 1459.7105 0.0000 0.0000 1744.4367 -7384.1501 299.9626 -9128.5868 -7365.3917 301.8048 -117.7385 -61.5806 30025.9506 63.0351 108.9383
ENERGY: 600000 0.9584 5.5124 2.4652 0.0000 -10481.6485 1445.9889 0.0000 0.0000 1724.4691 -7302.2546 296.5291 -9026.7236 -7352.4309 301.0939 173.6746 228.6983 30192.7507 93.6311 141.8048
ENERGY: 900000 6.0692 4.0983 2.2365 0.0000 -10568.3287 1380.7516 0.0000 0.0000 1726.3860 -7448.7871 296.8587 -9175.1731 -7345.2985 300.9632 -840.2428 -805.0953 30231.7723 23.6454 77.1741
ENERGY: 1200000 2.0954 1.3847 1.3201 0.0000 -10634.0028 1418.9373 0.0000 0.0000 1773.3037 -7436.9617 304.9264 -9210.2654 -7360.7911 300.8679 3.0748 37.2300 29402.3783 25.5672 77.4253
ENERGY: 1500000 1.5595 3.1383 1.8011 0.0000 -10490.1450 1472.3984 0.0000 0.0000 1753.6229 -7257.6248 301.5422 -9011.2477 -7359.4016 300.6533 865.6308 841.1267 29985.9290 83.0732 131.5170
TCL: Running FEP window   2: Lambda1 0.05   Lambda2 0.1    [dLambda 0.05  ]
TCL: Setting parameter firsttimestep to 0
TCL: Setting parameter alchLambda to 0.05
Info: NONBONDED TABLE R-SQUARED SPACING: 0.0625
Info: NONBONDED TABLE SIZE: 705 POINTS
TCL: Setting parameter alchLambda2 to 0.1
Info: NONBONDED TABLE R-SQUARED SPACING: 0.0625
Info: NONBONDED TABLE SIZE: 705 POINTS
TCL: Running for 1500000 steps
ETITLE: TS BOND ANGLE DIHED IMPRP ELECT VDW BOUNDARY MISC KINETIC TOTAL TEMP POTENTIAL TOTALAVG TEMPAVG PRESSURE GPRESSURE VOLUME PRESSAVG GPRESSAVG
ENERGY: 0 1.5595 3.1383 1.8011 0.0000 -10490.1462 1475.5272 0.0000 0.0000 1752.7589 -7255.3613 301.3936 -9008.1201 -7255.3613 301.3936 774.2000 848.6931 29985.9290 774.2000 848.6931
ENERGY: 300000 0.7645 1.1643 2.3528 0.0000 -10534.3045 1432.3201 0.0000 0.0000 1778.6626 -7319.0402 305.8479 -9097.7028 -7334.6183 301.4489 134.4568 215.4204 29976.6198 246.8563 307.6723
ENERGY: 600000 0.8703 3.3031 3.4613 0.0000 -10412.1759 1395.8433 0.0000 0.0000 1802.4526 -7206.2453 309.9386 -9008.6979 -7332.1169 301.7833 -35.9919 36.8798 30332.6772 140.1902 193.4970
ENERGY: 900000 2.7986 3.6132 3.0062 0.0000 -10487.7682 1369.4861 0.0000 0.0000 1709.1077 -7399.7564 293.8876 -9108.8640 -7355.4579 299.9686 -500.5557 -491.3180 30030.0291 32.7314 89.1110
ENERGY: 1200000 2.1116 4.0698 1.2536 0.0000 -10458.9986 1388.6951 0.0000 0.0000 1696.7763 -7366.0923 291.7672 -9062.8685 -7362.8092 299.0153 -377.7808 -322.1388 30360.1115 46.6434 104.3027
ENERGY: 1500000 1.7489 3.6194 2.2691 0.0000 -10680.6665 1469.2087 0.0000 0.0000 1755.9240 -7447.8964 301.9379 -9203.8204 -7356.7564 299.7483 -33.0829 2.2942 30153.8722 -20.6059 36.1850
TCL: Running FEP window   3: Lambda1 0.1    Lambda2 0.15000000000000002 [dLambda 0.05000000000000002]
TCL: Setting parameter firsttimestep to 0
TCL: Setting parameter alchLambda to 0.1
Info: NONBONDED TABLE R-SQUARED SPACING: 0.0625
Info: NONBONDED TABLE SIZE: 705 POINTS
TCL: Setting parameter alchLambda2 to 0.15000000000000002
Info: NONBONDED TABLE R-SQUARED SPACING: 0.0625
Info: NONBONDED TABLE SIZE: 705 POINTS
TCL: Running for 1500000 steps
ETITLE: TS BOND ANGLE DIHED IMPRP ELECT VDW BOUNDARY MISC KINETIC TOTAL TEMP POTENTIAL TOTALAVG TEMPAVG PRESSURE GPRESSURE VOLUME PRESSAVG GPRESSAVG
ENERGY: 0 1.7489 3.6194 2.2691 0.0000 -10680.6652 1469.6153 0.0000 0.0000 1755.0698 -7448.3427 301.7910 -9203.4125 -7448.3427 301.7910 -80.8241 5.4147 30153.8722 -80.8241 5.4147
ENERGY: 300000 1.8289 2.7460 0.8485 0.0000 -10653.9941 1474.2543 0.0000 0.0000 1740.4746 -7433.8417 299.2813 -9174.3164 -7439.4936 296.8268 113.9365 168.4610 30180.3193 -59.8063 31.6772
ENERGY: 600000 5.6756 6.1499 1.8793 0.0000 -10727.1576 1574.7825 0.0000 0.0000 1668.1681 -7470.5022 286.8479 -9138.6703 -7423.1997 295.7542 929.8827 1003.1719 29691.7809 -123.0603 -45.2769
ENERGY: 900000 1.3660 3.0358 3.0866 0.0000 -10616.1151 1484.7880 0.0000 0.0000 1703.1036 -7420.7352 292.8552 -9123.8388 -7415.2922 296.2051 127.1355 167.6921 30154.5048 -88.4873 -30.1574
ENERGY: 1200000 1.5992 3.6330 2.2179 0.0000 -10478.9119 1387.1305 0.0000 0.0000 1798.4367 -7285.8945 309.2481 -9084.3313 -7399.1437 297.8774 -368.4881 -298.5952 30500.3994 -28.8744 30.8990
ENERGY: 1500000 1.3269 3.5042 1.5460 0.0000 -10514.3093 1455.6184 0.0000 0.0000 1703.3776 -7348.9361 292.9023 -9052.3137 -7390.6604 298.3082 353.9770 401.0128 30038.5689 19.9973 80.6420
TCL: Running FEP window   4: Lambda1 0.15000000000000002 Lambda2 0.2    [dLambda 0.04999999999999999]
TCL: Setting parameter firsttimestep to 0
TCL: Setting parameter alchLambda to 0.15000000000000002
Info: NONBONDED TABLE R-SQUARED SPACING: 0.0625
Info: NONBONDED TABLE SIZE: 705 POINTS
TCL: Setting parameter alchLambda2 to 0.2
Info: NONBONDED TABLE R-SQUARED SPACING: 0.0625
Info: NONBONDED TABLE SIZE: 705 POINTS
TCL: Running for 1500000 steps
ETITLE: TS BOND ANGLE DIHED IMPRP ELECT VDW BOUNDARY MISC KINETIC TOTAL TEMP POTENTIAL TOTALAVG TEMPAVG PRESSURE GPRESSURE VOLUME PRESSAVG GPRESSAVG
ENERGY: 0 1.3269 3.5042 1.5460 0.0000 -10514.3081 1455.1296 0.0000 0.0000 1702.5304 -7350.2711 292.7566 -9052.8015 -7350.2711 292.7566 316.6610 402.9472 30038.5689 316.6610 402.9472
ENERGY: 300000 5.3861 6.3028 1.0909 0.0000 -10537.6854 1463.4656 0.0000 0.0000 1767.2476 -7294.1924 303.8850 -9061.4400 -7349.0832 299.6794 70.5750 100.6405 30181.7152 -189.7067 -150.6442
ENERGY: 600000 0.9293 8.1579 4.0143 0.0000 -10447.3009 1397.3567 0.0000 0.0000 1763.4164 -7273.4263 303.2262 -9036.8427 -7344.0735 299.3115 46.5950 74.0258 29886.2538 -57.2794 -8.7650
ENERGY: 900000 1.5506 7.2842 2.3869 0.0000 -10579.5198 1456.4394 0.0000 0.0000 1731.5757 -7380.2829 297.7511 -9111.8587 -7354.3023 299.1112 271.6404 268.0515 29854.7882 35.2933 78.2157
ENERGY: 1200000 5.2441 3.3135 0.5452 0.0000 -10494.3226 1401.8652 0.0000 0.0000 1733.3439 -7350.0107 298.0551 -9083.3547 -7361.3351 299.8169 -363.2154 -284.8570 30088.0517 -140.7885 -97.6988
ENERGY: 1500000 2.0160 4.8122 2.0110 0.0000 -10699.6946 1514.4142 0.0000 0.0000 1818.1922 -7358.2489 312.6451 -9176.4411 -7354.0544 300.9145 450.1976 542.7075 29784.1981 -154.9994 -111.1741
TCL: Running FEP window   5: Lambda1 0.2    Lambda2 0.25   [dLambda 0.04999999999999999]
TCL: Setting parameter firsttimestep to 0
TCL: Setting parameter alchLambda to 0.2
Info: NONBONDED TABLE R-SQUARED SPACING: 0.0625
Info: NONBONDED TABLE SIZE: 705 POINTS
TCL: Setting parameter alchLambda2 to 0.25
Info: NONBONDED TABLE R-SQUARED SPACING: 0.0625
Info: NONBONDED TABLE SIZE: 705 POINTS
TCL: Running for 1500000 steps
ETITLE: TS BOND ANGLE DIHED IMPRP ELECT VDW BOUNDARY MISC KINETIC TOTAL TEMP POTENTIAL TOTALAVG TEMPAVG PRESSURE GPRESSURE VOLUME PRESSAVG GPRESSAVG
ENERGY: 0 2.0161 4.8123 2.0110 0.0000 -10699.6932 1514.0181 0.0000 0.0000 1817.3530 -7359.4828 312.5008 -9176.8358 -7359.4828 312.5008 473.6219 543.6739 29784.1981 473.6219 543.6739
ENERGY: 300000 3.6712 3.8245 1.5782 0.0000 -10438.0820 1390.1495 0.0000 0.0000 1733.1846 -7305.6740 298.0277 -9038.8586 -7328.5151 302.6410 -405.4563 -294.4079 30430.5206 1.3440 65.4678
ENERGY: 600000 1.6377 4.4707 4.0346 0.0000 -10561.6986 1442.7259 0.0000 0.0000 1717.9666 -7390.8631 295.4109 -9108.8297 -7343.3702 300.7436 -157.4029 -64.6967 30225.2192 -35.3515 25.4584
ENERGY: 900000 3.9236 4.3147 1.0370 0.0000 -10564.5381 1440.3858 0.0000 0.0000 1769.4132 -7345.4639 304.2574 -9114.8771 -7341.2772 301.8424 37.4525 89.8913 29777.2247 -107.9524 -48.2536
ENERGY: 1200000 2.9857 4.6741 2.7042 0.0000 -10495.5101 1450.2894 0.0000 0.0000 1759.8404 -7275.0164 302.6113 -9034.8568 -7334.9535 302.4276 510.9349 535.6467 29751.5950 -76.7214 -20.7825
ENERGY: 1500000 2.0996 2.7251 1.0224 0.0000 -10497.9454 1422.2653 0.0000 0.0000 1807.6950 -7262.1379 310.8401 -9069.8329 -7324.4506 303.4448 -61.2031 41.3372 30010.2708 -125.3963 -65.7219
TCL: Running FEP window   6: Lambda1 0.25   Lambda2 0.3    [dLambda 0.04999999999999999]
TCL: Setting parameter firsttimestep to 0
TCL: Setting parameter alchLambda to 0.25
Info: NONBONDED TABLE R-SQUARED SPACING: 0.0625
Info: NONBONDED TABLE SIZE: 705 POINTS
TCL: Setting parameter alchLambda2 to 0.3
Info: NONBONDED TABLE R-SQUARED SPACING: 0.0625
Info: NONBONDED TABLE SIZE: 705 POINTS
TCL: Running for 1500000 steps
ETITLE: TS BOND ANGLE DIHED IMPRP ELECT VDW BOUNDARY MISC KINETIC TOTAL TEMP POTENTIAL TOTALAVG TEMPAVG PRESSURE GPRESSURE VOLUME PRESSAVG GPRESSAVG
ENERGY: 0 2.0996 2.7251 1.0224 0.0000 -10497.9462 1422.4085 0.0000 0.0000 1806.8083 -7262.8821 310.6876 -9069.6905 -7262.8821 310.6876 -52.2312 45.2177 30010.2708 -52.2312 45.2177
ENERGY: 300000 0.9921 3.7687 3.0926 0.0000 -10670.6439 1501.7402 0.0000 0.0000 1766.9201 -7394.1302 303.8287 -9161.0503 -7303.5152 306.2748 772.9415 865.0832 29389.5438 249.8008 339.9903
ENERGY: 600000 6.1442 4.0023 2.4279 0.0000 -10548.5597 1438.2745 0.0000 0.0000 1780.9652 -7316.7455 306.2438 -9097.7108 -7315.2364 306.7755 274.2932 288.3758 29632.1474 349.1622 420.6040
ENERGY: 900000 0.7759 3.3870 1.3237 0.0000 -10515.8012 1447.5694 0.0000 0.0000 1741.9196 -7320.8256 299.5297 -9062.7452 -7322.2493 304.1901 217.1705 293.1216 29941.7895 353.6420 419.4273
ENERGY: 1200000 2.2926 5.0005 1.8673 0.0000 -10460.2117 1359.4410 0.0000 0.0000 1745.5740 -7346.0363 300.1581 -9091.6103 -7335.3876 303.6594 -611.9715 -487.7056 29804.4417 218.0849 286.5807
ENERGY: 1500000 3.2775 3.6232 0.7432 0.0000 -10403.0276 1386.2514 0.0000 0.0000 1811.9322 -7197.2000 311.5687 -9009.1322 -7338.6058 303.7018 -51.1350 2.0742 30166.9240 176.7101 242.7378
TCL: Running FEP window   7: Lambda1 0.3    Lambda2 0.35   [dLambda 0.04999999999999999]
TCL: Setting parameter firsttimestep to 0
TCL: Setting parameter alchLambda to 0.3
Info: NONBONDED TABLE R-SQUARED SPACING: 0.0625
Info: NONBONDED TABLE SIZE: 705 POINTS
TCL: Setting parameter alchLambda2 to 0.35
Info: NONBONDED TABLE R-SQUARED SPACING: 0.0625
Info: NONBONDED TABLE SIZE: 705 POINTS
TCL: Running for 1500000 steps
ETITLE: TS BOND ANGLE DIHED IMPRP ELECT VDW BOUNDARY MISC KINETIC TOTAL TEMP POTENTIAL TOTALAVG TEMPAVG PRESSURE GPRESSURE VOLUME PRESSAVG GPRESSAVG
ENERGY: 0 3.2775 3.6232 0.7432 0.0000 -10403.0276 1386.7223 0.0000 0.0000 1811.0790 -7197.5823 311.4220 -9008.6613 -7197.5823 311.4220 -75.4804 8.9095 30166.9240 -75.4804 8.9095
ENERGY: 300000 1.9200 1.6081 1.7872 0.0000 -10404.6514 1310.9612 0.0000 0.0000 1744.2054 -7344.1695 299.9228 -9088.3749 -7309.7227 303.7346 -963.0708 -918.4267 30325.6169 -424.1888 -353.6865
ENERGY: 600000 3.2538 2.3851 2.1606 0.0000 -10439.7024 1362.1417 0.0000 0.0000 1734.4999 -7335.2612 298.2539 -9069.7611 -7341.8075 301.8509 -477.1557 -391.4919 30304.9794 -342.5952 -268.4783
ENERGY: 900000 6.9539 4.4879 0.7239 0.0000 -10583.5440 1468.3700 0.0000 0.0000 1735.6874 -7367.3208 298.4581 -9103.0083 -7340.7317 302.7131 475.2436 521.0993 29526.4815 -309.1857 -240.0919
ENERGY: 1200000 1.6796 1.9917 1.0622 0.0000 -10617.6741 1524.4863 0.0000 0.0000 1733.1101 -7355.3443 298.0149 -9088.4544 -7332.7854 301.9964 848.5168 933.4194 29767.8774 -179.5715 -107.8957
ENERGY: 1500000 1.7646 5.8927 1.6145 0.0000 -10599.1758 1409.2079 0.0000 0.0000 1764.6758 -7416.0203 303.4428 -9180.6961 -7346.2185 301.2443 -322.1529 -254.6251 29955.0982 -207.7093 -137.0129
TCL: Running FEP window   8: Lambda1 0.35   Lambda2 0.39999999999999997 [dLambda 0.04999999999999999]
TCL: Setting parameter firsttimestep to 0
TCL: Setting parameter alchLambda to 0.35
Info: NONBONDED TABLE R-SQUARED SPACING: 0.0625
Info: NONBONDED TABLE SIZE: 705 POINTS
TCL: Setting parameter alchLambda2 to 0.39999999999999997
Info: NONBONDED TABLE R-SQUARED SPACING: 0.0625
Info: NONBONDED TABLE SIZE: 705 POINTS
TCL: Running for 1500000 steps
ETITLE: TS BOND ANGLE DIHED IMPRP ELECT VDW BOUNDARY MISC KINETIC TOTAL TEMP POTENTIAL TOTALAVG TEMPAVG PRESSURE GPRESSURE VOLUME PRESSAVG GPRESSAVG
ENERGY: 0 1.7646 5.8927 1.6145 0.0000 -10599.1766 1410.3462 0.0000 0.0000 1763.8212 -7415.7375 303.2958 -9179.5587 -7415.7375 303.2958 -338.4285 -247.0182 29955.0982 -338.4285 -247.0182
ENERGY: 300000 1.9452 3.6387 1.2074 0.0000 -10590.7041 1415.1911 0.0000 0.0000 1652.3781 -7516.3435 284.1327 -9168.7216 -7408.6047 295.1874 -127.4093 -104.8972 29666.4159 -146.9177 -110.8233
ENERGY: 600000 2.7681 3.5829 2.1673 0.0000 -10612.1923 1485.8298 0.0000 0.0000 1730.3002 -7387.5441 297.5317 -9117.8443 -7388.9967 296.8811 230.2537 363.0575 30167.4826 -369.1010 -312.7267
ENERGY: 900000 1.6983 2.6424 1.7875 0.0000 -10509.9552 1428.2849 0.0000 0.0000 1742.3100 -7333.2321 299.5969 -9075.5422 -7370.7320 297.6300 -16.5053 -30.6724 30542.1030 -306.0123 -260.7902
ENERGY: 1200000 2.7755 3.1756 0.5812 0.0000 -10529.5885 1425.1797 0.0000 0.0000 1764.1615 -7333.7149 303.3543 -9097.8764 -7364.4135 299.0791 -384.2262 -246.1079 30502.6448 -244.9084 -193.1740
ENERGY: 1500000 3.7008 4.0251 2.2218 0.0000 -10511.1651 1361.5286 0.0000 0.0000 1749.4357 -7390.2531 300.8222 -9139.6888 -7363.1221 299.8366 -615.2399 -552.0484 30140.1653 -249.6724 -202.5102
TCL: Running FEP window   9: Lambda1 0.39999999999999997 Lambda2 0.44999999999999996 [dLambda 0.04999999999999999]
TCL: Setting parameter firsttimestep to 0
TCL: Setting parameter alchLambda to 0.39999999999999997
Info: NONBONDED TABLE R-SQUARED SPACING: 0.0625
Info: NONBONDED TABLE SIZE: 705 POINTS
TCL: Setting parameter alchLambda2 to 0.44999999999999996
Info: NONBONDED TABLE R-SQUARED SPACING: 0.0625
Info: NONBONDED TABLE SIZE: 705 POINTS
TCL: Running for 1500000 steps
ETITLE: TS BOND ANGLE DIHED IMPRP ELECT VDW BOUNDARY MISC KINETIC TOTAL TEMP POTENTIAL TOTALAVG TEMPAVG PRESSURE GPRESSURE VOLUME PRESSAVG GPRESSAVG
ENERGY: 0 3.7008 4.0251 2.2218 0.0000 -10511.1657 1361.3915 0.0000 0.0000 1748.6036 -7391.2230 300.6791 -9139.8266 -7391.2230 300.6791 -641.0206 -552.2823 30140.1653 -641.0206 -552.2823
ENERGY: 300000 1.1472 3.0456 1.7822 0.0000 -10574.0644 1400.5383 0.0000 0.0000 1751.4983 -7416.0528 301.1769 -9167.5512 -7370.9856 302.5898 -496.0096 -409.9841 30425.9638 -90.2704 -9.1598
ENERGY: 600000 4.2280 4.0706 0.8655 0.0000 -10502.4348 1395.9134 0.0000 0.0000 1749.1667 -7348.1906 300.7759 -9097.3573 -7388.2036 302.2794 -450.4199 -411.6289 30266.3787 76.9578 135.4575
ENERGY: 900000 2.5347 2.2452 1.1722 0.0000 -10657.6523 1463.3697 0.0000 0.0000 1739.9658 -7448.3648 299.1938 -9188.3306 -7400.5249 300.6021 223.6702 281.9524 29653.6450 175.9355 233.8138
ENERGY: 1200000 2.0943 3.4310 2.5486 0.0000 -10516.7764 1481.0976 0.0000 0.0000 1726.9356 -7300.6694 296.9532 -9027.6049 -7394.2817 300.1383 422.6998 456.5453 30471.3710 170.6225 225.8916
ENERGY: 1500000 2.9234 4.6731 3.2719 0.0000 -10511.5093 1420.9100 0.0000 0.0000 1823.4476 -7256.2833 313.5488 -9079.7309 -7379.2497 300.9132 -78.7332 -20.3385 30250.6076 54.1405 112.4274
TCL: Running FEP window  10: Lambda1 0.44999999999999996 Lambda2 0.49999999999999994 [dLambda 0.04999999999999999]
TCL: Setting parameter firsttimestep to 0
TCL: Setting parameter alchLambda to 0.44999999999999996
Info: NONBONDED TABLE R-SQUARED SPACING: 0.0625
Info: NONBONDED TABLE SIZE: 705 POINTS
TCL: Setting parameter alchLambda2 to 0.49999999999999994
Info: NONBONDED TABLE R-SQUARED SPACING: 0.0625
Info: NONBONDED TABLE SIZE: 705 POINTS
TCL: Running for 1500000 steps
ETITLE: TS BOND ANGLE DIHED IMPRP ELECT VDW BOUNDARY MISC KINETIC TOTAL TEMP POTENTIAL TOTALAVG TEMPAVG PRESSURE GPRESSURE VOLUME PRESSAVG GPRESSAVG
ENERGY: 0 2.9234 4.6731 3.2719 0.0000 -10511.5106 1420.8590 0.0000 0.0000 1822.6096 -7257.1737 313.4047 -9079.7833 -7257.1737 313.4047 -81.5865 -13.5409 30250.6076 -81.5865 -13.5409
ENERGY: 300000 1.1889 2.8439 2.3269 0.0000 -10366.2777 1320.3291 0.0000 0.0000 1760.9184 -7278.6704 302.7967 -9039.5889 -7324.4883 302.8709 -710.3263 -604.6050 30548.5197 -385.7178 -314.4398
ENERGY: 600000 4.2794 1.7481 1.5556 0.0000 -10591.4632 1390.6928 0.0000 0.0000 1720.2276 -7472.9596 295.7997 -9193.1872 -7355.3051 302.1119 -641.6970 -556.9993 30545.3655 -254.2606 -185.4952
ENERGY: 900000 3.0579 3.4307 2.1442 0.0000 -10480.2979 1432.8489 0.0000 0.0000 1782.1370 -7256.6794 306.4453 -9038.8164 -7343.8871 302.2604 227.3746 251.7198 30120.3239 -92.3981 -30.2518
ENERGY: 1200000 1.2657 1.5181 1.5757 0.0000 -10468.7609 1398.3948 0.0000 0.0000 1770.5431 -7295.4636 304.4517 -9066.0066 -7339.7087 302.0989 -368.7576 -267.0741 30740.5584 -80.5062 -11.6801
ENERGY: 1500000 5.0058 2.0109 1.9718 0.0000 -10475.7803 1453.0579 0.0000 0.0000 1738.3182 -7275.4157 298.9105 -9013.7339 -7337.6761 301.7995 543.0843 569.5009 30047.6450 -55.0794 8.0722
TCL: Running FEP window  11: Lambda1 0.49999999999999994 Lambda2 0.5499999999999999 [dLambda 0.04999999999999999]
TCL: Setting parameter firsttimestep to 0
TCL: Setting parameter alchLambda to 0.49999999999999994
Info: NONBONDED TABLE R-SQUARED SPACING: 0.0625
Info: NONBONDED TABLE SIZE: 705 POINTS
TCL: Setting parameter alchLambda2 to 0.5499999999999999
Info: NONBONDED TABLE R-SQUARED SPACING: 0.0625
Info: NONBONDED TABLE SIZE: 705 POINTS
TCL: Running for 1500000 steps
ETITLE: TS BOND ANGLE DIHED IMPRP ELECT VDW BOUNDARY MISC KINETIC TOTAL TEMP POTENTIAL TOTALAVG TEMPAVG PRESSURE GPRESSURE VOLUME PRESSAVG GPRESSAVG
ENERGY: 0 5.0058 2.0109 1.9718 0.0000 -10475.7808 1452.6595 0.0000 0.0000 1737.4582 -7276.6745 298.7626 -9014.1327 -7276.6745 298.7626 488.6140 568.9173 30047.6450 488.6140 568.9173
ENERGY: 300000 4.4922 5.6061 0.6808 0.0000 -10565.3150 1389.6731 0.0000 0.0000 1672.8226 -7492.0403 287.6483 -9164.8629 -7414.2419 294.6938 -559.5582 -484.8144 29814.3953 -114.8744 -43.2506
ENERGY: 600000 3.2753 2.1866 3.2275 0.0000 -10487.9568 1386.1791 0.0000 0.0000 1694.8129 -7398.2755 291.4296 -9093.0884 -7390.9584 293.7254 -728.7555 -622.0526 30485.6533 -292.3822 -221.0521
ENERGY: 900000 3.8807 3.5820 3.2805 0.0000 -10503.3784 1348.6406 0.0000 0.0000 1686.6697 -7457.3250 290.0293 -9143.9947 -7383.1470 295.9155 -901.1325 -865.5388 30193.2953 -307.0605 -264.3475
ENERGY: 1200000 4.3412 3.5286 3.2325 0.0000 -10465.1144 1383.0204 0.0000 0.0000 1749.0628 -7321.9288 300.7581 -9070.9916 -7369.9605 297.7872 -290.1222 -216.7043 30189.8903 -243.3031 -208.4732
ENERGY: 1500000 3.0056 3.2531 2.4085 0.0000 -10596.9591 1439.4016 0.0000 0.0000 1681.5204 -7467.3698 289.1439 -9148.8902 -7380.0771 298.0083 4.1913 18.3203 30053.2465 -120.1606 -81.9040
TCL: Running FEP window  12: Lambda1 0.5499999999999999 Lambda2 0.6    [dLambda 0.050000000000000044]
TCL: Setting parameter firsttimestep to 0
TCL: Setting parameter alchLambda to 0.5499999999999999
Info: NONBONDED TABLE R-SQUARED SPACING: 0.0625
Info: NONBONDED TABLE SIZE: 705 POINTS
TCL: Setting parameter alchLambda2 to 0.6
Info: NONBONDED TABLE R-SQUARED SPACING: 0.0625
Info: NONBONDED TABLE SIZE: 705 POINTS
TCL: Running for 1500000 steps
ETITLE: TS BOND ANGLE DIHED IMPRP ELECT VDW BOUNDARY MISC KINETIC TOTAL TEMP POTENTIAL TOTALAVG TEMPAVG PRESSURE GPRESSURE VOLUME PRESSAVG GPRESSAVG
ENERGY: 0 3.0056 3.2531 2.4085 0.0000 -10596.9505 1438.8415 0.0000 0.0000 1680.6563 -7468.7854 288.9953 -9149.4418 -7468.7854 288.9953 -56.3133 17.8764 30053.2465 -56.3133 17.8764
ENERGY: 300000 2.5034 3.1065 1.2951 0.0000 -10375.4134 1325.5185 0.0000 0.0000 1740.5168 -7302.4730 299.2885 -9042.9898 -7383.0784 297.1573 -642.1918 -624.9385 30279.1130 -347.6525 -293.3655
ENERGY: 600000 3.9614 3.8859 1.0511 0.0000 -10579.3009 1472.5379 0.0000 0.0000 1730.0648 -7367.7999 297.4913 -9097.8647 -7385.2320 297.0758 6.3575 69.9294 30870.7909 -123.6534 -72.5743
ENERGY: 900000 1.5831 4.1895 2.8798 0.0000 -10591.7147 1442.1778 0.0000 0.0000 1760.8496 -7380.0348 302.7848 -9140.8844 -7385.3797 297.7912 287.7054 307.1042 29886.8656 -166.4649 -108.7551
ENERGY: 1200000 2.3931 2.7110 2.5382 0.0000 -10529.7468 1411.7461 0.0000 0.0000 1763.3765 -7346.9819 303.2193 -9110.3584 -7376.3546 298.6816 -17.2803 107.8077 29713.7173 -172.9825 -110.4508
ENERGY: 1500000 1.9154 3.1982 0.6665 0.0000 -10539.5991 1448.7109 0.0000 0.0000 1706.2594 -7378.8487 293.3978 -9085.1082 -7373.2198 297.7481 -140.4684 -89.3402 30432.4935 -189.1752 -128.8201
TCL: Running FEP window  13: Lambda1 0.6    Lambda2 0.65   [dLambda 0.050000000000000044]
TCL: Setting parameter firsttimestep to 0
TCL: Setting parameter alchLambda to 0.6
Info: NONBONDED TABLE R-SQUARED SPACING: 0.0625
Info: NONBONDED TABLE SIZE: 705 POINTS
TCL: Setting parameter alchLambda2 to 0.65
Info: NONBONDED TABLE R-SQUARED SPACING: 0.0625
Info: NONBONDED TABLE SIZE: 705 POINTS
TCL: Running for 1500000 steps
ETITLE: TS BOND ANGLE DIHED IMPRP ELECT VDW BOUNDARY MISC KINETIC TOTAL TEMP POTENTIAL TOTALAVG TEMPAVG PRESSURE GPRESSURE VOLUME PRESSAVG GPRESSAVG
ENERGY: 0 1.9154 3.1982 0.6665 0.0000 -10539.4842 1448.7188 0.0000 0.0000 1705.3923 -7379.5930 293.2487 -9084.9853 -7379.5930 293.2487 -168.7025 -80.0064 30432.4935 -168.7025 -80.0064
ENERGY: 300000 1.2247 8.7777 1.8263 0.0000 -10543.9454 1467.7872 0.0000 0.0000 1738.8789 -7325.4507 299.0069 -9064.3295 -7366.2950 295.8209 395.5711 463.4028 30415.0049 113.8369 163.4352
ENERGY: 600000 2.5479 3.5417 0.1428 0.0000 -10534.6698 1431.3018 0.0000 0.0000 1750.0147 -7347.1209 300.9217 -9097.1356 -7357.7922 298.8899 -146.4893 -55.8571 30029.7241 153.4132 205.2467
ENERGY: 900000 1.1270 4.3745 0.8203 0.0000 -10424.7438 1364.9606 0.0000 0.0000 1707.6188 -7345.8426 293.6316 -9053.4614 -7346.7632 300.1229 -364.4935 -370.2606 30380.5318 84.6253 130.2161
ENERGY: 1200000 1.8751 3.6190 1.4150 0.0000 -10540.2083 1422.1153 0.0000 0.0000 1740.3233 -7370.8607 299.2553 -9111.1840 -7359.7306 298.9904 251.3660 278.4651 29626.2983 79.4103 126.7055
ENERGY: 1500000 2.4250 2.3445 5.7789 0.0000 -10458.1650 1386.3876 0.0000 0.0000 1783.4143 -7277.8148 306.6649 -9061.2291 -7355.9608 299.1276 -246.6872 -159.6710 29999.6889 127.0733 176.1889
TCL: Running FEP window  14: Lambda1 0.65   Lambda2 0.7000000000000001 [dLambda 0.050000000000000044]
TCL: Setting parameter firsttimestep to 0
TCL: Setting parameter alchLambda to 0.65
Info: NONBONDED TABLE R-SQUARED SPACING: 0.0625
Info: NONBONDED TABLE SIZE: 705 POINTS
TCL: Setting parameter alchLambda2 to 0.7000000000000001
Info: NONBONDED TABLE R-SQUARED SPACING: 0.0625
Info: NONBONDED TABLE SIZE: 705 POINTS
TCL: Running for 1500000 steps
ETITLE: TS BOND ANGLE DIHED IMPRP ELECT VDW BOUNDARY MISC KINETIC TOTAL TEMP POTENTIAL TOTALAVG TEMPAVG PRESSURE GPRESSURE VOLUME PRESSAVG GPRESSAVG
ENERGY: 0 2.4250 2.3445 5.7789 0.0000 -10458.7684 1386.6503 0.0000 0.0000 1782.5401 -7279.0296 306.5146 -9061.5697 -7279.0296 306.5146 -242.3881 -153.1294 29999.6889 -242.3881 -153.1294
ENERGY: 300000 6.2262 3.0667 0.7354 0.0000 -10433.5942 1299.7640 0.0000 0.0000 1743.5865 -7380.2154 299.8164 -9123.8018 -7350.7088 300.0533 -947.6532 -869.7077 29941.6526 -380.0153 -300.6471
ENERGY: 600000 2.8448 2.9399 1.3635 0.0000 -10625.0578 1415.6245 0.0000 0.0000 1747.0146 -7455.2705 300.4059 -9202.2851 -7377.7760 299.6365 -343.7419 -261.3904 29824.1248 -376.5251 -302.7112
ENERGY: 900000 1.2118 4.7088 0.9042 0.0000 -10604.0466 1493.8914 0.0000 0.0000 1744.2298 -7359.1005 299.9270 -9103.3303 -7367.7855 300.5851 511.0134 527.2547 30076.9853 -127.0814 -65.7780
ENERGY: 1200000 2.6925 5.3009 0.7860 0.0000 -10702.8069 1556.4315 0.0000 0.0000 1736.1716 -7401.4243 298.5414 -9137.5959 -7377.0351 299.4274 1198.4185 1240.5506 29582.1351 -40.6162 28.9167
ENERGY: 1500000 2.7276 5.4079 3.3683 0.0000 -10607.2357 1464.7986 0.0000 0.0000 1685.0108 -7445.9225 289.7441 -9130.9333 -7382.9435 299.0002 385.3294 438.8697 29763.1733 40.2856 101.6025
TCL: Running FEP window  15: Lambda1 0.7000000000000001 Lambda2 0.7500000000000001 [dLambda 0.050000000000000044]
TCL: Setting parameter firsttimestep to 0
TCL: Setting parameter alchLambda to 0.7000000000000001
Info: NONBONDED TABLE R-SQUARED SPACING: 0.0625
Info: NONBONDED TABLE SIZE: 705 POINTS
TCL: Setting parameter alchLambda2 to 0.7500000000000001
Info: NONBONDED TABLE R-SQUARED SPACING: 0.0625
Info: NONBONDED TABLE SIZE: 705 POINTS
TCL: Running for 1500000 steps
ETITLE: TS BOND ANGLE DIHED IMPRP ELECT VDW BOUNDARY MISC KINETIC TOTAL TEMP POTENTIAL TOTALAVG TEMPAVG PRESSURE GPRESSURE VOLUME PRESSAVG GPRESSAVG
ENERGY: 0 2.7275 5.4079 3.3683 0.0000 -10607.2228 1464.8913 0.0000 0.0000 1684.1200 -7446.7078 289.5909 -9130.8278 -7446.7078 289.5909 363.4764 447.7339 29763.1733 363.4764 447.7339
ENERGY: 300000 0.3062 4.2761 2.0071 0.0000 -10541.2081 1404.6681 0.0000 0.0000 1696.5477 -7433.4029 291.7279 -9129.9506 -7415.6674 293.2012 -134.8020 -98.0544 30003.8407 -39.9197 23.6846
ENERGY: 600000 1.2842 4.7107 1.0653 0.0000 -10569.2835 1392.1119 0.0000 0.0000 1745.4189 -7424.6925 300.1315 -9170.1114 -7416.2413 294.6245 -647.6800 -585.9002 30464.5663 -201.7534 -133.3961
ENERGY: 900000 4.8491 1.8424 2.5685 0.0000 -10552.5367 1397.1634 0.0000 0.0000 1820.6153 -7325.4980 313.0618 -9146.1134 -7382.4645 297.5007 -447.1307 -352.1559 30063.9959 -204.4347 -133.2874
ENERGY: 1200000 1.5001 3.2301 1.6571 0.0000 -10600.7359 1422.3500 0.0000 0.0000 1781.1890 -7390.8096 306.2823 -9171.9986 -7369.3979 298.7481 -173.7010 -59.6297 29838.3544 -275.8903 -205.7409
ENERGY: 1500000 3.5191 2.9111 1.5227 0.0000 -10534.7761 1429.3308 0.0000 0.0000 1693.5607 -7403.9316 291.2143 -9097.4923 -7371.3582 299.6125 121.4557 197.7767 29928.1377 -258.9622 -184.6349
TCL: Running FEP window  16: Lambda1 0.7500000000000001 Lambda2 0.8000000000000002 [dLambda 0.050000000000000044]
TCL: Setting parameter firsttimestep to 0
TCL: Setting parameter alchLambda to 0.7500000000000001
Info: NONBONDED TABLE R-SQUARED SPACING: 0.0625
Info: NONBONDED TABLE SIZE: 705 POINTS
TCL: Setting parameter alchLambda2 to 0.8000000000000002
Info: NONBONDED TABLE R-SQUARED SPACING: 0.0625
Info: NONBONDED TABLE SIZE: 705 POINTS
TCL: Running for 1500000 steps
ETITLE: TS BOND ANGLE DIHED IMPRP ELECT VDW BOUNDARY MISC KINETIC TOTAL TEMP POTENTIAL TOTALAVG TEMPAVG PRESSURE GPRESSURE VOLUME PRESSAVG GPRESSAVG
ENERGY: 0 3.5191 2.9111 1.5227 0.0000 -10535.9006 1429.2531 0.0000 0.0000 1692.6989 -7405.9957 291.0661 -9098.6946 -7405.9957 291.0661 108.2702 201.6560 29928.1377 108.2702 201.6560
ENERGY: 300000 2.4666 2.4724 2.3743 0.0000 -10454.9469 1377.8641 0.0000 0.0000 1746.4131 -7323.3564 300.3024 -9069.7695 -7349.6733 301.6877 -480.2398 -385.7745 30372.4190 -40.6980 23.7567
ENERGY: 600000 3.3362 3.1056 1.1417 0.0000 -10527.1317 1414.2148 0.0000 0.0000 1764.9469 -7340.3865 303.4894 -9105.3333 -7358.8134 299.9123 -18.8327 39.9710 29752.5447 -62.3114 -10.3631
ENERGY: 900000 2.4467 5.6957 2.3552 0.0000 -10604.1499 1490.8716 0.0000 0.0000 1701.9957 -7400.7850 292.6647 -9102.7807 -7358.7267 299.6045 459.5698 572.4772 29984.3986 -53.7563 -0.2212
ENERGY: 1200000 1.3238 3.8724 3.2108 0.0000 -10458.7352 1364.0727 0.0000 0.0000 1739.1247 -7347.1309 299.0492 -9086.2556 -7353.6022 300.1713 -668.0204 -562.6396 30355.3557 -54.0348 -7.4166
ENERGY: 1500000 1.0885 1.9050 3.4505 0.0000 -10663.1294 1507.2319 0.0000 0.0000 1703.6603 -7445.7932 292.9509 -9149.4535 -7351.7249 299.7128 644.2831 687.5473 29956.1580 -43.9905 2.7389
TCL: Running FEP window  17: Lambda1 0.8000000000000002 Lambda2 0.8500000000000002 [dLambda 0.050000000000000044]
TCL: Setting parameter firsttimestep to 0
TCL: Setting parameter alchLambda to 0.8000000000000002
Info: NONBONDED TABLE R-SQUARED SPACING: 0.0625
Info: NONBONDED TABLE SIZE: 705 POINTS
TCL: Setting parameter alchLambda2 to 0.8500000000000002
Info: NONBONDED TABLE R-SQUARED SPACING: 0.0625
Info: NONBONDED TABLE SIZE: 705 POINTS
TCL: Running for 1500000 steps
ETITLE: TS BOND ANGLE DIHED IMPRP ELECT VDW BOUNDARY MISC KINETIC TOTAL TEMP POTENTIAL TOTALAVG TEMPAVG PRESSURE GPRESSURE VOLUME PRESSAVG GPRESSAVG
ENERGY: 0 1.0885 1.9050 3.4505 0.0000 -10664.7127 1507.5297 0.0000 0.0000 1702.7779 -7447.9611 292.7992 -9150.7389 -7447.9611 292.7992 610.4212 696.2334 29956.1580 610.4212 696.2334
ENERGY: 300000 1.0431 2.7642 1.6284 0.0000 -10517.7546 1374.0637 0.0000 0.0000 1726.3910 -7411.8642 296.8596 -9138.2552 -7377.8950 297.7550 -348.9379 -304.1614 29894.5542 -23.0031 64.4323
ENERGY: 600000 3.0062 5.7750 1.6565 0.0000 -10456.0585 1431.5585 0.0000 0.0000 1767.9769 -7246.0854 304.0104 -9014.0623 -7360.0878 297.8978 386.2600 482.9200 29973.7728 -87.2981 -20.1632
ENERGY: 900000 3.5212 3.5657 2.1653 0.0000 -10487.6411 1411.0967 0.0000 0.0000 1732.1746 -7335.1176 297.8541 -9067.2922 -7361.5091 297.9123 -105.3312 -34.0331 30134.4835 21.8197 89.0202
ENERGY: 1200000 1.9415 8.2388 1.4427 0.0000 -10662.4584 1507.7031 0.0000 0.0000 1796.9896 -7346.1427 308.9992 -9143.1323 -7369.4238 298.8229 343.8894 401.1140 30214.5414 -28.2073 47.1006
ENERGY: 1500000 5.8976 3.5428 0.9264 0.0000 -10484.4855 1417.0360 0.0000 0.0000 1726.8349 -7330.2478 296.9359 -9057.0827 -7363.2195 298.7840 196.6953 223.8436 29929.9562 -76.0097 -5.2355
TCL: Running FEP window  18: Lambda1 0.8500000000000002 Lambda2 0.9000000000000002 [dLambda 0.050000000000000044]
TCL: Setting parameter firsttimestep to 0
TCL: Setting parameter alchLambda to 0.8500000000000002
Info: NONBONDED TABLE R-SQUARED SPACING: 0.0625
Info: NONBONDED TABLE SIZE: 705 POINTS
TCL: Setting parameter alchLambda2 to 0.9000000000000002
Info: NONBONDED TABLE R-SQUARED SPACING: 0.0625
Info: NONBONDED TABLE SIZE: 705 POINTS
TCL: Running for 1500000 steps
ETITLE: TS BOND ANGLE DIHED IMPRP ELECT VDW BOUNDARY MISC KINETIC TOTAL TEMP POTENTIAL TOTALAVG TEMPAVG PRESSURE GPRESSURE VOLUME PRESSAVG GPRESSAVG
ENERGY: 0 5.8976 3.5428 0.9264 0.0000 -10485.9996 1417.3081 0.0000 0.0000 1725.9575 -7332.3671 296.7850 -9058.3247 -7332.3671 296.7850 148.8707 233.2439 29929.9562 148.8707 233.2439
ENERGY: 300000 2.7267 4.3697 1.4842 0.0000 -10556.4252 1444.8170 0.0000 0.0000 1707.7295 -7395.2981 293.6506 -9103.0276 -7370.2596 296.7381 -71.8154 -45.9950 30611.2145 77.6891 131.3850
ENERGY: 600000 2.4480 3.8738 1.0579 0.0000 -10579.4522 1391.2130 0.0000 0.0000 1781.9588 -7398.9006 306.4146 -9180.8594 -7372.6800 298.4003 -355.5183 -290.4332 29798.6494 59.8590 118.6425
ENERGY: 900000 2.1322 4.1911 3.3576 0.0000 -10622.6806 1441.3132 0.0000 0.0000 1691.4017 -7480.2848 290.8430 -9171.6865 -7384.7758 298.9225 90.4301 105.4002 29713.9560 107.7472 152.8532
ENERGY: 1200000 3.0336 1.9251 0.2831 0.0000 -10504.4448 1415.5157 0.0000 0.0000 1724.2632 -7359.4241 296.4937 -9083.6874 -7369.4590 300.1729 -30.3836 -25.1230 30210.3564 49.0675 88.7721
ENERGY: 1500000 3.0638 2.2951 1.6864 0.0000 -10401.9173 1258.1614 0.0000 0.0000 1756.1710 -7380.5395 301.9803 -9136.7105 -7376.6006 300.4209 -1369.6408 -1329.9708 30450.8399 -120.1271 -75.2453
TCL: Running FEP window  19: Lambda1 0.9000000000000002 Lambda2 0.9500000000000003 [dLambda 0.050000000000000044]
TCL: Setting parameter firsttimestep to 0
TCL: Setting parameter alchLambda to 0.9000000000000002
Info: NONBONDED TABLE R-SQUARED SPACING: 0.0625
Info: NONBONDED TABLE SIZE: 705 POINTS
TCL: Setting parameter alchLambda2 to 0.9500000000000003
Info: NONBONDED TABLE R-SQUARED SPACING: 0.0625
Info: NONBONDED TABLE SIZE: 705 POINTS
TCL: Running for 1500000 steps
ETITLE: TS BOND ANGLE DIHED IMPRP ELECT VDW BOUNDARY MISC KINETIC TOTAL TEMP POTENTIAL TOTALAVG TEMPAVG PRESSURE GPRESSURE VOLUME PRESSAVG GPRESSAVG
ENERGY: 0 3.0638 2.2951 1.6864 0.0000 -10403.1741 1258.5923 0.0000 0.0000 1755.3397 -7382.1967 301.8374 -9137.5365 -7382.1967 301.8374 -1410.3279 -1320.4145 30450.8399 -1410.3279 -1320.4145
ENERGY: 300000 2.5673 4.4446 5.4820 0.0000 -10472.6887 1361.9185 0.0000 0.0000 1745.3308 -7352.9455 300.1163 -9098.2764 -7340.1580 304.1052 -732.7700 -654.2938 30543.2495 -596.3562 -524.5282
ENERGY: 600000 6.0909 4.7309 1.6753 0.0000 -10444.3805 1331.0906 0.0000 0.0000 1692.8857 -7407.9071 291.0982 -9100.7928 -7371.6774 300.3592 -838.0595 -746.6070 29936.1218 -500.1258 -429.1246
ENERGY: 900000 1.8283 3.0959 3.9342 0.0000 -10521.8358 1326.6280 0.0000 0.0000 1736.1894 -7450.1600 298.5444 -9186.3494 -7363.9724 300.6925 -1190.4144 -1060.8477 30483.9383 -490.7897 -415.3685
ENERGY: 1200000 2.8378 1.6922 1.1257 0.0000 -10532.0887 1376.2368 0.0000 0.0000 1746.1207 -7404.0756 300.2522 -9150.1963 -7372.9824 299.8647 -819.2259 -774.7865 30709.4521 -384.3247 -309.2284
ENERGY: 1500000 4.8406 3.7278 3.1730 0.0000 -10489.8708 1387.6255 0.0000 0.0000 1741.2495 -7349.2545 299.4145 -9090.5040 -7375.4812 299.7035 -22.9887 -23.5226 29883.3695 -293.4236 -228.4499
TCL: Running FEP window  20: Lambda1 0.9500000000000003 Lambda2 1.0    [dLambda 0.04999999999999971]
TCL: Setting parameter firsttimestep to 0
TCL: Setting parameter alchLambda to 0.9500000000000003
Info: NONBONDED TABLE R-SQUARED SPACING: 0.0625
Info: NONBONDED TABLE SIZE: 705 POINTS
TCL: Setting parameter alchLambda2 to 1.0
Info: NONBONDED TABLE R-SQUARED SPACING: 0.0625
Info: NONBONDED TABLE SIZE: 705 POINTS
TCL: Running for 1500000 steps
ETITLE: TS BOND ANGLE DIHED IMPRP ELECT VDW BOUNDARY MISC KINETIC TOTAL TEMP POTENTIAL TOTALAVG TEMPAVG PRESSURE GPRESSURE VOLUME PRESSAVG GPRESSAVG
ENERGY: 0 4.8406 3.7278 3.1730 0.0000 -10490.8151 1388.7225 0.0000 0.0000 1740.4548 -7349.8965 299.2779 -9090.3513 -7349.8965 299.2779 -79.0053 -3.2029 29883.3695 -79.0053 -3.2029
ENERGY: 300000 1.0209 3.7797 1.3608 0.0000 -10686.0878 1543.7341 0.0000 0.0000 1792.5798 -7343.6126 308.2410 -9136.1924 -7322.1186 300.1775 1330.1478 1268.0051 29663.7514 113.6747 148.3852
ENERGY: 600000 2.5154 4.8378 2.7042 0.0000 -10520.2845 1411.4524 0.0000 0.0000 1781.9772 -7316.7974 306.4178 -9098.7746 -7336.1084 301.8531 96.6667 107.7294 30103.2728 177.4775 219.0482
ENERGY: 900000 2.9724 3.6020 1.3483 0.0000 -10582.8439 1438.3658 0.0000 0.0000 1742.2663 -7394.2891 299.5894 -9136.5554 -7354.9536 300.0809 35.5490 66.7904 29925.3237 112.9137 151.1670
ENERGY: 1200000 10.2769 1.7728 2.6234 0.0000 -10681.4099 1523.0132 0.0000 0.0000 1781.1980 -7362.5256 306.2838 -9143.7236 -7360.9026 300.2477 429.1551 507.4247 30020.6611 121.3958 171.0663
ENERGY: 1500000 4.5732 3.4117 1.5587 0.0000 -10612.4309 1473.3179 0.0000 0.0000 1719.0634 -7410.5061 295.5995 -9129.5695 -7357.0092 300.4289 53.9681 96.3092 30263.2142 120.2332 171.1229
TCL: Exiting due to exit command.
