Info: SIMULATION PARAMETERS:
Info: TIMESTEP               2
Info: NUMBER OF STEPS        0
Info: STEPS PER CYCLE        10
Info: PERIODIC CELL BASIS 1  29.8165 0 0
Info: PERIODIC CELL BASIS 2  0 31.7725 0
Info: PERIODIC CELL BASIS 3  0 0 31.1379
Info: PERIODIC CELL CENTER   0 0 0
Info: WRAPPING WATERS AROUND PERIODIC BOUNDARIES ON OUTPUT.
Info: WRAPPING ALL CLUSTERS AROUND PERIODIC BOUNDARIES ON OUTPUT.
Info: FIRST LDB TIMESTEP     50
Info: LAST LDB TIMESTEP     -1
Info: HOM BACKGROUND SCALING 1
Info: PME BACKGROUND SCALING 1
Info: MIN ATOMS PER PATCH    40
Info: EMPTY PATCH LOAD       40 ATOMS
Info: VELOCITY FILE          mobley_766666_equil.vel
Info: CENTER OF MASS MOVING INITIALLY? NO
Info: DIELECTRIC             1
Info: EXCLUDE                SCALED ONE-FOUR
Info: 1-4 ELECTROSTATICS SCALED BY 0.833333
Info: MODIFIED 1-4 VDW PARAMETERS WILL BE USED
Info: DCD FILENAME           mobley_766666_prod.dcd
Info: DCD FREQUENCY          100000
Info: DCD FIRST STEP         100000
Info: DCD FILE WILL CONTAIN UNIT CELL DATA
Info: XST FILENAME           mobley_766666_prod.xst
Info: XST FREQUENCY          100000
Info: NO VELOCITY DCD OUTPUT
Info: NO FORCE DCD OUTPUT
Info: OUTPUT FILENAME        mobley_766666_prod
Info: BINARY OUTPUT FILES WILL BE USED
Info: RESTART FILENAME       mobley_766666_prod.restart
Info: RESTART FREQUENCY      100000
Info: BINARY RESTART FILES WILL BE USED
Info: CUTOFF                 9
Info: PAIRLIST DISTANCE      11
Info: PAIRLIST SHRINK RATE   0.01
Info: PAIRLIST GROW RATE     0.01
Info: PAIRLIST TRIGGER       0.3
Info: PAIRLISTS PER CYCLE    2
Info: PAIRLISTS ENABLED
Info: MARGIN                 2
Info: HYDROGEN GROUP CUTOFF  2.5
Info: PATCH DIMENSION        15.5
Info: ENERGY OUTPUT STEPS    100000
Info: ENERGY EVALUATION STEPS    100000
Info: OUTPUT ENERGY PRECISION 4
Info: CROSSTERM ENERGY INCLUDED IN DIHEDRAL
Info: TIMING OUTPUT STEPS    1000000
Info: PRESSURE OUTPUT STEPS  100000
Info: ALCHEMICAL FEP ON
Info: FEP CURRENT LAMBDA VALUE     1
Info: FEP COMPARISON LAMBDA VALUE  0.95
Info: FEP INTRA-ALCHEMICAL NON-BONDED INTERACTIONS WILL BE RETAINED
Info: FEP INTRA-ALCHEMICAL BONDED INTERACTIONS WILL BE RETAINED
Info: FEP VDW SHIFTING COEFFICIENT 5
Info: FEP ELEC. ACTIVE FOR ANNIHILATED PARTICLES BETWEEN LAMBDA = 0 AND LAMBDA = 0.5
Info: FEP ELEC. ACTIVE FOR EXNIHILATED PARTICLES BETWEEN LAMBDA = 0.5 AND LAMBDA = 1
Info: FEP VDW ACTIVE FOR ANNIHILATED PARTICLES BETWEEN LAMBDA = 0 AND LAMBDA = 1
Info: FEP VDW ACTIVE FOR EXNIHILATED PARTICLES BETWEEN LAMBDA = 0 AND LAMBDA = 1
Info: FEP BOND ACTIVE FOR ANNIHILATED PARTICLES BETWEEN LAMBDA = 1 AND LAMBDA = 1
Info: FEP BOND ACTIVE FOR EXNIHILATED PARTICLES BETWEEN LAMBDA = 0 AND LAMBDA = 0
Info: LANGEVIN DYNAMICS ACTIVE
Info: LANGEVIN TEMPERATURE   300
Info: LANGEVIN USING BBK INTEGRATOR
Info: LANGEVIN DAMPING COEFFICIENT IS 1 INVERSE PS
Info: LANGEVIN DYNAMICS APPLIED TO HYDROGENS
Info: LANGEVIN PISTON PRESSURE CONTROL ACTIVE
Info:        TARGET PRESSURE IS 1.01325 BAR
Info:     OSCILLATION PERIOD IS 50 FS
Info:             DECAY TIME IS 25 FS
Info:     PISTON TEMPERATURE IS 300 K
Info:       PRESSURE CONTROL IS GROUP-BASED
Info:    INITIAL STRAIN RATE IS 5.89231e-05 5.89231e-05 5.89231e-05
Info:       CELL FLUCTUATION IS ISOTROPIC
Info: PARTICLE MESH EWALD (PME) ACTIVE
Info: PME TOLERANCE               1e-06
Info: PME EWALD COEFFICIENT       0.348832
Info: PME INTERPOLATION ORDER     4
Info: PME GRID DIMENSIONS         32 32 32
Info: PME MAXIMUM GRID SPACING    1
Info: PME CALCULATION WILL BE PERFORMED ON GPU
Info: FULL ELECTROSTATIC EVALUATION FREQUENCY      2
Info: USING VERLET I (r-RESPA) MTS SCHEME.
Info: C1 SPLITTING OF LONG RANGE ELECTROSTATICS
Info: PLACING ATOMS IN PATCHES BY HYDROGEN GROUPS
Info: RIGID BONDS TO HYDROGEN : ALL
Info:         ERROR TOLERANCE : 1e-08
Info:          MAX ITERATIONS : 100
Info: RIGID WATER USING SETTLE ALGORITHM
Info: RANDOM NUMBER SEED     1743489807
Info: USE HYDROGEN BONDS?    NO
Info: Using AMBER format force field!
Info: AMBER PARM FILE        mobley_766666.prmtop
Info: COORDINATE PDB         mobley_766666.pdb
Info: Exclusions will be read from PARM file!
Info: SCNB (VDW SCALING)     2
Info: USING ARITHMETIC MEAN TO COMBINE L-J SIGMA PARAMETERS
Info: BINARY COORDINATES     mobley_766666_equil.coor
Info: SUMMARY OF PARAMETERS:
Info: 5 BONDS
Info: 4 ANGLES
Info:   4 HARMONIC
Info:   0 COSINE-BASED
Info: 2 DIHEDRAL
Info: 0 IMPROPER
Info: 0 CROSSTERM
Info: 0 VDW
Info: 15 VDW_PAIRS
Info: 0 NBTHOLE_PAIRS
Info: To read alchdata from file: mobley_766666.pdb
Info: To read alchflag data from column: 5
Info: STRUCTURE SUMMARY:
Info: 2955 ATOMS
Info: 2954 BONDS
Info: 6 ANGLES
Info: 6 DIHEDRALS
Info: 0 IMPROPERS
Info: 0 CROSSTERMS
Info: 2964 EXCLUSIONS
Info: 2950 RIGID BONDS
Info: ALCH: 0 ATOMS TO DISAPPEAR IN FINAL STATE
Info: ALCH: 6 ATOMS TO APPEAR IN FINAL STATE
Info: 5915 DEGREES OF FREEDOM
Info: 988 HYDROGEN GROUPS
Info: 3 ATOMS IN LARGEST HYDROGEN GROUP
Info: 988 MIGRATION GROUPS
Info: 3 ATOMS IN LARGEST MIGRATION GROUP
Info: TOTAL MASS = 17841.1 amu
Info: TOTAL CHARGE = 0.000100002 e
Info: MASS DENSITY = 1.00435 g/cm^3
Info: ATOM DENSITY = 0.100175 atoms/A^3
Info: ADDED 0 IMPLICIT EXCLUSIONS
Info: NONBONDED TABLE R-SQUARED SPACING: 0.0625
Info: NONBONDED TABLE SIZE: 705 POINTS
Info: REMOVING COM VELOCITY -0.00270296 0.0822136 0.0379983
Info: Use 3D box decompostion in PME FFT.
Info: Updated CUDA force table with 4096 elements.
Info: Updated CUDA LJ table with 5 x 5 elements.
Info: Found 9 unique exclusion lists needing 12 bytes
TCL: Running for 1500000 steps
ETITLE: TS BOND ANGLE DIHED IMPRP ELECT VDW BOUNDARY MISC KINETIC TOTAL TEMP POTENTIAL TOTALAVG TEMPAVG PRESSURE GPRESSURE VOLUME PRESSAVG GPRESSAVG
ENERGY: 0 1.1212 0.6398 0.7937 0.0000 -10958.2374 1531.9118 0.0000 0.0000 1788.0617 -7635.7091 304.2413 -9423.7708 -7635.7091 304.2413 890.2940 986.2066 29498.2748 890.2940 986.2066
ENERGY: 300000 0.7032 0.3111 0.7341 0.0000 -10688.9112 1463.8777 0.0000 0.0000 1717.6627 -7505.6223 292.2628 -9223.2851 -7571.4683 300.0772 576.4497 568.6638 30320.4174 580.2278 636.8672
ENERGY: 600000 2.8567 0.4080 1.4514 0.0000 -10726.9852 1403.6915 0.0000 0.0000 1758.8494 -7559.7281 299.2708 -9318.5775 -7535.5009 301.8188 -412.3589 -325.9318 30531.4303 44.9171 112.1375
ENERGY: 900000 0.6495 1.0103 2.4850 0.0000 -10780.4747 1455.7871 0.0000 0.0000 1795.0680 -7525.4748 305.4334 -9320.5427 -7526.5946 300.4798 10.5432 117.9832 30577.3193 30.4426 102.3795
ENERGY: 1200000 0.6697 0.9282 0.3955 0.0000 -10756.7254 1424.9758 0.0000 0.0000 1764.4308 -7565.3255 300.2204 -9329.7563 -7526.7754 300.8622 -319.7165 -265.0969 30786.7020 3.2238 77.0150
ENERGY: 1500000 2.9802 1.5532 1.0022 0.0000 -10815.5632 1484.2014 0.0000 0.0000 1743.2202 -7582.6060 296.6114 -9325.8262 -7537.4148 301.2158 605.2371 602.0829 30058.6369 33.2139 103.7254
TCL: Running FEP window   2: Lambda1 0.95   Lambda2 0.8999999999999999 [dLambda -0.050000000000000044]
TCL: Setting parameter firsttimestep to 0
TCL: Setting parameter alchLambda to 0.95
Info: NONBONDED TABLE R-SQUARED SPACING: 0.0625
Info: NONBONDED TABLE SIZE: 705 POINTS
TCL: Setting parameter alchLambda2 to 0.8999999999999999
Info: NONBONDED TABLE R-SQUARED SPACING: 0.0625
Info: NONBONDED TABLE SIZE: 705 POINTS
TCL: Running for 1500000 steps
ETITLE: TS BOND ANGLE DIHED IMPRP ELECT VDW BOUNDARY MISC KINETIC TOTAL TEMP POTENTIAL TOTALAVG TEMPAVG PRESSURE GPRESSURE VOLUME PRESSAVG GPRESSAVG
ENERGY: 0 2.9802 1.5532 1.0022 0.0000 -10815.4959 1484.3589 0.0000 0.0000 1742.3636 -7583.2379 296.4657 -9325.6015 -7583.2379 296.4657 506.7243 589.3487 30058.6369 506.7243 589.3487
ENERGY: 300000 2.2570 0.6088 0.3389 0.0000 -10801.1302 1483.6799 0.0000 0.0000 1789.6727 -7524.5730 304.5154 -9314.2457 -7552.9294 300.7505 234.9209 342.8266 30769.0527 -97.2181 -0.4629
ENERGY: 600000 3.1168 0.8049 0.0178 0.0000 -10728.3881 1477.0803 0.0000 0.0000 1754.0022 -7493.3663 298.4460 -9247.3685 -7511.9093 302.5588 564.6112 637.0811 30141.1950 -115.6344 -34.3794
ENERGY: 900000 0.5776 0.3982 0.6465 0.0000 -10861.6545 1468.5538 0.0000 0.0000 1753.7929 -7637.6855 298.4104 -9391.4784 -7523.5324 302.1118 -364.0051 -231.3539 30556.2931 -128.1457 -41.0613
ENERGY: 1200000 1.4971 1.7336 1.3342 0.0000 -10833.7442 1504.6371 0.0000 0.0000 1769.0710 -7555.4711 301.0100 -9324.5421 -7524.1036 302.4581 305.8580 364.8843 30557.1279 -90.5896 -2.2659
ENERGY: 1500000 0.7269 1.2842 1.5121 0.0000 -10770.1629 1476.0111 0.0000 0.0000 1782.3815 -7508.2471 303.2748 -9290.6286 -7520.9219 302.8430 410.6979 513.8772 30149.6806 -27.4696 58.8931
TCL: Running FEP window   3: Lambda1 0.8999999999999999 Lambda2 0.8499999999999999 [dLambda -0.050000000000000044]
TCL: Setting parameter firsttimestep to 0
TCL: Setting parameter alchLambda to 0.8999999999999999
Info: NONBONDED TABLE R-SQUARED SPACING: 0.0625
Info: NONBONDED TABLE SIZE: 705 POINTS
TCL: Setting parameter alchLambda2 to 0.8499999999999999
Info: NONBONDED TABLE R-SQUARED SPACING: 0.0625
Info: NONBONDED TABLE SIZE: 705 POINTS
TCL: Running for 1500000 steps
ETITLE: TS BOND ANGLE DIHED IMPRP ELECT VDW BOUNDARY MISC KINETIC TOTAL TEMP POTENTIAL TOTALAVG TEMPAVG PRESSURE GPRESSURE VOLUME PRESSAVG GPRESSAVG
ENERGY: 0 0.7269 1.2842 1.5121 0.0000 -10769.8139 1476.4201 0.0000 0.0000 1781.4951 -7508.3755 303.1240 -9289.8706 -7508.3755 303.1240 431.8225 511.4092 30149.6806 431.8225 511.4092
ENERGY: 300000 0.6352 0.3378 2.7096 0.0000 -10626.7278 1340.8510 0.0000 0.0000 1769.8583 -7512.3360 301.1439 -9282.1942 -7499.6752 303.3096 -761.1103 -698.9909 30744.2640 -302.9884 -208.9597
ENERGY: 600000 0.3637 2.4909 0.2651 0.0000 -10842.2543 1508.6329 0.0000 0.0000 1737.3595 -7593.1423 295.6142 -9330.5018 -7517.8844 301.6429 415.5308 433.1629 30337.5322 -24.6600 57.2336
ENERGY: 900000 0.7374 0.7478 0.2284 0.0000 -10480.1752 1271.0515 0.0000 0.0000 1685.1042 -7522.3060 286.7229 -9207.4102 -7519.1756 299.8025 -1307.6581 -1265.0305 31112.6113 -152.6472 -81.7993
ENERGY: 1200000 1.3674 0.8159 0.2349 0.0000 -10828.5583 1505.4916 0.0000 0.0000 1760.9184 -7559.7300 299.6228 -9320.6484 -7522.6919 299.9879 590.4493 576.9983 30414.8193 -162.9624 -104.8538
ENERGY: 1500000 0.6541 1.9171 0.9272 0.0000 -10786.9145 1496.1707 0.0000 0.0000 1795.4805 -7491.7650 305.5036 -9287.2455 -7510.1601 301.0967 578.6771 576.8399 30356.7904 -43.8574 6.3403
TCL: Running FEP window   4: Lambda1 0.8499999999999999 Lambda2 0.7999999999999998 [dLambda -0.050000000000000044]
TCL: Setting parameter firsttimestep to 0
TCL: Setting parameter alchLambda to 0.8499999999999999
Info: NONBONDED TABLE R-SQUARED SPACING: 0.0625
Info: NONBONDED TABLE SIZE: 705 POINTS
TCL: Setting parameter alchLambda2 to 0.7999999999999998
Info: NONBONDED TABLE R-SQUARED SPACING: 0.0625
Info: NONBONDED TABLE SIZE: 705 POINTS
TCL: Running for 1500000 steps
ETITLE: TS BOND ANGLE DIHED IMPRP ELECT VDW BOUNDARY MISC KINETIC TOTAL TEMP POTENTIAL TOTALAVG TEMPAVG PRESSURE GPRESSURE VOLUME PRESSAVG GPRESSAVG
ENERGY: 0 0.6541 1.9171 0.9272 0.0000 -10786.7152 1496.1804 0.0000 0.0000 1794.5969 -7492.4396 305.3533 -9287.0365 -7492.4396 305.3533 480.8450 568.5503 30356.7904 480.8450 568.5503
ENERGY: 300000 0.1814 1.6775 2.0196 0.0000 -10637.1133 1405.6818 0.0000 0.0000 1787.2761 -7440.2770 304.1076 -9227.5531 -7521.2160 299.6739 -188.6286 -49.8268 30498.2666 27.5182 104.3655
ENERGY: 600000 1.8148 2.8866 0.1494 0.0000 -10744.2991 1381.6564 0.0000 0.0000 1738.2307 -7619.5612 295.7625 -9357.7919 -7540.6669 298.8173 -569.3828 -564.2649 30231.8302 15.2218 68.0475
ENERGY: 900000 2.5297 2.3369 0.5555 0.0000 -10779.5173 1484.9666 0.0000 0.0000 1727.5628 -7561.5660 293.9473 -9289.1287 -7530.1303 298.4170 403.1332 503.8404 30321.5082 10.1440 67.0944
ENERGY: 1200000 0.8456 1.7134 0.0951 0.0000 -10742.9312 1455.5647 0.0000 0.0000 1741.5296 -7543.1828 296.3238 -9284.7124 -7531.6383 297.4148 74.4922 141.6400 30836.0750 73.8052 127.5472
ENERGY: 1500000 0.4416 0.9144 0.5169 0.0000 -10754.0092 1466.0837 0.0000 0.0000 1706.2480 -7579.8044 290.3206 -9286.0525 -7529.7318 297.6100 49.7497 141.5320 30806.9611 62.8842 119.0699
TCL: Running FEP window   5: Lambda1 0.7999999999999998 Lambda2 0.7499999999999998 [dLambda -0.050000000000000044]
TCL: Setting parameter firsttimestep to 0
TCL: Setting parameter alchLambda to 0.7999999999999998
Info: NONBONDED TABLE R-SQUARED SPACING: 0.0625
Info: NONBONDED TABLE SIZE: 705 POINTS
TCL: Setting parameter alchLambda2 to 0.7499999999999998
Info: NONBONDED TABLE R-SQUARED SPACING: 0.0625
Info: NONBONDED TABLE SIZE: 705 POINTS
TCL: Running for 1500000 steps
ETITLE: TS BOND ANGLE DIHED IMPRP ELECT VDW BOUNDARY MISC KINETIC TOTAL TEMP POTENTIAL TOTALAVG TEMPAVG PRESSURE GPRESSURE VOLUME PRESSAVG GPRESSAVG
ENERGY: 0 0.4416 0.9144 0.5169 0.0000 -10753.9100 1466.4645 0.0000 0.0000 1705.3663 -7580.2063 290.1705 -9285.5725 -7580.2063 290.1705 46.7173 139.6116 30806.9611 46.7173 139.6116
ENERGY: 300000 1.9735 0.9424 0.4138 0.0000 -10671.6237 1363.8798 0.0000 0.0000 1750.4447 -7553.9696 297.8407 -9304.4142 -7580.3763 297.4483 -860.5642 -786.8636 30691.8474 -485.4530 -409.2064
ENERGY: 600000 0.6068 0.3634 0.3673 0.0000 -10780.6958 1449.0229 0.0000 0.0000 1702.3201 -7628.0153 289.6522 -9330.3354 -7574.0385 297.5391 -3.4955 78.7179 30265.2093 -337.1479 -266.5446
ENERGY: 900000 0.4590 1.0620 0.8987 0.0000 -10796.0051 1403.1812 0.0000 0.0000 1699.7747 -7690.6296 289.2191 -9390.4043 -7577.4462 297.6497 -669.6563 -618.9999 30438.4888 -330.8586 -263.9535
ENERGY: 1200000 2.3391 1.6365 2.1334 0.0000 -10646.3661 1420.4569 0.0000 0.0000 1751.9886 -7467.8117 298.1034 -9219.8003 -7569.6098 297.6281 -49.2326 48.4118 30552.2356 -253.5195 -191.2169
ENERGY: 1500000 0.8942 3.3404 1.4032 0.0000 -10797.7521 1513.4649 0.0000 0.0000 1746.8237 -7531.8257 297.2246 -9278.6495 -7561.0016 298.0637 803.1886 877.6923 30035.4693 -117.8264 -53.7610
TCL: Running FEP window   6: Lambda1 0.7499999999999998 Lambda2 0.6999999999999997 [dLambda -0.050000000000000044]
TCL: Setting parameter firsttimestep to 0
TCL: Setting parameter alchLambda to 0.7499999999999998
Info: NONBONDED TABLE R-SQUARED SPACING: 0.0625
Info: NONBONDED TABLE SIZE: 705 POINTS
TCL: Setting parameter alchLambda2 to 0.6999999999999997
Info: NONBONDED TABLE R-SQUARED SPACING: 0.0625
Info: NONBONDED TABLE SIZE: 705 POINTS
TCL: Running for 1500000 steps
ETITLE: TS BOND ANGLE DIHED IMPRP ELECT VDW BOUNDARY MISC KINETIC TOTAL TEMP POTENTIAL TOTALAVG TEMPAVG PRESSURE GPRESSURE VOLUME PRESSAVG GPRESSAVG
ENERGY: 0 0.8942 3.3404 1.4032 0.0000 -10797.6703 1513.7210 0.0000 0.0000 1745.9317 -7532.3799 297.0728 -9278.3116 -7532.3799 297.0728 784.9866 872.1423 30035.4693 784.9866 872.1423
ENERGY: 300000 1.4261 0.2972 0.4437 0.0000 -10765.1311 1464.5226 0.0000 0.0000 1846.7971 -7451.6443 314.2352 -9298.4415 -7491.3505 303.0157 219.3340 285.8678 30501.7917 421.6343 482.2423
ENERGY: 600000 1.8239 1.8968 0.3342 0.0000 -10633.6712 1397.5050 0.0000 0.0000 1726.4209 -7505.6904 293.7530 -9232.1113 -7479.8391 301.9096 -310.4941 -290.9626 31015.9899 246.7461 309.3463
ENERGY: 900000 0.7044 1.6933 0.3689 0.0000 -10725.2198 1410.9626 0.0000 0.0000 1773.3513 -7538.1394 301.7383 -9311.4906 -7483.9942 301.8153 -339.9289 -267.4689 30345.6620 262.3800 323.3543
ENERGY: 1200000 1.4574 2.1485 0.2319 0.0000 -10833.3660 1509.7784 0.0000 0.0000 1710.3170 -7609.4329 291.0129 -9319.7498 -7508.9503 301.1546 286.0404 349.1554 30694.3578 255.5631 314.9145
ENERGY: 1500000 0.4903 0.9212 0.6255 0.0000 -10840.0758 1482.7654 0.0000 0.0000 1781.6744 -7573.5990 303.1545 -9355.2734 -7500.8536 302.6505 466.9901 514.1286 29895.4431 237.7771 294.1868
TCL: Running FEP window   7: Lambda1 0.6999999999999997 Lambda2 0.6499999999999997 [dLambda -0.050000000000000044]
TCL: Setting parameter firsttimestep to 0
TCL: Setting parameter alchLambda to 0.6999999999999997
Info: NONBONDED TABLE R-SQUARED SPACING: 0.0625
Info: NONBONDED TABLE SIZE: 705 POINTS
TCL: Setting parameter alchLambda2 to 0.6499999999999997
Info: NONBONDED TABLE R-SQUARED SPACING: 0.0625
Info: NONBONDED TABLE SIZE: 705 POINTS
TCL: Running for 1500000 steps
ETITLE: TS BOND ANGLE DIHED IMPRP ELECT VDW BOUNDARY MISC KINETIC TOTAL TEMP POTENTIAL TOTALAVG TEMPAVG PRESSURE GPRESSURE VOLUME PRESSAVG GPRESSAVG
ENERGY: 0 0.4903 0.9212 0.6255 0.0000 -10839.9492 1483.4065 0.0000 0.0000 1780.7820 -7573.7238 303.0026 -9354.5058 -7573.7238 303.0026 429.8595 513.8322 29895.4431 429.8595 513.8322
ENERGY: 300000 0.4238 0.7920 0.4336 0.0000 -10786.6011 1428.3965 0.0000 0.0000 1761.6016 -7594.9536 299.7391 -9356.5552 -7556.9573 301.0126 -305.1167 -185.1631 30497.5731 -78.9631 16.4185
ENERGY: 600000 0.5431 1.0488 0.3763 0.0000 -10562.5634 1360.4020 0.0000 0.0000 1735.5830 -7464.6103 295.3120 -9200.1933 -7523.8960 299.9343 -826.6432 -730.5232 31402.7367 -270.1957 -188.7037
ENERGY: 900000 0.6061 1.5777 0.4047 0.0000 -10840.3107 1521.8055 0.0000 0.0000 1704.1303 -7611.7864 289.9602 -9315.9167 -7551.2016 298.7674 234.8140 299.8988 30806.0509 -78.9154 -9.3109
ENERGY: 1200000 2.6921 1.4307 2.1752 0.0000 -10770.1800 1431.1945 0.0000 0.0000 1751.4171 -7581.2704 298.0061 -9332.6874 -7555.3533 298.7552 154.0658 184.8655 30347.2395 -52.6408 10.8991
ENERGY: 1500000 1.1156 0.3583 1.9826 0.0000 -10734.9554 1485.2200 0.0000 0.0000 1758.3362 -7487.9427 299.1834 -9246.2789 -7554.9443 298.0217 323.9257 346.8157 30776.6589 -46.4682 9.7790
TCL: Running FEP window   8: Lambda1 0.6499999999999997 Lambda2 0.5999999999999996 [dLambda -0.050000000000000044]
TCL: Setting parameter firsttimestep to 0
TCL: Setting parameter alchLambda to 0.6499999999999997
Info: NONBONDED TABLE R-SQUARED SPACING: 0.0625
Info: NONBONDED TABLE SIZE: 705 POINTS
TCL: Setting parameter alchLambda2 to 0.5999999999999996
Info: NONBONDED TABLE R-SQUARED SPACING: 0.0625
Info: NONBONDED TABLE SIZE: 705 POINTS
TCL: Running for 1500000 steps
ETITLE: TS BOND ANGLE DIHED IMPRP ELECT VDW BOUNDARY MISC KINETIC TOTAL TEMP POTENTIAL TOTALAVG TEMPAVG PRESSURE GPRESSURE VOLUME PRESSAVG GPRESSAVG
ENERGY: 0 1.1156 0.3583 1.9826 0.0000 -10734.7486 1484.6461 0.0000 0.0000 1757.4134 -7489.2324 299.0264 -9246.6459 -7489.2324 299.0264 248.7259 337.2828 30776.6589 248.7259 337.2828
ENERGY: 300000 2.7586 0.8143 0.6133 0.0000 -10619.2486 1327.1724 0.0000 0.0000 1751.5290 -7536.3611 298.0252 -9287.8900 -7527.6966 298.4656 -737.6030 -694.0854 30058.7651 -76.7206 -30.8880
ENERGY: 600000 1.4349 2.9735 0.2678 0.0000 -10592.3361 1417.5400 0.0000 0.0000 1731.0984 -7439.0215 294.5489 -9170.1199 -7527.6577 296.7826 -205.2015 -186.1427 31301.6663 -155.6927 -111.3538
ENERGY: 900000 2.7187 0.3175 0.3562 0.0000 -10707.2972 1423.8573 0.0000 0.0000 1723.2375 -7556.8099 293.2114 -9280.0475 -7519.1665 297.2435 -204.1953 -123.2962 30550.2698 -101.3038 -47.0868
ENERGY: 1200000 0.2411 0.9249 0.3235 0.0000 -10620.3071 1405.1818 0.0000 0.0000 1776.5732 -7437.0625 302.2865 -9213.6357 -7512.9639 298.5038 -391.0336 -304.4335 30935.9287 -147.0344 -92.0085
ENERGY: 1500000 2.9635 0.8029 0.7984 0.0000 -10685.2083 1400.8968 0.0000 0.0000 1779.9350 -7499.8117 302.8585 -9279.7467 -7511.6254 298.2594 -389.0225 -301.5870 30492.4650 -241.0306 -181.1616
TCL: Running FEP window   9: Lambda1 0.5999999999999996 Lambda2 0.5499999999999996 [dLambda -0.050000000000000044]
TCL: Setting parameter firsttimestep to 0
TCL: Setting parameter alchLambda to 0.5999999999999996
Info: NONBONDED TABLE R-SQUARED SPACING: 0.0625
Info: NONBONDED TABLE SIZE: 705 POINTS
TCL: Setting parameter alchLambda2 to 0.5499999999999996
Info: NONBONDED TABLE R-SQUARED SPACING: 0.0625
Info: NONBONDED TABLE SIZE: 705 POINTS
TCL: Running for 1500000 steps
ETITLE: TS BOND ANGLE DIHED IMPRP ELECT VDW BOUNDARY MISC KINETIC TOTAL TEMP POTENTIAL TOTALAVG TEMPAVG PRESSURE GPRESSURE VOLUME PRESSAVG GPRESSAVG
ENERGY: 0 2.9635 0.8029 0.7984 0.0000 -10685.1127 1401.4863 0.0000 0.0000 1779.0753 -7499.9863 302.7122 -9279.0615 -7499.9863 302.7122 -394.7566 -301.7302 30492.4650 -394.7566 -301.7302
ENERGY: 300000 0.8091 0.6373 0.1581 0.0000 -10781.6642 1446.7179 0.0000 0.0000 1733.3104 -7600.0314 294.9253 -9333.3418 -7560.9743 296.8645 -107.6777 -89.2817 30335.5945 -237.0022 -190.7301
ENERGY: 600000 2.2146 1.3639 2.2858 0.0000 -10621.8063 1345.6772 0.0000 0.0000 1732.4521 -7537.8127 294.7792 -9270.2647 -7548.5291 299.0650 -896.7391 -826.1113 30680.3631 -97.9797 -43.0527
ENERGY: 900000 0.6601 1.3054 0.4371 0.0000 -10740.3174 1398.8607 0.0000 0.0000 1782.0838 -7556.9703 303.2241 -9339.0541 -7553.2956 299.0671 -683.6190 -600.2716 30549.5866 -162.6896 -109.2044
ENERGY: 1200000 1.9646 0.8801 0.5276 0.0000 -10814.7474 1458.5355 0.0000 0.0000 1761.8524 -7590.9872 299.7817 -9352.8396 -7534.7976 301.0829 -189.6434 -136.5034 30308.9918 -165.2424 -110.4000
ENERGY: 1500000 0.3655 1.6811 1.8393 0.0000 -10693.2828 1458.5207 0.0000 0.0000 1739.8330 -7491.0431 296.0351 -9230.8761 -7537.9178 300.3009 312.2943 357.6102 30208.0154 -126.9110 -74.8154
TCL: Running FEP window  10: Lambda1 0.5499999999999996 Lambda2 0.4999999999999996 [dLambda -0.04999999999999999]
TCL: Setting parameter firsttimestep to 0
TCL: Setting parameter alchLambda to 0.5499999999999996
Info: NONBONDED TABLE R-SQUARED SPACING: 0.0625
Info: NONBONDED TABLE SIZE: 705 POINTS
TCL: Setting parameter alchLambda2 to 0.4999999999999996
Info: NONBONDED TABLE R-SQUARED SPACING: 0.0625
Info: NONBONDED TABLE SIZE: 705 POINTS
TCL: Running for 1500000 steps
ETITLE: TS BOND ANGLE DIHED IMPRP ELECT VDW BOUNDARY MISC KINETIC TOTAL TEMP POTENTIAL TOTALAVG TEMPAVG PRESSURE GPRESSURE VOLUME PRESSAVG GPRESSAVG
ENERGY: 0 0.3655 1.6811 1.8393 0.0000 -10693.1970 1458.9284 0.0000 0.0000 1738.9548 -7491.4279 295.8857 -9230.3826 -7491.4279 295.8857 263.5638 355.6393 30208.0154 263.5638 355.6393
ENERGY: 300000 1.0300 0.3402 0.3141 0.0000 -10653.1154 1362.3914 0.0000 0.0000 1872.6916 -7416.3483 318.6412 -9289.0398 -7504.7652 300.2222 -637.1251 -616.8721 30672.9322 -278.2694 -200.6839
ENERGY: 600000 1.2984 1.8079 1.5529 0.0000 -10692.6241 1380.3249 0.0000 0.0000 1733.5096 -7574.1305 294.9592 -9307.6400 -7520.4795 299.6451 -786.8247 -724.9488 30669.2998 -341.7600 -270.0602
ENERGY: 900000 0.6844 1.3580 0.2823 0.0000 -10639.7868 1413.1034 0.0000 0.0000 1726.9483 -7497.4103 293.8427 -9224.3586 -7518.9581 299.2375 -590.2632 -430.5822 31122.4842 -309.8412 -237.3747
ENERGY: 1200000 0.1825 0.2221 0.9291 0.0000 -10848.7566 1465.0249 0.0000 0.0000 1773.1757 -7609.2224 301.7084 -9382.3981 -7539.1148 298.6037 -0.7413 36.5727 30469.1664 -148.3701 -80.3874
ENERGY: 1500000 1.1307 0.7507 0.0466 0.0000 -10647.5661 1460.9957 0.0000 0.0000 1824.9483 -7359.6941 310.5176 -9184.6424 -7523.0142 300.0895 245.2771 284.4747 30981.5408 -109.3401 -44.9340
TCL: Running FEP window  11: Lambda1 0.4999999999999996 Lambda2 0.4499999999999996 [dLambda -0.04999999999999999]
TCL: Setting parameter firsttimestep to 0
TCL: Setting parameter alchLambda to 0.4999999999999996
Info: NONBONDED TABLE R-SQUARED SPACING: 0.0625
Info: NONBONDED TABLE SIZE: 705 POINTS
TCL: Setting parameter alchLambda2 to 0.4499999999999996
Info: NONBONDED TABLE R-SQUARED SPACING: 0.0625
Info: NONBONDED TABLE SIZE: 705 POINTS
TCL: Running for 1500000 steps
ETITLE: TS BOND ANGLE DIHED IMPRP ELECT VDW BOUNDARY MISC KINETIC TOTAL TEMP POTENTIAL TOTALAVG TEMPAVG PRESSURE GPRESSURE VOLUME PRESSAVG GPRESSAVG
ENERGY: 0 1.1307 0.7507 0.0466 0.0000 -10647.4424 1461.0911 0.0000 0.0000 1824.1006 -7360.3227 310.3734 -9184.4233 -7360.3227 310.3734 210.4403 282.2011 30981.5408 210.4403 282.2011
ENERGY: 300000 2.2652 1.2180 2.4129 0.0000 -10625.2435 1380.7936 0.0000 0.0000 1753.6345 -7484.9193 298.3834 -9238.5538 -7449.3044 303.8936 -720.9290 -650.8186 30951.3767 64.0616 129.0782
ENERGY: 600000 3.3098 0.6282 1.0632 0.0000 -10720.4758 1423.5909 0.0000 0.0000 1723.9640 -7567.9198 293.3350 -9291.8837 -7501.8100 300.9749 102.6226 175.5240 30161.3851 94.7171 180.1679
ENERGY: 900000 0.1111 2.5304 0.1495 0.0000 -10722.2845 1395.4681 0.0000 0.0000 1708.8956 -7615.1298 290.7711 -9324.0254 -7515.5409 300.0315 -533.3103 -487.0921 30513.6367 -25.4342 56.0294
ENERGY: 1200000 2.4525 0.2134 2.2473 0.0000 -10716.5184 1431.7741 0.0000 0.0000 1771.2318 -7508.5994 301.3776 -9279.8312 -7526.0075 299.5253 224.1764 279.1476 30070.8302 86.2800 157.2071
ENERGY: 1500000 0.9752 0.5872 0.0381 0.0000 -10704.2556 1481.3436 0.0000 0.0000 1719.2984 -7502.0130 292.5411 -9221.3114 -7526.4356 298.6691 446.8544 523.6376 30540.0214 123.3429 195.7577
TCL: Running FEP window  12: Lambda1 0.4499999999999996 Lambda2 0.39999999999999963 [dLambda -0.04999999999999999]
TCL: Setting parameter firsttimestep to 0
TCL: Setting parameter alchLambda to 0.4499999999999996
Info: NONBONDED TABLE R-SQUARED SPACING: 0.0625
Info: NONBONDED TABLE SIZE: 705 POINTS
TCL: Setting parameter alchLambda2 to 0.39999999999999963
Info: NONBONDED TABLE R-SQUARED SPACING: 0.0625
Info: NONBONDED TABLE SIZE: 705 POINTS
TCL: Running for 1500000 steps
ETITLE: TS BOND ANGLE DIHED IMPRP ELECT VDW BOUNDARY MISC KINETIC TOTAL TEMP POTENTIAL TOTALAVG TEMPAVG PRESSURE GPRESSURE VOLUME PRESSAVG GPRESSAVG
ENERGY: 0 0.9752 0.5872 0.0381 0.0000 -10704.2577 1481.6113 0.0000 0.0000 1718.4218 -7502.6240 292.3920 -9221.0458 -7502.6240 292.3920 449.6014 520.8949 30540.0214 449.6014 520.8949
ENERGY: 300000 0.1646 1.4338 0.1302 0.0000 -10812.4809 1440.5166 0.0000 0.0000 1854.4350 -7515.8007 315.5348 -9370.2358 -7487.9665 301.2840 32.0158 78.1077 30058.4489 -25.6052 25.3872
ENERGY: 600000 3.1208 1.8273 2.4926 0.0000 -10734.4885 1439.7936 0.0000 0.0000 1799.7797 -7487.4744 306.2351 -9287.2542 -7486.8557 302.6116 -163.7978 -64.1807 30307.3793 -84.3586 -32.6396
ENERGY: 900000 2.0433 0.2738 0.0565 0.0000 -10710.7169 1461.5220 0.0000 0.0000 1765.7161 -7481.1051 300.4391 -9246.8212 -7491.5709 301.6576 30.2974 104.1335 30748.4540 -42.2381 9.2118
ENERGY: 1200000 2.5099 1.0843 1.0944 0.0000 -10782.5390 1497.1159 0.0000 0.0000 1775.2625 -7505.4720 302.0635 -9280.7345 -7487.5733 302.2823 367.3199 427.6451 30725.2931 5.3612 52.2755
ENERGY: 1500000 0.5778 0.6171 0.2987 0.0000 -10614.9947 1396.7303 0.0000 0.0000 1787.8433 -7428.9275 304.2041 -9216.7708 -7490.6049 302.3170 -185.0856 -98.2096 30371.4995 -40.4156 8.2633
TCL: Running FEP window  13: Lambda1 0.39999999999999963 Lambda2 0.34999999999999964 [dLambda -0.04999999999999999]
TCL: Setting parameter firsttimestep to 0
TCL: Setting parameter alchLambda to 0.39999999999999963
Info: NONBONDED TABLE R-SQUARED SPACING: 0.0625
Info: NONBONDED TABLE SIZE: 705 POINTS
TCL: Setting parameter alchLambda2 to 0.34999999999999964
Info: NONBONDED TABLE R-SQUARED SPACING: 0.0625
Info: NONBONDED TABLE SIZE: 705 POINTS
TCL: Running for 1500000 steps
ETITLE: TS BOND ANGLE DIHED IMPRP ELECT VDW BOUNDARY MISC KINETIC TOTAL TEMP POTENTIAL TOTALAVG TEMPAVG PRESSURE GPRESSURE VOLUME PRESSAVG GPRESSAVG
ENERGY: 0 0.5778 0.6171 0.2987 0.0000 -10614.9954 1396.6624 0.0000 0.0000 1786.9188 -7429.9207 304.0468 -9216.8395 -7429.9207 304.0468 -204.3506 -107.6932 30371.4995 -204.3506 -107.6932
ENERGY: 300000 0.7529 1.5485 0.4338 0.0000 -10762.9442 1461.6812 0.0000 0.0000 1782.3879 -7516.1400 303.2759 -9298.5279 -7521.3772 298.3727 371.2341 466.9087 30153.0530 -30.8058 35.9411
ENERGY: 600000 1.6191 0.6676 0.4615 0.0000 -10840.7265 1482.2012 0.0000 0.0000 1770.7004 -7585.0767 301.2872 -9355.7771 -7528.2146 300.5414 133.9570 199.4388 30665.4722 -4.0960 57.4862
ENERGY: 900000 2.1740 0.7290 0.9555 0.0000 -10780.7066 1458.9957 0.0000 0.0000 1759.0499 -7558.8025 299.3049 -9317.8524 -7536.5617 300.2285 185.6142 232.3781 30502.6446 18.9282 82.6118
ENERGY: 1200000 0.2810 0.7144 0.9326 0.0000 -10618.5778 1447.2028 0.0000 0.0000 1785.5502 -7383.8969 303.8139 -9169.4470 -7515.6723 300.5554 212.6191 289.0599 30880.4622 79.3206 141.7622
ENERGY: 1500000 0.1801 0.3679 0.2755 0.0000 -10782.7754 1452.5728 0.0000 0.0000 1786.6793 -7542.6998 304.0061 -9329.3791 -7513.4568 301.0924 60.3462 115.6931 30329.4858 71.9199 134.5085
TCL: Running FEP window  14: Lambda1 0.34999999999999964 Lambda2 0.29999999999999966 [dLambda -0.04999999999999999]
TCL: Setting parameter firsttimestep to 0
TCL: Setting parameter alchLambda to 0.34999999999999964
Info: NONBONDED TABLE R-SQUARED SPACING: 0.0625
Info: NONBONDED TABLE SIZE: 705 POINTS
TCL: Setting parameter alchLambda2 to 0.29999999999999966
Info: NONBONDED TABLE R-SQUARED SPACING: 0.0625
Info: NONBONDED TABLE SIZE: 705 POINTS
TCL: Running for 1500000 steps
ETITLE: TS BOND ANGLE DIHED IMPRP ELECT VDW BOUNDARY MISC KINETIC TOTAL TEMP POTENTIAL TOTALAVG TEMPAVG PRESSURE GPRESSURE VOLUME PRESSAVG GPRESSAVG
ENERGY: 0 0.1801 0.3679 0.2755 0.0000 -10782.7761 1452.6653 0.0000 0.0000 1785.8157 -7543.4717 303.8591 -9329.2874 -7543.4717 303.8591 16.1934 110.6269 30329.4858 16.1934 110.6269
ENERGY: 300000 1.3574 0.4690 1.0016 0.0000 -10748.9767 1453.2701 0.0000 0.0000 1735.7020 -7557.1766 295.3322 -9292.8786 -7548.6602 299.7169 -4.8356 76.6434 30471.0867 -232.0722 -135.9513
ENERGY: 600000 0.7687 0.3692 1.2712 0.0000 -10569.1226 1363.0934 0.0000 0.0000 1691.7445 -7511.8756 287.8528 -9203.6201 -7529.8071 299.1551 -740.4101 -689.5670 31043.1868 -460.4170 -378.8582
ENERGY: 900000 0.5533 0.5086 0.4875 0.0000 -10713.6955 1478.6070 0.0000 0.0000 1711.7976 -7521.7416 291.2648 -9233.5392 -7534.0197 298.6536 222.2589 355.5063 30423.3499 -250.6272 -168.5371
ENERGY: 1200000 1.5612 0.3919 2.1044 0.0000 -10785.1594 1411.4763 0.0000 0.0000 1784.2975 -7585.3281 303.6008 -9369.6257 -7533.5465 299.6712 -486.9278 -462.7977 30346.5640 -238.9391 -166.0358
ENERGY: 1500000 1.2839 0.8117 0.9149 0.0000 -10793.9213 1428.4502 0.0000 0.0000 1801.6832 -7560.7775 306.5590 -9362.4607 -7528.6977 300.1278 -121.7724 -54.7101 30028.7077 -279.4786 -209.6544
TCL: Running FEP window  15: Lambda1 0.29999999999999966 Lambda2 0.24999999999999967 [dLambda -0.04999999999999999]
TCL: Setting parameter firsttimestep to 0
TCL: Setting parameter alchLambda to 0.29999999999999966
Info: NONBONDED TABLE R-SQUARED SPACING: 0.0625
Info: NONBONDED TABLE SIZE: 705 POINTS
TCL: Setting parameter alchLambda2 to 0.24999999999999967
Info: NONBONDED TABLE R-SQUARED SPACING: 0.0625
Info: NONBONDED TABLE SIZE: 705 POINTS
TCL: Running for 1500000 steps
ETITLE: TS BOND ANGLE DIHED IMPRP ELECT VDW BOUNDARY MISC KINETIC TOTAL TEMP POTENTIAL TOTALAVG TEMPAVG PRESSURE GPRESSURE VOLUME PRESSAVG GPRESSAVG
ENERGY: 0 1.2839 0.8117 0.9149 0.0000 -10793.9204 1428.5493 0.0000 0.0000 1800.7766 -7561.5840 306.4047 -9362.3606 -7561.5840 306.4047 -145.1576 -61.0247 30028.7077 -145.1576 -61.0247
ENERGY: 300000 0.7467 0.6163 0.6802 0.0000 -10729.6751 1448.4299 0.0000 0.0000 1729.3306 -7549.8715 294.2481 -9279.2020 -7528.6953 300.2822 -70.2019 -7.2143 30609.8991 61.2180 118.6730
ENERGY: 600000 0.7872 1.6345 1.3678 0.0000 -10723.3290 1391.2336 0.0000 0.0000 1775.4860 -7552.8197 302.1015 -9328.3058 -7519.4360 302.3003 -335.6180 -225.5862 30021.2538 -97.7190 -26.0339
ENERGY: 900000 0.6783 0.9189 1.7864 0.0000 -10714.3765 1430.9222 0.0000 0.0000 1784.2308 -7495.8399 303.5894 -9280.0707 -7511.9612 301.8535 -113.2328 -20.0901 30599.6693 -22.3123 41.9953
ENERGY: 1200000 2.2331 0.4448 0.0056 0.0000 -10818.6087 1488.5342 0.0000 0.0000 1780.6853 -7546.7058 302.9862 -9327.3910 -7515.0811 301.4104 212.1106 273.3509 30157.3432 76.4258 138.1139
ENERGY: 1500000 2.8250 1.5287 0.4989 0.0000 -10788.8304 1530.4039 0.0000 0.0000 1735.8473 -7517.7265 295.3569 -9253.5738 -7517.3422 301.0078 1154.1827 1203.1346 29518.0555 130.9868 193.3705
TCL: Running FEP window  16: Lambda1 0.24999999999999967 Lambda2 0.19999999999999968 [dLambda -0.04999999999999999]
TCL: Setting parameter firsttimestep to 0
TCL: Setting parameter alchLambda to 0.24999999999999967
Info: NONBONDED TABLE R-SQUARED SPACING: 0.0625
Info: NONBONDED TABLE SIZE: 705 POINTS
TCL: Setting parameter alchLambda2 to 0.19999999999999968
Info: NONBONDED TABLE R-SQUARED SPACING: 0.0625
Info: NONBONDED TABLE SIZE: 705 POINTS
TCL: Running for 1500000 steps
ETITLE: TS BOND ANGLE DIHED IMPRP ELECT VDW BOUNDARY MISC KINETIC TOTAL TEMP POTENTIAL TOTALAVG TEMPAVG PRESSURE GPRESSURE VOLUME PRESSAVG GPRESSAVG
ENERGY: 0 2.8250 1.5287 0.4989 0.0000 -10788.8317 1530.4060 0.0000 0.0000 1735.0207 -7518.5524 295.2163 -9253.5731 -7518.5524 295.2163 1106.5967 1199.6117 29518.0555 1106.5967 1199.6117
ENERGY: 300000 1.3498 0.9335 1.5248 0.0000 -10634.2677 1363.9646 0.0000 0.0000 1706.6432 -7559.8518 290.3878 -9266.4950 -7533.7151 295.6962 -470.0223 -460.7152 30151.4702 321.5324 391.5424
ENERGY: 600000 1.1909 0.2383 0.3072 0.0000 -10855.9014 1497.7122 0.0000 0.0000 1745.9381 -7610.5147 297.0739 -9356.4527 -7554.2941 296.9112 159.9880 203.7745 30546.1962 187.6138 250.1446
ENERGY: 900000 0.6510 0.3287 2.3662 0.0000 -10764.3709 1473.4755 0.0000 0.0000 1696.2274 -7591.3220 288.6155 -9287.5494 -7553.9526 295.3228 107.1827 159.8210 30456.4333 134.1184 200.5529
ENERGY: 1200000 0.4206 0.4233 2.8940 0.0000 -10783.5998 1421.9266 0.0000 0.0000 1789.9640 -7567.9714 304.5650 -9357.9354 -7551.4861 296.9529 -432.2566 -377.0985 30380.0292 35.3045 100.8412
ENERGY: 1500000 1.1118 0.4053 1.0673 0.0000 -10840.2019 1476.8201 0.0000 0.0000 1816.8171 -7543.9802 309.1341 -9360.7974 -7538.8873 298.6009 8.3265 84.9672 30351.8112 72.6442 141.0227
TCL: Running FEP window  17: Lambda1 0.19999999999999968 Lambda2 0.1499999999999997 [dLambda -0.04999999999999999]
TCL: Setting parameter firsttimestep to 0
TCL: Setting parameter alchLambda to 0.19999999999999968
Info: NONBONDED TABLE R-SQUARED SPACING: 0.0625
Info: NONBONDED TABLE SIZE: 705 POINTS
TCL: Setting parameter alchLambda2 to 0.1499999999999997
Info: NONBONDED TABLE R-SQUARED SPACING: 0.0625
Info: NONBONDED TABLE SIZE: 705 POINTS
TCL: Running for 1500000 steps
ETITLE: TS BOND ANGLE DIHED IMPRP ELECT VDW BOUNDARY MISC KINETIC TOTAL TEMP POTENTIAL TOTALAVG TEMPAVG PRESSURE GPRESSURE VOLUME PRESSAVG GPRESSAVG
ENERGY: 0 1.1117 0.4053 1.0673 0.0000 -10840.2024 1476.9152 0.0000 0.0000 1815.9464 -7544.7565 308.9859 -9360.7028 -7544.7565 308.9859 -10.4761 81.5134 30351.8112 -10.4761 81.5134
ENERGY: 300000 1.4787 1.0538 1.9894 0.0000 -10720.8832 1433.9779 0.0000 0.0000 1766.7246 -7515.6589 300.6107 -9282.3835 -7522.3913 302.2996 81.7741 187.9842 30318.0058 -180.7489 -94.9300
ENERGY: 600000 3.2985 0.2196 0.1678 0.0000 -10797.0782 1506.7191 0.0000 0.0000 1781.2682 -7505.4052 303.0853 -9286.6734 -7525.0635 301.3417 389.3496 483.9437 30482.7999 43.2308 125.5628
ENERGY: 900000 4.6039 1.0333 0.4881 0.0000 -10520.9100 1372.9723 0.0000 0.0000 1772.6667 -7369.1457 301.6218 -9141.8124 -7503.5962 301.2289 -74.2890 -5.4595 30180.5026 10.3713 82.8160
ENERGY: 1200000 1.5795 1.0730 0.4850 0.0000 -10733.8266 1487.5115 0.0000 0.0000 1726.0513 -7517.1263 293.6901 -9243.1776 -7505.6226 301.4625 156.3619 198.6366 30612.0314 27.6276 97.6137
ENERGY: 1500000 0.5811 0.7137 0.8862 0.0000 -10611.3962 1376.2472 0.0000 0.0000 1690.6297 -7542.3384 287.6631 -9232.9681 -7514.6301 300.0630 -654.5218 -489.2359 30790.7023 -72.5257 0.7597
TCL: Running FEP window  18: Lambda1 0.1499999999999997 Lambda2 0.09999999999999969 [dLambda -0.05 ]
TCL: Setting parameter firsttimestep to 0
TCL: Setting parameter alchLambda to 0.1499999999999997
Info: NONBONDED TABLE R-SQUARED SPACING: 0.0625
Info: NONBONDED TABLE SIZE: 705 POINTS
TCL: Setting parameter alchLambda2 to 0.09999999999999969
Info: NONBONDED TABLE R-SQUARED SPACING: 0.0625
Info: NONBONDED TABLE SIZE: 705 POINTS
TCL: Running for 1500000 steps
ETITLE: TS BOND ANGLE DIHED IMPRP ELECT VDW BOUNDARY MISC KINETIC TOTAL TEMP POTENTIAL TOTALAVG TEMPAVG PRESSURE GPRESSURE VOLUME PRESSAVG GPRESSAVG
ENERGY: 0 0.5811 0.7137 0.8862 0.0000 -10611.3951 1376.4781 0.0000 0.0000 1689.7531 -7542.9831 287.5139 -9232.7361 -7542.9831 287.5139 -584.6687 -491.1558 30790.7023 -584.6687 -491.1558
ENERGY: 300000 1.9285 1.0459 0.6734 0.0000 -10615.8822 1388.5017 0.0000 0.0000 1707.2674 -7516.4653 290.4940 -9223.7327 -7524.2459 295.7948 -409.2339 -407.5200 30518.5039 -348.0757 -302.4579
ENERGY: 600000 0.7148 1.0603 0.5798 0.0000 -10709.0576 1365.0628 0.0000 0.0000 1807.2795 -7534.3604 307.5112 -9341.6399 -7535.3093 297.8227 -776.6626 -738.8535 30678.2701 -439.3495 -385.3026
ENERGY: 900000 0.8225 1.1040 0.3913 0.0000 -10636.4484 1395.6517 0.0000 0.0000 1757.6795 -7480.7994 299.0717 -9238.4790 -7528.3159 298.0879 -308.4059 -289.1276 30652.0206 -313.3478 -264.0884
ENERGY: 1200000 0.3731 0.1623 0.3912 0.0000 -10596.4469 1370.3575 0.0000 0.0000 1722.1975 -7502.9654 293.0344 -9225.1628 -7530.9165 297.8815 -647.4261 -561.5587 30677.5294 -290.4394 -235.3527
ENERGY: 1500000 2.1607 1.8579 1.4239 0.0000 -10806.4365 1475.3671 0.0000 0.0000 1739.0248 -7586.6021 295.8976 -9325.6269 -7523.4144 298.3674 156.3533 235.8949 30492.2256 -191.2496 -132.4468
TCL: Running FEP window  19: Lambda1 0.09999999999999969 Lambda2 0.049999999999999684 [dLambda -0.05 ]
TCL: Setting parameter firsttimestep to 0
TCL: Setting parameter alchLambda to 0.09999999999999969
Info: NONBONDED TABLE R-SQUARED SPACING: 0.0625
Info: NONBONDED TABLE SIZE: 705 POINTS
TCL: Setting parameter alchLambda2 to 0.049999999999999684
Info: NONBONDED TABLE R-SQUARED SPACING: 0.0625
Info: NONBONDED TABLE SIZE: 705 POINTS
TCL: Running for 1500000 steps
ETITLE: TS BOND ANGLE DIHED IMPRP ELECT VDW BOUNDARY MISC KINETIC TOTAL TEMP POTENTIAL TOTALAVG TEMPAVG PRESSURE GPRESSURE VOLUME PRESSAVG GPRESSAVG
ENERGY: 0 2.1607 1.8579 1.4239 0.0000 -10806.4366 1474.3797 0.0000 0.0000 1738.1394 -7588.4750 295.7469 -9326.6144 -7588.4750 295.7469 148.1721 231.3186 30492.2256 148.1721 231.3186
ENERGY: 300000 1.2389 1.9467 1.6596 0.0000 -10747.8943 1400.7423 0.0000 0.0000 1711.5185 -7630.7882 291.2173 -9342.3068 -7567.5326 299.6129 -344.1273 -265.1403 29839.9328 -195.7650 -148.5613
ENERGY: 600000 0.6430 0.9939 0.1662 0.0000 -10909.0426 1544.3587 0.0000 0.0000 1728.1537 -7634.7271 294.0478 -9362.8808 -7563.2970 297.8386 519.4800 582.0538 30255.2776 67.4039 120.3973
ENERGY: 900000 0.4193 0.3092 0.8107 0.0000 -10788.8517 1430.7119 0.0000 0.0000 1774.9014 -7581.6992 302.0020 -9356.6005 -7535.4751 299.6203 -90.4953 -64.8289 30002.0435 62.5799 105.4274
ENERGY: 1200000 1.4403 1.2073 0.7831 0.0000 -10896.9912 1542.4335 0.0000 0.0000 1811.6367 -7539.4904 308.2526 -9351.1271 -7541.5300 299.5844 573.6417 658.6518 30439.8690 58.8231 96.2232
ENERGY: 1500000 0.8073 0.9818 0.5275 0.0000 -10779.4040 1498.2833 0.0000 0.0000 1798.5949 -7480.2092 306.0335 -9278.8041 -7528.6655 300.7673 418.5190 510.3347 30501.7276 51.8142 94.1143
TCL: Running FEP window  20: Lambda1 0.049999999999999684 Lambda2 0.0    [dLambda -0.049999999999999684]
TCL: Setting parameter firsttimestep to 0
TCL: Setting parameter alchLambda to 0.049999999999999684
Info: NONBONDED TABLE R-SQUARED SPACING: 0.0625
Info: NONBONDED TABLE SIZE: 705 POINTS
TCL: Setting parameter alchLambda2 to 0.0
Info: NONBONDED TABLE R-SQUARED SPACING: 0.0625
Info: NONBONDED TABLE SIZE: 705 POINTS
TCL: Running for 1500000 steps
ETITLE: TS BOND ANGLE DIHED IMPRP ELECT VDW BOUNDARY MISC KINETIC TOTAL TEMP POTENTIAL TOTALAVG TEMPAVG PRESSURE GPRESSURE VOLUME PRESSAVG GPRESSAVG
ENERGY: 0 0.8073 0.9818 0.5275 0.0000 -10779.4030 1498.1125 0.0000 0.0000 1797.6887 -7481.2852 305.8793 -9278.9739 -7481.2852 305.8793 430.1453 508.0126 30501.7276 430.1453 508.0126
ENERGY: 300000 1.2855 1.8508 1.1757 0.0000 -10592.8538 1360.8284 0.0000 0.0000 1764.9988 -7462.7147 300.3171 -9227.7135 -7498.6035 299.7542 -642.2815 -575.4906 30477.5738 -211.9277 -143.6157
ENERGY: 600000 1.3595 0.5030 0.3001 0.0000 -10835.6656 1497.9061 0.0000 0.0000 1793.5927 -7542.0042 305.1824 -9335.5969 -7510.2670 300.3982 198.3877 273.5257 30568.7745 -107.7271 -45.7027
ENERGY: 900000 1.9053 1.9421 1.0868 0.0000 -10766.0300 1492.2232 0.0000 0.0000 1749.5039 -7519.3688 297.6806 -9268.8726 -7506.5732 300.3710 319.1957 354.9310 30251.8165 25.9271 87.2721
ENERGY: 1200000 1.6409 0.4388 1.3870 0.0000 -10640.1852 1389.2452 0.0000 0.0000 1768.4165 -7479.0568 300.8986 -9247.4734 -7516.7177 299.7493 -148.0307 -94.8857 30394.7447 -54.2942 6.0904
ENERGY: 1500000 1.6108 1.7249 0.0260 0.0000 -10643.9614 1362.2970 0.0000 0.0000 1764.8891 -7513.4137 300.2984 -9278.3028 -7522.9800 299.9557 -600.7622 -559.6525 30229.4262 -54.4528 9.5081
TCL: Exiting due to exit command.
