Info: SIMULATION PARAMETERS:
Info: TIMESTEP               2
Info: NUMBER OF STEPS        0
Info: STEPS PER CYCLE        10
Info: PERIODIC CELL BASIS 1  32.1057 0 0
Info: PERIODIC CELL BASIS 2  0 30.1757 0
Info: PERIODIC CELL BASIS 3  0 0 32.0331
Info: PERIODIC CELL CENTER   0 0 0
Info: WRAPPING WATERS AROUND PERIODIC BOUNDARIES ON OUTPUT.
Info: WRAPPING ALL CLUSTERS AROUND PERIODIC BOUNDARIES ON OUTPUT.
Info: FIRST LDB TIMESTEP     50
Info: LAST LDB TIMESTEP     -1
Info: HOM BACKGROUND SCALING 1
Info: PME BACKGROUND SCALING 1
Info: MIN ATOMS PER PATCH    40
Info: EMPTY PATCH LOAD       40 ATOMS
Info: VELOCITY FILE          mobley_2681549_equil.vel
Info: CENTER OF MASS MOVING INITIALLY? NO
Info: DIELECTRIC             1
Info: EXCLUDE                SCALED ONE-FOUR
Info: 1-4 ELECTROSTATICS SCALED BY 0.833333
Info: MODIFIED 1-4 VDW PARAMETERS WILL BE USED
Info: DCD FILENAME           mobley_2681549_prod.dcd
Info: DCD FREQUENCY          100000
Info: DCD FIRST STEP         100000
Info: DCD FILE WILL CONTAIN UNIT CELL DATA
Info: XST FILENAME           mobley_2681549_prod.xst
Info: XST FREQUENCY          100000
Info: NO VELOCITY DCD OUTPUT
Info: NO FORCE DCD OUTPUT
Info: OUTPUT FILENAME        mobley_2681549_prod
Info: BINARY OUTPUT FILES WILL BE USED
Info: RESTART FILENAME       mobley_2681549_prod.restart
Info: RESTART FREQUENCY      100000
Info: BINARY RESTART FILES WILL BE USED
Info: CUTOFF                 9
Info: PAIRLIST DISTANCE      11
Info: PAIRLIST SHRINK RATE   0.01
Info: PAIRLIST GROW RATE     0.01
Info: PAIRLIST TRIGGER       0.3
Info: PAIRLISTS PER CYCLE    2
Info: PAIRLISTS ENABLED
Info: MARGIN                 2
Info: HYDROGEN GROUP CUTOFF  2.5
Info: PATCH DIMENSION        15.5
Info: ENERGY OUTPUT STEPS    100000
Info: ENERGY EVALUATION STEPS    100000
Info: OUTPUT ENERGY PRECISION 4
Info: CROSSTERM ENERGY INCLUDED IN DIHEDRAL
Info: TIMING OUTPUT STEPS    1000000
Info: PRESSURE OUTPUT STEPS  100000
Info: ALCHEMICAL FEP ON
Info: FEP CURRENT LAMBDA VALUE     1
Info: FEP COMPARISON LAMBDA VALUE  0.95
Info: FEP INTRA-ALCHEMICAL NON-BONDED INTERACTIONS WILL BE RETAINED
Info: FEP INTRA-ALCHEMICAL BONDED INTERACTIONS WILL BE RETAINED
Info: FEP VDW SHIFTING COEFFICIENT 5
Info: FEP ELEC. ACTIVE FOR ANNIHILATED PARTICLES BETWEEN LAMBDA = 0 AND LAMBDA = 0.5
Info: FEP ELEC. ACTIVE FOR EXNIHILATED PARTICLES BETWEEN LAMBDA = 0.5 AND LAMBDA = 1
Info: FEP VDW ACTIVE FOR ANNIHILATED PARTICLES BETWEEN LAMBDA = 0 AND LAMBDA = 1
Info: FEP VDW ACTIVE FOR EXNIHILATED PARTICLES BETWEEN LAMBDA = 0 AND LAMBDA = 1
Info: FEP BOND ACTIVE FOR ANNIHILATED PARTICLES BETWEEN LAMBDA = 1 AND LAMBDA = 1
Info: FEP BOND ACTIVE FOR EXNIHILATED PARTICLES BETWEEN LAMBDA = 0 AND LAMBDA = 0
Info: LANGEVIN DYNAMICS ACTIVE
Info: LANGEVIN TEMPERATURE   300
Info: LANGEVIN USING BBK INTEGRATOR
Info: LANGEVIN DAMPING COEFFICIENT IS 1 INVERSE PS
Info: LANGEVIN DYNAMICS APPLIED TO HYDROGENS
Info: LANGEVIN PISTON PRESSURE CONTROL ACTIVE
Info:        TARGET PRESSURE IS 1.01325 BAR
Info:     OSCILLATION PERIOD IS 50 FS
Info:             DECAY TIME IS 25 FS
Info:     PISTON TEMPERATURE IS 300 K
Info:       PRESSURE CONTROL IS GROUP-BASED
Info:    INITIAL STRAIN RATE IS 0.000106542 0.000106542 0.000106542
Info:       CELL FLUCTUATION IS ISOTROPIC
Info: PARTICLE MESH EWALD (PME) ACTIVE
Info: PME TOLERANCE               1e-06
Info: PME EWALD COEFFICIENT       0.348832
Info: PME INTERPOLATION ORDER     4
Info: PME GRID DIMENSIONS         36 32 36
Info: PME MAXIMUM GRID SPACING    1
Info: PME CALCULATION WILL BE PERFORMED ON GPU
Info: FULL ELECTROSTATIC EVALUATION FREQUENCY      2
Info: USING VERLET I (r-RESPA) MTS SCHEME.
Info: C1 SPLITTING OF LONG RANGE ELECTROSTATICS
Info: PLACING ATOMS IN PATCHES BY HYDROGEN GROUPS
Info: RIGID BONDS TO HYDROGEN : ALL
Info:         ERROR TOLERANCE : 1e-08
Info:          MAX ITERATIONS : 100
Info: RIGID WATER USING SETTLE ALGORITHM
Info: RANDOM NUMBER SEED     1743536573
Info: USE HYDROGEN BONDS?    NO
Info: Using AMBER format force field!
Info: AMBER PARM FILE        mobley_2681549.prmtop
Info: COORDINATE PDB         mobley_2681549.pdb
Info: Exclusions will be read from PARM file!
Info: SCNB (VDW SCALING)     2
Info: USING ARITHMETIC MEAN TO COMBINE L-J SIGMA PARAMETERS
Info: BINARY COORDINATES     mobley_2681549_equil.coor
Info: SUMMARY OF PARAMETERS:
Info: 5 BONDS
Info: 3 ANGLES
Info:   3 HARMONIC
Info:   0 COSINE-BASED
Info: 2 DIHEDRAL
Info: 0 IMPROPER
Info: 0 CROSSTERM
Info: 0 VDW
Info: 15 VDW_PAIRS
Info: 0 NBTHOLE_PAIRS
Info: To read alchdata from file: mobley_2681549.pdb
Info: To read alchflag data from column: 5
Info: STRUCTURE SUMMARY:
Info: 2991 ATOMS
Info: 2991 BONDS
Info: 18 ANGLES
Info: 30 DIHEDRALS
Info: 0 IMPROPERS
Info: 0 CROSSTERMS
Info: 3030 EXCLUSIONS
Info: 2982 RIGID BONDS
Info: ALCH: 0 ATOMS TO DISAPPEAR IN FINAL STATE
Info: ALCH: 12 ATOMS TO APPEAR IN FINAL STATE
Info: 5991 DEGREES OF FREEDOM
Info: 1002 HYDROGEN GROUPS
Info: 3 ATOMS IN LARGEST HYDROGEN GROUP
Info: 1002 MIGRATION GROUPS
Info: 3 ATOMS IN LARGEST MIGRATION GROUP
Info: TOTAL MASS = 18071.3 amu
Info: TOTAL CHARGE = 0.000199992 e
Info: MASS DENSITY = 0.966968 g/cm^3
Info: ATOM DENSITY = 0.0963783 atoms/A^3
Info: ADDED 0 IMPLICIT EXCLUSIONS
Info: NONBONDED TABLE R-SQUARED SPACING: 0.0625
Info: NONBONDED TABLE SIZE: 705 POINTS
Info: REMOVING COM VELOCITY -0.0681478 -0.00894377 -0.180924
Info: Use 3D box decompostion in PME FFT.
Info: Updated CUDA force table with 4096 elements.
Info: Updated CUDA LJ table with 5 x 5 elements.
Info: Found 14 unique exclusion lists needing 24 bytes
TCL: Running for 1500000 steps
ETITLE: TS BOND ANGLE DIHED IMPRP ELECT VDW BOUNDARY MISC KINETIC TOTAL TEMP POTENTIAL TOTALAVG TEMPAVG PRESSURE GPRESSURE VOLUME PRESSAVG GPRESSAVG
ENERGY: 0 5.1495 1.4448 1.7848 0.0000 -10840.7027 1504.8475 0.0000 0.0000 1742.0031 -7585.4729 292.6442 -9327.4761 -7585.4729 292.6442 305.0038 379.7206 31033.9550 305.0038 379.7206
ENERGY: 300000 1.5901 3.4762 1.4662 0.0000 -10725.2324 1369.6548 0.0000 0.0000 1779.8091 -7569.2361 298.9954 -9349.0452 -7580.4838 298.5158 -964.6334 -910.0100 31690.6281 -191.7162 -130.1678
ENERGY: 600000 5.1596 1.4609 1.6609 0.0000 -10754.8568 1404.0650 0.0000 0.0000 1842.4621 -7500.0483 309.5206 -9342.5103 -7593.1252 299.0989 -288.7563 -177.2013 31154.0778 -219.0727 -155.3573
ENERGY: 900000 2.5930 4.6149 1.7498 0.0000 -10892.2308 1435.0179 0.0000 0.0000 1695.9923 -7752.2628 284.9148 -9448.2552 -7619.3847 298.1317 -418.0317 -307.6660 30631.9652 -201.8926 -139.1027
ENERGY: 1200000 1.0431 2.4301 1.5148 0.0000 -10738.9935 1368.8658 0.0000 0.0000 1807.8881 -7557.2515 303.7125 -9365.1396 -7612.0387 298.5670 -371.3443 -306.6260 30672.6921 -177.6398 -109.1945
ENERGY: 1500000 1.1357 4.0897 2.2996 0.0000 -10834.3140 1452.2242 0.0000 0.0000 1786.4616 -7588.1032 300.1130 -9374.5649 -7617.0991 298.0327 49.2520 171.8376 30914.6349 -139.9533 -73.3609
TCL: Running FEP window   2: Lambda1 0.95   Lambda2 0.8999999999999999 [dLambda -0.050000000000000044]
TCL: Setting parameter firsttimestep to 0
TCL: Setting parameter alchLambda to 0.95
Info: NONBONDED TABLE R-SQUARED SPACING: 0.0625
Info: NONBONDED TABLE SIZE: 705 POINTS
TCL: Setting parameter alchLambda2 to 0.8999999999999999
Info: NONBONDED TABLE R-SQUARED SPACING: 0.0625
Info: NONBONDED TABLE SIZE: 705 POINTS
TCL: Running for 1500000 steps
ETITLE: TS BOND ANGLE DIHED IMPRP ELECT VDW BOUNDARY MISC KINETIC TOTAL TEMP POTENTIAL TOTALAVG TEMPAVG PRESSURE GPRESSURE VOLUME PRESSAVG GPRESSAVG
ENERGY: 0 1.1357 4.0897 2.2996 0.0000 -10834.0749 1452.2605 0.0000 0.0000 1785.5840 -7588.7053 299.9655 -9374.2894 -7588.7053 299.9655 66.7178 154.6489 30914.6349 66.7178 154.6489
ENERGY: 300000 4.4230 0.4770 2.5417 0.0000 -10659.4437 1343.6051 0.0000 0.0000 1809.7166 -7498.6804 304.0196 -9308.3970 -7578.4154 301.3015 -708.3845 -645.3896 30923.6618 155.2332 218.1562
ENERGY: 600000 3.0283 2.7318 2.5598 0.0000 -10859.3950 1453.3138 0.0000 0.0000 1784.0148 -7613.7466 299.7019 -9397.7614 -7595.6716 301.9249 32.4018 88.2380 30502.9799 -47.9834 20.0118
ENERGY: 900000 2.5151 3.1353 4.1164 0.0000 -10797.3204 1478.9815 0.0000 0.0000 1803.2508 -7505.3212 302.9334 -9308.5720 -7580.6808 301.6379 383.8939 387.8765 31014.2984 -61.1071 -1.4766
ENERGY: 1200000 2.9260 2.7160 0.8026 0.0000 -11082.9190 1610.1989 0.0000 0.0000 1791.6170 -7674.6586 300.9790 -9466.2755 -7591.2134 301.0619 1245.3536 1270.0388 30446.5740 111.1824 173.8136
ENERGY: 1500000 2.0184 3.0753 2.9282 0.0000 -10879.0394 1442.7820 0.0000 0.0000 1759.4153 -7668.8201 295.5694 -9428.2355 -7593.6125 300.3858 -19.5945 12.7680 30534.6891 109.6545 169.2669
TCL: Running FEP window   3: Lambda1 0.8999999999999999 Lambda2 0.8499999999999999 [dLambda -0.050000000000000044]
TCL: Setting parameter firsttimestep to 0
TCL: Setting parameter alchLambda to 0.8999999999999999
Info: NONBONDED TABLE R-SQUARED SPACING: 0.0625
Info: NONBONDED TABLE SIZE: 705 POINTS
TCL: Setting parameter alchLambda2 to 0.8499999999999999
Info: NONBONDED TABLE R-SQUARED SPACING: 0.0625
Info: NONBONDED TABLE SIZE: 705 POINTS
TCL: Running for 1500000 steps
ETITLE: TS BOND ANGLE DIHED IMPRP ELECT VDW BOUNDARY MISC KINETIC TOTAL TEMP POTENTIAL TOTALAVG TEMPAVG PRESSURE GPRESSURE VOLUME PRESSAVG GPRESSAVG
ENERGY: 0 2.0184 3.0753 2.9282 0.0000 -10878.7445 1443.2457 0.0000 0.0000 1758.5431 -7668.9338 295.4228 -9427.4768 -7668.9338 295.4228 -77.6288 2.9651 30534.6891 -77.6288 2.9651
ENERGY: 300000 2.9929 1.4668 2.7493 0.0000 -10803.1701 1430.1601 0.0000 0.0000 1766.2561 -7599.5449 296.7186 -9365.8010 -7613.6957 298.0927 -64.9767 25.5613 30981.5551 -254.9725 -173.5639
ENERGY: 600000 1.9865 0.7993 4.3235 0.0000 -10886.6955 1454.6737 0.0000 0.0000 1784.4566 -7640.4558 299.7761 -9424.9124 -7615.7052 297.6614 94.3520 173.9534 30701.5056 -238.9930 -159.4114
ENERGY: 900000 2.9161 1.6271 3.7096 0.0000 -10853.7826 1474.5353 0.0000 0.0000 1846.8019 -7524.1927 310.2497 -9370.9945 -7597.0936 299.6888 155.5859 261.5215 30678.9768 -77.2820 1.6497
ENERGY: 1200000 4.2459 2.7208 5.7294 0.0000 -10756.3255 1420.4821 0.0000 0.0000 1792.7589 -7530.3884 301.1709 -9323.1473 -7588.2728 298.9035 -355.7347 -327.8689 31042.4468 -174.5160 -101.6343
ENERGY: 1500000 3.9549 2.6726 1.3693 0.0000 -10989.0539 1570.7001 0.0000 0.0000 1805.3181 -7605.0387 303.2807 -9410.3569 -7586.4077 299.5438 955.0841 997.6980 30650.7799 -110.2683 -43.0562
TCL: Running FEP window   4: Lambda1 0.8499999999999999 Lambda2 0.7999999999999998 [dLambda -0.050000000000000044]
TCL: Setting parameter firsttimestep to 0
TCL: Setting parameter alchLambda to 0.8499999999999999
Info: NONBONDED TABLE R-SQUARED SPACING: 0.0625
Info: NONBONDED TABLE SIZE: 705 POINTS
TCL: Setting parameter alchLambda2 to 0.7999999999999998
Info: NONBONDED TABLE R-SQUARED SPACING: 0.0625
Info: NONBONDED TABLE SIZE: 705 POINTS
TCL: Running for 1500000 steps
ETITLE: TS BOND ANGLE DIHED IMPRP ELECT VDW BOUNDARY MISC KINETIC TOTAL TEMP POTENTIAL TOTALAVG TEMPAVG PRESSURE GPRESSURE VOLUME PRESSAVG GPRESSAVG
ENERGY: 0 3.9549 2.6726 1.3693 0.0000 -10988.8561 1571.0080 0.0000 0.0000 1804.3957 -7605.4555 303.1258 -9409.8512 -7605.4555 303.1258 907.9419 988.7117 30650.7799 907.9419 988.7117
ENERGY: 300000 2.1803 5.6064 1.6211 0.0000 -10775.8000 1386.9912 0.0000 0.0000 1778.7558 -7600.6453 298.8184 -9379.4011 -7624.6932 299.7960 -557.4006 -461.1784 30974.3459 -2.7215 57.3622
ENERGY: 600000 2.0876 1.8502 1.8966 0.0000 -10878.2871 1448.3244 0.0000 0.0000 1778.3091 -7645.8193 298.7434 -9424.1284 -7608.7320 299.7411 16.1218 67.6289 30601.6649 -153.2674 -98.1571
ENERGY: 900000 0.9797 2.1761 2.8456 0.0000 -10791.8205 1404.3921 0.0000 0.0000 1745.2404 -7636.1866 293.1881 -9381.4269 -7605.2332 300.7706 -490.4068 -451.6625 31146.6803 -87.2062 -32.2557
ENERGY: 1200000 2.8342 5.0391 2.5383 0.0000 -10935.3690 1460.2461 0.0000 0.0000 1791.5755 -7673.1357 300.9721 -9464.7112 -7611.4768 299.9722 -99.7366 -10.7312 30441.5574 -90.5846 -25.4134
ENERGY: 1500000 1.2818 2.7651 0.7904 0.0000 -10904.2461 1499.9906 0.0000 0.0000 1801.6227 -7597.7956 302.6599 -9399.4183 -7606.8920 300.6054 336.0266 407.9077 30753.3720 -17.6074 44.8764
TCL: Running FEP window   5: Lambda1 0.7999999999999998 Lambda2 0.7499999999999998 [dLambda -0.050000000000000044]
TCL: Setting parameter firsttimestep to 0
TCL: Setting parameter alchLambda to 0.7999999999999998
Info: NONBONDED TABLE R-SQUARED SPACING: 0.0625
Info: NONBONDED TABLE SIZE: 705 POINTS
TCL: Setting parameter alchLambda2 to 0.7499999999999998
Info: NONBONDED TABLE R-SQUARED SPACING: 0.0625
Info: NONBONDED TABLE SIZE: 705 POINTS
TCL: Running for 1500000 steps
ETITLE: TS BOND ANGLE DIHED IMPRP ELECT VDW BOUNDARY MISC KINETIC TOTAL TEMP POTENTIAL TOTALAVG TEMPAVG PRESSURE GPRESSURE VOLUME PRESSAVG GPRESSAVG
ENERGY: 0 1.2818 2.7651 0.7904 0.0000 -10904.1308 1499.7853 0.0000 0.0000 1800.7133 -7598.7949 302.5072 -9399.5082 -7598.7949 302.5072 309.5527 396.6898 30753.3720 309.5527 396.6898
ENERGY: 300000 0.9452 2.1359 2.6294 0.0000 -10832.4245 1467.0235 0.0000 0.0000 1780.2568 -7579.4337 299.0706 -9359.6905 -7585.0678 300.4994 181.5204 238.5458 30848.5595 -84.6159 -27.1779
ENERGY: 600000 2.2238 3.0153 1.8683 0.0000 -10932.7086 1434.1715 0.0000 0.0000 1810.0548 -7681.3749 304.0765 -9491.4298 -7637.2942 298.6271 -253.2324 -183.6734 30422.3524 14.1603 78.2227
ENERGY: 900000 1.0151 2.9350 4.7059 0.0000 -10991.7039 1607.1180 0.0000 0.0000 1710.0265 -7665.9035 287.2724 -9375.9300 -7627.6240 297.5730 1379.9129 1446.6015 30501.6059 138.9023 200.5717
ENERGY: 1200000 4.8571 1.7972 2.9816 0.0000 -10848.9459 1458.9154 0.0000 0.0000 1825.7358 -7554.6587 306.7107 -9380.3945 -7612.1397 299.1851 -258.6661 -116.3202 31004.2907 120.9277 189.0679
ENERGY: 1500000 2.9571 2.1313 2.5564 0.0000 -10864.7726 1461.6897 0.0000 0.0000 1777.6444 -7617.7937 298.6317 -9395.4381 -7608.3547 299.8279 98.0010 171.5710 30734.2163 67.7159 133.6794
TCL: Running FEP window   6: Lambda1 0.7499999999999998 Lambda2 0.6999999999999997 [dLambda -0.050000000000000044]
TCL: Setting parameter firsttimestep to 0
TCL: Setting parameter alchLambda to 0.7499999999999998
Info: NONBONDED TABLE R-SQUARED SPACING: 0.0625
Info: NONBONDED TABLE SIZE: 705 POINTS
TCL: Setting parameter alchLambda2 to 0.6999999999999997
Info: NONBONDED TABLE R-SQUARED SPACING: 0.0625
Info: NONBONDED TABLE SIZE: 705 POINTS
TCL: Running for 1500000 steps
ETITLE: TS BOND ANGLE DIHED IMPRP ELECT VDW BOUNDARY MISC KINETIC TOTAL TEMP POTENTIAL TOTALAVG TEMPAVG PRESSURE GPRESSURE VOLUME PRESSAVG GPRESSAVG
ENERGY: 0 2.9571 2.1313 2.5564 0.0000 -10864.5625 1461.9374 0.0000 0.0000 1776.7981 -7618.1822 298.4896 -9394.9803 -7618.1822 298.4896 74.2359 164.1061 30734.2163 74.2359 164.1061
ENERGY: 300000 1.0284 1.0529 2.9413 0.0000 -10893.0939 1471.6748 0.0000 0.0000 1768.6776 -7647.7189 297.1254 -9416.3965 -7628.4229 298.6526 428.0106 415.9394 30222.3304 -164.9518 -97.5701
ENERGY: 600000 2.2061 4.0988 1.8194 0.0000 -10790.4956 1428.6528 0.0000 0.0000 1780.6560 -7573.0625 299.1377 -9353.7185 -7607.3775 301.0539 -109.8125 -68.3684 30589.5195 -15.8477 45.8520
ENERGY: 900000 1.9010 4.8642 2.1767 0.0000 -10765.2474 1366.5467 0.0000 0.0000 1745.1228 -7644.6361 293.1683 -9389.7589 -7604.5446 300.3454 -796.2436 -684.5426 30992.5025 -20.8625 50.2239
ENERGY: 1200000 3.1026 1.8323 2.2435 0.0000 -10957.1075 1515.2824 0.0000 0.0000 1817.3194 -7617.3274 305.2969 -9434.6468 -7607.1759 301.0682 144.7612 112.6185 31037.7206 -3.9650 62.1319
ENERGY: 1500000 2.2042 3.6330 1.6936 0.0000 -10760.1445 1421.7019 0.0000 0.0000 1727.7313 -7603.1805 290.2467 -9330.9118 -7595.4114 300.4449 -213.1207 -127.9577 31030.6785 24.2666 93.2503
TCL: Running FEP window   7: Lambda1 0.6999999999999997 Lambda2 0.6499999999999997 [dLambda -0.050000000000000044]
TCL: Setting parameter firsttimestep to 0
TCL: Setting parameter alchLambda to 0.6999999999999997
Info: NONBONDED TABLE R-SQUARED SPACING: 0.0625
Info: NONBONDED TABLE SIZE: 705 POINTS
TCL: Setting parameter alchLambda2 to 0.6499999999999997
Info: NONBONDED TABLE R-SQUARED SPACING: 0.0625
Info: NONBONDED TABLE SIZE: 705 POINTS
TCL: Running for 1500000 steps
ETITLE: TS BOND ANGLE DIHED IMPRP ELECT VDW BOUNDARY MISC KINETIC TOTAL TEMP POTENTIAL TOTALAVG TEMPAVG PRESSURE GPRESSURE VOLUME PRESSAVG GPRESSAVG
ENERGY: 0 2.2042 3.6330 1.6936 0.0000 -10759.9042 1421.5323 0.0000 0.0000 1726.8676 -7603.9735 290.1016 -9330.8411 -7603.9735 290.1016 -220.5595 -137.2900 31030.6785 -220.5595 -137.2900
ENERGY: 300000 4.1948 2.7330 0.7071 0.0000 -10880.5255 1455.7701 0.0000 0.0000 1832.1010 -7585.0195 307.7801 -9417.1205 -7615.7032 300.4910 -278.7922 -231.8555 31012.8030 -554.6658 -462.1603
ENERGY: 600000 1.4619 5.9212 5.2024 0.0000 -10908.6536 1456.9524 0.0000 0.0000 1762.8187 -7676.2970 296.1411 -9439.1157 -7606.3064 300.1415 -104.3478 -114.9826 30678.2571 -343.9502 -275.9445
ENERGY: 900000 2.1991 3.9642 3.6516 0.0000 -10939.8118 1462.4907 0.0000 0.0000 1806.6596 -7660.8466 303.5061 -9467.5062 -7617.5525 299.4967 -322.9141 -294.4015 30760.1074 -303.8716 -238.8490
ENERGY: 1200000 1.6994 3.6742 5.5469 0.0000 -10817.5893 1377.8948 0.0000 0.0000 1799.3445 -7629.4295 302.2772 -9428.7740 -7620.5380 300.2095 -661.6920 -523.1245 30826.7882 -311.6462 -240.7012
ENERGY: 1500000 1.7990 4.6280 1.8709 0.0000 -10832.9096 1440.2139 0.0000 0.0000 1780.0110 -7604.3867 299.0293 -9384.3977 -7618.5449 299.1970 -0.1179 103.1925 30650.9638 -275.9718 -213.7298
TCL: Running FEP window   8: Lambda1 0.6499999999999997 Lambda2 0.5999999999999996 [dLambda -0.050000000000000044]
TCL: Setting parameter firsttimestep to 0
TCL: Setting parameter alchLambda to 0.6499999999999997
Info: NONBONDED TABLE R-SQUARED SPACING: 0.0625
Info: NONBONDED TABLE SIZE: 705 POINTS
TCL: Setting parameter alchLambda2 to 0.5999999999999996
Info: NONBONDED TABLE R-SQUARED SPACING: 0.0625
Info: NONBONDED TABLE SIZE: 705 POINTS
TCL: Running for 1500000 steps
ETITLE: TS BOND ANGLE DIHED IMPRP ELECT VDW BOUNDARY MISC KINETIC TOTAL TEMP POTENTIAL TOTALAVG TEMPAVG PRESSURE GPRESSURE VOLUME PRESSAVG GPRESSAVG
ENERGY: 0 1.7990 4.6280 1.8709 0.0000 -10832.7935 1440.6084 0.0000 0.0000 1779.1306 -7604.7566 298.8814 -9383.8872 -7604.7566 298.8814 11.1696 100.0793 30650.9638 11.1696 100.0793
ENERGY: 300000 3.7621 4.0609 5.1847 0.0000 -10860.7032 1489.7835 0.0000 0.0000 1718.4654 -7639.4466 288.6901 -9357.9121 -7591.4056 296.4526 342.3679 414.9939 30866.1777 -100.7445 -35.0009
ENERGY: 600000 2.8651 1.7811 1.8856 0.0000 -10822.0354 1390.7751 0.0000 0.0000 1846.8233 -7577.9052 310.2533 -9424.7285 -7597.0591 300.4116 -824.7562 -658.0160 31003.1054 -244.9074 -155.3871
ENERGY: 900000 1.6395 2.9995 4.2977 0.0000 -10771.2571 1422.8138 0.0000 0.0000 1857.1904 -7482.3161 311.9949 -9339.5065 -7572.9355 303.2162 62.0996 156.7909 30622.5358 -33.9147 53.1630
ENERGY: 1200000 5.9322 8.4998 4.7239 0.0000 -10903.5310 1516.6722 0.0000 0.0000 1783.5895 -7584.1134 299.6305 -9367.7029 -7568.2011 303.2425 243.7835 267.1745 30931.4885 -53.4230 33.4853
ENERGY: 1500000 1.9264 1.1536 1.9651 0.0000 -10981.8621 1555.0353 0.0000 0.0000 1773.1916 -7648.5902 297.8837 -9421.7818 -7573.8831 302.6811 924.2852 1039.9484 30228.6451 -7.1183 71.1843
TCL: Running FEP window   9: Lambda1 0.5999999999999996 Lambda2 0.5499999999999996 [dLambda -0.050000000000000044]
TCL: Setting parameter firsttimestep to 0
TCL: Setting parameter alchLambda to 0.5999999999999996
Info: NONBONDED TABLE R-SQUARED SPACING: 0.0625
Info: NONBONDED TABLE SIZE: 705 POINTS
TCL: Setting parameter alchLambda2 to 0.5499999999999996
Info: NONBONDED TABLE R-SQUARED SPACING: 0.0625
Info: NONBONDED TABLE SIZE: 705 POINTS
TCL: Running for 1500000 steps
ETITLE: TS BOND ANGLE DIHED IMPRP ELECT VDW BOUNDARY MISC KINETIC TOTAL TEMP POTENTIAL TOTALAVG TEMPAVG PRESSURE GPRESSURE VOLUME PRESSAVG GPRESSAVG
ENERGY: 0 1.9264 1.1536 1.9651 0.0000 -10981.6734 1555.6697 0.0000 0.0000 1772.2646 -7648.6939 297.7280 -9420.9586 -7648.6939 297.7280 948.1420 1038.5680 30228.6451 948.1420 1038.5680
ENERGY: 300000 5.5222 5.7946 3.2858 0.0000 -10836.0455 1412.0494 0.0000 0.0000 1824.7475 -7584.6460 306.5447 -9409.3935 -7588.3090 301.3430 -658.0692 -600.6913 31063.0156 169.3921 237.7012
ENERGY: 600000 1.6562 4.2518 1.4934 0.0000 -10749.9031 1444.9907 0.0000 0.0000 1749.8271 -7547.6840 293.9586 -9297.5111 -7590.7171 298.2383 -217.2746 -137.0505 31350.5573 81.5142 153.6051
ENERGY: 900000 3.0789 3.8232 1.7895 0.0000 -10927.0542 1476.4587 0.0000 0.0000 1804.0704 -7637.8334 303.0711 -9441.9039 -7602.8326 298.6800 -267.0845 -171.0570 30613.8986 21.0459 92.1366
ENERGY: 1200000 2.2539 6.2567 2.5188 0.0000 -10961.5366 1519.0572 0.0000 0.0000 1798.5132 -7632.9369 302.1375 -9431.4501 -7613.8235 298.8675 210.6575 312.4185 30784.4853 54.5144 124.6042
ENERGY: 1500000 1.7845 2.1700 2.0234 0.0000 -10725.2211 1444.3639 0.0000 0.0000 1811.0701 -7463.8092 304.2470 -9274.8793 -7606.1217 299.1284 27.2991 76.6497 31142.3739 94.7265 163.1082
TCL: Running FEP window  10: Lambda1 0.5499999999999996 Lambda2 0.4999999999999996 [dLambda -0.04999999999999999]
TCL: Setting parameter firsttimestep to 0
TCL: Setting parameter alchLambda to 0.5499999999999996
Info: NONBONDED TABLE R-SQUARED SPACING: 0.0625
Info: NONBONDED TABLE SIZE: 705 POINTS
TCL: Setting parameter alchLambda2 to 0.4999999999999996
Info: NONBONDED TABLE R-SQUARED SPACING: 0.0625
Info: NONBONDED TABLE SIZE: 705 POINTS
TCL: Running for 1500000 steps
ETITLE: TS BOND ANGLE DIHED IMPRP ELECT VDW BOUNDARY MISC KINETIC TOTAL TEMP POTENTIAL TOTALAVG TEMPAVG PRESSURE GPRESSURE VOLUME PRESSAVG GPRESSAVG
ENERGY: 0 1.7845 2.1700 2.0234 0.0000 -10725.0831 1444.7766 0.0000 0.0000 1810.1761 -7464.1525 304.0968 -9274.3286 -7464.1525 304.0968 3.1645 71.9553 31142.3739 3.1645 71.9553
ENERGY: 300000 6.0676 1.4390 2.1884 0.0000 -10849.4691 1488.0841 0.0000 0.0000 1793.7804 -7557.9096 301.3425 -9351.6900 -7558.8859 299.7210 168.7044 243.6521 30884.5108 15.2182 89.9770
ENERGY: 600000 1.1061 3.1002 2.6691 0.0000 -10915.4676 1508.5960 0.0000 0.0000 1744.9839 -7655.0124 293.1450 -9399.9963 -7590.9790 299.2909 398.1838 409.6157 30648.4426 179.7955 242.3215
ENERGY: 900000 1.2068 4.7590 2.3830 0.0000 -10854.3344 1431.1080 0.0000 0.0000 1792.1942 -7622.6834 301.0760 -9414.8776 -7590.3883 298.7289 -311.2077 -261.1844 30767.2920 33.9862 90.0199
ENERGY: 1200000 1.0721 3.3815 2.0996 0.0000 -10834.6915 1438.2534 0.0000 0.0000 1795.0470 -7594.8380 301.5552 -9389.8850 -7590.3762 299.0194 98.1359 87.8727 30892.0414 76.4817 126.5964
ENERGY: 1500000 2.5236 1.5698 4.3175 0.0000 -10891.2119 1461.9216 0.0000 0.0000 1786.6862 -7634.1934 300.1507 -9420.8796 -7588.3744 299.2050 -192.2374 -161.1580 30735.9225 -1.9146 52.6113
TCL: Running FEP window  11: Lambda1 0.4999999999999996 Lambda2 0.4499999999999996 [dLambda -0.04999999999999999]
TCL: Setting parameter firsttimestep to 0
TCL: Setting parameter alchLambda to 0.4999999999999996
Info: NONBONDED TABLE R-SQUARED SPACING: 0.0625
Info: NONBONDED TABLE SIZE: 705 POINTS
TCL: Setting parameter alchLambda2 to 0.4499999999999996
Info: NONBONDED TABLE R-SQUARED SPACING: 0.0625
Info: NONBONDED TABLE SIZE: 705 POINTS
TCL: Running for 1500000 steps
ETITLE: TS BOND ANGLE DIHED IMPRP ELECT VDW BOUNDARY MISC KINETIC TOTAL TEMP POTENTIAL TOTALAVG TEMPAVG PRESSURE GPRESSURE VOLUME PRESSAVG GPRESSAVG
ENERGY: 0 2.5236 1.5698 4.3175 0.0000 -10891.3116 1462.4465 0.0000 0.0000 1785.7774 -7634.6770 299.9980 -9420.4543 -7634.6770 299.9980 -245.7021 -164.0147 30735.9225 -245.7021 -164.0147
ENERGY: 300000 1.9500 5.0336 7.2409 0.0000 -10879.0200 1517.2563 0.0000 0.0000 1792.4544 -7555.0849 301.1197 -9347.5393 -7594.8699 297.7215 429.2765 520.3770 31275.0337 156.3139 223.0530
ENERGY: 600000 1.3017 3.1318 4.0331 0.0000 -10835.0324 1476.3573 0.0000 0.0000 1778.9553 -7571.2532 298.8520 -9350.2085 -7580.1523 299.7982 410.1715 464.9362 30397.2292 301.2697 356.2410
ENERGY: 900000 1.1919 3.4079 5.7898 0.0000 -10962.9792 1549.6503 0.0000 0.0000 1836.8940 -7566.0453 308.5852 -9402.9393 -7591.5634 300.0491 499.2297 524.3932 31239.4293 276.8302 331.7284
ENERGY: 1200000 6.0611 3.8619 2.1388 0.0000 -10717.1614 1394.2977 0.0000 0.0000 1829.3438 -7481.4581 307.3169 -9310.8019 -7568.2965 301.1945 -591.1029 -537.4979 31356.7372 96.3832 153.0124
ENERGY: 1500000 1.5192 2.7791 1.3431 0.0000 -10899.5708 1471.6154 0.0000 0.0000 1766.3656 -7655.9485 296.7370 -9422.3141 -7575.3164 301.1094 26.2578 48.8543 30817.1244 126.6092 182.3799
TCL: Running FEP window  12: Lambda1 0.4499999999999996 Lambda2 0.39999999999999963 [dLambda -0.04999999999999999]
TCL: Setting parameter firsttimestep to 0
TCL: Setting parameter alchLambda to 0.4499999999999996
Info: NONBONDED TABLE R-SQUARED SPACING: 0.0625
Info: NONBONDED TABLE SIZE: 705 POINTS
TCL: Setting parameter alchLambda2 to 0.39999999999999963
Info: NONBONDED TABLE R-SQUARED SPACING: 0.0625
Info: NONBONDED TABLE SIZE: 705 POINTS
TCL: Running for 1500000 steps
ETITLE: TS BOND ANGLE DIHED IMPRP ELECT VDW BOUNDARY MISC KINETIC TOTAL TEMP POTENTIAL TOTALAVG TEMPAVG PRESSURE GPRESSURE VOLUME PRESSAVG GPRESSAVG
ENERGY: 0 1.5192 2.7791 1.3431 0.0000 -10899.5719 1472.0766 0.0000 0.0000 1765.4520 -7656.4019 296.5835 -9421.8539 -7656.4019 296.5835 -47.1914 46.2172 30817.1244 -47.1914 46.2172
ENERGY: 300000 1.8259 2.8185 3.5388 0.0000 -10848.4922 1395.6897 0.0000 0.0000 1747.3157 -7697.3036 293.5367 -9444.6193 -7627.8237 299.3577 -821.8783 -764.6375 30714.1239 -489.4731 -422.2752
ENERGY: 600000 4.0050 1.9383 6.1030 0.0000 -10927.3679 1456.8805 0.0000 0.0000 1762.3465 -7696.0946 296.0618 -9458.4411 -7634.8399 301.2404 13.8974 129.2888 30290.9274 -85.7772 -16.1489
ENERGY: 900000 2.4681 3.7559 2.8619 0.0000 -10793.1298 1391.1932 0.0000 0.0000 1791.6835 -7601.1672 300.9902 -9392.8507 -7630.8125 300.0656 -839.2365 -757.9735 31018.9743 -120.7259 -47.4690
ENERGY: 1200000 4.5265 4.1305 3.4610 0.0000 -10730.5449 1419.1771 0.0000 0.0000 1819.3958 -7479.8540 305.6457 -9299.2497 -7623.4713 300.0959 -386.2385 -375.2886 31381.0183 31.2289 98.7682
ENERGY: 1500000 2.5244 1.9423 2.5467 0.0000 -10766.8657 1381.7875 0.0000 0.0000 1797.5971 -7580.4677 301.9836 -9378.0647 -7609.3387 300.2816 -514.1925 -411.7526 30762.5484 -15.1091 52.8215
TCL: Running FEP window  13: Lambda1 0.39999999999999963 Lambda2 0.34999999999999964 [dLambda -0.04999999999999999]
TCL: Setting parameter firsttimestep to 0
TCL: Setting parameter alchLambda to 0.39999999999999963
Info: NONBONDED TABLE R-SQUARED SPACING: 0.0625
Info: NONBONDED TABLE SIZE: 705 POINTS
TCL: Setting parameter alchLambda2 to 0.34999999999999964
Info: NONBONDED TABLE R-SQUARED SPACING: 0.0625
Info: NONBONDED TABLE SIZE: 705 POINTS
TCL: Running for 1500000 steps
ETITLE: TS BOND ANGLE DIHED IMPRP ELECT VDW BOUNDARY MISC KINETIC TOTAL TEMP POTENTIAL TOTALAVG TEMPAVG PRESSURE GPRESSURE VOLUME PRESSAVG GPRESSAVG
ENERGY: 0 2.5244 1.9423 2.5467 0.0000 -10766.8659 1381.8289 0.0000 0.0000 1796.7313 -7581.2921 301.8382 -9378.0235 -7581.2921 301.8382 -508.3408 -419.2683 30762.5484 -508.3408 -419.2683
ENERGY: 300000 2.8644 6.1823 2.6633 0.0000 -10796.1764 1418.7096 0.0000 0.0000 1785.6398 -7580.1170 299.9749 -9365.7568 -7564.9976 304.9895 -227.8740 -195.5794 30709.1899 -352.7467 -311.8771
ENERGY: 600000 1.9727 1.3237 3.6615 0.0000 -10747.4766 1415.1797 0.0000 0.0000 1821.2665 -7504.0726 305.9599 -9325.3391 -7548.0538 304.1816 -361.7096 -300.5183 31088.9959 -141.8103 -104.1907
ENERGY: 900000 2.4706 2.0750 2.9044 0.0000 -10740.0377 1408.3239 0.0000 0.0000 1784.7828 -7539.4809 299.8309 -9324.2637 -7557.5905 303.2871 -332.9364 -291.2421 31126.7229 -183.9904 -136.8656
ENERGY: 1200000 2.6326 5.5143 2.5427 0.0000 -10922.5088 1466.8015 0.0000 0.0000 1818.8336 -7626.1841 305.5512 -9445.0177 -7564.4041 302.0401 -142.2955 -91.7605 30668.5484 -187.8999 -129.1968
ENERGY: 1500000 2.9671 2.5963 3.1417 0.0000 -10734.8198 1406.5430 0.0000 0.0000 1798.0031 -7521.5686 302.0518 -9319.5717 -7566.1536 301.5754 -300.8618 -206.6033 30702.0993 -218.3484 -156.0340
TCL: Running FEP window  14: Lambda1 0.34999999999999964 Lambda2 0.29999999999999966 [dLambda -0.04999999999999999]
TCL: Setting parameter firsttimestep to 0
TCL: Setting parameter alchLambda to 0.34999999999999964
Info: NONBONDED TABLE R-SQUARED SPACING: 0.0625
Info: NONBONDED TABLE SIZE: 705 POINTS
TCL: Setting parameter alchLambda2 to 0.29999999999999966
Info: NONBONDED TABLE R-SQUARED SPACING: 0.0625
Info: NONBONDED TABLE SIZE: 705 POINTS
TCL: Running for 1500000 steps
ETITLE: TS BOND ANGLE DIHED IMPRP ELECT VDW BOUNDARY MISC KINETIC TOTAL TEMP POTENTIAL TOTALAVG TEMPAVG PRESSURE GPRESSURE VOLUME PRESSAVG GPRESSAVG
ENERGY: 0 2.9671 2.5963 3.1417 0.0000 -10734.8221 1406.9525 0.0000 0.0000 1797.1172 -7522.0473 301.9030 -9319.1645 -7522.0473 301.9030 -302.8815 -210.7868 30702.0993 -302.8815 -210.7868
ENERGY: 300000 1.0769 1.8369 3.8385 0.0000 -10693.8395 1379.1879 0.0000 0.0000 1759.7004 -7548.1989 295.6173 -9307.8993 -7581.9219 299.0329 -259.8151 -159.6037 30642.5663 -318.2138 -233.8195
ENERGY: 600000 1.8851 4.7418 1.3167 0.0000 -10946.7978 1461.8472 0.0000 0.0000 1709.6474 -7767.3596 287.2087 -9477.0070 -7626.7379 296.0300 -106.5925 -9.2866 30256.3500 -186.0422 -109.7006
ENERGY: 900000 1.5184 2.4702 1.8572 0.0000 -10852.5445 1470.5879 0.0000 0.0000 1781.4922 -7594.6187 299.2781 -9376.1109 -7619.8359 297.1344 71.0485 133.4497 30774.2108 -47.5756 25.6645
ENERGY: 1200000 1.9928 4.5711 1.5263 0.0000 -10842.3902 1403.2686 0.0000 0.0000 1814.9237 -7616.1077 304.8944 -9431.0314 -7612.6658 298.1055 -599.0808 -513.3474 30654.5579 -100.7106 -26.2226
ENERGY: 1500000 2.5718 1.1700 3.6424 0.0000 -10893.6257 1507.9116 0.0000 0.0000 1795.4537 -7582.8763 301.6236 -9378.3299 -7604.2774 298.7469 454.1309 501.9027 30564.3239 -55.2050 12.0217
TCL: Running FEP window  15: Lambda1 0.29999999999999966 Lambda2 0.24999999999999967 [dLambda -0.04999999999999999]
TCL: Setting parameter firsttimestep to 0
TCL: Setting parameter alchLambda to 0.29999999999999966
Info: NONBONDED TABLE R-SQUARED SPACING: 0.0625
Info: NONBONDED TABLE SIZE: 705 POINTS
TCL: Setting parameter alchLambda2 to 0.24999999999999967
Info: NONBONDED TABLE R-SQUARED SPACING: 0.0625
Info: NONBONDED TABLE SIZE: 705 POINTS
TCL: Running for 1500000 steps
ETITLE: TS BOND ANGLE DIHED IMPRP ELECT VDW BOUNDARY MISC KINETIC TOTAL TEMP POTENTIAL TOTALAVG TEMPAVG PRESSURE GPRESSURE VOLUME PRESSAVG GPRESSAVG
ENERGY: 0 2.5718 1.1700 3.6424 0.0000 -10893.6256 1508.2684 0.0000 0.0000 1794.5725 -7583.4004 301.4755 -9377.9729 -7583.4004 301.4755 410.7119 496.5281 30564.3239 410.7119 496.5281
ENERGY: 300000 3.6165 2.1092 2.3313 0.0000 -10828.6676 1461.8037 0.0000 0.0000 1777.5906 -7581.2162 298.6227 -9358.8069 -7553.7537 299.9258 122.6923 152.4782 30731.4080 -77.5745 -14.5581
ENERGY: 600000 1.7609 1.8938 3.5755 0.0000 -10808.4977 1392.0336 0.0000 0.0000 1839.0617 -7570.1723 308.9494 -9409.2339 -7555.8441 300.8624 -508.6528 -448.9486 30641.8357 -177.6053 -119.0839
ENERGY: 900000 3.6525 2.8144 2.6938 0.0000 -10781.6771 1397.1611 0.0000 0.0000 1843.2710 -7532.0843 309.6565 -9375.3553 -7563.7243 301.6568 -498.5436 -405.6115 30946.5689 -117.0804 -53.0373
ENERGY: 1200000 2.8272 3.2700 1.2144 0.0000 -10729.2920 1407.0107 0.0000 0.0000 1763.6791 -7551.2905 296.2857 -9314.9696 -7563.4027 300.4290 -470.8907 -351.8033 31066.1698 -174.0153 -110.2129
ENERGY: 1500000 1.4223 4.0398 1.7678 0.0000 -10697.6992 1389.8524 0.0000 0.0000 1815.1726 -7485.4443 304.9362 -9300.6169 -7570.6772 300.1273 -522.9234 -451.1090 31267.0301 -189.9014 -131.1534
TCL: Running FEP window  16: Lambda1 0.24999999999999967 Lambda2 0.19999999999999968 [dLambda -0.04999999999999999]
TCL: Setting parameter firsttimestep to 0
TCL: Setting parameter alchLambda to 0.24999999999999967
Info: NONBONDED TABLE R-SQUARED SPACING: 0.0625
Info: NONBONDED TABLE SIZE: 705 POINTS
TCL: Setting parameter alchLambda2 to 0.19999999999999968
Info: NONBONDED TABLE R-SQUARED SPACING: 0.0625
Info: NONBONDED TABLE SIZE: 705 POINTS
TCL: Running for 1500000 steps
ETITLE: TS BOND ANGLE DIHED IMPRP ELECT VDW BOUNDARY MISC KINETIC TOTAL TEMP POTENTIAL TOTALAVG TEMPAVG PRESSURE GPRESSURE VOLUME PRESSAVG GPRESSAVG
ENERGY: 0 1.4223 4.0398 1.7678 0.0000 -10697.6975 1389.9022 0.0000 0.0000 1814.2680 -7486.2974 304.7842 -9300.5654 -7486.2974 304.7842 -535.8819 -455.0221 31267.0301 -535.8819 -455.0221
ENERGY: 300000 3.7289 1.9375 1.5802 0.0000 -10942.5340 1493.9029 0.0000 0.0000 1834.7645 -7606.6200 308.2275 -9441.3845 -7578.0564 302.2756 134.8602 173.6699 30659.3858 18.5525 66.2639
ENERGY: 600000 2.1012 5.4823 6.5049 0.0000 -10932.2132 1547.2663 0.0000 0.0000 1845.3367 -7525.5218 310.0036 -9370.8585 -7564.6658 303.0072 476.9282 648.9101 30942.5642 13.7361 93.0265
ENERGY: 900000 3.4461 1.6436 4.9510 0.0000 -10920.0802 1498.5713 0.0000 0.0000 1836.3639 -7575.1043 308.4962 -9411.4683 -7574.8781 301.8648 277.1179 403.0748 30214.7550 204.3060 282.1052
ENERGY: 1200000 2.4929 1.1654 4.3773 0.0000 -10870.1376 1468.6016 0.0000 0.0000 1791.9584 -7601.5419 301.0364 -9393.5003 -7565.1111 302.7665 -28.1917 47.0406 30521.9396 99.2336 172.2602
ENERGY: 1500000 1.9399 3.8267 3.7837 0.0000 -10834.4670 1477.0472 0.0000 0.0000 1824.8438 -7523.0258 306.5609 -9347.8695 -7564.9708 302.9596 309.6439 338.4069 30696.1673 66.3523 134.2042
TCL: Running FEP window  17: Lambda1 0.19999999999999968 Lambda2 0.1499999999999997 [dLambda -0.04999999999999999]
TCL: Setting parameter firsttimestep to 0
TCL: Setting parameter alchLambda to 0.19999999999999968
Info: NONBONDED TABLE R-SQUARED SPACING: 0.0625
Info: NONBONDED TABLE SIZE: 705 POINTS
TCL: Setting parameter alchLambda2 to 0.1499999999999997
Info: NONBONDED TABLE R-SQUARED SPACING: 0.0625
Info: NONBONDED TABLE SIZE: 705 POINTS
TCL: Running for 1500000 steps
ETITLE: TS BOND ANGLE DIHED IMPRP ELECT VDW BOUNDARY MISC KINETIC TOTAL TEMP POTENTIAL TOTALAVG TEMPAVG PRESSURE GPRESSURE VOLUME PRESSAVG GPRESSAVG
ENERGY: 0 1.9399 3.8267 3.7837 0.0000 -10834.4669 1477.2091 0.0000 0.0000 1823.9980 -7523.7094 306.4188 -9347.7075 -7523.7094 306.4188 262.3749 334.0801 30696.1673 262.3749 334.0801
ENERGY: 300000 0.3797 1.8034 8.1495 0.0000 -10898.7075 1435.3548 0.0000 0.0000 1831.8788 -7621.1413 307.7427 -9453.0201 -7548.4249 305.4960 -81.5042 -35.9137 30320.9932 185.4049 242.5262
ENERGY: 600000 2.1170 1.6987 3.1998 0.0000 -10852.6387 1468.4575 0.0000 0.0000 1762.5845 -7614.5812 296.1018 -9377.1657 -7562.7098 302.3738 -233.5085 -127.7003 31179.9944 89.2930 159.6515
ENERGY: 900000 0.6205 1.3589 2.0890 0.0000 -10826.2604 1483.1217 0.0000 0.0000 1791.4399 -7547.6303 300.9493 -9339.0702 -7563.4724 302.0725 143.7544 159.5392 31058.4808 169.0429 235.3524
ENERGY: 1200000 2.2482 4.8210 1.3357 0.0000 -10761.4962 1452.9510 0.0000 0.0000 1762.7971 -7537.3433 296.1375 -9300.1403 -7566.4894 301.8050 301.1226 376.4006 30708.3373 150.6626 213.0821
ENERGY: 1500000 1.3630 2.5103 2.4861 0.0000 -10916.9806 1473.8063 0.0000 0.0000 1676.4675 -7760.3475 281.6347 -9436.8150 -7577.0902 300.5724 -0.1117 25.1454 30209.1277 105.6133 165.7942
TCL: Running FEP window  18: Lambda1 0.1499999999999997 Lambda2 0.09999999999999969 [dLambda -0.05 ]
TCL: Setting parameter firsttimestep to 0
TCL: Setting parameter alchLambda to 0.1499999999999997
Info: NONBONDED TABLE R-SQUARED SPACING: 0.0625
Info: NONBONDED TABLE SIZE: 705 POINTS
TCL: Setting parameter alchLambda2 to 0.09999999999999969
Info: NONBONDED TABLE R-SQUARED SPACING: 0.0625
Info: NONBONDED TABLE SIZE: 705 POINTS
TCL: Running for 1500000 steps
ETITLE: TS BOND ANGLE DIHED IMPRP ELECT VDW BOUNDARY MISC KINETIC TOTAL TEMP POTENTIAL TOTALAVG TEMPAVG PRESSURE GPRESSURE VOLUME PRESSAVG GPRESSAVG
ENERGY: 0 1.3630 2.5103 2.4861 0.0000 -10916.9807 1473.7706 0.0000 0.0000 1675.5595 -7761.2912 281.4822 -9436.8507 -7761.2912 281.4822 -71.7978 20.5444 30209.1277 -71.7978 20.5444
ENERGY: 300000 2.1949 3.5179 3.0157 0.0000 -10833.1735 1418.3406 0.0000 0.0000 1787.1016 -7619.0028 300.2205 -9406.1044 -7660.2938 294.4352 -383.7607 -342.0481 30823.6753 -273.7740 -215.5439
ENERGY: 600000 3.1273 2.9751 2.4939 0.0000 -10757.3583 1409.7636 0.0000 0.0000 1749.1148 -7589.8835 293.8390 -9338.9983 -7618.6418 295.1279 -401.6847 -307.5539 30873.7040 -280.3748 -211.9085
ENERGY: 900000 2.2257 4.2549 1.7256 0.0000 -10977.4174 1488.9119 0.0000 0.0000 1796.7737 -7683.5256 301.8453 -9480.2993 -7629.9144 296.8105 -194.1229 -123.3452 30739.6185 -142.8539 -82.0411
ENERGY: 1200000 2.9923 3.4071 2.1169 0.0000 -10928.0121 1463.0659 0.0000 0.0000 1789.6055 -7666.8245 300.6411 -9456.4300 -7629.0803 298.2444 -132.2673 -50.5587 30715.7378 -77.8032 -16.6664
ENERGY: 1500000 0.9314 1.3154 1.6002 0.0000 -10829.9057 1454.1478 0.0000 0.0000 1776.0940 -7595.8169 298.3713 -9371.9109 -7629.8649 298.7407 -121.3347 -16.1732 31034.3113 -8.6060 55.5811
TCL: Running FEP window  19: Lambda1 0.09999999999999969 Lambda2 0.049999999999999684 [dLambda -0.05 ]
TCL: Setting parameter firsttimestep to 0
TCL: Setting parameter alchLambda to 0.09999999999999969
Info: NONBONDED TABLE R-SQUARED SPACING: 0.0625
Info: NONBONDED TABLE SIZE: 705 POINTS
TCL: Setting parameter alchLambda2 to 0.049999999999999684
Info: NONBONDED TABLE R-SQUARED SPACING: 0.0625
Info: NONBONDED TABLE SIZE: 705 POINTS
TCL: Running for 1500000 steps
ETITLE: TS BOND ANGLE DIHED IMPRP ELECT VDW BOUNDARY MISC KINETIC TOTAL TEMP POTENTIAL TOTALAVG TEMPAVG PRESSURE GPRESSURE VOLUME PRESSAVG GPRESSAVG
ENERGY: 0 0.9315 1.3154 1.6002 0.0000 -10829.9066 1453.8303 0.0000 0.0000 1775.1966 -7597.0326 298.2205 -9372.2292 -7597.0326 298.2205 -92.6083 -21.6630 31034.3113 -92.6083 -21.6630
ENERGY: 300000 2.5237 3.6038 2.2864 0.0000 -10937.3047 1594.7879 0.0000 0.0000 1847.2511 -7486.8518 310.3252 -9334.1029 -7561.8347 306.1882 1284.6583 1342.0038 30284.1899 137.8503 198.2788
ENERGY: 600000 2.2905 0.4267 2.1576 0.0000 -10695.7210 1407.9121 0.0000 0.0000 1819.0952 -7463.8389 305.5952 -9282.9341 -7569.4278 303.9208 -153.3289 -114.5157 30970.8622 101.3602 155.6717
ENERGY: 900000 1.8437 2.4236 4.4122 0.0000 -10742.6890 1409.4763 0.0000 0.0000 1833.1524 -7491.3808 307.9567 -9324.5332 -7569.4886 304.7013 -133.6242 -40.8365 30426.6238 113.8593 169.1567
ENERGY: 1200000 2.9907 3.2185 1.9106 0.0000 -10839.2316 1427.6013 0.0000 0.0000 1799.7095 -7603.8010 302.3385 -9403.5105 -7584.8704 303.7136 276.0298 330.2723 30099.7400 49.5775 105.8360
ENERGY: 1500000 5.0542 2.0737 3.0262 0.0000 -10928.6995 1469.9739 0.0000 0.0000 1770.7919 -7677.7796 297.4806 -9448.5715 -7583.8441 303.0471 -136.3548 -79.5423 30455.2250 33.1449 88.3363
TCL: Running FEP window  20: Lambda1 0.049999999999999684 Lambda2 0.0    [dLambda -0.049999999999999684]
TCL: Setting parameter firsttimestep to 0
TCL: Setting parameter alchLambda to 0.049999999999999684
Info: NONBONDED TABLE R-SQUARED SPACING: 0.0625
Info: NONBONDED TABLE SIZE: 705 POINTS
TCL: Setting parameter alchLambda2 to 0.0
Info: NONBONDED TABLE R-SQUARED SPACING: 0.0625
Info: NONBONDED TABLE SIZE: 705 POINTS
TCL: Running for 1500000 steps
ETITLE: TS BOND ANGLE DIHED IMPRP ELECT VDW BOUNDARY MISC KINETIC TOTAL TEMP POTENTIAL TOTALAVG TEMPAVG PRESSURE GPRESSURE VOLUME PRESSAVG GPRESSAVG
ENERGY: 0 5.0542 2.0737 3.0262 0.0000 -10928.7002 1469.5582 0.0000 0.0000 1769.9119 -7679.0759 297.3327 -9448.9878 -7679.0759 297.3327 -180.8769 -82.2331 30455.2250 -180.8769 -82.2331
ENERGY: 300000 3.2773 4.0250 1.3695 0.0000 -10930.4395 1547.1089 0.0000 0.0000 1788.8746 -7585.7842 300.5183 -9374.6588 -7613.6619 296.9285 630.1188 717.0583 30489.2698 -115.2743 -51.6377
ENERGY: 600000 3.4638 2.6860 1.3952 0.0000 -10838.9718 1477.0964 0.0000 0.0000 1797.7835 -7556.5469 302.0150 -9354.3304 -7592.8355 298.0451 9.2219 56.8963 30916.1905 -233.0550 -168.1547
ENERGY: 900000 2.8462 0.9036 1.9728 0.0000 -10975.0746 1579.0912 0.0000 0.0000 1800.9774 -7589.2835 302.5515 -9390.2609 -7600.7746 298.5570 742.6364 821.5123 30796.8651 -91.5588 -29.7723
ENERGY: 1200000 1.0186 3.0803 4.3902 0.0000 -10798.1573 1421.1166 0.0000 0.0000 1770.6568 -7597.8947 297.4579 -9368.5516 -7608.5695 298.3744 -370.4018 -230.2103 30415.4042 -204.5741 -137.1497
ENERGY: 1500000 1.3719 2.5658 3.6374 0.0000 -10938.1615 1475.9936 0.0000 0.0000 1778.3213 -7676.2715 298.7454 -9454.5928 -7608.3487 299.2798 241.9572 231.6913 30139.4934 -273.8385 -207.9229
TCL: Exiting due to exit command.
