Info: SIMULATION PARAMETERS:
Info: TIMESTEP               2
Info: NUMBER OF STEPS        0
Info: STEPS PER CYCLE        10
Info: PERIODIC CELL BASIS 1  30.8354 0 0
Info: PERIODIC CELL BASIS 2  0 32.1266 0
Info: PERIODIC CELL BASIS 3  0 0 30.8072
Info: PERIODIC CELL CENTER   0 0 0
Info: WRAPPING WATERS AROUND PERIODIC BOUNDARIES ON OUTPUT.
Info: WRAPPING ALL CLUSTERS AROUND PERIODIC BOUNDARIES ON OUTPUT.
Info: FIRST LDB TIMESTEP     50
Info: LAST LDB TIMESTEP     -1
Info: HOM BACKGROUND SCALING 1
Info: PME BACKGROUND SCALING 1
Info: MIN ATOMS PER PATCH    40
Info: EMPTY PATCH LOAD       40 ATOMS
Info: VELOCITY FILE          mobley_5056289_equil.vel
Info: CENTER OF MASS MOVING INITIALLY? NO
Info: DIELECTRIC             1
Info: EXCLUDE                SCALED ONE-FOUR
Info: 1-4 ELECTROSTATICS SCALED BY 0.833333
Info: MODIFIED 1-4 VDW PARAMETERS WILL BE USED
Info: DCD FILENAME           mobley_5056289_prod.dcd
Info: DCD FREQUENCY          100000
Info: DCD FIRST STEP         100000
Info: DCD FILE WILL CONTAIN UNIT CELL DATA
Info: XST FILENAME           mobley_5056289_prod.xst
Info: XST FREQUENCY          100000
Info: NO VELOCITY DCD OUTPUT
Info: NO FORCE DCD OUTPUT
Info: OUTPUT FILENAME        mobley_5056289_prod
Info: BINARY OUTPUT FILES WILL BE USED
Info: RESTART FILENAME       mobley_5056289_prod.restart
Info: RESTART FREQUENCY      100000
Info: BINARY RESTART FILES WILL BE USED
Info: CUTOFF                 9
Info: PAIRLIST DISTANCE      11
Info: PAIRLIST SHRINK RATE   0.01
Info: PAIRLIST GROW RATE     0.01
Info: PAIRLIST TRIGGER       0.3
Info: PAIRLISTS PER CYCLE    2
Info: PAIRLISTS ENABLED
Info: MARGIN                 2
Info: HYDROGEN GROUP CUTOFF  2.5
Info: PATCH DIMENSION        15.5
Info: ENERGY OUTPUT STEPS    100000
Info: ENERGY EVALUATION STEPS    100000
Info: OUTPUT ENERGY PRECISION 4
Info: CROSSTERM ENERGY INCLUDED IN DIHEDRAL
Info: TIMING OUTPUT STEPS    1000000
Info: PRESSURE OUTPUT STEPS  100000
Info: ALCHEMICAL FEP ON
Info: FEP CURRENT LAMBDA VALUE     0
Info: FEP COMPARISON LAMBDA VALUE  0.05
Info: FEP INTRA-ALCHEMICAL NON-BONDED INTERACTIONS WILL BE RETAINED
Info: FEP INTRA-ALCHEMICAL BONDED INTERACTIONS WILL BE RETAINED
Info: FEP VDW SHIFTING COEFFICIENT 5
Info: FEP ELEC. ACTIVE FOR ANNIHILATED PARTICLES BETWEEN LAMBDA = 0 AND LAMBDA = 0.5
Info: FEP ELEC. ACTIVE FOR EXNIHILATED PARTICLES BETWEEN LAMBDA = 0.5 AND LAMBDA = 1
Info: FEP VDW ACTIVE FOR ANNIHILATED PARTICLES BETWEEN LAMBDA = 0 AND LAMBDA = 1
Info: FEP VDW ACTIVE FOR EXNIHILATED PARTICLES BETWEEN LAMBDA = 0 AND LAMBDA = 1
Info: FEP BOND ACTIVE FOR ANNIHILATED PARTICLES BETWEEN LAMBDA = 1 AND LAMBDA = 1
Info: FEP BOND ACTIVE FOR EXNIHILATED PARTICLES BETWEEN LAMBDA = 0 AND LAMBDA = 0
Info: LANGEVIN DYNAMICS ACTIVE
Info: LANGEVIN TEMPERATURE   300
Info: LANGEVIN USING BBK INTEGRATOR
Info: LANGEVIN DAMPING COEFFICIENT IS 1 INVERSE PS
Info: LANGEVIN DYNAMICS APPLIED TO HYDROGENS
Info: LANGEVIN PISTON PRESSURE CONTROL ACTIVE
Info:        TARGET PRESSURE IS 1.01325 BAR
Info:     OSCILLATION PERIOD IS 50 FS
Info:             DECAY TIME IS 25 FS
Info:     PISTON TEMPERATURE IS 300 K
Info:       PRESSURE CONTROL IS GROUP-BASED
Info:    INITIAL STRAIN RATE IS 0.000511728 0.000511728 0.000511728
Info:       CELL FLUCTUATION IS ISOTROPIC
Info: PARTICLE MESH EWALD (PME) ACTIVE
Info: PME TOLERANCE               1e-06
Info: PME EWALD COEFFICIENT       0.348832
Info: PME INTERPOLATION ORDER     4
Info: PME GRID DIMENSIONS         32 36 32
Info: PME MAXIMUM GRID SPACING    1
Info: PME CALCULATION WILL BE PERFORMED ON GPU
Info: FULL ELECTROSTATIC EVALUATION FREQUENCY      2
Info: USING VERLET I (r-RESPA) MTS SCHEME.
Info: C1 SPLITTING OF LONG RANGE ELECTROSTATICS
Info: PLACING ATOMS IN PATCHES BY HYDROGEN GROUPS
Info: RIGID BONDS TO HYDROGEN : ALL
Info:         ERROR TOLERANCE : 1e-08
Info:          MAX ITERATIONS : 100
Info: RIGID WATER USING SETTLE ALGORITHM
Info: RANDOM NUMBER SEED     1743583294
Info: USE HYDROGEN BONDS?    NO
Info: Using AMBER format force field!
Info: AMBER PARM FILE        mobley_5056289.prmtop
Info: COORDINATE PDB         mobley_5056289.pdb
Info: Exclusions will be read from PARM file!
Info: SCNB (VDW SCALING)     2
Info: USING ARITHMETIC MEAN TO COMBINE L-J SIGMA PARAMETERS
Info: BINARY COORDINATES     mobley_5056289_equil.coor
Info: SUMMARY OF PARAMETERS:
Info: 6 BONDS
Info: 8 ANGLES
Info:   8 HARMONIC
Info:   0 COSINE-BASED
Info: 11 DIHEDRAL
Info: 0 IMPROPER
Info: 0 CROSSTERM
Info: 0 VDW
Info: 21 VDW_PAIRS
Info: 0 NBTHOLE_PAIRS
Info: To read alchdata from file: mobley_5056289.pdb
Info: To read alchflag data from column: 5
Info: STRUCTURE SUMMARY:
Info: 2923 ATOMS
Info: 2923 BONDS
Info: 31 ANGLES
Info: 56 DIHEDRALS
Info: 0 IMPROPERS
Info: 0 CROSSTERMS
Info: 2991 EXCLUSIONS
Info: 2917 RIGID BONDS
Info: ALCH: 0 ATOMS TO DISAPPEAR IN FINAL STATE
Info: ALCH: 16 ATOMS TO APPEAR IN FINAL STATE
Info: 5852 DEGREES OF FREEDOM
Info: 975 HYDROGEN GROUPS
Info: 4 ATOMS IN LARGEST HYDROGEN GROUP
Info: 975 MIGRATION GROUPS
Info: 4 ATOMS IN LARGEST MIGRATION GROUP
Info: TOTAL MASS = 17543.6 amu
Info: TOTAL CHARGE = -9.99942e-05 e
Info: MASS DENSITY = 0.95458 g/cm^3
Info: ATOM DENSITY = 0.0957772 atoms/A^3
Info: ADDED 0 IMPLICIT EXCLUSIONS
Info: NONBONDED TABLE R-SQUARED SPACING: 0.0625
Info: NONBONDED TABLE SIZE: 705 POINTS
Info: REMOVING COM VELOCITY 0.00771267 -0.157013 -0.00904867
Info: Use 3D box decompostion in PME FFT.
Info: Updated CUDA force table with 4096 elements.
Info: Updated CUDA LJ table with 6 x 6 elements.
Info: Found 19 unique exclusion lists needing 44 bytes
TCL: Running for 1500000 steps
ETITLE: TS BOND ANGLE DIHED IMPRP ELECT VDW BOUNDARY MISC KINETIC TOTAL TEMP POTENTIAL TOTALAVG TEMPAVG PRESSURE GPRESSURE VOLUME PRESSAVG GPRESSAVG
ENERGY: 0 2.9304 9.5107 9.1688 0.0000 -10567.6460 1370.9385 0.0000 0.0000 1791.0046 -7384.0929 308.0227 -9175.0975 -7384.0929 308.0227 -625.7142 -539.2423 30518.7391 -625.7142 -539.2423
ENERGY: 300000 2.2118 9.1297 9.5532 0.0000 -10608.2948 1471.7605 0.0000 0.0000 1694.2450 -7421.3945 291.3817 -9115.6396 -7418.1420 300.0155 468.7601 572.5735 29805.0275 7.1754 104.7553
ENERGY: 600000 1.8032 9.5409 10.9320 0.0000 -10637.4772 1519.2364 0.0000 0.0000 1738.7620 -7357.2028 299.0379 -9095.9649 -7380.0864 299.8267 926.4761 918.2956 30029.6302 -51.4364 20.7511
ENERGY: 900000 2.6662 10.8474 8.3428 0.0000 -10569.0253 1432.2195 0.0000 0.0000 1776.5222 -7338.4272 305.5320 -9114.9494 -7375.0971 301.7819 103.9776 188.5618 30130.7421 16.3321 91.8276
ENERGY: 1200000 1.1254 15.5439 7.8825 0.0000 -10559.4917 1374.2153 0.0000 0.0000 1786.0434 -7374.6812 307.1695 -9160.7246 -7373.3577 302.1742 -251.6226 -144.4235 29674.6950 -0.3427 73.3825
ENERGY: 1500000 1.9546 12.5375 8.1803 0.0000 -10585.7262 1448.2109 0.0000 0.0000 1767.0733 -7347.7695 303.9069 -9114.8428 -7369.6410 301.8933 232.4749 218.6297 29972.5286 -0.8610 62.2422
TCL: Running FEP window   2: Lambda1 0.05   Lambda2 0.1    [dLambda 0.05  ]
TCL: Setting parameter firsttimestep to 0
TCL: Setting parameter alchLambda to 0.05
Info: NONBONDED TABLE R-SQUARED SPACING: 0.0625
Info: NONBONDED TABLE SIZE: 705 POINTS
TCL: Setting parameter alchLambda2 to 0.1
Info: NONBONDED TABLE R-SQUARED SPACING: 0.0625
Info: NONBONDED TABLE SIZE: 705 POINTS
TCL: Running for 1500000 steps
ETITLE: TS BOND ANGLE DIHED IMPRP ELECT VDW BOUNDARY MISC KINETIC TOTAL TEMP POTENTIAL TOTALAVG TEMPAVG PRESSURE GPRESSURE VOLUME PRESSAVG GPRESSAVG
ENERGY: 0 1.9546 12.5375 8.1803 0.0000 -10585.7265 1449.3305 0.0000 0.0000 1766.1598 -7347.5637 303.7498 -9113.7236 -7347.5637 303.7498 142.4618 222.8173 29972.5286 142.4618 222.8173
ENERGY: 300000 1.1840 12.7195 8.2685 0.0000 -10580.1498 1452.3586 0.0000 0.0000 1746.3908 -7359.2284 300.3499 -9105.6192 -7371.3716 298.5091 538.3072 582.5992 29500.8028 256.6725 324.3481
ENERGY: 600000 3.0169 13.2831 9.0099 0.0000 -10617.7492 1468.9644 0.0000 0.0000 1712.1746 -7411.3003 294.4653 -9123.4749 -7372.2250 300.5442 157.5393 216.6329 30003.3273 262.1442 309.9527
ENERGY: 900000 1.5505 7.5161 12.2965 0.0000 -10474.7178 1355.3556 0.0000 0.0000 1697.2097 -7400.7895 291.8916 -9097.9992 -7381.3304 299.1147 -639.1833 -607.2180 30351.5025 173.1994 218.5275
ENERGY: 1200000 1.5924 12.2296 8.7123 0.0000 -10704.2539 1496.9572 0.0000 0.0000 1739.6422 -7445.1202 299.1893 -9184.7624 -7393.5026 298.6598 546.9582 581.3341 29642.2587 133.8700 175.0469
ENERGY: 1500000 2.1740 12.7007 9.5332 0.0000 -10581.4012 1382.7947 0.0000 0.0000 1743.4320 -7430.7667 299.8410 -9174.1986 -7401.4693 298.0997 -513.8214 -529.5358 30134.6876 44.3259 82.7698
TCL: Running FEP window   3: Lambda1 0.1    Lambda2 0.15000000000000002 [dLambda 0.05000000000000002]
TCL: Setting parameter firsttimestep to 0
TCL: Setting parameter alchLambda to 0.1
Info: NONBONDED TABLE R-SQUARED SPACING: 0.0625
Info: NONBONDED TABLE SIZE: 705 POINTS
TCL: Setting parameter alchLambda2 to 0.15000000000000002
Info: NONBONDED TABLE R-SQUARED SPACING: 0.0625
Info: NONBONDED TABLE SIZE: 705 POINTS
TCL: Running for 1500000 steps
ETITLE: TS BOND ANGLE DIHED IMPRP ELECT VDW BOUNDARY MISC KINETIC TOTAL TEMP POTENTIAL TOTALAVG TEMPAVG PRESSURE GPRESSURE VOLUME PRESSAVG GPRESSAVG
ENERGY: 0 2.1740 12.7007 9.5332 0.0000 -10581.4015 1384.7514 0.0000 0.0000 1742.5683 -7429.6738 299.6925 -9172.2422 -7429.6738 299.6925 -595.7208 -519.4254 30134.6876 -595.7208 -519.4254
ENERGY: 300000 0.4462 9.8960 9.2903 0.0000 -10624.3177 1395.8715 0.0000 0.0000 1709.9884 -7498.8253 294.0893 -9208.8137 -7443.4347 296.1715 -345.4963 -246.1397 29638.4214 -114.8379 -26.1727
ENERGY: 600000 1.0189 10.6112 11.7606 0.0000 -10623.6241 1459.0833 0.0000 0.0000 1742.5260 -7398.6240 299.6852 -9141.1500 -7419.1204 297.1921 317.6829 322.1780 29879.4087 24.9859 100.1758
ENERGY: 900000 4.3690 9.3211 8.4580 0.0000 -10448.6831 1315.7173 0.0000 0.0000 1695.3717 -7415.4460 291.5755 -9110.8177 -7417.4176 297.7427 -906.4895 -856.8715 30085.4680 3.2467 77.4290
ENERGY: 1200000 0.6421 8.5313 9.4958 0.0000 -10628.3332 1419.1834 0.0000 0.0000 1754.3729 -7436.1076 301.7227 -9190.4805 -7420.9255 299.0616 37.6579 85.4958 29520.3757 27.5845 102.3642
ENERGY: 1500000 4.1555 11.5720 8.1909 0.0000 -10487.5179 1348.6202 0.0000 0.0000 1703.5553 -7411.4240 292.9829 -9114.9793 -7412.5168 299.6663 -860.8687 -782.2228 30165.5703 -10.8108 62.8078
TCL: Running FEP window   4: Lambda1 0.15000000000000002 Lambda2 0.2    [dLambda 0.04999999999999999]
TCL: Setting parameter firsttimestep to 0
TCL: Setting parameter alchLambda to 0.15000000000000002
Info: NONBONDED TABLE R-SQUARED SPACING: 0.0625
Info: NONBONDED TABLE SIZE: 705 POINTS
TCL: Setting parameter alchLambda2 to 0.2
Info: NONBONDED TABLE R-SQUARED SPACING: 0.0625
Info: NONBONDED TABLE SIZE: 705 POINTS
TCL: Running for 1500000 steps
ETITLE: TS BOND ANGLE DIHED IMPRP ELECT VDW BOUNDARY MISC KINETIC TOTAL TEMP POTENTIAL TOTALAVG TEMPAVG PRESSURE GPRESSURE VOLUME PRESSAVG GPRESSAVG
ENERGY: 0 4.1555 11.5720 8.1909 0.0000 -10487.5184 1348.4104 0.0000 0.0000 1702.6545 -7412.5352 292.8280 -9115.1896 -7412.5352 292.8280 -868.5395 -782.2166 30165.5703 -868.5395 -782.2166
ENERGY: 300000 2.3045 11.5427 9.9574 0.0000 -10525.4099 1339.4713 0.0000 0.0000 1693.8572 -7468.2768 291.3150 -9162.1339 -7418.3317 295.3701 -873.3862 -814.7144 30336.6347 -337.0236 -238.3874
ENERGY: 600000 0.4621 8.7557 10.1839 0.0000 -10532.1318 1400.6664 0.0000 0.0000 1765.4040 -7346.6597 303.6199 -9112.0637 -7406.1827 297.4475 -307.8952 -243.6486 30466.2504 -171.2163 -96.5207
ENERGY: 900000 1.5064 8.6196 11.2990 0.0000 -10661.3147 1471.4721 0.0000 0.0000 1717.1764 -7451.2412 295.3255 -9168.4176 -7418.2132 297.9281 336.0551 378.8506 29551.4154 -172.5767 -102.3311
ENERGY: 1200000 1.7823 10.1394 9.1374 0.0000 -10629.0571 1498.4814 0.0000 0.0000 1641.3501 -7468.1665 282.2847 -9109.5165 -7411.9416 296.8465 499.4390 575.0051 30181.3158 -69.5063 -8.0599
ENERGY: 1500000 1.1572 8.4164 10.1332 0.0000 -10566.1947 1429.2104 0.0000 0.0000 1735.0790 -7382.1987 298.4045 -9117.2777 -7410.9224 297.4830 -209.9033 -122.4516 30475.3262 -177.0573 -114.8613
TCL: Running FEP window   5: Lambda1 0.2    Lambda2 0.25   [dLambda 0.04999999999999999]
TCL: Setting parameter firsttimestep to 0
TCL: Setting parameter alchLambda to 0.2
Info: NONBONDED TABLE R-SQUARED SPACING: 0.0625
Info: NONBONDED TABLE SIZE: 705 POINTS
TCL: Setting parameter alchLambda2 to 0.25
Info: NONBONDED TABLE R-SQUARED SPACING: 0.0625
Info: NONBONDED TABLE SIZE: 705 POINTS
TCL: Running for 1500000 steps
ETITLE: TS BOND ANGLE DIHED IMPRP ELECT VDW BOUNDARY MISC KINETIC TOTAL TEMP POTENTIAL TOTALAVG TEMPAVG PRESSURE GPRESSURE VOLUME PRESSAVG GPRESSAVG
ENERGY: 0 1.1572 8.4164 10.1332 0.0000 -10566.1949 1428.7837 0.0000 0.0000 1734.2272 -7383.4773 298.2580 -9117.7045 -7383.4773 298.2580 -199.0763 -121.8378 30475.3262 -199.0763 -121.8378
ENERGY: 300000 1.0050 10.3506 8.1777 0.0000 -10489.1770 1355.3330 0.0000 0.0000 1731.7677 -7382.5430 297.8350 -9114.3107 -7410.1078 298.5054 -280.7975 -231.6073 29863.3977 -105.7280 -4.2849
ENERGY: 600000 2.2150 11.0199 9.3116 0.0000 -10554.1321 1404.2977 0.0000 0.0000 1792.5729 -7334.7149 308.2924 -9127.2878 -7398.5281 300.9035 -84.1090 -55.0473 29875.8185 53.4150 129.2055
ENERGY: 900000 1.2301 6.4934 10.8773 0.0000 -10563.2657 1437.4767 0.0000 0.0000 1698.9629 -7408.2252 292.1931 -9107.1881 -7408.0446 298.7015 258.1707 283.6004 29737.4793 -120.3664 -58.9455
ENERGY: 1200000 1.4676 14.0520 9.6222 0.0000 -10666.8438 1467.2592 0.0000 0.0000 1749.5568 -7424.8860 300.8944 -9174.4427 -7410.5414 298.8888 591.4269 638.2021 29614.5389 50.5121 107.3170
ENERGY: 1500000 1.7388 10.4835 13.4746 0.0000 -10604.7173 1451.8422 0.0000 0.0000 1704.6856 -7422.4926 293.1773 -9127.1782 -7415.8340 298.6182 155.8306 242.1433 29936.6379 21.2586 81.6053
TCL: Running FEP window   6: Lambda1 0.25   Lambda2 0.3    [dLambda 0.04999999999999999]
TCL: Setting parameter firsttimestep to 0
TCL: Setting parameter alchLambda to 0.25
Info: NONBONDED TABLE R-SQUARED SPACING: 0.0625
Info: NONBONDED TABLE SIZE: 705 POINTS
TCL: Setting parameter alchLambda2 to 0.3
Info: NONBONDED TABLE R-SQUARED SPACING: 0.0625
Info: NONBONDED TABLE SIZE: 705 POINTS
TCL: Running for 1500000 steps
ETITLE: TS BOND ANGLE DIHED IMPRP ELECT VDW BOUNDARY MISC KINETIC TOTAL TEMP POTENTIAL TOTALAVG TEMPAVG PRESSURE GPRESSURE VOLUME PRESSAVG GPRESSAVG
ENERGY: 0 1.7388 10.4835 13.4746 0.0000 -10604.7165 1453.3451 0.0000 0.0000 1703.7837 -7421.8908 293.0222 -9125.6745 -7421.8908 293.0222 164.9713 256.4774 29936.6379 164.9713 256.4774
ENERGY: 300000 1.0641 6.0059 10.3236 0.0000 -10539.5621 1400.1413 0.0000 0.0000 1714.3385 -7407.6888 294.8374 -9122.0273 -7424.1382 297.8761 -272.0826 -193.1430 30074.7352 -241.7311 -179.0480
ENERGY: 600000 1.9626 12.6810 11.4388 0.0000 -10639.9927 1513.9319 0.0000 0.0000 1714.1611 -7385.8173 294.8069 -9099.9784 -7412.0164 299.0614 573.0998 691.2379 30318.8658 -13.4358 64.8757
ENERGY: 900000 0.8373 8.2834 11.2487 0.0000 -10503.4969 1382.5253 0.0000 0.0000 1688.4250 -7412.1772 290.3808 -9100.6022 -7413.0778 297.7205 10.9169 42.4296 29809.0683 12.9310 74.7417
ENERGY: 1200000 3.6872 10.2694 9.1369 0.0000 -10464.8451 1318.2726 0.0000 0.0000 1746.6611 -7376.8179 300.3964 -9123.4790 -7408.2764 297.8886 -964.2599 -906.4936 30428.6792 -22.1735 37.6413
ENERGY: 1500000 2.1761 7.7620 10.7898 0.0000 -10663.4756 1480.1926 0.0000 0.0000 1708.2501 -7454.3051 293.7903 -9162.5552 -7407.2187 297.4822 324.9132 409.7710 30008.4705 -31.1368 31.9823
TCL: Running FEP window   7: Lambda1 0.3    Lambda2 0.35   [dLambda 0.04999999999999999]
TCL: Setting parameter firsttimestep to 0
TCL: Setting parameter alchLambda to 0.3
Info: NONBONDED TABLE R-SQUARED SPACING: 0.0625
Info: NONBONDED TABLE SIZE: 705 POINTS
TCL: Setting parameter alchLambda2 to 0.35
Info: NONBONDED TABLE R-SQUARED SPACING: 0.0625
Info: NONBONDED TABLE SIZE: 705 POINTS
TCL: Running for 1500000 steps
ETITLE: TS BOND ANGLE DIHED IMPRP ELECT VDW BOUNDARY MISC KINETIC TOTAL TEMP POTENTIAL TOTALAVG TEMPAVG PRESSURE GPRESSURE VOLUME PRESSAVG GPRESSAVG
ENERGY: 0 2.1761 7.7620 10.7898 0.0000 -10663.4736 1480.7907 0.0000 0.0000 1707.4082 -7454.5469 293.6456 -9161.9551 -7454.5469 293.6456 330.3975 415.6439 30008.4705 330.3975 415.6439
ENERGY: 300000 3.4161 12.5540 8.6889 0.0000 -10662.5969 1468.6473 0.0000 0.0000 1724.9471 -7444.3435 296.6620 -9169.2906 -7422.6117 298.7454 23.1491 57.0083 30136.2346 67.9096 129.6903
ENERGY: 600000 4.4189 9.4800 8.4571 0.0000 -10626.8745 1473.3106 0.0000 0.0000 1738.4719 -7392.7360 298.9880 -9131.2079 -7406.5416 299.7661 616.8133 606.3583 29766.3057 -59.8493 -10.0838
ENERGY: 900000 2.3269 9.0343 11.8031 0.0000 -10538.6787 1408.2054 0.0000 0.0000 1763.9999 -7343.3090 303.3784 -9107.3090 -7403.7662 299.4039 157.3016 143.4802 29986.1426 44.3084 89.4989
ENERGY: 1200000 2.6538 5.6559 12.1885 0.0000 -10642.9782 1461.1355 0.0000 0.0000 1754.8018 -7406.5426 301.7964 -9161.3444 -7399.2466 300.1038 277.8527 337.9283 29716.4633 128.0131 179.4240
ENERGY: 1500000 2.7658 8.7521 11.4636 0.0000 -10576.1579 1425.3586 0.0000 0.0000 1756.8875 -7370.9304 302.1552 -9127.8179 -7398.7691 300.3655 -39.7217 -11.6798 30234.2482 87.7391 139.5744
TCL: Running FEP window   8: Lambda1 0.35   Lambda2 0.39999999999999997 [dLambda 0.04999999999999999]
TCL: Setting parameter firsttimestep to 0
TCL: Setting parameter alchLambda to 0.35
Info: NONBONDED TABLE R-SQUARED SPACING: 0.0625
Info: NONBONDED TABLE SIZE: 705 POINTS
TCL: Setting parameter alchLambda2 to 0.39999999999999997
Info: NONBONDED TABLE R-SQUARED SPACING: 0.0625
Info: NONBONDED TABLE SIZE: 705 POINTS
TCL: Running for 1500000 steps
ETITLE: TS BOND ANGLE DIHED IMPRP ELECT VDW BOUNDARY MISC KINETIC TOTAL TEMP POTENTIAL TOTALAVG TEMPAVG PRESSURE GPRESSURE VOLUME PRESSAVG GPRESSAVG
ENERGY: 0 2.7658 8.7521 11.4636 0.0000 -10576.1568 1424.8113 0.0000 0.0000 1755.9874 -7372.3766 302.0004 -9128.3640 -7372.3766 302.0004 -87.1582 -12.6684 30234.2482 -87.1582 -12.6684
ENERGY: 300000 1.2827 11.8578 8.7866 0.0000 -10708.4600 1465.1095 0.0000 0.0000 1796.4017 -7425.0218 308.9509 -9221.4234 -7366.0430 304.4903 376.7781 392.4596 29540.5049 31.6228 86.3521
ENERGY: 600000 0.7690 8.8220 11.5208 0.0000 -10648.8239 1450.9488 0.0000 0.0000 1789.6772 -7387.0861 307.7944 -9176.7633 -7373.5850 303.8979 173.0551 220.1683 29910.9599 -91.8382 -22.8520
ENERGY: 900000 3.2763 7.5322 9.5696 0.0000 -10529.2645 1404.4693 0.0000 0.0000 1760.4205 -7343.9965 302.7628 -9104.4171 -7372.0657 304.2417 27.4448 42.0486 30060.9680 -11.3270 40.2424
ENERGY: 1200000 1.3204 8.2862 12.3878 0.0000 -10379.2980 1338.8703 0.0000 0.0000 1674.6427 -7343.7906 288.0104 -9018.4334 -7369.2994 301.8883 -595.2802 -558.9651 30546.9328 -50.8342 6.5612
ENERGY: 1500000 1.2994 12.5023 10.6436 0.0000 -10566.4142 1346.0723 0.0000 0.0000 1718.7303 -7477.1662 295.5928 -9195.8965 -7384.9619 301.3022 -686.3695 -638.7754 29819.8710 -30.6259 26.4894
TCL: Running FEP window   9: Lambda1 0.39999999999999997 Lambda2 0.44999999999999996 [dLambda 0.04999999999999999]
TCL: Setting parameter firsttimestep to 0
TCL: Setting parameter alchLambda to 0.39999999999999997
Info: NONBONDED TABLE R-SQUARED SPACING: 0.0625
Info: NONBONDED TABLE SIZE: 705 POINTS
TCL: Setting parameter alchLambda2 to 0.44999999999999996
Info: NONBONDED TABLE R-SQUARED SPACING: 0.0625
Info: NONBONDED TABLE SIZE: 705 POINTS
TCL: Running for 1500000 steps
ETITLE: TS BOND ANGLE DIHED IMPRP ELECT VDW BOUNDARY MISC KINETIC TOTAL TEMP POTENTIAL TOTALAVG TEMPAVG PRESSURE GPRESSURE VOLUME PRESSAVG GPRESSAVG
ENERGY: 0 1.2994 12.5023 10.6436 0.0000 -10566.4140 1346.5735 0.0000 0.0000 1717.8669 -7477.5282 295.4443 -9195.3951 -7477.5282 295.4443 -715.6781 -631.8338 29819.8710 -715.6781 -631.8338
ENERGY: 300000 3.9279 12.6162 9.0193 0.0000 -10591.4320 1365.0223 0.0000 0.0000 1774.8955 -7425.9508 305.2522 -9200.8463 -7461.3257 299.1839 -787.1542 -739.2786 30381.1957 -549.7502 -487.1524
ENERGY: 600000 0.7762 12.0271 9.5031 0.0000 -10602.3562 1376.0370 0.0000 0.0000 1741.9249 -7462.0878 299.5818 -9204.0127 -7461.5396 300.1872 -883.6611 -788.9441 30676.6598 -530.9095 -466.0273
ENERGY: 900000 3.7912 13.1349 8.7430 0.0000 -10589.2326 1399.5806 0.0000 0.0000 1815.4159 -7348.5670 312.2211 -9163.9829 -7446.4703 300.4859 -218.2146 -108.3660 29815.0409 -411.3201 -336.8766
ENERGY: 1200000 3.5035 13.4975 11.4477 0.0000 -10516.2630 1439.4550 0.0000 0.0000 1717.9368 -7330.4226 295.4563 -9048.3593 -7437.2761 300.3554 78.3081 97.9769 30301.7590 -374.3506 -301.5199
ENERGY: 1500000 0.7635 11.2922 11.2835 0.0000 -10825.8601 1552.1207 0.0000 0.0000 1732.6594 -7517.7409 297.9883 -9250.4003 -7445.4192 300.1481 804.1682 992.4604 29516.1848 -303.4241 -228.4800
TCL: Running FEP window  10: Lambda1 0.44999999999999996 Lambda2 0.49999999999999994 [dLambda 0.04999999999999999]
TCL: Setting parameter firsttimestep to 0
TCL: Setting parameter alchLambda to 0.44999999999999996
Info: NONBONDED TABLE R-SQUARED SPACING: 0.0625
Info: NONBONDED TABLE SIZE: 705 POINTS
TCL: Setting parameter alchLambda2 to 0.49999999999999994
Info: NONBONDED TABLE R-SQUARED SPACING: 0.0625
Info: NONBONDED TABLE SIZE: 705 POINTS
TCL: Running for 1500000 steps
ETITLE: TS BOND ANGLE DIHED IMPRP ELECT VDW BOUNDARY MISC KINETIC TOTAL TEMP POTENTIAL TOTALAVG TEMPAVG PRESSURE GPRESSURE VOLUME PRESSAVG GPRESSAVG
ENERGY: 0 0.7635 11.2922 11.2835 0.0000 -10825.8591 1552.0648 0.0000 0.0000 1731.8020 -7518.6532 297.8409 -9250.4552 -7518.6532 297.8409 910.1566 999.9122 29516.1848 910.1566 999.9122
ENERGY: 300000 2.1804 7.3992 11.2617 0.0000 -10561.4072 1384.0055 0.0000 0.0000 1745.1976 -7411.3628 300.1447 -9156.5604 -7453.0538 298.2991 -215.4138 -195.7747 29780.2831 278.4476 328.4007
ENERGY: 600000 2.1396 12.1872 9.5796 0.0000 -10486.8038 1336.1285 0.0000 0.0000 1742.7243 -7384.0446 299.7193 -9126.7689 -7426.0237 299.3795 -489.5598 -477.3764 30013.1074 19.9375 68.8235
ENERGY: 900000 1.2054 13.5019 10.3128 0.0000 -10531.9752 1363.8543 0.0000 0.0000 1738.5727 -7404.5280 299.0053 -9143.1007 -7434.6944 298.7803 -509.3084 -476.3441 30199.5030 -43.3505 11.7982
ENERGY: 1200000 2.0387 11.2821 7.5882 0.0000 -10489.7252 1346.0438 0.0000 0.0000 1732.0783 -7390.6940 297.8884 -9122.7723 -7425.8860 299.3388 -562.6022 -496.2247 29901.9252 -70.9249 -13.5342
ENERGY: 1500000 1.1757 10.2512 8.8264 0.0000 -10514.1729 1354.1334 0.0000 0.0000 1744.1823 -7395.6039 299.9701 -9139.7862 -7414.4295 299.8673 -1034.4287 -934.5578 30671.3973 -107.2662 -40.7441
TCL: Running FEP window  11: Lambda1 0.49999999999999994 Lambda2 0.5499999999999999 [dLambda 0.04999999999999999]
TCL: Setting parameter firsttimestep to 0
TCL: Setting parameter alchLambda to 0.49999999999999994
Info: NONBONDED TABLE R-SQUARED SPACING: 0.0625
Info: NONBONDED TABLE SIZE: 705 POINTS
TCL: Setting parameter alchLambda2 to 0.5499999999999999
Info: NONBONDED TABLE R-SQUARED SPACING: 0.0625
Info: NONBONDED TABLE SIZE: 705 POINTS
TCL: Running for 1500000 steps
ETITLE: TS BOND ANGLE DIHED IMPRP ELECT VDW BOUNDARY MISC KINETIC TOTAL TEMP POTENTIAL TOTALAVG TEMPAVG PRESSURE GPRESSURE VOLUME PRESSAVG GPRESSAVG
ENERGY: 0 1.1757 10.2512 8.8264 0.0000 -10514.1731 1353.8512 0.0000 0.0000 1743.3123 -7396.7563 299.8205 -9140.0686 -7396.7563 299.8205 -1012.7465 -931.8403 30671.3973 -1012.7465 -931.8403
ENERGY: 300000 1.9846 12.9308 10.5170 0.0000 -10578.8327 1417.4206 0.0000 0.0000 1736.4233 -7399.5565 298.6357 -9135.9798 -7449.0426 297.4966 -225.6353 -187.1222 30315.8750 -376.8357 -301.9668
ENERGY: 600000 0.3675 10.4311 9.9707 0.0000 -10401.3248 1296.8442 0.0000 0.0000 1743.1426 -7340.5686 299.7913 -9083.7113 -7413.1616 298.8686 -848.3254 -846.1865 30140.2113 -454.5042 -384.5541
ENERGY: 900000 1.7808 10.4208 11.6149 0.0000 -10391.9586 1269.1572 0.0000 0.0000 1730.2963 -7368.6886 297.5819 -9098.9849 -7411.7192 298.0105 -1286.6130 -1219.3747 30605.0035 -516.9214 -441.9675
ENERGY: 1200000 0.3250 11.0945 8.4796 0.0000 -10591.8649 1480.5380 0.0000 0.0000 1732.6805 -7358.7472 297.9920 -9091.4277 -7399.2869 298.1100 728.2566 809.5794 29947.3754 -362.3274 -293.0964
ENERGY: 1500000 1.0563 9.9680 10.9138 0.0000 -10537.2772 1369.0665 0.0000 0.0000 1727.2765 -7418.9960 297.0626 -9146.2725 -7396.4347 298.7102 -443.4015 -373.4323 30007.3193 -309.9780 -244.2002
TCL: Running FEP window  12: Lambda1 0.5499999999999999 Lambda2 0.6    [dLambda 0.050000000000000044]
TCL: Setting parameter firsttimestep to 0
TCL: Setting parameter alchLambda to 0.5499999999999999
Info: NONBONDED TABLE R-SQUARED SPACING: 0.0625
Info: NONBONDED TABLE SIZE: 705 POINTS
TCL: Setting parameter alchLambda2 to 0.6
Info: NONBONDED TABLE R-SQUARED SPACING: 0.0625
Info: NONBONDED TABLE SIZE: 705 POINTS
TCL: Running for 1500000 steps
ETITLE: TS BOND ANGLE DIHED IMPRP ELECT VDW BOUNDARY MISC KINETIC TOTAL TEMP POTENTIAL TOTALAVG TEMPAVG PRESSURE GPRESSURE VOLUME PRESSAVG GPRESSAVG
ENERGY: 0 1.0563 9.9680 10.9138 0.0000 -10537.5521 1368.6116 0.0000 0.0000 1726.3912 -7420.6111 296.9103 -9147.0023 -7420.6111 296.9103 -446.7944 -372.0395 30007.3193 -446.7944 -372.0395
ENERGY: 300000 2.2045 8.5048 11.4403 0.0000 -10509.5618 1387.5043 0.0000 0.0000 1709.3575 -7390.5504 293.9808 -9099.9079 -7399.1412 296.4529 -253.2873 -120.8049 30387.9185 -376.9904 -284.5489
ENERGY: 600000 1.3157 8.0086 10.7854 0.0000 -10508.1381 1390.1576 0.0000 0.0000 1769.9105 -7327.9603 304.3949 -9097.8709 -7381.6832 299.7649 -176.6177 -23.8585 29990.4584 -343.2747 -258.8527
ENERGY: 900000 2.3106 11.2691 9.5028 0.0000 -10460.4109 1380.0219 0.0000 0.0000 1763.4311 -7293.8754 303.2806 -9057.3065 -7380.7879 300.3428 -325.1489 -268.8421 30320.3680 -285.6446 -206.2280
ENERGY: 1200000 5.8007 11.7021 9.2592 0.0000 -10550.1630 1401.3677 0.0000 0.0000 1720.2001 -7401.8331 295.8456 -9122.0332 -7383.8146 299.9434 -55.4098 -22.7747 30184.2881 -209.6212 -135.6059
ENERGY: 1500000 3.3096 10.9287 8.9539 0.0000 -10575.5826 1454.6286 0.0000 0.0000 1781.4158 -7316.3460 306.3736 -9097.7618 -7374.4478 300.8050 382.2378 371.9686 29944.3559 -174.7447 -109.8406
TCL: Running FEP window  13: Lambda1 0.6    Lambda2 0.65   [dLambda 0.050000000000000044]
TCL: Setting parameter firsttimestep to 0
TCL: Setting parameter alchLambda to 0.6
Info: NONBONDED TABLE R-SQUARED SPACING: 0.0625
Info: NONBONDED TABLE SIZE: 705 POINTS
TCL: Setting parameter alchLambda2 to 0.65
Info: NONBONDED TABLE R-SQUARED SPACING: 0.0625
Info: NONBONDED TABLE SIZE: 705 POINTS
TCL: Running for 1500000 steps
ETITLE: TS BOND ANGLE DIHED IMPRP ELECT VDW BOUNDARY MISC KINETIC TOTAL TEMP POTENTIAL TOTALAVG TEMPAVG PRESSURE GPRESSURE VOLUME PRESSAVG GPRESSAVG
ENERGY: 0 3.3096 10.9288 8.9539 0.0000 -10576.0366 1455.1225 0.0000 0.0000 1780.5459 -7317.1759 306.2240 -9097.7218 -7317.1759 306.2240 293.1971 384.1741 29944.3559 293.1971 384.1741
ENERGY: 300000 1.0808 11.2273 10.9574 0.0000 -10560.8623 1416.2901 0.0000 0.0000 1762.7933 -7358.5133 303.1709 -9121.3067 -7399.5445 301.1835 -3.0441 123.4512 30186.2133 1.2274 79.2013
ENERGY: 600000 3.3297 7.8380 10.9789 0.0000 -10534.2856 1418.7938 0.0000 0.0000 1757.6469 -7335.6983 302.2858 -9093.3452 -7385.5723 301.3112 -20.4803 67.5121 30186.9234 -19.1401 46.3632
ENERGY: 900000 2.7775 7.2747 8.9047 0.0000 -10598.8130 1436.4487 0.0000 0.0000 1692.8206 -7450.5868 291.1367 -9143.4074 -7389.1499 300.8014 173.3137 225.7486 29926.0932 -105.3033 -48.3120
ENERGY: 1200000 0.5095 9.0493 8.2742 0.0000 -10579.6875 1438.1918 0.0000 0.0000 1787.4702 -7336.1924 307.4149 -9123.6626 -7378.1529 302.1772 110.6891 109.7185 30483.6937 -50.0395 4.5631
ENERGY: 1500000 2.4796 10.3737 10.0528 0.0000 -10578.3637 1438.1015 0.0000 0.0000 1804.6636 -7312.6925 310.3719 -9117.3561 -7372.5985 302.7768 501.4036 506.2000 29824.9959 -30.6541 18.1315
TCL: Running FEP window  14: Lambda1 0.65   Lambda2 0.7000000000000001 [dLambda 0.050000000000000044]
TCL: Setting parameter firsttimestep to 0
TCL: Setting parameter alchLambda to 0.65
Info: NONBONDED TABLE R-SQUARED SPACING: 0.0625
Info: NONBONDED TABLE SIZE: 705 POINTS
TCL: Setting parameter alchLambda2 to 0.7000000000000001
Info: NONBONDED TABLE R-SQUARED SPACING: 0.0625
Info: NONBONDED TABLE SIZE: 705 POINTS
TCL: Running for 1500000 steps
ETITLE: TS BOND ANGLE DIHED IMPRP ELECT VDW BOUNDARY MISC KINETIC TOTAL TEMP POTENTIAL TOTALAVG TEMPAVG PRESSURE GPRESSURE VOLUME PRESSAVG GPRESSAVG
ENERGY: 0 2.4796 10.3737 10.0528 0.0000 -10578.6403 1438.4995 0.0000 0.0000 1803.8025 -7313.4322 310.2238 -9117.2347 -7313.4322 310.2238 448.5595 519.2424 29824.9959 448.5595 519.2424
ENERGY: 300000 3.4515 11.0453 9.4599 0.0000 -10646.5440 1440.6496 0.0000 0.0000 1736.5897 -7445.3480 298.6643 -9181.9377 -7396.5969 302.1788 -5.9048 72.1694 30235.2519 -93.5202 -30.0833
ENERGY: 600000 0.7192 13.3685 8.2835 0.0000 -10655.1336 1507.7809 0.0000 0.0000 1687.4625 -7437.5188 290.2152 -9124.9814 -7399.8598 300.6775 891.9590 922.6514 29853.0032 49.7859 106.8529
ENERGY: 900000 1.4789 15.5412 8.4514 0.0000 -10588.7087 1405.7150 0.0000 0.0000 1750.4000 -7407.1223 301.0394 -9157.5223 -7385.3317 300.8380 -239.1203 -170.5074 29952.5060 32.5149 90.8047
ENERGY: 1200000 1.5823 16.0803 8.6902 0.0000 -10600.8115 1408.8921 0.0000 0.0000 1699.5963 -7465.9702 292.3020 -9165.5665 -7388.6865 299.8018 -211.5733 -87.0111 30142.9885 33.2455 102.2664
ENERGY: 1500000 1.8745 9.1904 8.5092 0.0000 -10514.7143 1364.2181 0.0000 0.0000 1695.6526 -7435.2695 291.6238 -9130.9221 -7385.6499 299.9175 -506.1733 -410.1265 30320.6034 -8.2719 63.8645
TCL: Running FEP window  15: Lambda1 0.7000000000000001 Lambda2 0.7500000000000001 [dLambda 0.050000000000000044]
TCL: Setting parameter firsttimestep to 0
TCL: Setting parameter alchLambda to 0.7000000000000001
Info: NONBONDED TABLE R-SQUARED SPACING: 0.0625
Info: NONBONDED TABLE SIZE: 705 POINTS
TCL: Setting parameter alchLambda2 to 0.7500000000000001
Info: NONBONDED TABLE R-SQUARED SPACING: 0.0625
Info: NONBONDED TABLE SIZE: 705 POINTS
TCL: Running for 1500000 steps
ETITLE: TS BOND ANGLE DIHED IMPRP ELECT VDW BOUNDARY MISC KINETIC TOTAL TEMP POTENTIAL TOTALAVG TEMPAVG PRESSURE GPRESSURE VOLUME PRESSAVG GPRESSAVG
ENERGY: 0 1.8745 9.1904 8.5092 0.0000 -10515.0273 1364.2440 0.0000 0.0000 1694.7421 -7436.4671 291.4672 -9131.2092 -7436.4671 291.4672 -479.2077 -404.8204 30320.6034 -479.2077 -404.8204
ENERGY: 300000 2.0818 10.9802 7.9660 0.0000 -10496.0018 1325.1463 0.0000 0.0000 1753.6505 -7396.1769 301.5985 -9149.8274 -7396.1542 298.8995 -587.4018 -499.9532 29868.2272 -398.3212 -315.4896
ENERGY: 600000 1.8920 8.6721 10.3625 0.0000 -10673.3230 1452.3611 0.0000 0.0000 1708.6755 -7491.3597 293.8635 -9200.0352 -7416.2237 297.5632 -145.9453 -81.9508 30304.5316 -261.8421 -188.7193
ENERGY: 900000 0.4417 11.0131 8.0548 0.0000 -10553.5061 1331.1815 0.0000 0.0000 1776.7835 -7426.0315 305.5769 -9202.8150 -7412.4353 299.3098 -613.5123 -540.3452 29729.8917 -285.9353 -215.7934
ENERGY: 1200000 1.8354 11.6562 9.2122 0.0000 -10548.6461 1367.4833 0.0000 0.0000 1708.5070 -7449.9518 293.8345 -9158.4589 -7424.9785 299.3801 -350.7073 -243.3573 30011.2107 -255.6220 -183.6136
ENERGY: 1500000 3.1406 9.9137 10.0008 0.0000 -10586.8165 1413.7904 0.0000 0.0000 1713.5252 -7436.4458 294.6976 -9149.9710 -7413.9936 299.2957 -59.4660 -12.9992 29988.7890 -235.3137 -170.4802
TCL: Running FEP window  16: Lambda1 0.7500000000000001 Lambda2 0.8000000000000002 [dLambda 0.050000000000000044]
TCL: Setting parameter firsttimestep to 0
TCL: Setting parameter alchLambda to 0.7500000000000001
Info: NONBONDED TABLE R-SQUARED SPACING: 0.0625
Info: NONBONDED TABLE SIZE: 705 POINTS
TCL: Setting parameter alchLambda2 to 0.8000000000000002
Info: NONBONDED TABLE R-SQUARED SPACING: 0.0625
Info: NONBONDED TABLE SIZE: 705 POINTS
TCL: Running for 1500000 steps
ETITLE: TS BOND ANGLE DIHED IMPRP ELECT VDW BOUNDARY MISC KINETIC TOTAL TEMP POTENTIAL TOTALAVG TEMPAVG PRESSURE GPRESSURE VOLUME PRESSAVG GPRESSAVG
ENERGY: 0 3.1406 9.9137 10.0008 0.0000 -10587.0510 1414.3718 0.0000 0.0000 1712.6321 -7436.9920 294.5440 -9149.6241 -7436.9920 294.5440 -94.0748 0.1307 29988.7890 -94.0748 0.1307
ENERGY: 300000 1.3865 11.5278 9.0935 0.0000 -10557.1078 1388.7514 0.0000 0.0000 1768.4954 -7377.8532 304.1515 -9146.3486 -7411.1114 300.4277 -287.1245 -270.9428 30339.7875 -158.9066 -138.7469
ENERGY: 600000 1.7580 9.3685 8.2872 0.0000 -10762.6029 1493.7481 0.0000 0.0000 1807.2844 -7442.1566 310.8226 -9249.4410 -7433.4551 300.5148 214.2305 267.7567 30041.8901 -99.4998 -67.6828
ENERGY: 900000 0.7870 11.0488 10.4278 0.0000 -10445.5393 1324.2131 0.0000 0.0000 1743.4267 -7355.6359 299.8401 -9099.0627 -7434.9333 299.2616 -403.9497 -357.7554 29733.5647 -78.4649 -34.1964
ENERGY: 1200000 1.1124 7.2661 9.3629 0.0000 -10561.6973 1446.2971 0.0000 0.0000 1706.9306 -7390.7283 293.5634 -9097.6589 -7430.8154 298.1141 174.6889 246.8078 30366.8755 -63.2464 -16.3651
ENERGY: 1500000 2.5383 10.1020 8.7192 0.0000 -10595.3340 1446.1225 0.0000 0.0000 1755.6062 -7372.2457 301.9348 -9127.8519 -7433.1381 297.4653 170.8112 212.3640 30204.6283 -85.1183 -37.6668
TCL: Running FEP window  17: Lambda1 0.8000000000000002 Lambda2 0.8500000000000002 [dLambda 0.050000000000000044]
TCL: Setting parameter firsttimestep to 0
TCL: Setting parameter alchLambda to 0.8000000000000002
Info: NONBONDED TABLE R-SQUARED SPACING: 0.0625
Info: NONBONDED TABLE SIZE: 705 POINTS
TCL: Setting parameter alchLambda2 to 0.8500000000000002
Info: NONBONDED TABLE R-SQUARED SPACING: 0.0625
Info: NONBONDED TABLE SIZE: 705 POINTS
TCL: Running for 1500000 steps
ETITLE: TS BOND ANGLE DIHED IMPRP ELECT VDW BOUNDARY MISC KINETIC TOTAL TEMP POTENTIAL TOTALAVG TEMPAVG PRESSURE GPRESSURE VOLUME PRESSAVG GPRESSAVG
ENERGY: 0 2.5383 10.1020 8.7192 0.0000 -10596.1459 1446.0068 0.0000 0.0000 1754.7650 -7374.0145 301.7901 -9128.7796 -7374.0145 301.7901 121.0789 219.0142 30204.6283 121.0789 219.0142
ENERGY: 300000 0.9972 8.0391 8.8498 0.0000 -10578.0472 1430.0862 0.0000 0.0000 1722.4218 -7407.6531 296.2276 -9130.0749 -7405.5612 299.0090 13.3712 59.0408 30155.2905 142.4554 213.0384
ENERGY: 600000 3.4099 12.7994 8.3894 0.0000 -10518.6170 1363.6387 0.0000 0.0000 1721.6458 -7408.7338 296.0942 -9130.3796 -7401.1297 299.6034 -628.3485 -547.4506 30151.8689 -8.6349 42.1227
ENERGY: 900000 0.6498 11.9382 8.7244 0.0000 -10587.6551 1429.1189 0.0000 0.0000 1736.6997 -7400.5241 298.6832 -9137.2238 -7398.7612 299.8919 -67.7491 -18.8567 30425.7130 27.0720 77.7992
ENERGY: 1200000 1.3722 11.8156 9.1335 0.0000 -10572.2923 1357.1434 0.0000 0.0000 1740.8973 -7451.9302 299.4051 -9192.8275 -7404.1630 300.1176 -706.2834 -619.9322 30384.7400 -35.6550 24.7369
ENERGY: 1500000 1.3828 10.7928 11.2630 0.0000 -10557.0285 1388.9542 0.0000 0.0000 1688.6175 -7456.0181 290.4139 -9144.6356 -7399.9739 299.9889 -441.5061 -433.6029 30433.1223 -15.0817 44.2565
TCL: Running FEP window  18: Lambda1 0.8500000000000002 Lambda2 0.9000000000000002 [dLambda 0.050000000000000044]
TCL: Setting parameter firsttimestep to 0
TCL: Setting parameter alchLambda to 0.8500000000000002
Info: NONBONDED TABLE R-SQUARED SPACING: 0.0625
Info: NONBONDED TABLE SIZE: 705 POINTS
TCL: Setting parameter alchLambda2 to 0.9000000000000002
Info: NONBONDED TABLE R-SQUARED SPACING: 0.0625
Info: NONBONDED TABLE SIZE: 705 POINTS
TCL: Running for 1500000 steps
ETITLE: TS BOND ANGLE DIHED IMPRP ELECT VDW BOUNDARY MISC KINETIC TOTAL TEMP POTENTIAL TOTALAVG TEMPAVG PRESSURE GPRESSURE VOLUME PRESSAVG GPRESSAVG
ENERGY: 0 1.3828 10.7928 11.2630 0.0000 -10557.3781 1388.6989 0.0000 0.0000 1687.7763 -7457.4642 290.2692 -9145.2405 -7457.4642 290.2692 -506.6301 -423.0602 30433.1223 -506.6301 -423.0602
ENERGY: 300000 8.5819 11.7367 9.2465 0.0000 -10630.6606 1443.1195 0.0000 0.0000 1766.6005 -7391.3755 303.8256 -9157.9759 -7429.5243 297.6989 99.1110 153.6860 30364.7851 -394.1686 -326.0334
ENERGY: 600000 0.8955 11.4181 8.2424 0.0000 -10587.8557 1394.2198 0.0000 0.0000 1760.4937 -7412.5862 302.7754 -9173.0799 -7414.3375 299.9605 -626.9446 -556.8583 30646.8866 -346.4221 -287.9934
ENERGY: 900000 0.5336 11.8605 8.9448 0.0000 -10502.4968 1366.9294 0.0000 0.0000 1766.4522 -7347.7764 303.8001 -9114.2286 -7397.0179 300.0810 -26.9726 56.1040 29844.1956 -239.5657 -176.8037
ENERGY: 1200000 3.5982 11.9923 7.5964 0.0000 -10486.1914 1313.8077 0.0000 0.0000 1715.0206 -7434.1761 294.9548 -9149.1967 -7413.3370 299.7590 -1048.0268 -980.6154 30255.0296 -288.9817 -221.6894
ENERGY: 1500000 1.0024 14.8484 7.7295 0.0000 -10425.5033 1333.1958 0.0000 0.0000 1787.6755 -7281.0516 307.4502 -9068.7271 -7398.9582 300.7688 -431.2228 -386.7230 30110.5465 -279.9391 -217.3060
TCL: Running FEP window  19: Lambda1 0.9000000000000002 Lambda2 0.9500000000000003 [dLambda 0.050000000000000044]
TCL: Setting parameter firsttimestep to 0
TCL: Setting parameter alchLambda to 0.9000000000000002
Info: NONBONDED TABLE R-SQUARED SPACING: 0.0625
Info: NONBONDED TABLE SIZE: 705 POINTS
TCL: Setting parameter alchLambda2 to 0.9500000000000003
Info: NONBONDED TABLE R-SQUARED SPACING: 0.0625
Info: NONBONDED TABLE SIZE: 705 POINTS
TCL: Running for 1500000 steps
ETITLE: TS BOND ANGLE DIHED IMPRP ELECT VDW BOUNDARY MISC KINETIC TOTAL TEMP POTENTIAL TOTALAVG TEMPAVG PRESSURE GPRESSURE VOLUME PRESSAVG GPRESSAVG
ENERGY: 0 1.0024 14.8484 7.7295 0.0000 -10426.2888 1332.9428 0.0000 0.0000 1786.8508 -7282.9148 307.3083 -9069.7656 -7282.9148 307.3083 -470.8387 -381.2357 30110.5465 -470.8387 -381.2357
ENERGY: 300000 1.2809 10.8468 8.2580 0.0000 -10698.8234 1520.8841 0.0000 0.0000 1722.8053 -7434.7482 296.2936 -9157.5535 -7376.5871 301.7579 815.1779 928.1553 29917.7284 256.4341 341.8671
ENERGY: 600000 0.7624 18.8106 8.1824 0.0000 -10629.0174 1434.9744 0.0000 0.0000 1715.8868 -7450.4008 295.1037 -9166.2876 -7390.4133 299.6671 22.7804 13.6263 29914.3017 150.7151 215.4108
ENERGY: 900000 4.1826 10.9825 8.5076 0.0000 -10601.7545 1450.0724 0.0000 0.0000 1750.1051 -7377.9043 300.9887 -9128.0094 -7395.9635 299.9711 128.7358 159.3049 30224.3317 122.0223 186.7394
ENERGY: 1200000 2.2082 12.4911 10.3098 0.0000 -10484.8991 1301.2833 0.0000 0.0000 1732.9468 -7425.6598 298.0378 -9158.6066 -7396.3650 299.6399 -1112.8232 -1090.9226 30326.7342 33.1423 90.8069
ENERGY: 1500000 2.2692 12.9215 8.0486 0.0000 -10605.8281 1415.3056 0.0000 0.0000 1808.4999 -7358.7833 311.0316 -9167.2832 -7396.5798 299.8109 -36.6974 69.3079 29937.6898 -5.8588 58.3106
TCL: Running FEP window  20: Lambda1 0.9500000000000003 Lambda2 1.0    [dLambda 0.04999999999999971]
TCL: Setting parameter firsttimestep to 0
TCL: Setting parameter alchLambda to 0.9500000000000003
Info: NONBONDED TABLE R-SQUARED SPACING: 0.0625
Info: NONBONDED TABLE SIZE: 705 POINTS
TCL: Setting parameter alchLambda2 to 1.0
Info: NONBONDED TABLE R-SQUARED SPACING: 0.0625
Info: NONBONDED TABLE SIZE: 705 POINTS
TCL: Running for 1500000 steps
ETITLE: TS BOND ANGLE DIHED IMPRP ELECT VDW BOUNDARY MISC KINETIC TOTAL TEMP POTENTIAL TOTALAVG TEMPAVG PRESSURE GPRESSURE VOLUME PRESSAVG GPRESSAVG
ENERGY: 0 2.2692 12.9215 8.0486 0.0000 -10606.4362 1415.2853 0.0000 0.0000 1807.5757 -7360.3358 310.8727 -9167.9115 -7360.3358 310.8727 -7.3082 78.4572 29937.6898 -7.3082 78.4572
ENERGY: 300000 1.3461 11.6957 8.6173 0.0000 -10544.6914 1374.4059 0.0000 0.0000 1732.6906 -7415.9359 297.9937 -9148.6265 -7410.4044 301.4850 -519.8986 -491.9477 30202.5834 -391.7048 -338.3436
ENERGY: 600000 2.4006 11.2707 8.2385 0.0000 -10677.0663 1522.3156 0.0000 0.0000 1769.2593 -7363.5816 304.2829 -9132.8409 -7414.0269 299.6720 1220.9341 1357.5169 29467.1441 -168.4488 -97.5657
ENERGY: 900000 2.0377 13.1994 8.6755 0.0000 -10713.7558 1485.6200 0.0000 0.0000 1682.7825 -7521.4407 289.4103 -9204.2231 -7431.1714 298.1037 662.6816 690.1827 29532.6915 -0.6847 63.0258
ENERGY: 1200000 1.7097 8.6929 10.3223 0.0000 -10568.9908 1448.0712 0.0000 0.0000 1695.9225 -7404.2723 291.6702 -9100.1948 -7422.2456 298.4155 178.6499 347.2930 30222.8016 -71.3407 0.4509
ENERGY: 1500000 2.8023 13.1739 8.3909 0.0000 -10594.1267 1426.0966 0.0000 0.0000 1753.4983 -7390.1647 301.5723 -9143.6630 -7419.5431 299.1732 131.0200 198.1900 29952.6059 -74.9165 0.3981
TCL: Exiting due to exit command.
