Info: SIMULATION PARAMETERS:
Info: TIMESTEP               2
Info: NUMBER OF STEPS        0
Info: STEPS PER CYCLE        10
Info: PERIODIC CELL BASIS 1  31.5846 0 0
Info: PERIODIC CELL BASIS 2  0 31.1631 0
Info: PERIODIC CELL BASIS 3  0 0 31.3682
Info: PERIODIC CELL CENTER   0 0 0
Info: WRAPPING WATERS AROUND PERIODIC BOUNDARIES ON OUTPUT.
Info: WRAPPING ALL CLUSTERS AROUND PERIODIC BOUNDARIES ON OUTPUT.
Info: FIRST LDB TIMESTEP     50
Info: LAST LDB TIMESTEP     -1
Info: HOM BACKGROUND SCALING 1
Info: PME BACKGROUND SCALING 1
Info: MIN ATOMS PER PATCH    40
Info: EMPTY PATCH LOAD       40 ATOMS
Info: VELOCITY FILE          mobley_2008055_equil.vel
Info: CENTER OF MASS MOVING INITIALLY? NO
Info: DIELECTRIC             1
Info: EXCLUDE                SCALED ONE-FOUR
Info: 1-4 ELECTROSTATICS SCALED BY 0.833333
Info: MODIFIED 1-4 VDW PARAMETERS WILL BE USED
Info: DCD FILENAME           mobley_2008055_prod.dcd
Info: DCD FREQUENCY          100000
Info: DCD FIRST STEP         100000
Info: DCD FILE WILL CONTAIN UNIT CELL DATA
Info: XST FILENAME           mobley_2008055_prod.xst
Info: XST FREQUENCY          100000
Info: NO VELOCITY DCD OUTPUT
Info: NO FORCE DCD OUTPUT
Info: OUTPUT FILENAME        mobley_2008055_prod
Info: BINARY OUTPUT FILES WILL BE USED
Info: RESTART FILENAME       mobley_2008055_prod.restart
Info: RESTART FREQUENCY      100000
Info: BINARY RESTART FILES WILL BE USED
Info: CUTOFF                 9
Info: PAIRLIST DISTANCE      11
Info: PAIRLIST SHRINK RATE   0.01
Info: PAIRLIST GROW RATE     0.01
Info: PAIRLIST TRIGGER       0.3
Info: PAIRLISTS PER CYCLE    2
Info: PAIRLISTS ENABLED
Info: MARGIN                 2
Info: HYDROGEN GROUP CUTOFF  2.5
Info: PATCH DIMENSION        15.5
Info: ENERGY OUTPUT STEPS    100000
Info: ENERGY EVALUATION STEPS    100000
Info: OUTPUT ENERGY PRECISION 4
Info: CROSSTERM ENERGY INCLUDED IN DIHEDRAL
Info: TIMING OUTPUT STEPS    1000000
Info: PRESSURE OUTPUT STEPS  100000
Info: ALCHEMICAL FEP ON
Info: FEP CURRENT LAMBDA VALUE     0
Info: FEP COMPARISON LAMBDA VALUE  0.05
Info: FEP INTRA-ALCHEMICAL NON-BONDED INTERACTIONS WILL BE RETAINED
Info: FEP INTRA-ALCHEMICAL BONDED INTERACTIONS WILL BE RETAINED
Info: FEP VDW SHIFTING COEFFICIENT 5
Info: FEP ELEC. ACTIVE FOR ANNIHILATED PARTICLES BETWEEN LAMBDA = 0 AND LAMBDA = 0.5
Info: FEP ELEC. ACTIVE FOR EXNIHILATED PARTICLES BETWEEN LAMBDA = 0.5 AND LAMBDA = 1
Info: FEP VDW ACTIVE FOR ANNIHILATED PARTICLES BETWEEN LAMBDA = 0 AND LAMBDA = 1
Info: FEP VDW ACTIVE FOR EXNIHILATED PARTICLES BETWEEN LAMBDA = 0 AND LAMBDA = 1
Info: FEP BOND ACTIVE FOR ANNIHILATED PARTICLES BETWEEN LAMBDA = 1 AND LAMBDA = 1
Info: FEP BOND ACTIVE FOR EXNIHILATED PARTICLES BETWEEN LAMBDA = 0 AND LAMBDA = 0
Info: LANGEVIN DYNAMICS ACTIVE
Info: LANGEVIN TEMPERATURE   300
Info: LANGEVIN USING BBK INTEGRATOR
Info: LANGEVIN DAMPING COEFFICIENT IS 1 INVERSE PS
Info: LANGEVIN DYNAMICS APPLIED TO HYDROGENS
Info: LANGEVIN PISTON PRESSURE CONTROL ACTIVE
Info:        TARGET PRESSURE IS 1.01325 BAR
Info:     OSCILLATION PERIOD IS 50 FS
Info:             DECAY TIME IS 25 FS
Info:     PISTON TEMPERATURE IS 300 K
Info:       PRESSURE CONTROL IS GROUP-BASED
Info:    INITIAL STRAIN RATE IS 0.000145949 0.000145949 0.000145949
Info:       CELL FLUCTUATION IS ISOTROPIC
Info: PARTICLE MESH EWALD (PME) ACTIVE
Info: PME TOLERANCE               1e-06
Info: PME EWALD COEFFICIENT       0.348832
Info: PME INTERPOLATION ORDER     4
Info: PME GRID DIMENSIONS         32 32 32
Info: PME MAXIMUM GRID SPACING    1
Info: PME CALCULATION WILL BE PERFORMED ON GPU
Info: FULL ELECTROSTATIC EVALUATION FREQUENCY      2
Info: USING VERLET I (r-RESPA) MTS SCHEME.
Info: C1 SPLITTING OF LONG RANGE ELECTROSTATICS
Info: PLACING ATOMS IN PATCHES BY HYDROGEN GROUPS
Info: RIGID BONDS TO HYDROGEN : ALL
Info:         ERROR TOLERANCE : 1e-08
Info:          MAX ITERATIONS : 100
Info: RIGID WATER USING SETTLE ALGORITHM
Info: RANDOM NUMBER SEED     1743480656
Info: USE HYDROGEN BONDS?    NO
Info: Using AMBER format force field!
Info: AMBER PARM FILE        mobley_2008055.prmtop
Info: COORDINATE PDB         mobley_2008055.pdb
Info: Exclusions will be read from PARM file!
Info: SCNB (VDW SCALING)     2
Info: USING ARITHMETIC MEAN TO COMBINE L-J SIGMA PARAMETERS
Info: BINARY COORDINATES     mobley_2008055_equil.coor
Info: SUMMARY OF PARAMETERS:
Info: 4 BONDS
Info: 2 ANGLES
Info:   2 HARMONIC
Info:   0 COSINE-BASED
Info: 1 DIHEDRAL
Info: 0 IMPROPER
Info: 0 CROSSTERM
Info: 0 VDW
Info: 10 VDW_PAIRS
Info: 0 NBTHOLE_PAIRS
Info: To read alchdata from file: mobley_2008055.pdb
Info: To read alchflag data from column: 5
Info: STRUCTURE SUMMARY:
Info: 2996 ATOMS
Info: 2995 BONDS
Info: 12 ANGLES
Info: 9 DIHEDRALS
Info: 0 IMPROPERS
Info: 0 CROSSTERMS
Info: 3016 EXCLUSIONS
Info: 2994 RIGID BONDS
Info: ALCH: 0 ATOMS TO DISAPPEAR IN FINAL STATE
Info: ALCH: 8 ATOMS TO APPEAR IN FINAL STATE
Info: 5994 DEGREES OF FREEDOM
Info: 998 HYDROGEN GROUPS
Info: 4 ATOMS IN LARGEST HYDROGEN GROUP
Info: 998 MIGRATION GROUPS
Info: 4 ATOMS IN LARGEST MIGRATION GROUP
Info: TOTAL MASS = 17974 amu
Info: TOTAL CHARGE = 0.000200003 e
Info: MASS DENSITY = 0.966715 g/cm^3
Info: ATOM DENSITY = 0.0970367 atoms/A^3
Info: ADDED 0 IMPLICIT EXCLUSIONS
Info: NONBONDED TABLE R-SQUARED SPACING: 0.0625
Info: NONBONDED TABLE SIZE: 705 POINTS
Info: REDUCING NUMBER OF PATCHES TO IMPROVE LOAD BALANCE
Info: REMOVING COM VELOCITY -0.00469659 0.00286512 -0.0420797
Info: Use 3D box decompostion in PME FFT.
Info: Updated CUDA force table with 4096 elements.
Info: Updated CUDA LJ table with 4 x 4 elements.
Info: Found 11 unique exclusion lists needing 16 bytes
TCL: Running for 1500000 steps
ETITLE: TS BOND ANGLE DIHED IMPRP ELECT VDW BOUNDARY MISC KINETIC TOTAL TEMP POTENTIAL TOTALAVG TEMPAVG PRESSURE GPRESSURE VOLUME PRESSAVG GPRESSAVG
ENERGY: 0 0.0937 1.8623 0.6525 0.0000 -11026.0661 1585.5253 0.0000 0.0000 1755.7285 -7682.2037 294.8024 -9437.9322 -7682.2037 294.8024 771.7832 830.0778 30874.9162 771.7832 830.0778
ENERGY: 300000 0.1496 2.6625 1.1385 0.0000 -10822.9662 1421.2980 0.0000 0.0000 1804.0518 -7593.6657 302.9163 -9397.7175 -7681.0805 297.6770 -456.2274 -432.3995 31034.2081 10.9724 72.8740
ENERGY: 600000 0.0059 3.3367 0.1778 0.0000 -10822.0906 1422.5944 0.0000 0.0000 1778.7144 -7617.2613 298.6619 -9395.9757 -7669.1596 296.8207 -496.2804 -437.6966 31187.9724 -61.0446 -11.3393
ENERGY: 900000 0.6386 1.9170 0.0450 0.0000 -10914.8611 1495.4298 0.0000 0.0000 1775.3017 -7641.5290 298.0889 -9416.8308 -7645.4856 298.7240 357.8316 408.9345 30596.3602 58.4555 122.1120
ENERGY: 1200000 0.0009 2.3078 0.0572 0.0000 -10836.1978 1466.6955 0.0000 0.0000 1777.1757 -7589.9607 298.4036 -9367.1364 -7623.0361 300.3394 2.2868 52.6365 30999.7534 -56.6055 3.3202
ENERGY: 1500000 0.0538 3.6026 0.2186 0.0000 -10964.5358 1564.6947 0.0000 0.0000 1809.8746 -7586.0915 303.8940 -9395.9661 -7627.0591 300.0767 641.5960 665.0724 31020.1729 -13.7087 45.7442
TCL: Running FEP window   2: Lambda1 0.05   Lambda2 0.1    [dLambda 0.05  ]
TCL: Setting parameter firsttimestep to 0
TCL: Setting parameter alchLambda to 0.05
Info: NONBONDED TABLE R-SQUARED SPACING: 0.0625
Info: NONBONDED TABLE SIZE: 705 POINTS
TCL: Setting parameter alchLambda2 to 0.1
Info: NONBONDED TABLE R-SQUARED SPACING: 0.0625
Info: NONBONDED TABLE SIZE: 705 POINTS
TCL: Running for 1500000 steps
ETITLE: TS BOND ANGLE DIHED IMPRP ELECT VDW BOUNDARY MISC KINETIC TOTAL TEMP POTENTIAL TOTALAVG TEMPAVG PRESSURE GPRESSURE VOLUME PRESSAVG GPRESSAVG
ENERGY: 0 0.0538 3.6026 0.2186 0.0000 -10964.5347 1565.4523 0.0000 0.0000 1809.0020 -7586.2055 303.7475 -9395.2075 -7586.2055 303.7475 579.3331 668.9779 31020.1729 579.3331 668.9779
ENERGY: 300000 0.4417 2.9565 0.5565 0.0000 -10822.5933 1446.5651 0.0000 0.0000 1777.9650 -7594.1084 298.5361 -9372.0734 -7614.1333 299.3517 -268.1169 -183.7910 31093.7690 139.2764 207.5119
ENERGY: 600000 0.5670 4.1576 0.1509 0.0000 -10912.4244 1499.3407 0.0000 0.0000 1871.6464 -7536.5617 314.2660 -9408.2081 -7600.6246 301.9207 243.9346 287.9874 30801.4916 157.0150 210.6845
ENERGY: 900000 0.0979 3.0249 0.1261 0.0000 -11036.9530 1552.5555 0.0000 0.0000 1786.0242 -7695.1244 299.8893 -9481.1486 -7623.4529 301.3330 682.2523 690.3381 30287.5460 145.6707 195.9234
ENERGY: 1200000 0.5697 4.2228 1.1110 0.0000 -10824.7512 1433.7405 0.0000 0.0000 1809.0594 -7576.0477 303.7571 -9385.1071 -7617.9481 301.6617 -204.3281 -154.8155 30902.9339 140.6596 195.8900
ENERGY: 1500000 0.1669 4.6640 0.0683 0.0000 -10843.3613 1474.5321 0.0000 0.0000 1742.7112 -7621.2188 292.6167 -9363.9300 -7619.5727 300.7015 -132.9868 -19.4271 30900.1416 152.3573 210.9153
TCL: Running FEP window   3: Lambda1 0.1    Lambda2 0.15000000000000002 [dLambda 0.05000000000000002]
TCL: Setting parameter firsttimestep to 0
TCL: Setting parameter alchLambda to 0.1
Info: NONBONDED TABLE R-SQUARED SPACING: 0.0625
Info: NONBONDED TABLE SIZE: 705 POINTS
TCL: Setting parameter alchLambda2 to 0.15000000000000002
Info: NONBONDED TABLE R-SQUARED SPACING: 0.0625
Info: NONBONDED TABLE SIZE: 705 POINTS
TCL: Running for 1500000 steps
ETITLE: TS BOND ANGLE DIHED IMPRP ELECT VDW BOUNDARY MISC KINETIC TOTAL TEMP POTENTIAL TOTALAVG TEMPAVG PRESSURE GPRESSURE VOLUME PRESSAVG GPRESSAVG
ENERGY: 0 0.1669 4.6640 0.0683 0.0000 -10843.3623 1474.7777 0.0000 0.0000 1741.8332 -7621.8523 292.4692 -9363.6854 -7621.8523 292.4692 -106.4240 -17.8917 30900.1416 -106.4240 -17.8917
ENERGY: 300000 0.0984 2.5572 0.0603 0.0000 -10885.1158 1518.8396 0.0000 0.0000 1767.5882 -7595.9722 296.7937 -9363.5604 -7597.5783 296.5487 359.3062 397.5147 30927.2195 152.3797 210.1640
ENERGY: 600000 0.9071 4.4574 0.1084 0.0000 -10873.6505 1451.6063 0.0000 0.0000 1768.3647 -7648.2066 296.9241 -9416.5713 -7613.5709 296.3092 -268.4438 -252.4398 30983.6049 158.1190 200.8427
ENERGY: 900000 0.0000 2.0678 0.0560 0.0000 -10822.6731 1433.0773 0.0000 0.0000 1809.6601 -7577.8119 303.8580 -9387.4720 -7612.9905 297.6242 -71.7828 17.4802 30540.0113 -70.8126 -19.3128
ENERGY: 1200000 0.4902 1.8957 2.1273 0.0000 -10968.9219 1503.6204 0.0000 0.0000 1795.1035 -7665.6848 301.4138 -9460.7884 -7633.9699 296.4888 599.5671 720.4572 29801.3180 -127.1202 -73.1976
ENERGY: 1500000 0.0627 2.0838 0.1969 0.0000 -10914.7393 1529.6832 0.0000 0.0000 1773.4505 -7609.2622 297.7781 -9382.7127 -7624.8392 297.4661 374.8693 421.5155 31024.2111 -130.8082 -70.5379
TCL: Running FEP window   4: Lambda1 0.15000000000000002 Lambda2 0.2    [dLambda 0.04999999999999999]
TCL: Setting parameter firsttimestep to 0
TCL: Setting parameter alchLambda to 0.15000000000000002
Info: NONBONDED TABLE R-SQUARED SPACING: 0.0625
Info: NONBONDED TABLE SIZE: 705 POINTS
TCL: Setting parameter alchLambda2 to 0.2
Info: NONBONDED TABLE R-SQUARED SPACING: 0.0625
Info: NONBONDED TABLE SIZE: 705 POINTS
TCL: Running for 1500000 steps
ETITLE: TS BOND ANGLE DIHED IMPRP ELECT VDW BOUNDARY MISC KINETIC TOTAL TEMP POTENTIAL TOTALAVG TEMPAVG PRESSURE GPRESSURE VOLUME PRESSAVG GPRESSAVG
ENERGY: 0 0.0627 2.0838 0.1969 0.0000 -10914.7381 1529.6071 0.0000 0.0000 1772.5712 -7610.2164 297.6304 -9382.7876 -7610.2164 297.6304 337.7616 421.9693 31024.2111 337.7616 421.9693
ENERGY: 300000 0.0311 5.6442 0.4088 0.0000 -10949.5213 1529.4453 0.0000 0.0000 1725.3843 -7688.6076 289.7073 -9413.9919 -7615.8279 298.3602 576.5182 610.2474 30822.2202 -0.3445 75.0870
ENERGY: 600000 0.0995 1.8786 0.0201 0.0000 -10693.1638 1366.5534 0.0000 0.0000 1878.3245 -7446.2877 315.3873 -9324.6122 -7596.0608 300.0980 -621.5291 -559.4504 31395.8863 -116.3925 -56.2676
ENERGY: 900000 0.0444 3.9390 0.3319 0.0000 -10985.9624 1496.5210 0.0000 0.0000 1777.1869 -7707.9392 298.4054 -9485.1261 -7619.8105 300.5709 -102.4349 2.1614 30727.5007 -167.4618 -105.0234
ENERGY: 1200000 0.0600 2.1014 1.8907 0.0000 -10938.7740 1524.0419 0.0000 0.0000 1744.2223 -7666.4577 292.8704 -9410.6800 -7631.0945 299.8576 288.4052 444.2471 30833.9904 -120.9403 -52.2972
ENERGY: 1500000 0.9228 3.1564 0.0195 0.0000 -10814.1168 1424.6423 0.0000 0.0000 1765.9471 -7619.4287 296.5182 -9385.3758 -7625.4724 299.3673 -552.3967 -447.1878 31342.9575 -48.3554 25.8051
TCL: Running FEP window   5: Lambda1 0.2    Lambda2 0.25   [dLambda 0.04999999999999999]
TCL: Setting parameter firsttimestep to 0
TCL: Setting parameter alchLambda to 0.2
Info: NONBONDED TABLE R-SQUARED SPACING: 0.0625
Info: NONBONDED TABLE SIZE: 705 POINTS
TCL: Setting parameter alchLambda2 to 0.25
Info: NONBONDED TABLE R-SQUARED SPACING: 0.0625
Info: NONBONDED TABLE SIZE: 705 POINTS
TCL: Running for 1500000 steps
ETITLE: TS BOND ANGLE DIHED IMPRP ELECT VDW BOUNDARY MISC KINETIC TOTAL TEMP POTENTIAL TOTALAVG TEMPAVG PRESSURE GPRESSURE VOLUME PRESSAVG GPRESSAVG
ENERGY: 0 0.9228 3.1564 0.0195 0.0000 -10814.1170 1424.7170 0.0000 0.0000 1765.0373 -7620.2640 296.3654 -9385.3013 -7620.2640 296.3654 -515.8505 -444.7420 31342.9575 -515.8505 -444.7420
ENERGY: 300000 0.0022 6.4129 0.6377 0.0000 -10801.9809 1438.9976 0.0000 0.0000 1790.1550 -7565.7755 300.5829 -9355.9305 -7579.1095 302.1954 50.1673 186.7563 30497.4905 -47.5657 18.6678
ENERGY: 600000 0.0717 2.1378 0.0623 0.0000 -11026.5145 1519.6158 0.0000 0.0000 1784.2315 -7720.3954 299.5883 -9504.6269 -7617.3026 301.1341 181.3237 261.5027 30703.9159 -41.5361 22.3444
ENERGY: 900000 0.1897 1.5594 0.4286 0.0000 -10852.4575 1508.9213 0.0000 0.0000 1826.0937 -7515.2648 306.6173 -9341.3584 -7616.7134 300.4967 416.3730 545.7924 31059.8683 85.1138 140.8195
ENERGY: 1200000 0.0608 3.7514 0.0949 0.0000 -10993.6802 1531.5183 0.0000 0.0000 1818.2654 -7639.9895 305.3029 -9458.2548 -7610.8340 301.1996 509.4882 595.8298 30355.3005 -17.0996 38.7869
ENERGY: 1500000 0.0928 5.0809 0.2307 0.0000 -10797.4825 1380.0593 0.0000 0.0000 1752.9167 -7659.1021 294.3303 -9412.0188 -7621.5872 300.7086 -850.3450 -756.7361 31067.1457 -57.9240 0.6511
TCL: Running FEP window   6: Lambda1 0.25   Lambda2 0.3    [dLambda 0.04999999999999999]
TCL: Setting parameter firsttimestep to 0
TCL: Setting parameter alchLambda to 0.25
Info: NONBONDED TABLE R-SQUARED SPACING: 0.0625
Info: NONBONDED TABLE SIZE: 705 POINTS
TCL: Setting parameter alchLambda2 to 0.3
Info: NONBONDED TABLE R-SQUARED SPACING: 0.0625
Info: NONBONDED TABLE SIZE: 705 POINTS
TCL: Running for 1500000 steps
ETITLE: TS BOND ANGLE DIHED IMPRP ELECT VDW BOUNDARY MISC KINETIC TOTAL TEMP POTENTIAL TOTALAVG TEMPAVG PRESSURE GPRESSURE VOLUME PRESSAVG GPRESSAVG
ENERGY: 0 0.0928 5.0809 0.2307 0.0000 -10797.4843 1379.9701 0.0000 0.0000 1752.0919 -7660.0179 294.1918 -9412.1098 -7660.0179 294.1918 -832.4311 -754.4705 31067.1457 -832.4311 -754.4705
ENERGY: 300000 0.0268 2.5822 0.5369 0.0000 -10916.2498 1558.1505 0.0000 0.0000 1798.3134 -7556.6399 301.9528 -9354.9534 -7629.2176 297.2973 998.5953 1114.7374 30534.5012 -223.7244 -141.2510
ENERGY: 600000 0.3570 2.5109 0.0585 0.0000 -10674.3570 1340.2338 0.0000 0.0000 1826.0492 -7505.1476 306.6099 -9331.1968 -7608.7617 300.3323 -591.3817 -544.7786 30647.0912 -300.2963 -251.7047
ENERGY: 900000 0.7649 3.8115 0.1323 0.0000 -10887.7160 1479.9803 0.0000 0.0000 1768.4828 -7634.5443 296.9439 -9403.0270 -7627.9556 299.9803 358.6023 327.2108 30573.1844 -154.4196 -89.8476
ENERGY: 1200000 0.0111 3.1974 0.0339 0.0000 -10874.1489 1457.0727 0.0000 0.0000 1804.0408 -7609.7930 302.9144 -9413.8338 -7612.8737 300.9210 91.3545 39.5107 30688.8041 -112.0989 -55.1461
ENERGY: 1500000 0.2245 6.2160 0.1984 0.0000 -10821.5638 1501.6945 0.0000 0.0000 1763.5397 -7549.6908 296.1140 -9313.2305 -7611.0895 301.1855 464.8066 499.1467 30884.3124 -76.1121 -20.4140
TCL: Running FEP window   7: Lambda1 0.3    Lambda2 0.35   [dLambda 0.04999999999999999]
TCL: Setting parameter firsttimestep to 0
TCL: Setting parameter alchLambda to 0.3
Info: NONBONDED TABLE R-SQUARED SPACING: 0.0625
Info: NONBONDED TABLE SIZE: 705 POINTS
TCL: Setting parameter alchLambda2 to 0.35
Info: NONBONDED TABLE R-SQUARED SPACING: 0.0625
Info: NONBONDED TABLE SIZE: 705 POINTS
TCL: Running for 1500000 steps
ETITLE: TS BOND ANGLE DIHED IMPRP ELECT VDW BOUNDARY MISC KINETIC TOTAL TEMP POTENTIAL TOTALAVG TEMPAVG PRESSURE GPRESSURE VOLUME PRESSAVG GPRESSAVG
ENERGY: 0 0.2245 6.2160 0.1984 0.0000 -10821.5643 1501.7357 0.0000 0.0000 1762.6337 -7550.5559 295.9618 -9313.1896 -7550.5559 295.9618 420.5634 502.2320 30884.3124 420.5634 502.2320
ENERGY: 300000 0.4748 3.3638 0.1116 0.0000 -10667.9941 1346.2461 0.0000 0.0000 1812.7505 -7505.0473 304.3769 -9317.7978 -7531.8748 303.8965 -522.4376 -433.9380 30621.8958 -139.6680 -74.0534
ENERGY: 600000 0.0200 3.1411 0.0759 0.0000 -10757.4498 1370.3656 0.0000 0.0000 1780.2868 -7603.5604 298.9259 -9383.8472 -7555.9274 301.3611 -734.0205 -628.5387 30940.6150 -108.5117 -29.3982
ENERGY: 900000 0.0414 1.5827 0.0673 0.0000 -10713.8587 1369.4572 0.0000 0.0000 1838.4151 -7504.2951 308.6862 -9342.7102 -7556.7522 302.4905 -484.8941 -450.7909 30899.3040 -153.1951 -79.3209
ENERGY: 1200000 0.5599 4.2408 0.0937 0.0000 -11008.0210 1496.0065 0.0000 0.0000 1761.0181 -7746.1020 295.6906 -9507.1201 -7574.7289 302.3327 -58.5393 -28.6220 30756.1665 -293.2739 -222.0286
ENERGY: 1500000 0.0142 1.9103 0.7698 0.0000 -10748.1597 1459.4209 0.0000 0.0000 1764.1984 -7521.8461 296.2246 -9286.0445 -7582.8164 301.3679 -244.9205 -157.0134 31683.1202 -312.5195 -241.5278
TCL: Running FEP window   8: Lambda1 0.35   Lambda2 0.39999999999999997 [dLambda 0.04999999999999999]
TCL: Setting parameter firsttimestep to 0
TCL: Setting parameter alchLambda to 0.35
Info: NONBONDED TABLE R-SQUARED SPACING: 0.0625
Info: NONBONDED TABLE SIZE: 705 POINTS
TCL: Setting parameter alchLambda2 to 0.39999999999999997
Info: NONBONDED TABLE R-SQUARED SPACING: 0.0625
Info: NONBONDED TABLE SIZE: 705 POINTS
TCL: Running for 1500000 steps
ETITLE: TS BOND ANGLE DIHED IMPRP ELECT VDW BOUNDARY MISC KINETIC TOTAL TEMP POTENTIAL TOTALAVG TEMPAVG PRESSURE GPRESSURE VOLUME PRESSAVG GPRESSAVG
ENERGY: 0 0.0142 1.9103 0.7698 0.0000 -10748.1602 1460.4722 0.0000 0.0000 1763.3116 -7521.6821 296.0757 -9284.9938 -7521.6821 296.0757 -234.6657 -149.9942 31683.1202 -234.6657 -149.9942
ENERGY: 300000 0.0281 3.2309 0.1658 0.0000 -10914.2874 1517.3051 0.0000 0.0000 1762.2265 -7631.3310 295.8935 -9393.5575 -7595.5481 299.2163 536.2609 599.8124 30372.9280 150.7309 207.1654
ENERGY: 600000 0.0088 2.0405 0.3047 0.0000 -10890.3942 1459.8120 0.0000 0.0000 1781.2818 -7646.9463 299.0930 -9428.2281 -7600.0278 300.2651 -51.7184 -1.4477 30882.1272 266.7184 328.5251
ENERGY: 900000 0.3995 2.4551 0.7071 0.0000 -10848.3822 1475.5281 0.0000 0.0000 1809.8223 -7559.4701 303.8852 -9369.2924 -7607.3580 300.3176 139.0824 153.5474 31021.0280 285.1329 347.6975
ENERGY: 1200000 0.0809 1.9840 0.0821 0.0000 -10922.3593 1502.0661 0.0000 0.0000 1749.7662 -7668.3800 293.8013 -9418.1463 -7622.3514 299.3970 345.5849 433.0405 30529.5204 266.9172 329.9179
ENERGY: 1500000 0.9743 3.9377 0.4204 0.0000 -10827.5326 1483.4507 0.0000 0.0000 1736.8269 -7601.9226 291.6287 -9338.7495 -7626.1634 298.6610 385.9270 429.7554 30606.5898 194.0895 256.4873
TCL: Running FEP window   9: Lambda1 0.39999999999999997 Lambda2 0.44999999999999996 [dLambda 0.04999999999999999]
TCL: Setting parameter firsttimestep to 0
TCL: Setting parameter alchLambda to 0.39999999999999997
Info: NONBONDED TABLE R-SQUARED SPACING: 0.0625
Info: NONBONDED TABLE SIZE: 705 POINTS
TCL: Setting parameter alchLambda2 to 0.44999999999999996
Info: NONBONDED TABLE R-SQUARED SPACING: 0.0625
Info: NONBONDED TABLE SIZE: 705 POINTS
TCL: Running for 1500000 steps
ETITLE: TS BOND ANGLE DIHED IMPRP ELECT VDW BOUNDARY MISC KINETIC TOTAL TEMP POTENTIAL TOTALAVG TEMPAVG PRESSURE GPRESSURE VOLUME PRESSAVG GPRESSAVG
ENERGY: 0 0.9743 3.9377 0.4204 0.0000 -10827.5316 1483.2984 0.0000 0.0000 1735.8894 -7603.0114 291.4712 -9338.9008 -7603.0114 291.4712 347.6820 432.0380 30606.5898 347.6820 432.0380
ENERGY: 300000 0.8926 4.0677 0.1305 0.0000 -10823.0090 1429.9365 0.0000 0.0000 1798.7421 -7589.2396 302.0248 -9387.9817 -7584.2663 297.7786 -323.0234 -285.6865 30937.1099 87.1097 139.3412
ENERGY: 600000 0.6278 2.2256 0.5149 0.0000 -10850.5871 1454.0364 0.0000 0.0000 1762.5190 -7630.6634 295.9426 -9393.1824 -7607.1660 298.7826 -31.8969 23.3521 30643.6847 69.4043 98.9921
ENERGY: 900000 0.0031 2.1408 1.2026 0.0000 -10907.4139 1465.2591 0.0000 0.0000 1787.3395 -7651.4688 300.1102 -9438.8083 -7598.0070 299.7856 237.5731 321.3160 30184.7213 61.5104 98.4089
ENERGY: 1200000 0.3000 3.4045 0.1036 0.0000 -10956.8628 1525.3661 0.0000 0.0000 1778.4700 -7649.2187 298.6209 -9427.6887 -7606.1680 299.5043 338.7986 416.4036 30811.6255 82.5127 127.7135
ENERGY: 1500000 0.2483 2.8520 0.1326 0.0000 -10846.7504 1469.6186 0.0000 0.0000 1790.3241 -7583.5749 300.6113 -9373.8990 -7605.3282 299.6178 -15.2468 66.3552 31026.3312 69.1714 119.5293
TCL: Running FEP window  10: Lambda1 0.44999999999999996 Lambda2 0.49999999999999994 [dLambda 0.04999999999999999]
TCL: Setting parameter firsttimestep to 0
TCL: Setting parameter alchLambda to 0.44999999999999996
Info: NONBONDED TABLE R-SQUARED SPACING: 0.0625
Info: NONBONDED TABLE SIZE: 705 POINTS
TCL: Setting parameter alchLambda2 to 0.49999999999999994
Info: NONBONDED TABLE R-SQUARED SPACING: 0.0625
Info: NONBONDED TABLE SIZE: 705 POINTS
TCL: Running for 1500000 steps
ETITLE: TS BOND ANGLE DIHED IMPRP ELECT VDW BOUNDARY MISC KINETIC TOTAL TEMP POTENTIAL TOTALAVG TEMPAVG PRESSURE GPRESSURE VOLUME PRESSAVG GPRESSAVG
ENERGY: 0 0.2483 2.8520 0.1326 0.0000 -10846.7489 1469.7812 0.0000 0.0000 1789.4107 -7584.3241 300.4579 -9373.7349 -7584.3241 300.4579 -18.1847 68.3010 31026.3312 -18.1847 68.3010
ENERGY: 300000 0.3333 4.3772 0.1897 0.0000 -11010.6820 1504.5200 0.0000 0.0000 1861.9592 -7639.3026 312.6395 -9501.2618 -7616.9184 302.0183 353.1658 477.9978 30267.2913 226.3889 320.8140
ENERGY: 600000 0.7186 2.9162 0.1627 0.0000 -10882.0394 1450.9963 0.0000 0.0000 1788.4353 -7638.8103 300.2942 -9427.2456 -7620.7280 302.4832 -394.3762 -349.8854 31093.2753 155.8079 238.4194
ENERGY: 900000 0.0001 3.2155 1.4657 0.0000 -10934.5774 1471.2165 0.0000 0.0000 1846.3650 -7612.3146 310.0211 -9458.6796 -7619.5452 302.1194 -57.0556 73.7421 30600.3092 144.4012 225.6308
ENERGY: 1200000 0.1383 4.4974 0.3604 0.0000 -10812.8139 1465.2323 0.0000 0.0000 1799.5026 -7543.0829 302.1524 -9342.5855 -7612.4381 301.4455 303.5348 368.3978 30690.2285 130.6920 207.8326
ENERGY: 1500000 0.0688 2.9156 0.1888 0.0000 -10833.3950 1478.6533 0.0000 0.0000 1757.8436 -7593.7248 295.1575 -9351.5684 -7614.8002 300.5166 448.4867 510.6566 30588.2925 157.3902 230.4809
TCL: Running FEP window  11: Lambda1 0.49999999999999994 Lambda2 0.5499999999999999 [dLambda 0.04999999999999999]
TCL: Setting parameter firsttimestep to 0
TCL: Setting parameter alchLambda to 0.49999999999999994
Info: NONBONDED TABLE R-SQUARED SPACING: 0.0625
Info: NONBONDED TABLE SIZE: 705 POINTS
TCL: Setting parameter alchLambda2 to 0.5499999999999999
Info: NONBONDED TABLE R-SQUARED SPACING: 0.0625
Info: NONBONDED TABLE SIZE: 705 POINTS
TCL: Running for 1500000 steps
ETITLE: TS BOND ANGLE DIHED IMPRP ELECT VDW BOUNDARY MISC KINETIC TOTAL TEMP POTENTIAL TOTALAVG TEMPAVG PRESSURE GPRESSURE VOLUME PRESSAVG GPRESSAVG
ENERGY: 0 0.0688 2.9156 0.1888 0.0000 -10833.3954 1478.6332 0.0000 0.0000 1756.9267 -7594.6623 295.0036 -9351.5890 -7594.6623 295.0036 423.0912 512.8019 30588.2925 423.0912 512.8019
ENERGY: 300000 0.3256 2.4587 0.2585 0.0000 -10815.1487 1416.5707 0.0000 0.0000 1820.6246 -7574.9106 305.6990 -9395.5352 -7584.7238 302.8965 -216.8269 -144.1117 31003.6080 -17.8505 47.7584
ENERGY: 600000 0.2774 3.8382 0.0620 0.0000 -10829.2723 1474.0676 0.0000 0.0000 1852.9311 -7498.0960 311.1236 -9351.0271 -7609.4071 301.9622 153.0508 247.1949 30980.4705 -23.1810 49.7319
ENERGY: 900000 0.0193 1.7192 1.2664 0.0000 -11032.6204 1511.4220 0.0000 0.0000 1823.9823 -7694.2112 306.2628 -9518.1936 -7619.2886 302.9928 330.2295 455.8778 30271.6776 -30.0234 48.8126
ENERGY: 1200000 0.1473 4.6137 1.3701 0.0000 -11026.4050 1500.5183 0.0000 0.0000 1811.0393 -7708.7162 304.0896 -9519.7555 -7630.0652 303.8005 -28.4247 61.9267 30729.1266 2.8488 77.8704
ENERGY: 1500000 0.0523 2.9833 0.3404 0.0000 -11011.1103 1522.8651 0.0000 0.0000 1788.1981 -7696.6711 300.2543 -9484.8692 -7642.0936 302.4498 328.1988 408.4960 30543.7287 -20.9698 55.5228
TCL: Running FEP window  12: Lambda1 0.5499999999999999 Lambda2 0.6    [dLambda 0.050000000000000044]
TCL: Setting parameter firsttimestep to 0
TCL: Setting parameter alchLambda to 0.5499999999999999
Info: NONBONDED TABLE R-SQUARED SPACING: 0.0625
Info: NONBONDED TABLE SIZE: 705 POINTS
TCL: Setting parameter alchLambda2 to 0.6
Info: NONBONDED TABLE R-SQUARED SPACING: 0.0625
Info: NONBONDED TABLE SIZE: 705 POINTS
TCL: Running for 1500000 steps
ETITLE: TS BOND ANGLE DIHED IMPRP ELECT VDW BOUNDARY MISC KINETIC TOTAL TEMP POTENTIAL TOTALAVG TEMPAVG PRESSURE GPRESSURE VOLUME PRESSAVG GPRESSAVG
ENERGY: 0 0.0523 2.9833 0.3404 0.0000 -11011.0996 1525.4701 0.0000 0.0000 1787.3092 -7694.9442 300.1051 -9482.2535 -7694.9442 300.1051 355.0782 430.2407 30543.7287 355.0782 430.2407
ENERGY: 300000 0.5126 3.9294 0.1608 0.0000 -10852.4376 1444.5613 0.0000 0.0000 1769.1357 -7634.1379 297.0536 -9403.2735 -7653.4796 299.1849 -105.5206 -8.6386 30763.3741 -24.0857 28.2300
ENERGY: 600000 1.2297 3.0490 0.5197 0.0000 -10945.1299 1492.7738 0.0000 0.0000 1784.9003 -7662.6574 299.7006 -9447.5577 -7667.4019 298.5549 -95.8530 0.0353 30876.1092 -2.5698 53.6109
ENERGY: 900000 0.2280 3.5134 0.0465 0.0000 -10821.3097 1393.8716 0.0000 0.0000 1745.5687 -7678.0816 293.0965 -9423.6502 -7654.2711 300.0031 -644.7069 -605.2903 30640.3563 -162.8381 -121.7120
ENERGY: 1200000 0.2435 1.0649 0.1498 0.0000 -10876.4859 1421.6038 0.0000 0.0000 1760.0333 -7693.3906 295.5252 -9453.4240 -7651.6279 300.3969 -520.6831 -466.0419 30926.6579 -104.2090 -53.5570
ENERGY: 1500000 0.0015 2.4749 0.7639 0.0000 -11015.6167 1548.8756 0.0000 0.0000 1739.1574 -7724.3434 292.0200 -9463.5007 -7655.6836 299.5415 554.1434 596.0184 30804.0732 -50.5547 3.0672
TCL: Running FEP window  13: Lambda1 0.6    Lambda2 0.65   [dLambda 0.050000000000000044]
TCL: Setting parameter firsttimestep to 0
TCL: Setting parameter alchLambda to 0.6
Info: NONBONDED TABLE R-SQUARED SPACING: 0.0625
Info: NONBONDED TABLE SIZE: 705 POINTS
TCL: Setting parameter alchLambda2 to 0.65
Info: NONBONDED TABLE R-SQUARED SPACING: 0.0625
Info: NONBONDED TABLE SIZE: 705 POINTS
TCL: Running for 1500000 steps
ETITLE: TS BOND ANGLE DIHED IMPRP ELECT VDW BOUNDARY MISC KINETIC TOTAL TEMP POTENTIAL TOTALAVG TEMPAVG PRESSURE GPRESSURE VOLUME PRESSAVG GPRESSAVG
ENERGY: 0 0.0015 2.4749 0.7639 0.0000 -11015.5714 1549.7971 0.0000 0.0000 1738.2504 -7724.2837 291.8677 -9462.5341 -7724.2837 291.8677 523.1722 609.7582 30804.0732 523.1722 609.7582
ENERGY: 300000 1.0831 7.4974 0.2592 0.0000 -10722.7165 1379.8403 0.0000 0.0000 1794.6259 -7539.4107 301.3336 -9334.0366 -7636.1852 297.7303 -597.7714 -543.7483 31515.2203 -20.3955 22.7169
ENERGY: 600000 1.0675 4.5083 2.3649 0.0000 -10887.3100 1471.1780 0.0000 0.0000 1750.6510 -7657.5404 293.9498 -9408.1914 -7625.3656 299.3098 256.5912 280.7212 30300.3924 -35.3040 39.8937
ENERGY: 900000 0.0587 1.8763 0.0616 0.0000 -10873.6378 1415.7154 0.0000 0.0000 1781.7030 -7674.2229 299.1637 -9455.9259 -7630.8661 300.0088 -451.6401 -415.3096 30805.4329 -171.4458 -111.6248
ENERGY: 1200000 0.4507 4.0480 0.4947 0.0000 -10840.8418 1412.3550 0.0000 0.0000 1780.7425 -7642.7509 299.0025 -9423.4933 -7632.4246 299.4678 -422.0845 -409.9430 31014.5232 -196.2578 -135.6745
ENERGY: 1500000 0.0146 2.2234 0.3137 0.0000 -10881.7175 1444.0182 0.0000 0.0000 1842.3539 -7592.7938 309.3476 -9435.1477 -7632.8038 300.0000 -306.0410 -220.4287 31006.2616 -238.7530 -179.7169
TCL: Running FEP window  14: Lambda1 0.65   Lambda2 0.7000000000000001 [dLambda 0.050000000000000044]
TCL: Setting parameter firsttimestep to 0
TCL: Setting parameter alchLambda to 0.65
Info: NONBONDED TABLE R-SQUARED SPACING: 0.0625
Info: NONBONDED TABLE SIZE: 705 POINTS
TCL: Setting parameter alchLambda2 to 0.7000000000000001
Info: NONBONDED TABLE R-SQUARED SPACING: 0.0625
Info: NONBONDED TABLE SIZE: 705 POINTS
TCL: Running for 1500000 steps
ETITLE: TS BOND ANGLE DIHED IMPRP ELECT VDW BOUNDARY MISC KINETIC TOTAL TEMP POTENTIAL TOTALAVG TEMPAVG PRESSURE GPRESSURE VOLUME PRESSAVG GPRESSAVG
ENERGY: 0 0.0146 2.2234 0.3137 0.0000 -10881.6923 1444.0974 0.0000 0.0000 1841.4375 -7593.6058 309.1937 -9435.0433 -7593.6058 309.1937 -291.1370 -213.9695 31006.2616 -291.1370 -213.9695
ENERGY: 300000 1.0749 2.4985 0.1170 0.0000 -10897.2488 1502.1259 0.0000 0.0000 1777.4543 -7613.9783 298.4503 -9391.4325 -7645.8306 301.2493 81.9078 168.3403 31071.6576 -195.7427 -114.2572
ENERGY: 600000 0.5651 1.2196 0.4591 0.0000 -10938.9729 1493.0989 0.0000 0.0000 1805.5235 -7638.1067 303.1634 -9443.6302 -7624.8746 299.6094 181.8246 213.9445 30753.2542 -127.3858 -54.0806
ENERGY: 900000 0.6863 1.4541 0.0126 0.0000 -10927.5340 1440.7137 0.0000 0.0000 1752.5811 -7732.0862 294.2739 -9484.6673 -7628.1351 299.3959 -484.2510 -471.5801 31079.1704 -126.9620 -63.1064
ENERGY: 1200000 0.1204 3.2325 0.5960 0.0000 -10951.7556 1441.3542 0.0000 0.0000 1797.4642 -7708.9884 301.8102 -9506.4525 -7621.0819 300.0065 -248.1313 -218.4442 30536.9816 -154.6092 -98.6815
ENERGY: 1500000 0.1824 2.2883 0.0311 0.0000 -10870.4046 1429.0350 0.0000 0.0000 1785.8664 -7653.0014 299.8628 -9438.8678 -7619.5259 300.8390 -572.8431 -509.2196 31143.7010 -165.9939 -114.2073
TCL: Running FEP window  15: Lambda1 0.7000000000000001 Lambda2 0.7500000000000001 [dLambda 0.050000000000000044]
TCL: Setting parameter firsttimestep to 0
TCL: Setting parameter alchLambda to 0.7000000000000001
Info: NONBONDED TABLE R-SQUARED SPACING: 0.0625
Info: NONBONDED TABLE SIZE: 705 POINTS
TCL: Setting parameter alchLambda2 to 0.7500000000000001
Info: NONBONDED TABLE R-SQUARED SPACING: 0.0625
Info: NONBONDED TABLE SIZE: 705 POINTS
TCL: Running for 1500000 steps
ETITLE: TS BOND ANGLE DIHED IMPRP ELECT VDW BOUNDARY MISC KINETIC TOTAL TEMP POTENTIAL TOTALAVG TEMPAVG PRESSURE GPRESSURE VOLUME PRESSAVG GPRESSAVG
ENERGY: 0 0.1824 2.2883 0.0311 0.0000 -10870.3954 1428.7674 0.0000 0.0000 1784.9816 -7654.1446 299.7143 -9439.1262 -7654.1446 299.7143 -599.7107 -504.8839 31143.7010 -599.7107 -504.8839
ENERGY: 300000 0.2810 3.5886 0.2018 0.0000 -10735.8730 1378.1668 0.0000 0.0000 1818.0688 -7535.5660 305.2699 -9353.6349 -7601.2308 302.1381 -352.5376 -324.5011 30632.9411 -355.4038 -302.4237
ENERGY: 600000 0.6259 3.9872 0.3785 0.0000 -10919.0830 1473.1110 0.0000 0.0000 1766.4294 -7674.5509 296.5992 -9440.9803 -7619.2031 299.6626 -152.4858 -63.2896 31103.1994 -284.7702 -217.3991
ENERGY: 900000 0.0377 4.0262 0.1112 0.0000 -10896.1746 1466.4040 0.0000 0.0000 1773.0816 -7652.5137 297.7161 -9425.5954 -7620.8682 299.9548 8.7473 109.5453 30656.2866 -231.1254 -163.5739
ENERGY: 1200000 0.0216 4.7322 0.1034 0.0000 -10905.9991 1479.7742 0.0000 0.0000 1834.1327 -7587.2349 307.9672 -9421.3676 -7610.4711 300.6558 11.3764 46.3489 30959.7164 -209.3914 -149.4148
ENERGY: 1500000 0.2708 6.4918 0.3586 0.0000 -10840.6174 1557.5895 0.0000 0.0000 1753.2576 -7522.6491 294.3875 -9275.9067 -7611.3711 299.8164 1007.3058 1030.8096 30975.0706 -152.1492 -95.2910
TCL: Running FEP window  16: Lambda1 0.7500000000000001 Lambda2 0.8000000000000002 [dLambda 0.050000000000000044]
TCL: Setting parameter firsttimestep to 0
TCL: Setting parameter alchLambda to 0.7500000000000001
Info: NONBONDED TABLE R-SQUARED SPACING: 0.0625
Info: NONBONDED TABLE SIZE: 705 POINTS
TCL: Setting parameter alchLambda2 to 0.8000000000000002
Info: NONBONDED TABLE R-SQUARED SPACING: 0.0625
Info: NONBONDED TABLE SIZE: 705 POINTS
TCL: Running for 1500000 steps
ETITLE: TS BOND ANGLE DIHED IMPRP ELECT VDW BOUNDARY MISC KINETIC TOTAL TEMP POTENTIAL TOTALAVG TEMPAVG PRESSURE GPRESSURE VOLUME PRESSAVG GPRESSAVG
ENERGY: 0 0.2708 6.4918 0.3586 0.0000 -10840.6161 1557.5099 0.0000 0.0000 1752.3559 -7523.6291 294.2361 -9275.9849 -7523.6291 294.2361 940.2006 1032.1473 30975.0706 940.2006 1032.1473
ENERGY: 300000 0.2542 3.2779 0.1563 0.0000 -10880.9701 1452.1056 0.0000 0.0000 1806.9752 -7618.2008 303.4072 -9425.1760 -7631.9775 299.2603 -227.8242 -185.4743 31086.3689 378.4625 450.6223
ENERGY: 600000 0.0031 2.0083 0.2101 0.0000 -10901.9188 1457.5188 0.0000 0.0000 1735.5440 -7706.6346 291.4132 -9442.1786 -7643.7230 298.5585 -365.4742 -332.3855 31280.4957 306.5581 368.0613
ENERGY: 900000 0.1622 2.2380 0.0406 0.0000 -11050.4812 1558.8167 0.0000 0.0000 1773.2283 -7715.9954 297.7408 -9489.2237 -7644.3662 299.0748 759.3386 703.7687 30477.1215 313.0375 363.1375
ENERGY: 1200000 0.2088 1.6509 0.3374 0.0000 -10805.8505 1420.8455 0.0000 0.0000 1794.0994 -7588.7085 301.2452 -9382.8079 -7640.3575 298.7757 -361.4347 -295.4855 31166.6912 199.2888 261.5644
ENERGY: 1500000 0.4723 3.3446 0.5482 0.0000 -10812.1129 1429.6108 0.0000 0.0000 1765.7725 -7612.3645 296.4889 -9378.1371 -7628.6207 298.6515 -28.1348 -5.6219 30608.8872 105.8466 167.5387
TCL: Running FEP window  17: Lambda1 0.8000000000000002 Lambda2 0.8500000000000002 [dLambda 0.050000000000000044]
TCL: Setting parameter firsttimestep to 0
TCL: Setting parameter alchLambda to 0.8000000000000002
Info: NONBONDED TABLE R-SQUARED SPACING: 0.0625
Info: NONBONDED TABLE SIZE: 705 POINTS
TCL: Setting parameter alchLambda2 to 0.8500000000000002
Info: NONBONDED TABLE R-SQUARED SPACING: 0.0625
Info: NONBONDED TABLE SIZE: 705 POINTS
TCL: Running for 1500000 steps
ETITLE: TS BOND ANGLE DIHED IMPRP ELECT VDW BOUNDARY MISC KINETIC TOTAL TEMP POTENTIAL TOTALAVG TEMPAVG PRESSURE GPRESSURE VOLUME PRESSAVG GPRESSAVG
ENERGY: 0 0.4723 3.3446 0.5482 0.0000 -10812.1103 1430.0531 0.0000 0.0000 1764.8552 -7612.8369 296.3349 -9377.6921 -7612.8369 296.3349 -79.5184 4.4587 30608.8872 -79.5184 4.4587
ENERGY: 300000 0.5217 3.1206 0.0632 0.0000 -10993.5506 1520.0942 0.0000 0.0000 1794.7051 -7675.0457 301.3469 -9469.7509 -7596.3455 304.8825 522.7803 596.6206 30328.5967 309.6344 380.6682
ENERGY: 600000 0.1230 2.5220 0.0825 0.0000 -10938.1067 1466.5305 0.0000 0.0000 1814.8354 -7654.0134 304.7270 -9468.8488 -7599.0098 303.4027 -114.6869 -36.0582 30839.8928 332.2189 400.9795
ENERGY: 900000 0.7276 2.1244 0.5416 0.0000 -10780.8011 1459.8823 0.0000 0.0000 1789.2232 -7528.3019 300.4265 -9317.5252 -7590.5912 302.2395 5.1691 74.2485 31160.6087 176.4680 243.6012
ENERGY: 1200000 0.2415 3.9574 0.8219 0.0000 -10895.1582 1455.2087 0.0000 0.0000 1775.8052 -7659.1235 298.1734 -9434.9286 -7590.1959 301.8794 -90.5178 -43.8479 30714.2690 141.0666 204.5980
ENERGY: 1500000 0.0055 1.9392 0.0633 0.0000 -10931.3955 1473.2940 0.0000 0.0000 1767.7743 -7688.3192 296.8250 -9456.0935 -7598.0053 301.4867 -288.7092 -169.2182 31169.3648 159.0201 223.7134
TCL: Running FEP window  18: Lambda1 0.8500000000000002 Lambda2 0.9000000000000002 [dLambda 0.050000000000000044]
TCL: Setting parameter firsttimestep to 0
TCL: Setting parameter alchLambda to 0.8500000000000002
Info: NONBONDED TABLE R-SQUARED SPACING: 0.0625
Info: NONBONDED TABLE SIZE: 705 POINTS
TCL: Setting parameter alchLambda2 to 0.9000000000000002
Info: NONBONDED TABLE R-SQUARED SPACING: 0.0625
Info: NONBONDED TABLE SIZE: 705 POINTS
TCL: Running for 1500000 steps
ETITLE: TS BOND ANGLE DIHED IMPRP ELECT VDW BOUNDARY MISC KINETIC TOTAL TEMP POTENTIAL TOTALAVG TEMPAVG PRESSURE GPRESSURE VOLUME PRESSAVG GPRESSAVG
ENERGY: 0 0.0055 1.9392 0.0633 0.0000 -10931.4037 1474.0050 0.0000 0.0000 1766.8626 -7688.5280 296.6719 -9455.3907 -7688.5280 296.6719 -236.8245 -156.1885 31169.3648 -236.8245 -156.1885
ENERGY: 300000 0.0837 4.6421 0.5089 0.0000 -10917.6374 1497.7014 0.0000 0.0000 1816.0963 -7598.6051 304.9387 -9414.7014 -7619.2670 301.1267 525.1123 544.9659 30398.1766 231.6852 296.7431
ENERGY: 600000 0.9035 5.5634 0.8140 0.0000 -11049.4813 1505.5625 0.0000 0.0000 1752.7336 -7783.9042 294.2995 -9536.6378 -7643.3859 299.8919 169.0839 243.8481 30103.6999 20.1408 80.4576
ENERGY: 900000 0.5891 4.6426 0.1661 0.0000 -10839.0248 1408.7579 0.0000 0.0000 1790.8855 -7633.9837 300.7056 -9424.8692 -7629.3233 299.9818 -380.3279 -306.2108 30511.3766 149.4826 211.8938
ENERGY: 1200000 0.1122 2.7049 0.5644 0.0000 -10818.7751 1422.8375 0.0000 0.0000 1755.5857 -7636.9705 294.7784 -9392.5562 -7631.0698 299.2452 -154.4655 -89.1111 30705.9959 60.5954 125.7414
ENERGY: 1500000 0.6763 3.4629 0.0449 0.0000 -10949.1591 1463.3699 0.0000 0.0000 1791.8807 -7689.7244 300.8727 -9481.6051 -7632.0388 299.3161 -127.6528 -41.9764 30623.4283 39.4189 105.0810
TCL: Running FEP window  19: Lambda1 0.9000000000000002 Lambda2 0.9500000000000003 [dLambda 0.050000000000000044]
TCL: Setting parameter firsttimestep to 0
TCL: Setting parameter alchLambda to 0.9000000000000002
Info: NONBONDED TABLE R-SQUARED SPACING: 0.0625
Info: NONBONDED TABLE SIZE: 705 POINTS
TCL: Setting parameter alchLambda2 to 0.9500000000000003
Info: NONBONDED TABLE R-SQUARED SPACING: 0.0625
Info: NONBONDED TABLE SIZE: 705 POINTS
TCL: Running for 1500000 steps
ETITLE: TS BOND ANGLE DIHED IMPRP ELECT VDW BOUNDARY MISC KINETIC TOTAL TEMP POTENTIAL TOTALAVG TEMPAVG PRESSURE GPRESSURE VOLUME PRESSAVG GPRESSAVG
ENERGY: 0 0.6763 3.4629 0.0449 0.0000 -10949.1526 1463.3201 0.0000 0.0000 1790.9888 -7690.6597 300.7229 -9481.6484 -7690.6597 300.7229 -123.3083 -38.2599 30623.4283 -123.3083 -38.2599
ENERGY: 300000 0.2600 2.8533 0.7921 0.0000 -10955.6554 1498.9416 0.0000 0.0000 1769.2935 -7683.5148 297.0801 -9452.8083 -7652.7316 297.4095 82.1530 231.7118 30620.0393 -48.3280 28.6093
ENERGY: 600000 0.0098 5.1915 0.3653 0.0000 -10744.8763 1373.9720 0.0000 0.0000 1822.7221 -7542.6156 306.0512 -9365.3377 -7604.9977 299.7159 -798.3715 -664.0965 30993.8303 -9.3034 72.7565
ENERGY: 900000 0.6350 5.7883 1.3115 0.0000 -10641.2281 1299.0102 0.0000 0.0000 1782.2981 -7552.1850 299.2637 -9334.4831 -7602.2333 299.4842 -1205.8303 -1141.6269 31140.1675 -83.4360 -0.5238
ENERGY: 1200000 0.4118 3.2954 1.2749 0.0000 -10887.6928 1513.0482 0.0000 0.0000 1798.7427 -7570.9197 302.0249 -9369.6624 -7609.4763 298.3360 276.4699 350.4334 31089.5896 -32.0580 44.7108
ENERGY: 1500000 0.1474 3.4014 0.0700 0.0000 -11084.2752 1573.1957 0.0000 0.0000 1814.2532 -7693.2075 304.6292 -9507.4607 -7604.7472 299.8445 549.7640 614.1501 30825.9994 8.4941 83.0649
TCL: Running FEP window  20: Lambda1 0.9500000000000003 Lambda2 1.0    [dLambda 0.04999999999999971]
TCL: Setting parameter firsttimestep to 0
TCL: Setting parameter alchLambda to 0.9500000000000003
Info: NONBONDED TABLE R-SQUARED SPACING: 0.0625
Info: NONBONDED TABLE SIZE: 705 POINTS
TCL: Setting parameter alchLambda2 to 1.0
Info: NONBONDED TABLE R-SQUARED SPACING: 0.0625
Info: NONBONDED TABLE SIZE: 705 POINTS
TCL: Running for 1500000 steps
ETITLE: TS BOND ANGLE DIHED IMPRP ELECT VDW BOUNDARY MISC KINETIC TOTAL TEMP POTENTIAL TOTALAVG TEMPAVG PRESSURE GPRESSURE VOLUME PRESSAVG GPRESSAVG
ENERGY: 0 0.1474 3.4014 0.0700 0.0000 -11084.2900 1573.1189 0.0000 0.0000 1813.3530 -7694.1992 304.4781 -9507.5522 -7694.1992 304.4781 533.3331 617.9416 30825.9994 533.3331 617.9416
ENERGY: 300000 0.3231 2.7877 0.1591 0.0000 -10740.7561 1358.1337 0.0000 0.0000 1798.1862 -7581.1661 301.9314 -9379.3523 -7634.8719 299.3413 -461.4162 -402.9793 30468.3271 41.3717 115.2012
ENERGY: 600000 0.1314 3.8680 0.0880 0.0000 -10877.2430 1451.8030 0.0000 0.0000 1824.0451 -7597.3075 306.2734 -9421.3526 -7625.1186 298.1970 -88.8090 -25.3359 30790.9839 28.4510 86.0947
ENERGY: 900000 0.4047 3.7592 0.2772 0.0000 -10913.9512 1409.9662 0.0000 0.0000 1817.1321 -7682.4118 305.1126 -9499.5439 -7631.0527 299.1006 -478.9610 -472.8114 30521.7721 -83.8566 -30.8313
ENERGY: 1200000 1.0585 3.3878 0.9365 0.0000 -10965.6866 1556.9774 0.0000 0.0000 1798.6374 -7604.6890 302.0072 -9403.3264 -7625.2428 298.9517 671.9511 746.8879 30959.8809 -49.3644 12.3860
ENERGY: 1500000 0.1227 3.0261 0.6279 0.0000 -10667.8535 1345.3767 0.0000 0.0000 1850.0992 -7468.6009 310.6481 -9318.7001 -7616.4911 299.9539 -632.5527 -555.9549 31097.9012 -108.6520 -43.3485
TCL: Exiting due to exit command.
