Info: SIMULATION PARAMETERS:
Info: TIMESTEP               2
Info: NUMBER OF STEPS        0
Info: STEPS PER CYCLE        10
Info: PERIODIC CELL BASIS 1  31.4945 0 0
Info: PERIODIC CELL BASIS 2  0 31.0742 0
Info: PERIODIC CELL BASIS 3  0 0 30.4327
Info: PERIODIC CELL CENTER   0 0 0
Info: WRAPPING WATERS AROUND PERIODIC BOUNDARIES ON OUTPUT.
Info: WRAPPING ALL CLUSTERS AROUND PERIODIC BOUNDARIES ON OUTPUT.
Info: FIRST LDB TIMESTEP     50
Info: LAST LDB TIMESTEP     -1
Info: HOM BACKGROUND SCALING 1
Info: PME BACKGROUND SCALING 1
Info: MIN ATOMS PER PATCH    40
Info: EMPTY PATCH LOAD       40 ATOMS
Info: VELOCITY FILE          mobley_7047032_equil.vel
Info: CENTER OF MASS MOVING INITIALLY? NO
Info: DIELECTRIC             1
Info: EXCLUDE                SCALED ONE-FOUR
Info: 1-4 ELECTROSTATICS SCALED BY 0.833333
Info: MODIFIED 1-4 VDW PARAMETERS WILL BE USED
Info: DCD FILENAME           mobley_7047032_prod.dcd
Info: DCD FREQUENCY          100000
Info: DCD FIRST STEP         100000
Info: DCD FILE WILL CONTAIN UNIT CELL DATA
Info: XST FILENAME           mobley_7047032_prod.xst
Info: XST FREQUENCY          100000
Info: NO VELOCITY DCD OUTPUT
Info: NO FORCE DCD OUTPUT
Info: OUTPUT FILENAME        mobley_7047032_prod
Info: BINARY OUTPUT FILES WILL BE USED
Info: RESTART FILENAME       mobley_7047032_prod.restart
Info: RESTART FREQUENCY      100000
Info: BINARY RESTART FILES WILL BE USED
Info: CUTOFF                 9
Info: PAIRLIST DISTANCE      11
Info: PAIRLIST SHRINK RATE   0.01
Info: PAIRLIST GROW RATE     0.01
Info: PAIRLIST TRIGGER       0.3
Info: PAIRLISTS PER CYCLE    2
Info: PAIRLISTS ENABLED
Info: MARGIN                 2
Info: HYDROGEN GROUP CUTOFF  2.5
Info: PATCH DIMENSION        15.5
Info: ENERGY OUTPUT STEPS    100000
Info: ENERGY EVALUATION STEPS    100000
Info: OUTPUT ENERGY PRECISION 4
Info: CROSSTERM ENERGY INCLUDED IN DIHEDRAL
Info: TIMING OUTPUT STEPS    1000000
Info: PRESSURE OUTPUT STEPS  100000
Info: ALCHEMICAL FEP ON
Info: FEP CURRENT LAMBDA VALUE     0
Info: FEP COMPARISON LAMBDA VALUE  0.05
Info: FEP INTRA-ALCHEMICAL NON-BONDED INTERACTIONS WILL BE RETAINED
Info: FEP INTRA-ALCHEMICAL BONDED INTERACTIONS WILL BE RETAINED
Info: FEP VDW SHIFTING COEFFICIENT 5
Info: FEP ELEC. ACTIVE FOR ANNIHILATED PARTICLES BETWEEN LAMBDA = 0 AND LAMBDA = 0.5
Info: FEP ELEC. ACTIVE FOR EXNIHILATED PARTICLES BETWEEN LAMBDA = 0.5 AND LAMBDA = 1
Info: FEP VDW ACTIVE FOR ANNIHILATED PARTICLES BETWEEN LAMBDA = 0 AND LAMBDA = 1
Info: FEP VDW ACTIVE FOR EXNIHILATED PARTICLES BETWEEN LAMBDA = 0 AND LAMBDA = 1
Info: FEP BOND ACTIVE FOR ANNIHILATED PARTICLES BETWEEN LAMBDA = 1 AND LAMBDA = 1
Info: FEP BOND ACTIVE FOR EXNIHILATED PARTICLES BETWEEN LAMBDA = 0 AND LAMBDA = 0
Info: LANGEVIN DYNAMICS ACTIVE
Info: LANGEVIN TEMPERATURE   300
Info: LANGEVIN USING BBK INTEGRATOR
Info: LANGEVIN DAMPING COEFFICIENT IS 1 INVERSE PS
Info: LANGEVIN DYNAMICS APPLIED TO HYDROGENS
Info: LANGEVIN PISTON PRESSURE CONTROL ACTIVE
Info:        TARGET PRESSURE IS 1.01325 BAR
Info:     OSCILLATION PERIOD IS 50 FS
Info:             DECAY TIME IS 25 FS
Info:     PISTON TEMPERATURE IS 300 K
Info:       PRESSURE CONTROL IS GROUP-BASED
Info:    INITIAL STRAIN RATE IS 0.000173682 0.000173682 0.000173682
Info:       CELL FLUCTUATION IS ISOTROPIC
Info: PARTICLE MESH EWALD (PME) ACTIVE
Info: PME TOLERANCE               1e-06
Info: PME EWALD COEFFICIENT       0.348832
Info: PME INTERPOLATION ORDER     4
Info: PME GRID DIMENSIONS         32 32 32
Info: PME MAXIMUM GRID SPACING    1
Info: PME CALCULATION WILL BE PERFORMED ON GPU
Info: FULL ELECTROSTATIC EVALUATION FREQUENCY      2
Info: USING VERLET I (r-RESPA) MTS SCHEME.
Info: C1 SPLITTING OF LONG RANGE ELECTROSTATICS
Info: PLACING ATOMS IN PATCHES BY HYDROGEN GROUPS
Info: RIGID BONDS TO HYDROGEN : ALL
Info:         ERROR TOLERANCE : 1e-08
Info:          MAX ITERATIONS : 100
Info: RIGID WATER USING SETTLE ALGORITHM
Info: RANDOM NUMBER SEED     1743567314
Info: USE HYDROGEN BONDS?    NO
Info: Using AMBER format force field!
Info: AMBER PARM FILE        mobley_7047032.prmtop
Info: COORDINATE PDB         mobley_7047032.pdb
Info: Exclusions will be read from PARM file!
Info: SCNB (VDW SCALING)     2
Info: USING ARITHMETIC MEAN TO COMBINE L-J SIGMA PARAMETERS
Info: BINARY COORDINATES     mobley_7047032_equil.coor
Info: SUMMARY OF PARAMETERS:
Info: 5 BONDS
Info: 4 ANGLES
Info:   4 HARMONIC
Info:   0 COSINE-BASED
Info: 3 DIHEDRAL
Info: 0 IMPROPER
Info: 0 CROSSTERM
Info: 0 VDW
Info: 15 VDW_PAIRS
Info: 0 NBTHOLE_PAIRS
Info: To read alchdata from file: mobley_7047032.pdb
Info: To read alchflag data from column: 5
Info: STRUCTURE SUMMARY:
Info: 2906 ATOMS
Info: 2905 BONDS
Info: 24 ANGLES
Info: 36 DIHEDRALS
Info: 0 IMPROPERS
Info: 0 CROSSTERMS
Info: 2956 EXCLUSIONS
Info: 2901 RIGID BONDS
Info: ALCH: 0 ATOMS TO DISAPPEAR IN FINAL STATE
Info: ALCH: 14 ATOMS TO APPEAR IN FINAL STATE
Info: 5817 DEGREES OF FREEDOM
Info: 969 HYDROGEN GROUPS
Info: 4 ATOMS IN LARGEST HYDROGEN GROUP
Info: 969 MIGRATION GROUPS
Info: 4 ATOMS IN LARGEST MIGRATION GROUP
Info: TOTAL MASS = 17460 amu
Info: TOTAL CHARGE = 0.000100009 e
Info: MASS DENSITY = 0.973485 g/cm^3
Info: ATOM DENSITY = 0.0975712 atoms/A^3
Info: ADDED 0 IMPLICIT EXCLUSIONS
Info: NONBONDED TABLE R-SQUARED SPACING: 0.0625
Info: NONBONDED TABLE SIZE: 705 POINTS
Info: REDUCING NUMBER OF PATCHES TO IMPROVE LOAD BALANCE
Info: REMOVING COM VELOCITY -0.0650149 0.00116977 0.158119
Info: Use 3D box decompostion in PME FFT.
Info: Updated CUDA force table with 4096 elements.
Info: Updated CUDA LJ table with 5 x 5 elements.
Info: Found 17 unique exclusion lists needing 36 bytes
TCL: Running for 1500000 steps
ETITLE: TS BOND ANGLE DIHED IMPRP ELECT VDW BOUNDARY MISC KINETIC TOTAL TEMP POTENTIAL TOTALAVG TEMPAVG PRESSURE GPRESSURE VOLUME PRESSAVG GPRESSAVG
ENERGY: 0 0.7194 6.8295 2.5336 0.0000 -10584.6904 1462.2718 0.0000 0.0000 1689.7064 -7422.6296 292.3496 -9112.3360 -7422.6296 292.3496 279.4321 367.6753 29783.3811 279.4321 367.6753
ENERGY: 300000 1.1567 6.0003 3.6672 0.0000 -10363.6296 1322.8803 0.0000 0.0000 1725.9537 -7303.9714 298.6211 -9029.9251 -7346.4914 298.9147 -655.4292 -596.5929 30201.4127 -190.7214 -116.0868
ENERGY: 600000 1.6745 10.0018 2.5312 0.0000 -10555.8960 1416.1476 0.0000 0.0000 1676.3016 -7449.2393 290.0304 -9125.5409 -7373.7657 298.5248 -384.3174 -311.4189 29990.8386 -257.4393 -190.1523
ENERGY: 900000 0.8634 12.6033 2.6491 0.0000 -10555.3250 1463.8351 0.0000 0.0000 1718.2391 -7357.1349 297.2863 -9075.3740 -7379.0196 297.9703 414.7892 450.4585 29577.5567 -143.5830 -87.5896
ENERGY: 1200000 1.7212 7.4374 3.7001 0.0000 -10557.9631 1440.6913 0.0000 0.0000 1706.3576 -7398.0555 295.2306 -9104.4132 -7379.4153 297.9042 -52.4837 34.0690 30193.4588 -39.0679 14.8849
ENERGY: 1500000 1.5098 8.1937 2.8110 0.0000 -10521.7101 1413.4025 0.0000 0.0000 1770.6568 -7325.1363 306.3555 -9095.7930 -7375.5003 298.5564 -69.7711 -52.7375 29916.1766 -14.5101 40.0068
TCL: Running FEP window   2: Lambda1 0.05   Lambda2 0.1    [dLambda 0.05  ]
TCL: Setting parameter firsttimestep to 0
TCL: Setting parameter alchLambda to 0.05
Info: NONBONDED TABLE R-SQUARED SPACING: 0.0625
Info: NONBONDED TABLE SIZE: 705 POINTS
TCL: Setting parameter alchLambda2 to 0.1
Info: NONBONDED TABLE R-SQUARED SPACING: 0.0625
Info: NONBONDED TABLE SIZE: 705 POINTS
TCL: Running for 1500000 steps
ETITLE: TS BOND ANGLE DIHED IMPRP ELECT VDW BOUNDARY MISC KINETIC TOTAL TEMP POTENTIAL TOTALAVG TEMPAVG PRESSURE GPRESSURE VOLUME PRESSAVG GPRESSAVG
ENERGY: 0 1.5098 8.1937 2.8110 0.0000 -10521.7099 1414.6884 0.0000 0.0000 1769.7948 -7324.7123 306.2064 -9094.5070 -7324.7123 306.2064 -118.5737 -47.8293 29916.1766 -118.5737 -47.8293
ENERGY: 300000 0.1408 3.7906 2.5583 0.0000 -10485.7743 1415.9276 0.0000 0.0000 1701.6949 -7361.6620 294.4239 -9063.3569 -7366.4777 303.0969 -24.8853 0.2908 29972.7723 17.0516 65.8444
ENERGY: 600000 0.8772 4.1619 4.3936 0.0000 -10338.0494 1272.0911 0.0000 0.0000 1727.3584 -7329.1672 298.8641 -9056.5256 -7359.7398 303.2790 -1044.2527 -954.8660 29894.4447 -141.1553 -76.1377
ENERGY: 900000 1.6624 9.5497 3.2449 0.0000 -10709.6313 1527.9806 0.0000 0.0000 1740.0250 -7427.1686 301.0557 -9167.1937 -7372.8121 301.4556 874.5081 941.8168 29303.9810 -17.6425 52.3997
ENERGY: 1200000 2.3881 4.5462 3.5951 0.0000 -10624.3766 1428.3134 0.0000 0.0000 1706.4033 -7479.1305 295.2385 -9185.5338 -7375.4093 300.3284 -371.9008 -313.4354 29892.7432 -39.6370 30.0531
ENERGY: 1500000 3.0673 5.1991 2.3083 0.0000 -10501.9069 1419.3859 0.0000 0.0000 1767.8126 -7304.1338 305.8634 -9071.9463 -7375.9044 300.0081 -185.7524 -115.0966 30011.5648 17.1570 90.0565
TCL: Running FEP window   3: Lambda1 0.1    Lambda2 0.15000000000000002 [dLambda 0.05000000000000002]
TCL: Setting parameter firsttimestep to 0
TCL: Setting parameter alchLambda to 0.1
Info: NONBONDED TABLE R-SQUARED SPACING: 0.0625
Info: NONBONDED TABLE SIZE: 705 POINTS
TCL: Setting parameter alchLambda2 to 0.15000000000000002
Info: NONBONDED TABLE R-SQUARED SPACING: 0.0625
Info: NONBONDED TABLE SIZE: 705 POINTS
TCL: Running for 1500000 steps
ETITLE: TS BOND ANGLE DIHED IMPRP ELECT VDW BOUNDARY MISC KINETIC TOTAL TEMP POTENTIAL TOTALAVG TEMPAVG PRESSURE GPRESSURE VOLUME PRESSAVG GPRESSAVG
ENERGY: 0 3.0673 5.1991 2.3083 0.0000 -10501.9064 1421.2054 0.0000 0.0000 1766.9471 -7303.1793 305.7137 -9070.1263 -7303.1793 305.7137 -202.6077 -108.4943 30011.5648 -202.6077 -108.4943
ENERGY: 300000 4.3103 3.8113 4.1513 0.0000 -10808.7877 1586.1501 0.0000 0.0000 1728.2556 -7482.1090 299.0193 -9210.3646 -7355.0359 301.5588 966.3926 1057.2382 29536.5292 233.3974 332.1578
ENERGY: 600000 1.1917 7.0496 2.6234 0.0000 -10579.4513 1477.7032 0.0000 0.0000 1761.7401 -7329.1432 304.8128 -9090.8834 -7344.9237 303.5519 351.4089 424.3209 29966.3311 27.2754 128.5515
ENERGY: 900000 0.3089 10.4790 2.5921 0.0000 -10618.4223 1467.0213 0.0000 0.0000 1740.6356 -7397.3855 301.1613 -9138.0211 -7358.4801 302.4255 382.9651 451.8181 29492.7784 18.6653 107.0427
ENERGY: 1200000 1.5850 9.2074 2.9526 0.0000 -10579.6463 1434.6609 0.0000 0.0000 1778.1441 -7353.0962 307.6510 -9131.2404 -7371.9202 301.3715 87.3396 195.7437 29564.3669 55.2245 139.8034
ENERGY: 1500000 2.1252 7.8123 3.2117 0.0000 -10510.5819 1413.3295 0.0000 0.0000 1761.2336 -7322.8696 304.7251 -9084.1032 -7367.7400 301.2330 188.1838 232.5801 29349.4814 82.0147 163.7070
TCL: Running FEP window   4: Lambda1 0.15000000000000002 Lambda2 0.2    [dLambda 0.04999999999999999]
TCL: Setting parameter firsttimestep to 0
TCL: Setting parameter alchLambda to 0.15000000000000002
Info: NONBONDED TABLE R-SQUARED SPACING: 0.0625
Info: NONBONDED TABLE SIZE: 705 POINTS
TCL: Setting parameter alchLambda2 to 0.2
Info: NONBONDED TABLE R-SQUARED SPACING: 0.0625
Info: NONBONDED TABLE SIZE: 705 POINTS
TCL: Running for 1500000 steps
ETITLE: TS BOND ANGLE DIHED IMPRP ELECT VDW BOUNDARY MISC KINETIC TOTAL TEMP POTENTIAL TOTALAVG TEMPAVG PRESSURE GPRESSURE VOLUME PRESSAVG GPRESSAVG
ENERGY: 0 2.1252 7.8123 3.2117 0.0000 -10510.5810 1414.3988 0.0000 0.0000 1760.3935 -7322.6395 304.5798 -9083.0330 -7322.6395 304.5798 157.5828 237.4782 29349.4814 157.5828 237.4782
ENERGY: 300000 1.5431 5.7344 2.9948 0.0000 -10583.2826 1484.5745 0.0000 0.0000 1712.8630 -7375.5727 296.3561 -9088.4357 -7381.4503 300.5509 379.3223 406.5969 30034.2090 -72.6491 -12.0138
ENERGY: 600000 0.2675 3.9933 2.6304 0.0000 -10350.4699 1307.1998 0.0000 0.0000 1712.3742 -7324.0047 296.2716 -9036.3789 -7384.6623 299.5907 -537.6502 -507.0956 29671.8032 -228.6852 -168.6580
ENERGY: 900000 0.9396 4.2457 2.9854 0.0000 -10582.9650 1461.8884 0.0000 0.0000 1688.9052 -7424.0006 292.2110 -9112.9058 -7378.9882 299.8202 254.6453 222.1916 30142.1628 -191.1228 -146.1983
ENERGY: 1200000 2.2717 6.2315 2.6746 0.0000 -10602.1756 1441.8202 0.0000 0.0000 1733.8865 -7415.2912 299.9936 -9149.1777 -7387.8430 299.9201 -56.3749 -8.2051 29962.9321 -95.6247 -50.1201
ENERGY: 1500000 0.4527 3.7969 2.4989 0.0000 -10646.5163 1496.2354 0.0000 0.0000 1758.6547 -7384.8777 304.2789 -9143.5324 -7391.6703 299.8250 376.1016 384.2265 30195.3323 -151.5568 -109.5065
TCL: Running FEP window   5: Lambda1 0.2    Lambda2 0.25   [dLambda 0.04999999999999999]
TCL: Setting parameter firsttimestep to 0
TCL: Setting parameter alchLambda to 0.2
Info: NONBONDED TABLE R-SQUARED SPACING: 0.0625
Info: NONBONDED TABLE SIZE: 705 POINTS
TCL: Setting parameter alchLambda2 to 0.25
Info: NONBONDED TABLE R-SQUARED SPACING: 0.0625
Info: NONBONDED TABLE SIZE: 705 POINTS
TCL: Running for 1500000 steps
ETITLE: TS BOND ANGLE DIHED IMPRP ELECT VDW BOUNDARY MISC KINETIC TOTAL TEMP POTENTIAL TOTALAVG TEMPAVG PRESSURE GPRESSURE VOLUME PRESSAVG GPRESSAVG
ENERGY: 0 0.4527 3.7969 2.4989 0.0000 -10646.5165 1497.4547 0.0000 0.0000 1757.7577 -7384.5556 304.1237 -9142.3133 -7384.5556 304.1237 322.7898 393.7788 30195.3323 322.7898 393.7788
ENERGY: 300000 0.8976 8.8441 2.8691 0.0000 -10539.9236 1380.0224 0.0000 0.0000 1720.2647 -7427.0257 297.6368 -9147.2904 -7398.7136 299.5161 -274.3023 -282.3328 29797.6635 -17.0546 21.9145
ENERGY: 600000 1.4397 8.7860 4.1462 0.0000 -10495.5248 1358.7899 0.0000 0.0000 1640.2689 -7482.0942 283.7961 -9122.3631 -7395.2569 296.8250 -457.0564 -447.0352 29813.8268 88.2215 151.4493
ENERGY: 900000 1.3021 4.4022 3.2866 0.0000 -10540.5901 1457.8940 0.0000 0.0000 1772.9487 -7300.7566 306.7521 -9073.7052 -7387.0069 298.6612 264.1183 382.5660 29721.9430 100.0450 170.5332
ENERGY: 1200000 2.0559 4.0055 2.3140 0.0000 -10374.0525 1359.3074 0.0000 0.0000 1691.2556 -7315.1141 292.6177 -9006.3697 -7381.0892 298.2300 54.5078 163.0442 29534.6724 33.7121 104.3637
ENERGY: 1500000 0.7273 4.9437 2.5417 0.0000 -10398.3857 1355.2659 0.0000 0.0000 1743.8495 -7291.0575 301.7174 -9034.9070 -7373.4502 298.9317 -314.5143 -281.3391 30173.4740 19.0482 83.7468
TCL: Running FEP window   6: Lambda1 0.25   Lambda2 0.3    [dLambda 0.04999999999999999]
TCL: Setting parameter firsttimestep to 0
TCL: Setting parameter alchLambda to 0.25
Info: NONBONDED TABLE R-SQUARED SPACING: 0.0625
Info: NONBONDED TABLE SIZE: 705 POINTS
TCL: Setting parameter alchLambda2 to 0.3
Info: NONBONDED TABLE R-SQUARED SPACING: 0.0625
Info: NONBONDED TABLE SIZE: 705 POINTS
TCL: Running for 1500000 steps
ETITLE: TS BOND ANGLE DIHED IMPRP ELECT VDW BOUNDARY MISC KINETIC TOTAL TEMP POTENTIAL TOTALAVG TEMPAVG PRESSURE GPRESSURE VOLUME PRESSAVG GPRESSAVG
ENERGY: 0 0.7273 4.9437 2.5417 0.0000 -10398.3864 1355.8413 0.0000 0.0000 1742.9837 -7291.3486 301.5676 -9034.3324 -7291.3486 301.5676 -374.0126 -275.6828 30173.4740 -374.0126 -275.6828
ENERGY: 300000 0.5768 7.2739 2.8528 0.0000 -10537.3438 1439.3211 0.0000 0.0000 1678.3133 -7409.0059 290.3784 -9087.3192 -7367.4718 300.8917 128.0851 196.3049 29834.6973 46.0461 118.5255
ENERGY: 600000 0.4916 5.2281 3.1663 0.0000 -10590.1434 1490.2685 0.0000 0.0000 1727.4530 -7363.5359 298.8805 -9090.9889 -7358.0738 302.0889 975.2209 1026.0453 29222.3668 132.7348 205.6633
ENERGY: 900000 2.7624 10.9315 3.5064 0.0000 -10500.4342 1376.7865 0.0000 0.0000 1751.7798 -7354.6677 303.0895 -9106.4474 -7367.0672 301.2695 -252.4688 -200.7430 29663.2897 124.0407 186.0260
ENERGY: 1200000 1.8905 6.3226 3.2067 0.0000 -10497.7864 1387.6930 0.0000 0.0000 1694.7905 -7403.8830 293.2293 -9098.6735 -7376.9309 301.0691 -90.1173 -101.8363 29433.2245 72.0362 122.4000
ENERGY: 1500000 2.7005 8.6674 3.1197 0.0000 -10618.4443 1482.7445 0.0000 0.0000 1746.0017 -7375.2106 302.0897 -9121.2123 -7370.0584 301.8437 623.9102 699.4013 29349.9625 62.3097 119.3507
TCL: Running FEP window   7: Lambda1 0.3    Lambda2 0.35   [dLambda 0.04999999999999999]
TCL: Setting parameter firsttimestep to 0
TCL: Setting parameter alchLambda to 0.3
Info: NONBONDED TABLE R-SQUARED SPACING: 0.0625
Info: NONBONDED TABLE SIZE: 705 POINTS
TCL: Setting parameter alchLambda2 to 0.35
Info: NONBONDED TABLE R-SQUARED SPACING: 0.0625
Info: NONBONDED TABLE SIZE: 705 POINTS
TCL: Running for 1500000 steps
ETITLE: TS BOND ANGLE DIHED IMPRP ELECT VDW BOUNDARY MISC KINETIC TOTAL TEMP POTENTIAL TOTALAVG TEMPAVG PRESSURE GPRESSURE VOLUME PRESSAVG GPRESSAVG
ENERGY: 0 2.7005 8.6674 3.1197 0.0000 -10618.4426 1483.3193 0.0000 0.0000 1745.1537 -7375.4822 301.9430 -9120.6359 -7375.4822 301.9430 628.1629 710.6686 29349.9625 628.1629 710.6686
ENERGY: 300000 2.1189 11.5388 2.9141 0.0000 -10543.0462 1431.0033 0.0000 0.0000 1724.8833 -7370.5877 298.4359 -9095.4711 -7383.7969 299.3011 249.3780 283.6981 29267.9894 238.1012 299.8041
ENERGY: 600000 0.4199 8.5781 3.2585 0.0000 -10514.7580 1434.2133 0.0000 0.0000 1716.3734 -7351.9148 296.9635 -9068.2882 -7381.5760 299.4100 169.9751 252.1925 29562.3482 142.5883 199.5575
ENERGY: 900000 1.7541 7.4856 2.9255 0.0000 -10497.1709 1390.5680 0.0000 0.0000 1685.7335 -7408.7042 291.6623 -9094.4377 -7381.6784 298.9731 -263.6511 -210.2409 29714.6848 -24.9623 28.7161
ENERGY: 1200000 1.3877 8.2188 3.6754 0.0000 -10504.2821 1407.2268 0.0000 0.0000 1725.6300 -7358.1433 298.5651 -9083.7733 -7383.6474 298.1178 -188.1061 -144.1647 29987.4533 -49.0877 2.4158
ENERGY: 1500000 0.9457 5.9610 3.4655 0.0000 -10533.2415 1440.9907 0.0000 0.0000 1764.0891 -7317.7895 305.2192 -9081.8786 -7380.0248 299.1177 403.1927 385.4741 29784.3281 -65.6193 -14.9901
TCL: Running FEP window   8: Lambda1 0.35   Lambda2 0.39999999999999997 [dLambda 0.04999999999999999]
TCL: Setting parameter firsttimestep to 0
TCL: Setting parameter alchLambda to 0.35
Info: NONBONDED TABLE R-SQUARED SPACING: 0.0625
Info: NONBONDED TABLE SIZE: 705 POINTS
TCL: Setting parameter alchLambda2 to 0.39999999999999997
Info: NONBONDED TABLE R-SQUARED SPACING: 0.0625
Info: NONBONDED TABLE SIZE: 705 POINTS
TCL: Running for 1500000 steps
ETITLE: TS BOND ANGLE DIHED IMPRP ELECT VDW BOUNDARY MISC KINETIC TOTAL TEMP POTENTIAL TOTALAVG TEMPAVG PRESSURE GPRESSURE VOLUME PRESSAVG GPRESSAVG
ENERGY: 0 0.9457 5.9610 3.4655 0.0000 -10533.2419 1441.6004 0.0000 0.0000 1763.2225 -7318.0468 305.0693 -9081.2693 -7318.0468 305.0693 313.4653 394.3573 29784.3281 313.4653 394.3573
ENERGY: 300000 3.3696 5.6822 2.7328 0.0000 -10498.1673 1351.7030 0.0000 0.0000 1711.5110 -7423.1686 296.1222 -9134.6797 -7344.2384 301.8237 -488.1044 -460.8743 29705.5570 -524.0069 -451.3130
ENERGY: 600000 0.3930 3.2636 3.0140 0.0000 -10621.6662 1463.6622 0.0000 0.0000 1716.8024 -7434.5310 297.0377 -9151.3334 -7378.9087 300.1072 240.5529 280.8974 29673.3323 -324.0947 -253.3139
ENERGY: 900000 0.7657 5.9232 2.4634 0.0000 -10553.5356 1449.1966 0.0000 0.0000 1717.9494 -7377.2373 297.2362 -9095.1867 -7374.4869 300.0597 320.0850 406.1403 29901.2986 -190.4298 -119.7133
ENERGY: 1200000 1.4445 5.4791 2.9893 0.0000 -10401.8922 1342.9633 0.0000 0.0000 1682.8543 -7366.1617 291.1641 -9049.0160 -7365.4623 300.2476 -614.9764 -534.3779 30382.1088 -246.1464 -178.2515
ENERGY: 1500000 0.7102 5.4812 2.4763 0.0000 -10486.5334 1322.3144 0.0000 0.0000 1690.4503 -7465.1010 292.4784 -9155.5513 -7364.6812 299.9922 -685.3047 -639.6748 29598.1176 -206.7254 -142.7898
TCL: Running FEP window   9: Lambda1 0.39999999999999997 Lambda2 0.44999999999999996 [dLambda 0.04999999999999999]
TCL: Setting parameter firsttimestep to 0
TCL: Setting parameter alchLambda to 0.39999999999999997
Info: NONBONDED TABLE R-SQUARED SPACING: 0.0625
Info: NONBONDED TABLE SIZE: 705 POINTS
TCL: Setting parameter alchLambda2 to 0.44999999999999996
Info: NONBONDED TABLE R-SQUARED SPACING: 0.0625
Info: NONBONDED TABLE SIZE: 705 POINTS
TCL: Running for 1500000 steps
ETITLE: TS BOND ANGLE DIHED IMPRP ELECT VDW BOUNDARY MISC KINETIC TOTAL TEMP POTENTIAL TOTALAVG TEMPAVG PRESSURE GPRESSURE VOLUME PRESSAVG GPRESSAVG
ENERGY: 0 0.7102 5.4812 2.4763 0.0000 -10486.5341 1322.2152 0.0000 0.0000 1689.5575 -7466.0938 292.3239 -9155.6513 -7466.0938 292.3239 -708.0595 -633.8583 29598.1176 -708.0595 -633.8583
ENERGY: 300000 0.9140 7.4156 3.7502 0.0000 -10662.3775 1517.7054 0.0000 0.0000 1716.5715 -7416.0208 296.9978 -9132.5923 -7418.3339 299.0307 466.0825 561.5127 30190.2380 90.9094 159.1159
ENERGY: 600000 0.8568 5.9005 2.8432 0.0000 -10443.6232 1407.8690 0.0000 0.0000 1749.3217 -7276.8322 302.6642 -9026.1539 -7377.4347 300.7950 -22.1899 37.7281 30128.8588 3.6691 66.6192
ENERGY: 900000 0.7928 5.1822 2.4279 0.0000 -10427.5853 1301.9795 0.0000 0.0000 1696.8315 -7420.3714 293.5824 -9117.2029 -7393.9542 300.4583 -865.1048 -760.9909 29621.4567 -122.0535 -63.4835
ENERGY: 1200000 0.5089 5.3316 2.7457 0.0000 -10649.0252 1461.1266 0.0000 0.0000 1702.2911 -7477.0213 294.5270 -9179.3124 -7405.7203 300.0637 94.6934 159.4032 29909.0806 -65.6604 -9.9750
ENERGY: 1500000 1.3084 6.9977 3.1385 0.0000 -10513.4717 1434.0308 0.0000 0.0000 1705.3327 -7362.6636 295.0533 -9067.9963 -7398.7085 299.4842 293.9105 329.4837 29766.3594 27.5299 85.7591
TCL: Running FEP window  10: Lambda1 0.44999999999999996 Lambda2 0.49999999999999994 [dLambda 0.04999999999999999]
TCL: Setting parameter firsttimestep to 0
TCL: Setting parameter alchLambda to 0.44999999999999996
Info: NONBONDED TABLE R-SQUARED SPACING: 0.0625
Info: NONBONDED TABLE SIZE: 705 POINTS
TCL: Setting parameter alchLambda2 to 0.49999999999999994
Info: NONBONDED TABLE R-SQUARED SPACING: 0.0625
Info: NONBONDED TABLE SIZE: 705 POINTS
TCL: Running for 1500000 steps
ETITLE: TS BOND ANGLE DIHED IMPRP ELECT VDW BOUNDARY MISC KINETIC TOTAL TEMP POTENTIAL TOTALAVG TEMPAVG PRESSURE GPRESSURE VOLUME PRESSAVG GPRESSAVG
ENERGY: 0 1.3084 6.9977 3.1385 0.0000 -10513.4727 1434.3635 0.0000 0.0000 1704.4706 -7363.1941 294.9041 -9067.6647 -7363.1941 294.9041 258.7781 334.8809 29766.3594 258.7781 334.8809
ENERGY: 300000 0.2361 3.2893 2.6730 0.0000 -10685.1307 1459.6812 0.0000 0.0000 1762.1628 -7457.0884 304.8859 -9219.2512 -7342.5067 304.0627 -16.8988 111.7817 29659.1051 128.1868 187.4305
ENERGY: 600000 1.3735 8.3677 2.6395 0.0000 -10431.5086 1333.0431 0.0000 0.0000 1778.4742 -7307.6105 307.7081 -9086.0847 -7344.4568 304.3796 -823.2238 -741.8348 30157.4510 -175.4777 -112.5143
ENERGY: 900000 2.4992 7.2595 3.5168 0.0000 -10708.3015 1486.9417 0.0000 0.0000 1687.8936 -7520.1907 292.0360 -9208.0843 -7358.0050 303.7786 152.0237 219.4347 29826.0439 -237.0040 -181.6097
ENERGY: 1200000 1.5736 9.1155 3.6075 0.0000 -10572.5615 1421.1601 0.0000 0.0000 1718.9205 -7418.1841 297.4042 -9137.1047 -7364.8364 303.1972 -15.1957 -12.9091 29811.5938 -222.9932 -170.8580
ENERGY: 1500000 1.4886 6.2908 2.6113 0.0000 -10500.3050 1363.4045 0.0000 0.0000 1768.8977 -7357.6122 306.0512 -9126.5098 -7358.7066 303.6152 -590.7054 -524.3132 30140.9828 -222.9467 -169.6252
TCL: Running FEP window  11: Lambda1 0.49999999999999994 Lambda2 0.5499999999999999 [dLambda 0.04999999999999999]
TCL: Setting parameter firsttimestep to 0
TCL: Setting parameter alchLambda to 0.49999999999999994
Info: NONBONDED TABLE R-SQUARED SPACING: 0.0625
Info: NONBONDED TABLE SIZE: 705 POINTS
TCL: Setting parameter alchLambda2 to 0.5499999999999999
Info: NONBONDED TABLE R-SQUARED SPACING: 0.0625
Info: NONBONDED TABLE SIZE: 705 POINTS
TCL: Running for 1500000 steps
ETITLE: TS BOND ANGLE DIHED IMPRP ELECT VDW BOUNDARY MISC KINETIC TOTAL TEMP POTENTIAL TOTALAVG TEMPAVG PRESSURE GPRESSURE VOLUME PRESSAVG GPRESSAVG
ENERGY: 0 1.4886 6.2908 2.6113 0.0000 -10500.3051 1363.0680 0.0000 0.0000 1768.0243 -7358.8221 305.9001 -9126.8464 -7358.8221 305.9001 -594.0220 -523.9248 30140.9828 -594.0220 -523.9248
ENERGY: 300000 0.3836 8.5642 3.2057 0.0000 -10640.7561 1477.7809 0.0000 0.0000 1761.7177 -7389.1040 304.8089 -9150.8217 -7370.1897 303.2809 329.2914 453.0014 29931.4530 11.8109 97.9651
ENERGY: 600000 1.5383 7.9774 3.2547 0.0000 -10547.1707 1432.0906 0.0000 0.0000 1757.0757 -7345.2340 304.0057 -9102.3097 -7356.3337 304.8143 370.1640 414.9325 29645.9610 -22.2340 61.0293
ENERGY: 900000 1.5741 5.7894 3.0499 0.0000 -10671.7258 1469.3112 0.0000 0.0000 1731.3006 -7460.7006 299.5462 -9192.0012 -7354.7310 304.3689 156.5183 252.3616 29679.3671 -62.7984 13.4529
ENERGY: 1200000 3.1859 4.3975 3.5651 0.0000 -10506.1851 1353.2818 0.0000 0.0000 1752.0554 -7389.6993 303.1371 -9141.7547 -7357.8885 304.7531 -710.9501 -688.4371 29851.7866 -100.3951 -27.8006
ENERGY: 1500000 1.3364 6.6720 2.6410 0.0000 -10479.4599 1369.1856 0.0000 0.0000 1703.9327 -7395.6922 294.8110 -9099.6249 -7362.2604 303.8190 -605.1588 -549.9241 30420.0325 -80.4267 -8.1241
TCL: Running FEP window  12: Lambda1 0.5499999999999999 Lambda2 0.6    [dLambda 0.050000000000000044]
TCL: Setting parameter firsttimestep to 0
TCL: Setting parameter alchLambda to 0.5499999999999999
Info: NONBONDED TABLE R-SQUARED SPACING: 0.0625
Info: NONBONDED TABLE SIZE: 705 POINTS
TCL: Setting parameter alchLambda2 to 0.6
Info: NONBONDED TABLE R-SQUARED SPACING: 0.0625
Info: NONBONDED TABLE SIZE: 705 POINTS
TCL: Running for 1500000 steps
ETITLE: TS BOND ANGLE DIHED IMPRP ELECT VDW BOUNDARY MISC KINETIC TOTAL TEMP POTENTIAL TOTALAVG TEMPAVG PRESSURE GPRESSURE VOLUME PRESSAVG GPRESSAVG
ENERGY: 0 1.3363 6.6720 2.6410 0.0000 -10479.3590 1368.7101 0.0000 0.0000 1703.0722 -7396.9274 294.6622 -9099.9996 -7396.9274 294.6622 -617.0804 -549.7902 30420.0325 -617.0804 -549.7902
ENERGY: 300000 0.5874 7.4948 3.5195 0.0000 -10532.4058 1380.8356 0.0000 0.0000 1729.2196 -7410.7489 299.1861 -9139.9684 -7390.2361 301.2493 -380.2839 -292.1800 29757.9518 -295.2980 -260.5711
ENERGY: 600000 1.2508 7.1199 2.4674 0.0000 -10437.7901 1374.6895 0.0000 0.0000 1751.4327 -7300.8297 303.0294 -9052.2625 -7394.5379 300.8352 -248.4347 -146.5888 29728.3061 -71.4340 -38.4964
ENERGY: 900000 1.0374 5.1890 2.3695 0.0000 -10418.8987 1329.7864 0.0000 0.0000 1661.3404 -7419.1760 287.4418 -9080.5164 -7397.8086 299.5031 -703.9860 -629.4737 30070.2918 -116.9011 -70.8425
ENERGY: 1200000 0.6413 5.2976 3.0267 0.0000 -10476.5912 1401.3981 0.0000 0.0000 1701.8815 -7364.3459 294.4562 -9066.2275 -7397.8601 299.6211 -51.2233 -14.0569 29949.4029 -27.4092 13.1355
ENERGY: 1500000 0.8993 9.9918 2.4920 0.0000 -10604.2234 1386.0048 0.0000 0.0000 1711.3218 -7493.5136 296.0895 -9204.8354 -7399.2489 300.1279 -648.1196 -612.3503 29771.2450 -56.4417 -12.3503
TCL: Running FEP window  13: Lambda1 0.6    Lambda2 0.65   [dLambda 0.050000000000000044]
TCL: Setting parameter firsttimestep to 0
TCL: Setting parameter alchLambda to 0.6
Info: NONBONDED TABLE R-SQUARED SPACING: 0.0625
Info: NONBONDED TABLE SIZE: 705 POINTS
TCL: Setting parameter alchLambda2 to 0.65
Info: NONBONDED TABLE R-SQUARED SPACING: 0.0625
Info: NONBONDED TABLE SIZE: 705 POINTS
TCL: Running for 1500000 steps
ETITLE: TS BOND ANGLE DIHED IMPRP ELECT VDW BOUNDARY MISC KINETIC TOTAL TEMP POTENTIAL TOTALAVG TEMPAVG PRESSURE GPRESSURE VOLUME PRESSAVG GPRESSAVG
ENERGY: 0 0.8993 9.9918 2.4920 0.0000 -10604.2936 1386.3175 0.0000 0.0000 1710.4728 -7494.1201 295.9426 -9204.5929 -7494.1201 295.9426 -687.8029 -603.2490 29771.2450 -687.8029 -603.2490
ENERGY: 300000 0.9033 4.8293 3.2851 0.0000 -10497.6353 1353.0381 0.0000 0.0000 1665.3802 -7470.1994 288.1408 -9135.5796 -7425.7817 295.7424 -558.3210 -474.6360 29633.2524 -408.1392 -360.0375
ENERGY: 600000 0.6379 6.9289 3.4364 0.0000 -10628.5429 1457.8970 0.0000 0.0000 1724.8012 -7434.8415 298.4217 -9159.6427 -7410.6271 296.5343 332.9802 453.3674 29503.9471 -262.9661 -205.1977
ENERGY: 900000 5.3039 5.9811 2.8587 0.0000 -10319.8803 1308.6628 0.0000 0.0000 1739.6542 -7257.4195 300.9915 -8997.0737 -7401.0524 296.3836 -966.5959 -877.2652 30600.3963 -310.1954 -245.9888
ENERGY: 1200000 0.3674 8.4925 3.4976 0.0000 -10613.9509 1523.4613 0.0000 0.0000 1734.1951 -7343.9370 300.0470 -9078.1320 -7389.7052 296.7006 780.2206 829.9861 29975.3451 -205.8795 -141.6559
ENERGY: 1500000 1.6232 7.3089 2.8402 0.0000 -10461.9606 1370.2496 0.0000 0.0000 1728.8539 -7351.0848 299.1229 -9079.9387 -7379.5384 297.1720 -474.9667 -425.1228 30158.4152 -193.0014 -127.4853
TCL: Running FEP window  14: Lambda1 0.65   Lambda2 0.7000000000000001 [dLambda 0.050000000000000044]
TCL: Setting parameter firsttimestep to 0
TCL: Setting parameter alchLambda to 0.65
Info: NONBONDED TABLE R-SQUARED SPACING: 0.0625
Info: NONBONDED TABLE SIZE: 705 POINTS
TCL: Setting parameter alchLambda2 to 0.7000000000000001
Info: NONBONDED TABLE R-SQUARED SPACING: 0.0625
Info: NONBONDED TABLE SIZE: 705 POINTS
TCL: Running for 1500000 steps
ETITLE: TS BOND ANGLE DIHED IMPRP ELECT VDW BOUNDARY MISC KINETIC TOTAL TEMP POTENTIAL TOTALAVG TEMPAVG PRESSURE GPRESSURE VOLUME PRESSAVG GPRESSAVG
ENERGY: 0 1.6232 7.3089 2.8402 0.0000 -10461.9670 1372.4353 0.0000 0.0000 1727.9933 -7349.7661 298.9740 -9077.7594 -7349.7661 298.9740 -461.2670 -396.5955 30158.4152 -461.2670 -396.5955
ENERGY: 300000 0.3959 5.3722 2.3127 0.0000 -10442.1732 1355.1657 0.0000 0.0000 1746.1153 -7332.8114 302.1094 -9078.9267 -7339.1539 301.8907 -429.8329 -339.6903 29916.7353 -303.7927 -249.2091
ENERGY: 600000 2.7967 5.2061 3.4352 0.0000 -10699.8756 1501.6559 0.0000 0.0000 1721.7737 -7465.0081 297.8979 -9186.7818 -7365.7662 300.6955 638.5976 690.3259 29473.9690 -197.2071 -145.0362
ENERGY: 900000 2.2818 3.8407 2.5039 0.0000 -10462.2084 1352.6650 0.0000 0.0000 1725.7174 -7375.1997 298.5802 -9100.9171 -7374.5390 300.4257 -759.2444 -651.4047 30124.4144 -143.4746 -82.4998
ENERGY: 1200000 0.6770 6.2074 2.9492 0.0000 -10532.5657 1375.7586 0.0000 0.0000 1717.4357 -7429.5377 297.1473 -9146.9734 -7375.6108 299.4075 -435.3766 -413.5004 30089.8313 -143.2464 -83.1750
ENERGY: 1500000 1.0657 3.7174 3.0548 0.0000 -10453.2019 1347.2884 0.0000 0.0000 1708.3181 -7389.7575 295.5698 -9098.0756 -7383.6033 298.5146 -700.3682 -660.7728 30341.6734 -162.3795 -103.1902
TCL: Running FEP window  15: Lambda1 0.7000000000000001 Lambda2 0.7500000000000001 [dLambda 0.050000000000000044]
TCL: Setting parameter firsttimestep to 0
TCL: Setting parameter alchLambda to 0.7000000000000001
Info: NONBONDED TABLE R-SQUARED SPACING: 0.0625
Info: NONBONDED TABLE SIZE: 705 POINTS
TCL: Setting parameter alchLambda2 to 0.7500000000000001
Info: NONBONDED TABLE R-SQUARED SPACING: 0.0625
Info: NONBONDED TABLE SIZE: 705 POINTS
TCL: Running for 1500000 steps
ETITLE: TS BOND ANGLE DIHED IMPRP ELECT VDW BOUNDARY MISC KINETIC TOTAL TEMP POTENTIAL TOTALAVG TEMPAVG PRESSURE GPRESSURE VOLUME PRESSAVG GPRESSAVG
ENERGY: 0 1.0657 3.7174 3.0548 0.0000 -10453.2922 1346.8741 0.0000 0.0000 1707.4937 -7391.0865 295.4272 -9098.5802 -7391.0865 295.4272 -749.1851 -660.1553 30341.6734 -749.1851 -660.1553
ENERGY: 300000 0.7041 4.5585 2.9973 0.0000 -10534.5654 1421.4786 0.0000 0.0000 1738.7365 -7366.0903 300.8327 -9104.8268 -7385.1707 298.4139 210.8524 286.4806 29752.4723 179.7719 267.7312
ENERGY: 600000 0.3856 6.6088 2.4892 0.0000 -10477.2502 1356.9427 0.0000 0.0000 1773.7728 -7337.0511 306.8946 -9110.8239 -7363.2109 301.8413 -555.5282 -509.2931 30462.5404 -70.2601 14.8343
ENERGY: 900000 2.4211 7.5298 3.7216 0.0000 -10524.8994 1361.5920 0.0000 0.0000 1676.2644 -7473.3705 290.0239 -9149.6348 -7366.9796 300.7902 -793.5711 -692.6750 30096.6934 -175.8345 -86.0824
ENERGY: 1200000 2.4511 6.2970 2.7400 0.0000 -10499.3457 1402.0636 0.0000 0.0000 1749.0577 -7336.7363 302.6185 -9085.7940 -7370.2969 300.2591 11.1442 96.7250 29758.7758 -140.1938 -50.6160
ENERGY: 1500000 0.1381 5.3773 2.5423 0.0000 -10584.8966 1448.0843 0.0000 0.0000 1680.7315 -7448.0232 290.7968 -9128.7546 -7369.7115 300.5487 183.9846 225.3333 29964.3083 -40.2590 40.8167
TCL: Running FEP window  16: Lambda1 0.7500000000000001 Lambda2 0.8000000000000002 [dLambda 0.050000000000000044]
TCL: Setting parameter firsttimestep to 0
TCL: Setting parameter alchLambda to 0.7500000000000001
Info: NONBONDED TABLE R-SQUARED SPACING: 0.0625
Info: NONBONDED TABLE SIZE: 705 POINTS
TCL: Setting parameter alchLambda2 to 0.8000000000000002
Info: NONBONDED TABLE R-SQUARED SPACING: 0.0625
Info: NONBONDED TABLE SIZE: 705 POINTS
TCL: Running for 1500000 steps
ETITLE: TS BOND ANGLE DIHED IMPRP ELECT VDW BOUNDARY MISC KINETIC TOTAL TEMP POTENTIAL TOTALAVG TEMPAVG PRESSURE GPRESSURE VOLUME PRESSAVG GPRESSAVG
ENERGY: 0 0.1381 5.3773 2.5423 0.0000 -10584.8584 1448.5173 0.0000 0.0000 1679.8587 -7448.4247 290.6458 -9128.2834 -7448.4247 290.6458 171.7768 238.4255 29964.3083 171.7768 238.4255
ENERGY: 300000 1.0983 4.0040 2.8483 0.0000 -10469.0840 1362.5047 0.0000 0.0000 1705.3501 -7393.2787 295.0563 -9098.6288 -7399.0566 297.3593 -461.7924 -427.7376 29919.5561 -203.0082 -138.9809
ENERGY: 600000 3.0576 5.2786 3.5048 0.0000 -10630.4918 1477.9323 0.0000 0.0000 1734.6665 -7406.0520 300.1285 -9140.7185 -7386.3223 298.6607 470.0362 529.6725 29634.5682 -95.3197 -37.9208
ENERGY: 900000 0.8654 6.4663 2.9283 0.0000 -10416.6083 1328.2992 0.0000 0.0000 1655.3232 -7422.7260 286.4007 -9078.0492 -7382.0653 297.9342 -802.8356 -745.8614 30138.8410 -176.5104 -112.9266
ENERGY: 1200000 0.6556 6.5714 2.5560 0.0000 -10628.3437 1462.7556 0.0000 0.0000 1800.7812 -7355.0241 311.5676 -9155.8053 -7371.6220 300.5196 388.1298 403.7104 29851.1856 20.9774 77.5029
ENERGY: 1500000 0.1238 5.1219 2.6440 0.0000 -10523.0954 1402.3506 0.0000 0.0000 1720.5738 -7392.2812 297.6903 -9112.8550 -7371.7030 300.0563 -81.6827 -89.1077 29928.8180 0.0167 58.4985
TCL: Running FEP window  17: Lambda1 0.8000000000000002 Lambda2 0.8500000000000002 [dLambda 0.050000000000000044]
TCL: Setting parameter firsttimestep to 0
TCL: Setting parameter alchLambda to 0.8000000000000002
Info: NONBONDED TABLE R-SQUARED SPACING: 0.0625
Info: NONBONDED TABLE SIZE: 705 POINTS
TCL: Setting parameter alchLambda2 to 0.8500000000000002
Info: NONBONDED TABLE R-SQUARED SPACING: 0.0625
Info: NONBONDED TABLE SIZE: 705 POINTS
TCL: Running for 1500000 steps
ETITLE: TS BOND ANGLE DIHED IMPRP ELECT VDW BOUNDARY MISC KINETIC TOTAL TEMP POTENTIAL TOTALAVG TEMPAVG PRESSURE GPRESSURE VOLUME PRESSAVG GPRESSAVG
ENERGY: 0 0.1238 5.1219 2.6440 0.0000 -10523.6149 1402.9420 0.0000 0.0000 1719.7557 -7393.0275 297.5487 -9112.7832 -7393.0275 297.5487 -154.6416 -74.2580 29928.8180 -154.6416 -74.2580
ENERGY: 300000 0.7150 9.0015 2.3440 0.0000 -10484.0543 1410.0065 0.0000 0.0000 1741.5234 -7320.4639 301.3149 -9061.9873 -7367.7318 298.3043 -113.7366 -37.9331 30175.8692 -257.4628 -176.2854
ENERGY: 600000 0.8093 8.7913 2.6207 0.0000 -10540.2145 1416.3953 0.0000 0.0000 1704.4227 -7407.1750 294.8958 -9111.5977 -7389.3685 298.4619 152.6652 218.3549 29612.7269 -256.9811 -185.2938
ENERGY: 900000 0.8151 3.9075 2.7069 0.0000 -10545.9793 1440.3631 0.0000 0.0000 1758.3129 -7339.8738 304.2198 -9098.1867 -7386.5142 299.5069 235.0890 290.6771 30222.7254 -195.7738 -124.4954
ENERGY: 1200000 1.2796 4.0896 3.5547 0.0000 -10483.9746 1374.8912 0.0000 0.0000 1752.1290 -7348.0304 303.1499 -9100.1594 -7379.0390 300.4970 -508.3465 -420.3295 30190.7416 -216.6053 -142.3608
ENERGY: 1500000 2.0245 5.7734 3.4573 0.0000 -10345.1061 1303.0902 0.0000 0.0000 1793.5791 -7237.1817 310.3215 -9030.7608 -7370.3317 301.4179 -624.1960 -626.0467 29979.0380 -186.0308 -114.2825
TCL: Running FEP window  18: Lambda1 0.8500000000000002 Lambda2 0.9000000000000002 [dLambda 0.050000000000000044]
TCL: Setting parameter firsttimestep to 0
TCL: Setting parameter alchLambda to 0.8500000000000002
Info: NONBONDED TABLE R-SQUARED SPACING: 0.0625
Info: NONBONDED TABLE SIZE: 705 POINTS
TCL: Setting parameter alchLambda2 to 0.9000000000000002
Info: NONBONDED TABLE R-SQUARED SPACING: 0.0625
Info: NONBONDED TABLE SIZE: 705 POINTS
TCL: Running for 1500000 steps
ETITLE: TS BOND ANGLE DIHED IMPRP ELECT VDW BOUNDARY MISC KINETIC TOTAL TEMP POTENTIAL TOTALAVG TEMPAVG PRESSURE GPRESSURE VOLUME PRESSAVG GPRESSAVG
ENERGY: 0 2.0245 5.7734 3.4573 0.0000 -10345.5250 1303.1330 0.0000 0.0000 1792.7026 -7238.4342 310.1698 -9031.1368 -7238.4342 310.1698 -711.6416 -614.6770 29979.0380 -711.6416 -614.6770
ENERGY: 300000 3.6670 4.1130 3.0651 0.0000 -10668.2419 1455.5772 0.0000 0.0000 1783.4248 -7418.3948 308.5646 -9201.8196 -7334.9010 304.0002 -88.4838 -24.1770 30081.3417 41.6192 100.3900
ENERGY: 600000 0.3812 6.3254 2.4901 0.0000 -10434.2102 1375.3816 0.0000 0.0000 1743.6160 -7306.0160 301.6770 -9049.6319 -7324.5396 302.3273 -107.4938 -71.2161 30116.8612 89.4588 137.5572
ENERGY: 900000 1.5093 4.5093 3.6968 0.0000 -10675.0545 1575.9041 0.0000 0.0000 1753.1362 -7336.2989 303.3241 -9089.4351 -7332.9702 302.3723 1732.8703 1754.0515 29311.5152 259.6473 303.4774
ENERGY: 1200000 1.2561 5.9614 2.8123 0.0000 -10470.2254 1406.5462 0.0000 0.0000 1737.3042 -7316.3451 300.5849 -9053.6494 -7356.7884 300.6073 121.5945 201.7167 29914.9264 230.1393 279.8501
ENERGY: 1500000 0.6481 3.5615 3.0181 0.0000 -10517.0597 1393.1966 0.0000 0.0000 1720.4754 -7396.1599 297.6732 -9116.6353 -7358.5524 300.2176 154.2360 159.7286 29624.8056 201.2980 240.2213
TCL: Running FEP window  19: Lambda1 0.9000000000000002 Lambda2 0.9500000000000003 [dLambda 0.050000000000000044]
TCL: Setting parameter firsttimestep to 0
TCL: Setting parameter alchLambda to 0.9000000000000002
Info: NONBONDED TABLE R-SQUARED SPACING: 0.0625
Info: NONBONDED TABLE SIZE: 705 POINTS
TCL: Setting parameter alchLambda2 to 0.9500000000000003
Info: NONBONDED TABLE R-SQUARED SPACING: 0.0625
Info: NONBONDED TABLE SIZE: 705 POINTS
TCL: Running for 1500000 steps
ETITLE: TS BOND ANGLE DIHED IMPRP ELECT VDW BOUNDARY MISC KINETIC TOTAL TEMP POTENTIAL TOTALAVG TEMPAVG PRESSURE GPRESSURE VOLUME PRESSAVG GPRESSAVG
ENERGY: 0 0.6481 3.5615 3.0181 0.0000 -10517.4368 1394.9258 0.0000 0.0000 1719.6591 -7395.6242 297.5320 -9115.2833 -7395.6242 297.5320 122.8737 195.1914 29624.8056 122.8737 195.1914
ENERGY: 300000 1.2778 6.3360 2.6597 0.0000 -10538.9295 1403.0288 0.0000 0.0000 1792.4797 -7333.1476 310.1313 -9125.6273 -7398.6988 298.9962 324.3754 333.4291 29381.9912 54.1798 116.0275
ENERGY: 600000 0.9616 6.7992 2.9540 0.0000 -10465.0207 1340.4527 0.0000 0.0000 1701.0995 -7412.7536 294.3209 -9113.8530 -7408.5478 298.7385 -690.9764 -560.6516 30060.2062 -40.9134 40.7166
ENERGY: 900000 0.5306 4.8882 2.5392 0.0000 -10513.8137 1392.0875 0.0000 0.0000 1701.1739 -7412.5942 294.3337 -9113.7681 -7400.4661 298.2804 -138.1700 68.4428 29591.7630 -68.0181 25.1526
ENERGY: 1200000 0.2896 5.4744 2.4730 0.0000 -10585.5201 1409.4021 0.0000 0.0000 1715.0951 -7452.7857 296.7424 -9167.8809 -7402.1197 298.5315 -403.3841 -368.3199 30421.2660 -84.0872 -5.1498
ENERGY: 1500000 0.5788 4.5997 2.4976 0.0000 -10606.1623 1453.8499 0.0000 0.0000 1732.9750 -7411.6613 299.8359 -9144.6364 -7402.2601 298.6625 412.2033 437.6395 29493.5386 -79.2486 1.7101
TCL: Running FEP window  20: Lambda1 0.9500000000000003 Lambda2 1.0    [dLambda 0.04999999999999971]
TCL: Setting parameter firsttimestep to 0
TCL: Setting parameter alchLambda to 0.9500000000000003
Info: NONBONDED TABLE R-SQUARED SPACING: 0.0625
Info: NONBONDED TABLE SIZE: 705 POINTS
TCL: Setting parameter alchLambda2 to 1.0
Info: NONBONDED TABLE R-SQUARED SPACING: 0.0625
Info: NONBONDED TABLE SIZE: 705 POINTS
TCL: Running for 1500000 steps
ETITLE: TS BOND ANGLE DIHED IMPRP ELECT VDW BOUNDARY MISC KINETIC TOTAL TEMP POTENTIAL TOTALAVG TEMPAVG PRESSURE GPRESSURE VOLUME PRESSAVG GPRESSAVG
ENERGY: 0 0.5788 4.5997 2.4976 0.0000 -10606.4960 1453.7328 0.0000 0.0000 1732.1084 -7412.9788 299.6859 -9145.0872 -7412.9788 299.6859 354.4051 443.8455 29493.5386 354.4051 443.8455
ENERGY: 300000 0.2551 4.8419 2.4434 0.0000 -10535.3721 1327.7860 0.0000 0.0000 1793.9090 -7406.1367 310.3786 -9200.0457 -7425.8079 302.7190 -662.1350 -637.6198 29672.6855 92.7241 149.9773
ENERGY: 600000 2.4871 4.4514 2.7801 0.0000 -10484.1704 1340.3951 0.0000 0.0000 1745.0357 -7389.0211 301.9226 -9134.0568 -7415.0217 302.9731 -711.9392 -627.7356 30293.6433 -142.6855 -79.2710
ENERGY: 900000 0.3989 5.6029 2.5917 0.0000 -10350.2864 1302.6517 0.0000 0.0000 1825.9732 -7213.0680 315.9263 -9039.0412 -7384.5662 303.6833 -593.7758 -547.6859 30215.1275 -9.0137 46.4992
ENERGY: 1200000 0.3262 6.0672 2.8383 0.0000 -10654.8941 1513.6104 0.0000 0.0000 1762.5582 -7369.4938 304.9543 -9132.0520 -7380.1029 303.0389 770.3735 789.0944 30135.7909 -109.7163 -54.1467
ENERGY: 1500000 1.1437 7.3327 2.4768 0.0000 -10575.5651 1442.4111 0.0000 0.0000 1771.5405 -7350.6603 306.5084 -9122.2008 -7372.0249 303.3008 276.0056 312.5834 29755.5102 -52.2761 6.3588
TCL: Exiting due to exit command.
