Info: SIMULATION PARAMETERS:
Info: TIMESTEP               2
Info: NUMBER OF STEPS        0
Info: STEPS PER CYCLE        10
Info: PERIODIC CELL BASIS 1  32.1338 0 0
Info: PERIODIC CELL BASIS 2  0 30.2021 0
Info: PERIODIC CELL BASIS 3  0 0 32.0611
Info: PERIODIC CELL CENTER   0 0 0
Info: WRAPPING WATERS AROUND PERIODIC BOUNDARIES ON OUTPUT.
Info: WRAPPING ALL CLUSTERS AROUND PERIODIC BOUNDARIES ON OUTPUT.
Info: FIRST LDB TIMESTEP     50
Info: LAST LDB TIMESTEP     -1
Info: HOM BACKGROUND SCALING 1
Info: PME BACKGROUND SCALING 1
Info: MIN ATOMS PER PATCH    40
Info: EMPTY PATCH LOAD       40 ATOMS
Info: VELOCITY FILE          mobley_3980099_equil.vel
Info: CENTER OF MASS MOVING INITIALLY? NO
Info: DIELECTRIC             1
Info: EXCLUDE                SCALED ONE-FOUR
Info: 1-4 ELECTROSTATICS SCALED BY 0.833333
Info: MODIFIED 1-4 VDW PARAMETERS WILL BE USED
Info: DCD FILENAME           mobley_3980099_prod.dcd
Info: DCD FREQUENCY          100000
Info: DCD FIRST STEP         100000
Info: DCD FILE WILL CONTAIN UNIT CELL DATA
Info: XST FILENAME           mobley_3980099_prod.xst
Info: XST FREQUENCY          100000
Info: NO VELOCITY DCD OUTPUT
Info: NO FORCE DCD OUTPUT
Info: OUTPUT FILENAME        mobley_3980099_prod
Info: BINARY OUTPUT FILES WILL BE USED
Info: RESTART FILENAME       mobley_3980099_prod.restart
Info: RESTART FREQUENCY      100000
Info: BINARY RESTART FILES WILL BE USED
Info: CUTOFF                 9
Info: PAIRLIST DISTANCE      11
Info: PAIRLIST SHRINK RATE   0.01
Info: PAIRLIST GROW RATE     0.01
Info: PAIRLIST TRIGGER       0.3
Info: PAIRLISTS PER CYCLE    2
Info: PAIRLISTS ENABLED
Info: MARGIN                 2
Info: HYDROGEN GROUP CUTOFF  2.5
Info: PATCH DIMENSION        15.5
Info: ENERGY OUTPUT STEPS    100000
Info: ENERGY EVALUATION STEPS    100000
Info: OUTPUT ENERGY PRECISION 4
Info: CROSSTERM ENERGY INCLUDED IN DIHEDRAL
Info: TIMING OUTPUT STEPS    1000000
Info: PRESSURE OUTPUT STEPS  100000
Info: ALCHEMICAL FEP ON
Info: FEP CURRENT LAMBDA VALUE     0
Info: FEP COMPARISON LAMBDA VALUE  0.05
Info: FEP INTRA-ALCHEMICAL NON-BONDED INTERACTIONS WILL BE RETAINED
Info: FEP INTRA-ALCHEMICAL BONDED INTERACTIONS WILL BE RETAINED
Info: FEP VDW SHIFTING COEFFICIENT 5
Info: FEP ELEC. ACTIVE FOR ANNIHILATED PARTICLES BETWEEN LAMBDA = 0 AND LAMBDA = 0.5
Info: FEP ELEC. ACTIVE FOR EXNIHILATED PARTICLES BETWEEN LAMBDA = 0.5 AND LAMBDA = 1
Info: FEP VDW ACTIVE FOR ANNIHILATED PARTICLES BETWEEN LAMBDA = 0 AND LAMBDA = 1
Info: FEP VDW ACTIVE FOR EXNIHILATED PARTICLES BETWEEN LAMBDA = 0 AND LAMBDA = 1
Info: FEP BOND ACTIVE FOR ANNIHILATED PARTICLES BETWEEN LAMBDA = 1 AND LAMBDA = 1
Info: FEP BOND ACTIVE FOR EXNIHILATED PARTICLES BETWEEN LAMBDA = 0 AND LAMBDA = 0
Info: LANGEVIN DYNAMICS ACTIVE
Info: LANGEVIN TEMPERATURE   300
Info: LANGEVIN USING BBK INTEGRATOR
Info: LANGEVIN DAMPING COEFFICIENT IS 1 INVERSE PS
Info: LANGEVIN DYNAMICS APPLIED TO HYDROGENS
Info: LANGEVIN PISTON PRESSURE CONTROL ACTIVE
Info:        TARGET PRESSURE IS 1.01325 BAR
Info:     OSCILLATION PERIOD IS 50 FS
Info:             DECAY TIME IS 25 FS
Info:     PISTON TEMPERATURE IS 300 K
Info:       PRESSURE CONTROL IS GROUP-BASED
Info:    INITIAL STRAIN RATE IS -0.000414062 -0.000414062 -0.000414062
Info:       CELL FLUCTUATION IS ISOTROPIC
Info: PARTICLE MESH EWALD (PME) ACTIVE
Info: PME TOLERANCE               1e-06
Info: PME EWALD COEFFICIENT       0.348832
Info: PME INTERPOLATION ORDER     4
Info: PME GRID DIMENSIONS         36 32 36
Info: PME MAXIMUM GRID SPACING    1
Info: PME CALCULATION WILL BE PERFORMED ON GPU
Info: FULL ELECTROSTATIC EVALUATION FREQUENCY      2
Info: USING VERLET I (r-RESPA) MTS SCHEME.
Info: C1 SPLITTING OF LONG RANGE ELECTROSTATICS
Info: PLACING ATOMS IN PATCHES BY HYDROGEN GROUPS
Info: RIGID BONDS TO HYDROGEN : ALL
Info:         ERROR TOLERANCE : 1e-08
Info:          MAX ITERATIONS : 100
Info: RIGID WATER USING SETTLE ALGORITHM
Info: RANDOM NUMBER SEED     1743526237
Info: USE HYDROGEN BONDS?    NO
Info: Using AMBER format force field!
Info: AMBER PARM FILE        mobley_3980099.prmtop
Info: COORDINATE PDB         mobley_3980099.pdb
Info: Exclusions will be read from PARM file!
Info: SCNB (VDW SCALING)     2
Info: USING ARITHMETIC MEAN TO COMBINE L-J SIGMA PARAMETERS
Info: BINARY COORDINATES     mobley_3980099_equil.coor
Info: SUMMARY OF PARAMETERS:
Info: 5 BONDS
Info: 3 ANGLES
Info:   3 HARMONIC
Info:   0 COSINE-BASED
Info: 2 DIHEDRAL
Info: 0 IMPROPER
Info: 0 CROSSTERM
Info: 0 VDW
Info: 15 VDW_PAIRS
Info: 0 NBTHOLE_PAIRS
Info: To read alchdata from file: mobley_3980099.pdb
Info: To read alchflag data from column: 5
Info: STRUCTURE SUMMARY:
Info: 2988 ATOMS
Info: 2988 BONDS
Info: 18 ANGLES
Info: 30 DIHEDRALS
Info: 0 IMPROPERS
Info: 0 CROSSTERMS
Info: 3027 EXCLUSIONS
Info: 2979 RIGID BONDS
Info: ALCH: 0 ATOMS TO DISAPPEAR IN FINAL STATE
Info: ALCH: 12 ATOMS TO APPEAR IN FINAL STATE
Info: 5985 DEGREES OF FREEDOM
Info: 1001 HYDROGEN GROUPS
Info: 3 ATOMS IN LARGEST HYDROGEN GROUP
Info: 1001 MIGRATION GROUPS
Info: 3 ATOMS IN LARGEST MIGRATION GROUP
Info: TOTAL MASS = 18053.3 amu
Info: TOTAL CHARGE = -1.11759e-08 e
Info: MASS DENSITY = 0.963472 g/cm^3
Info: ATOM DENSITY = 0.0960293 atoms/A^3
Info: ADDED 0 IMPLICIT EXCLUSIONS
Info: NONBONDED TABLE R-SQUARED SPACING: 0.0625
Info: NONBONDED TABLE SIZE: 705 POINTS
Info: REMOVING COM VELOCITY 0.106128 0.00703756 -0.126236
Info: Use 3D box decompostion in PME FFT.
Info: Updated CUDA force table with 4096 elements.
Info: Updated CUDA LJ table with 5 x 5 elements.
Info: Found 15 unique exclusion lists needing 28 bytes
TCL: Running for 1500000 steps
ETITLE: TS BOND ANGLE DIHED IMPRP ELECT VDW BOUNDARY MISC KINETIC TOTAL TEMP POTENTIAL TOTALAVG TEMPAVG PRESSURE GPRESSURE VOLUME PRESSAVG GPRESSAVG
ENERGY: 0 2.2561 2.1735 1.7641 0.0000 -10732.5270 1397.4900 0.0000 0.0000 1824.2437 -7504.5995 306.7673 -9328.8432 -7504.5995 306.7673 -607.6054 -505.7465 31115.5007 -607.6054 -505.7465
ENERGY: 300000 5.9075 3.4862 2.0318 0.0000 -10765.5507 1474.6305 0.0000 0.0000 1845.7168 -7433.7779 310.3783 -9279.4947 -7515.2023 306.2754 406.4878 482.4578 30354.8121 -131.2785 -67.3864
ENERGY: 600000 4.8659 1.1794 2.7203 0.0000 -10925.5539 1482.9987 0.0000 0.0000 1795.2833 -7638.5062 301.8973 -9433.7896 -7532.5569 305.0039 144.4652 258.5713 30143.5257 -155.8951 -85.3151
ENERGY: 900000 3.8252 2.5720 0.8728 0.0000 -10676.0290 1392.9649 0.0000 0.0000 1774.3382 -7501.4558 298.3751 -9275.7940 -7546.1361 303.1278 -436.0423 -386.6699 30880.1344 -103.2806 -36.0309
ENERGY: 1200000 4.2623 1.4608 2.1151 0.0000 -10895.6312 1490.0100 0.0000 0.0000 1768.4348 -7629.3482 297.3824 -9397.7830 -7554.6785 301.9601 -214.2306 -174.3298 31041.4074 -154.8633 -94.9389
ENERGY: 1500000 3.3677 2.9927 2.9514 0.0000 -10846.5311 1454.4231 0.0000 0.0000 1820.9910 -7561.8053 306.2203 -9382.7962 -7559.4127 301.8109 111.2279 168.4579 30331.0125 -110.1534 -47.0426
TCL: Running FEP window   2: Lambda1 0.05   Lambda2 0.1    [dLambda 0.05  ]
TCL: Setting parameter firsttimestep to 0
TCL: Setting parameter alchLambda to 0.05
Info: NONBONDED TABLE R-SQUARED SPACING: 0.0625
Info: NONBONDED TABLE SIZE: 705 POINTS
TCL: Setting parameter alchLambda2 to 0.1
Info: NONBONDED TABLE R-SQUARED SPACING: 0.0625
Info: NONBONDED TABLE SIZE: 705 POINTS
TCL: Running for 1500000 steps
ETITLE: TS BOND ANGLE DIHED IMPRP ELECT VDW BOUNDARY MISC KINETIC TOTAL TEMP POTENTIAL TOTALAVG TEMPAVG PRESSURE GPRESSURE VOLUME PRESSAVG GPRESSAVG
ENERGY: 0 3.3677 2.9927 2.9514 0.0000 -10846.5319 1456.2413 0.0000 0.0000 1820.1090 -7560.8698 306.0720 -9380.9788 -7560.8698 306.0720 72.6850 174.3060 30331.0125 72.6850 174.3060
ENERGY: 300000 3.3778 7.6471 0.7231 0.0000 -10875.8874 1456.2031 0.0000 0.0000 1774.9154 -7633.0208 298.4722 -9407.9363 -7567.6286 302.9696 -629.1809 -551.8538 30988.0726 -108.1797 -38.9936
ENERGY: 600000 4.0784 1.4956 2.6413 0.0000 -10919.7878 1525.4419 0.0000 0.0000 1793.3836 -7592.7469 301.5778 -9386.1305 -7554.5147 303.2245 417.2651 452.4618 30463.8861 -2.5801 68.0603
ENERGY: 900000 4.4010 2.5669 2.0871 0.0000 -10747.2936 1417.8168 0.0000 0.0000 1791.4294 -7528.9924 301.2492 -9320.4218 -7542.3755 302.6042 -294.0331 -235.3871 30678.4134 -178.7095 -111.3045
ENERGY: 1200000 5.9791 4.4055 1.6728 0.0000 -10793.0011 1420.1858 0.0000 0.0000 1839.3524 -7521.4055 309.3080 -9360.7579 -7540.1289 303.8491 -243.6952 -154.7231 30603.3182 -104.4118 -39.3076
ENERGY: 1500000 3.0301 3.7358 2.8807 0.0000 -11045.0421 1578.9561 0.0000 0.0000 1791.9826 -7664.4568 301.3422 -9456.4394 -7545.9159 303.4762 617.7285 670.3522 30498.2981 -120.5603 -60.0342
TCL: Running FEP window   3: Lambda1 0.1    Lambda2 0.15000000000000002 [dLambda 0.05000000000000002]
TCL: Setting parameter firsttimestep to 0
TCL: Setting parameter alchLambda to 0.1
Info: NONBONDED TABLE R-SQUARED SPACING: 0.0625
Info: NONBONDED TABLE SIZE: 705 POINTS
TCL: Setting parameter alchLambda2 to 0.15000000000000002
Info: NONBONDED TABLE R-SQUARED SPACING: 0.0625
Info: NONBONDED TABLE SIZE: 705 POINTS
TCL: Running for 1500000 steps
ETITLE: TS BOND ANGLE DIHED IMPRP ELECT VDW BOUNDARY MISC KINETIC TOTAL TEMP POTENTIAL TOTALAVG TEMPAVG PRESSURE GPRESSURE VOLUME PRESSAVG GPRESSAVG
ENERGY: 0 3.0301 3.7358 2.8807 0.0000 -11045.0422 1581.0850 0.0000 0.0000 1791.0599 -7663.2506 301.1871 -9454.3106 -7663.2506 301.1871 590.8832 684.4292 30498.2981 590.8832 684.4292
ENERGY: 300000 2.4825 4.0342 3.8692 0.0000 -10769.3618 1409.0048 0.0000 0.0000 1815.2431 -7534.7279 305.2538 -9349.9710 -7588.4093 299.9302 -488.4401 -416.9725 30829.6637 46.2015 118.3086
ENERGY: 600000 1.9263 2.1915 4.7904 0.0000 -10723.0790 1426.3476 0.0000 0.0000 1801.2053 -7486.6179 302.8932 -9287.8233 -7564.4100 300.4392 -157.2349 -125.2276 31001.1303 -36.3263 19.5964
ENERGY: 900000 1.4736 2.4422 1.8466 0.0000 -10802.9808 1460.9382 0.0000 0.0000 1779.5832 -7556.6971 299.2571 -9336.2802 -7565.3485 301.2240 157.4376 287.1650 30394.9131 -28.6837 35.6239
ENERGY: 1200000 1.7668 0.7241 2.5852 0.0000 -10817.2522 1464.5118 0.0000 0.0000 1831.6519 -7516.0123 308.0131 -9347.6642 -7565.8172 300.5084 83.4194 134.1601 30744.5654 -18.0192 43.3301
ENERGY: 1500000 2.5765 0.9066 3.3739 0.0000 -10774.3240 1398.3773 0.0000 0.0000 1767.5910 -7601.4986 297.2405 -9369.0896 -7572.4665 299.9221 -482.0738 -403.8397 30720.6253 -31.2201 35.1478
TCL: Running FEP window   4: Lambda1 0.15000000000000002 Lambda2 0.2    [dLambda 0.04999999999999999]
TCL: Setting parameter firsttimestep to 0
TCL: Setting parameter alchLambda to 0.15000000000000002
Info: NONBONDED TABLE R-SQUARED SPACING: 0.0625
Info: NONBONDED TABLE SIZE: 705 POINTS
TCL: Setting parameter alchLambda2 to 0.2
Info: NONBONDED TABLE R-SQUARED SPACING: 0.0625
Info: NONBONDED TABLE SIZE: 705 POINTS
TCL: Running for 1500000 steps
ETITLE: TS BOND ANGLE DIHED IMPRP ELECT VDW BOUNDARY MISC KINETIC TOTAL TEMP POTENTIAL TOTALAVG TEMPAVG PRESSURE GPRESSURE VOLUME PRESSAVG GPRESSAVG
ENERGY: 0 2.5765 0.9066 3.3739 0.0000 -10774.3251 1400.2644 0.0000 0.0000 1766.6628 -7600.5409 297.0844 -9367.2036 -7600.5409 297.0844 -471.5481 -399.8175 30720.6253 -471.5481 -399.8175
ENERGY: 300000 3.9609 5.1609 2.3218 0.0000 -10665.7766 1392.3732 0.0000 0.0000 1789.3444 -7472.6154 300.8986 -9261.9598 -7583.0612 299.3910 -501.1939 -474.6011 31222.7701 -168.1664 -100.1998
ENERGY: 600000 3.6934 2.0479 1.9627 0.0000 -10785.2590 1445.7414 0.0000 0.0000 1759.9756 -7571.8379 295.9599 -9331.8136 -7562.8006 298.5229 -147.2907 -41.1665 30549.6848 -120.2933 -51.1307
ENERGY: 900000 2.2642 3.3747 2.5009 0.0000 -10780.2663 1420.2852 0.0000 0.0000 1732.4294 -7619.4118 291.3277 -9351.8413 -7571.2236 297.3761 -281.4696 -159.6292 30211.3718 -62.1365 5.0297
ENERGY: 1200000 1.9153 1.4692 4.2498 0.0000 -10929.9076 1562.6837 0.0000 0.0000 1826.2061 -7533.3835 307.0973 -9359.5896 -7566.7502 297.9777 853.4991 892.3345 30546.1201 -33.8538 31.4578
ENERGY: 1500000 1.7853 2.6732 3.5794 0.0000 -10903.8159 1431.4278 0.0000 0.0000 1774.7576 -7689.5926 298.4457 -9464.3502 -7576.9344 298.3129 -273.3199 -204.1224 30447.9226 -38.3539 28.6898
TCL: Running FEP window   5: Lambda1 0.2    Lambda2 0.25   [dLambda 0.04999999999999999]
TCL: Setting parameter firsttimestep to 0
TCL: Setting parameter alchLambda to 0.2
Info: NONBONDED TABLE R-SQUARED SPACING: 0.0625
Info: NONBONDED TABLE SIZE: 705 POINTS
TCL: Setting parameter alchLambda2 to 0.25
Info: NONBONDED TABLE R-SQUARED SPACING: 0.0625
Info: NONBONDED TABLE SIZE: 705 POINTS
TCL: Running for 1500000 steps
ETITLE: TS BOND ANGLE DIHED IMPRP ELECT VDW BOUNDARY MISC KINETIC TOTAL TEMP POTENTIAL TOTALAVG TEMPAVG PRESSURE GPRESSURE VOLUME PRESSAVG GPRESSAVG
ENERGY: 0 1.7853 2.6732 3.5794 0.0000 -10903.8135 1431.1399 0.0000 0.0000 1773.8721 -7690.7636 298.2968 -9464.6357 -7690.7636 298.2968 -289.2714 -200.2027 30447.9226 -289.2714 -200.2027
ENERGY: 300000 4.7140 4.1220 3.0867 0.0000 -10753.2436 1469.5574 0.0000 0.0000 1734.2134 -7537.5500 291.6277 -9271.7634 -7576.4458 298.4076 42.5877 104.7458 30978.7088 21.4038 83.3833
ENERGY: 600000 2.1666 2.3178 4.5823 0.0000 -10789.2443 1481.9650 0.0000 0.0000 1768.0178 -7530.1947 297.3123 -9298.2126 -7553.2775 299.3910 281.7815 366.6439 30909.0047 -38.0833 20.5696
ENERGY: 900000 2.5314 3.1317 0.5874 0.0000 -10811.4279 1409.8411 0.0000 0.0000 1820.9679 -7574.3683 306.2165 -9395.3362 -7570.4508 299.1762 -479.7027 -433.3522 30972.3084 -67.6812 1.2623
ENERGY: 1200000 3.1367 1.2419 2.4190 0.0000 -10752.9767 1443.3853 0.0000 0.0000 1835.0090 -7467.7849 308.5776 -9302.7939 -7558.7489 301.2089 89.4733 170.7694 30803.7766 -36.1667 25.9075
ENERGY: 1500000 6.4556 2.4548 2.8427 0.0000 -10854.4403 1474.9593 0.0000 0.0000 1736.2913 -7631.4367 291.9771 -9367.7280 -7572.2649 300.1611 -12.4392 59.2676 30720.5427 -30.5359 30.9025
TCL: Running FEP window   6: Lambda1 0.25   Lambda2 0.3    [dLambda 0.04999999999999999]
TCL: Setting parameter firsttimestep to 0
TCL: Setting parameter alchLambda to 0.25
Info: NONBONDED TABLE R-SQUARED SPACING: 0.0625
Info: NONBONDED TABLE SIZE: 705 POINTS
TCL: Setting parameter alchLambda2 to 0.3
Info: NONBONDED TABLE R-SQUARED SPACING: 0.0625
Info: NONBONDED TABLE SIZE: 705 POINTS
TCL: Running for 1500000 steps
ETITLE: TS BOND ANGLE DIHED IMPRP ELECT VDW BOUNDARY MISC KINETIC TOTAL TEMP POTENTIAL TOTALAVG TEMPAVG PRESSURE GPRESSURE VOLUME PRESSAVG GPRESSAVG
ENERGY: 0 6.4556 2.4548 2.8427 0.0000 -10854.4406 1474.8214 0.0000 0.0000 1735.3555 -7632.5107 291.8198 -9367.8662 -7632.5107 291.8198 -31.1990 62.2714 30720.5427 -31.1990 62.2714
ENERGY: 300000 4.0940 2.5139 1.5297 0.0000 -10774.2852 1443.3479 0.0000 0.0000 1758.3507 -7564.4491 295.6867 -9322.7998 -7580.9745 296.3241 94.2697 157.8777 30389.6694 66.3857 153.7297
ENERGY: 600000 1.6865 1.3420 1.4782 0.0000 -10838.1114 1438.0328 0.0000 0.0000 1754.6587 -7640.9133 295.0658 -9395.5720 -7592.5541 294.7783 -101.2506 -114.0527 30306.2098 0.9378 66.7150
ENERGY: 900000 2.6696 3.2819 1.0113 0.0000 -10677.7365 1348.3914 0.0000 0.0000 1852.0617 -7470.3206 311.4452 -9322.3823 -7582.5332 297.4235 -764.5357 -654.0631 30694.3330 -99.8970 -15.3534
ENERGY: 1200000 2.3820 2.9533 5.1221 0.0000 -10810.0696 1420.1721 0.0000 0.0000 1819.1004 -7560.3397 305.9024 -9379.4401 -7585.4317 297.7046 -381.2687 -295.7206 30758.5547 -102.9784 -19.9777
ENERGY: 1500000 2.3131 0.8650 4.7229 0.0000 -10599.4266 1320.1403 0.0000 0.0000 1798.5642 -7472.8213 302.4490 -9271.3854 -7570.2739 298.8993 -885.5926 -811.5883 30920.5341 -140.0488 -59.4650
TCL: Running FEP window   7: Lambda1 0.3    Lambda2 0.35   [dLambda 0.04999999999999999]
TCL: Setting parameter firsttimestep to 0
TCL: Setting parameter alchLambda to 0.3
Info: NONBONDED TABLE R-SQUARED SPACING: 0.0625
Info: NONBONDED TABLE SIZE: 705 POINTS
TCL: Setting parameter alchLambda2 to 0.35
Info: NONBONDED TABLE R-SQUARED SPACING: 0.0625
Info: NONBONDED TABLE SIZE: 705 POINTS
TCL: Running for 1500000 steps
ETITLE: TS BOND ANGLE DIHED IMPRP ELECT VDW BOUNDARY MISC KINETIC TOTAL TEMP POTENTIAL TOTALAVG TEMPAVG PRESSURE GPRESSURE VOLUME PRESSAVG GPRESSAVG
ENERGY: 0 2.3131 0.8650 4.7229 0.0000 -10599.4257 1320.2156 0.0000 0.0000 1797.6962 -7473.6130 302.3030 -9271.3092 -7473.6130 302.3030 -894.5610 -806.6137 30920.5341 -894.5610 -806.6137
ENERGY: 300000 1.5280 2.3420 4.1308 0.0000 -10831.6246 1503.6194 0.0000 0.0000 1741.9087 -7578.0957 292.9218 -9320.0044 -7551.9646 299.8308 259.0845 290.1965 31322.5645 94.4710 154.0044
ENERGY: 600000 1.6167 1.9920 4.3017 0.0000 -10896.3460 1508.6043 0.0000 0.0000 1790.4864 -7589.3450 301.0906 -9379.8314 -7567.5107 301.5984 359.9182 428.6777 30612.6356 70.8365 133.7524
ENERGY: 900000 4.0669 2.9072 2.2729 0.0000 -10935.9070 1467.2826 0.0000 0.0000 1843.4254 -7615.9521 309.9929 -9459.3774 -7570.9946 302.4981 -248.1716 -244.0546 30670.2679 11.5564 60.4968
ENERGY: 1200000 1.5072 2.5892 1.7313 0.0000 -10753.5522 1408.1881 0.0000 0.0000 1777.2554 -7562.2811 298.8657 -9339.5365 -7568.2538 302.6841 -300.0546 -233.3042 30684.6503 16.5362 71.1968
ENERGY: 1500000 2.4350 1.4165 1.0898 0.0000 -10792.9900 1384.6742 0.0000 0.0000 1760.6984 -7642.6761 296.0815 -9403.3745 -7576.4682 302.0317 -839.4662 -786.2319 30656.7407 -60.5585 -5.4216
TCL: Running FEP window   8: Lambda1 0.35   Lambda2 0.39999999999999997 [dLambda 0.04999999999999999]
TCL: Setting parameter firsttimestep to 0
TCL: Setting parameter alchLambda to 0.35
Info: NONBONDED TABLE R-SQUARED SPACING: 0.0625
Info: NONBONDED TABLE SIZE: 705 POINTS
TCL: Setting parameter alchLambda2 to 0.39999999999999997
Info: NONBONDED TABLE R-SQUARED SPACING: 0.0625
Info: NONBONDED TABLE SIZE: 705 POINTS
TCL: Running for 1500000 steps
ETITLE: TS BOND ANGLE DIHED IMPRP ELECT VDW BOUNDARY MISC KINETIC TOTAL TEMP POTENTIAL TOTALAVG TEMPAVG PRESSURE GPRESSURE VOLUME PRESSAVG GPRESSAVG
ENERGY: 0 2.4350 1.4165 1.0898 0.0000 -10792.9907 1384.8387 0.0000 0.0000 1759.7854 -7643.4253 295.9279 -9403.2107 -7643.4253 295.9279 -857.4240 -779.6324 30656.7407 -857.4240 -779.6324
ENERGY: 300000 7.0198 2.0593 3.7759 0.0000 -10813.2500 1461.9112 0.0000 0.0000 1748.5876 -7589.8962 294.0449 -9338.4838 -7592.8764 296.4801 -6.5044 66.1925 30660.2059 -482.2072 -401.1882
ENERGY: 600000 2.7806 3.2620 1.0974 0.0000 -10819.4555 1444.4583 0.0000 0.0000 1806.9123 -7560.9449 303.8528 -9367.8571 -7568.4164 300.5133 -263.1794 -176.7243 31087.5993 -281.6282 -212.9351
ENERGY: 900000 0.8405 3.9485 1.5751 0.0000 -10749.4958 1369.9079 0.0000 0.0000 1748.4247 -7624.7991 294.0175 -9373.2238 -7592.4115 300.3263 -589.4589 -483.9266 30328.7628 -255.7032 -176.2236
ENERGY: 1200000 1.2658 2.7838 3.7176 0.0000 -10768.7445 1404.1212 0.0000 0.0000 1827.0525 -7529.8036 307.2396 -9356.8561 -7592.4968 300.3558 -362.9805 -271.4947 30690.2957 -224.5290 -145.9989
ENERGY: 1500000 1.2021 2.4117 1.5930 0.0000 -10690.5686 1377.1534 0.0000 0.0000 1811.3624 -7496.8459 304.6012 -9308.2083 -7585.4318 300.6680 -497.7259 -432.0215 30986.0633 -299.2194 -223.2189
TCL: Running FEP window   9: Lambda1 0.39999999999999997 Lambda2 0.44999999999999996 [dLambda 0.04999999999999999]
TCL: Setting parameter firsttimestep to 0
TCL: Setting parameter alchLambda to 0.39999999999999997
Info: NONBONDED TABLE R-SQUARED SPACING: 0.0625
Info: NONBONDED TABLE SIZE: 705 POINTS
TCL: Setting parameter alchLambda2 to 0.44999999999999996
Info: NONBONDED TABLE R-SQUARED SPACING: 0.0625
Info: NONBONDED TABLE SIZE: 705 POINTS
TCL: Running for 1500000 steps
ETITLE: TS BOND ANGLE DIHED IMPRP ELECT VDW BOUNDARY MISC KINETIC TOTAL TEMP POTENTIAL TOTALAVG TEMPAVG PRESSURE GPRESSURE VOLUME PRESSAVG GPRESSAVG
ENERGY: 0 1.2021 2.4117 1.5930 0.0000 -10690.5699 1378.0018 0.0000 0.0000 1810.4773 -7496.8840 304.4523 -9307.3613 -7496.8840 304.4523 -499.7873 -417.2777 30986.0633 -499.7873 -417.2777
ENERGY: 300000 1.7160 1.0214 4.7052 0.0000 -10896.1508 1441.2050 0.0000 0.0000 1773.2417 -7674.2615 298.1908 -9447.5032 -7573.0371 298.3268 -342.6642 -285.5274 30651.8498 -206.2375 -133.8883
ENERGY: 600000 5.0521 6.5167 2.1665 0.0000 -10792.5339 1414.6358 0.0000 0.0000 1793.3484 -7570.8142 301.5719 -9364.1627 -7574.2646 300.4285 -280.3564 -217.6959 30583.5135 -151.2805 -73.5184
ENERGY: 900000 5.3431 5.4595 1.6182 0.0000 -10835.7605 1530.5566 0.0000 0.0000 1780.9636 -7511.8195 299.4893 -9292.7831 -7571.5470 301.0017 798.5297 838.0480 30658.2980 -26.9570 44.3331
ENERGY: 1200000 0.9879 4.3138 2.7897 0.0000 -10855.8933 1472.5463 0.0000 0.0000 1825.0603 -7550.1953 306.9046 -9375.2556 -7581.2759 300.0671 1.3105 91.0225 30750.0118 -113.8366 -39.2231
ENERGY: 1500000 2.9914 4.0008 2.9870 0.0000 -10813.8049 1411.3135 0.0000 0.0000 1838.0104 -7554.5019 309.0823 -9392.5123 -7576.9105 300.5769 -522.6721 -488.8042 30950.9808 -133.5721 -60.2172
TCL: Running FEP window  10: Lambda1 0.44999999999999996 Lambda2 0.49999999999999994 [dLambda 0.04999999999999999]
TCL: Setting parameter firsttimestep to 0
TCL: Setting parameter alchLambda to 0.44999999999999996
Info: NONBONDED TABLE R-SQUARED SPACING: 0.0625
Info: NONBONDED TABLE SIZE: 705 POINTS
TCL: Setting parameter alchLambda2 to 0.49999999999999994
Info: NONBONDED TABLE R-SQUARED SPACING: 0.0625
Info: NONBONDED TABLE SIZE: 705 POINTS
TCL: Running for 1500000 steps
ETITLE: TS BOND ANGLE DIHED IMPRP ELECT VDW BOUNDARY MISC KINETIC TOTAL TEMP POTENTIAL TOTALAVG TEMPAVG PRESSURE GPRESSURE VOLUME PRESSAVG GPRESSAVG
ENERGY: 0 2.9914 4.0008 2.9870 0.0000 -10813.8043 1411.3030 0.0000 0.0000 1837.1119 -7555.4103 308.9313 -9392.5223 -7555.4103 308.9313 -554.7119 -485.2262 30950.9808 -554.7119 -485.2262
ENERGY: 300000 3.9561 5.1957 2.1571 0.0000 -10834.5897 1468.3869 0.0000 0.0000 1860.1993 -7494.6945 312.8137 -9354.8938 -7524.9839 305.1235 -88.4580 80.2969 31025.3942 -28.0630 48.9666
ENERGY: 600000 4.0802 5.7679 1.9072 0.0000 -10759.9306 1438.5904 0.0000 0.0000 1772.9068 -7536.6782 298.1344 -9309.5850 -7547.1677 302.1679 -280.3019 -218.3836 31224.8611 -54.9786 20.4730
ENERGY: 900000 5.0930 2.1188 2.1683 0.0000 -10942.8611 1452.3624 0.0000 0.0000 1779.0309 -7702.0877 299.1643 -9481.1186 -7557.8561 302.8614 -381.0798 -280.6476 30492.9360 -167.4903 -78.6089
ENERGY: 1200000 3.0524 2.5082 3.0468 0.0000 -10748.4688 1388.0078 0.0000 0.0000 1751.6712 -7600.1824 294.5634 -9351.8536 -7555.2298 302.0412 -616.4532 -597.9851 30890.1795 -213.6212 -129.0986
ENERGY: 1500000 2.0748 1.4226 2.3868 0.0000 -10858.4936 1477.2234 0.0000 0.0000 1793.3024 -7582.0836 301.5642 -9375.3861 -7556.3496 302.6101 -82.3393 -29.3848 31157.0172 -168.9964 -86.8189
TCL: Running FEP window  11: Lambda1 0.49999999999999994 Lambda2 0.5499999999999999 [dLambda 0.04999999999999999]
TCL: Setting parameter firsttimestep to 0
TCL: Setting parameter alchLambda to 0.49999999999999994
Info: NONBONDED TABLE R-SQUARED SPACING: 0.0625
Info: NONBONDED TABLE SIZE: 705 POINTS
TCL: Setting parameter alchLambda2 to 0.5499999999999999
Info: NONBONDED TABLE R-SQUARED SPACING: 0.0625
Info: NONBONDED TABLE SIZE: 705 POINTS
TCL: Running for 1500000 steps
ETITLE: TS BOND ANGLE DIHED IMPRP ELECT VDW BOUNDARY MISC KINETIC TOTAL TEMP POTENTIAL TOTALAVG TEMPAVG PRESSURE GPRESSURE VOLUME PRESSAVG GPRESSAVG
ENERGY: 0 2.0748 1.4226 2.3868 0.0000 -10858.4931 1476.8722 0.0000 0.0000 1792.4409 -7583.2958 301.4193 -9375.7367 -7583.2958 301.4193 -99.8052 -28.3459 31157.0172 -99.8052 -28.3459
ENERGY: 300000 2.8438 2.2296 2.8263 0.0000 -10931.9207 1486.7686 0.0000 0.0000 1798.2177 -7639.0348 302.3907 -9437.2524 -7573.7741 300.5874 -198.3951 -77.0182 30769.3802 -276.8098 -189.2258
ENERGY: 600000 1.2208 3.0946 3.0643 0.0000 -10788.2474 1449.2472 0.0000 0.0000 1780.6816 -7550.9388 299.4419 -9331.6205 -7592.3323 298.8357 -26.8359 63.3791 30919.9878 -217.0297 -137.1197
ENERGY: 900000 3.5165 3.0324 1.8212 0.0000 -10829.6501 1425.7534 0.0000 0.0000 1821.2223 -7574.3042 306.2592 -9395.5265 -7574.9238 300.7204 -196.0212 -63.3250 30554.7176 -73.3302 9.5716
ENERGY: 1200000 2.6945 2.4740 4.1854 0.0000 -10806.7686 1490.1704 0.0000 0.0000 1816.1629 -7491.0813 305.4084 -9307.2442 -7563.7217 300.5460 403.4390 511.8555 30660.7729 -33.4340 51.7520
ENERGY: 1500000 7.0772 1.9765 2.4397 0.0000 -10689.2431 1444.3212 0.0000 0.0000 1776.9126 -7456.5159 298.8080 -9233.4285 -7560.8878 299.8739 -86.3152 -60.8731 31384.6522 -95.6448 -21.8386
TCL: Running FEP window  12: Lambda1 0.5499999999999999 Lambda2 0.6    [dLambda 0.050000000000000044]
TCL: Setting parameter firsttimestep to 0
TCL: Setting parameter alchLambda to 0.5499999999999999
Info: NONBONDED TABLE R-SQUARED SPACING: 0.0625
Info: NONBONDED TABLE SIZE: 705 POINTS
TCL: Setting parameter alchLambda2 to 0.6
Info: NONBONDED TABLE R-SQUARED SPACING: 0.0625
Info: NONBONDED TABLE SIZE: 705 POINTS
TCL: Running for 1500000 steps
ETITLE: TS BOND ANGLE DIHED IMPRP ELECT VDW BOUNDARY MISC KINETIC TOTAL TEMP POTENTIAL TOTALAVG TEMPAVG PRESSURE GPRESSURE VOLUME PRESSAVG GPRESSAVG
ENERGY: 0 7.0772 1.9765 2.4397 0.0000 -10689.0123 1444.1651 0.0000 0.0000 1776.0115 -7457.3422 298.6565 -9233.3537 -7457.3422 298.6565 -139.1384 -53.5673 31384.6522 -139.1384 -53.5673
ENERGY: 300000 3.1386 2.6059 0.6419 0.0000 -10785.6043 1404.1403 0.0000 0.0000 1773.7949 -7601.2826 298.2838 -9375.0776 -7550.4358 300.0736 -405.3109 -377.3737 30477.4907 53.2027 119.1211
ENERGY: 600000 1.2758 3.6361 2.7089 0.0000 -10925.0963 1572.8029 0.0000 0.0000 1818.8225 -7525.8501 305.8557 -9344.6727 -7555.1661 302.2795 818.1316 886.2812 30934.0420 180.1852 238.7038
ENERGY: 900000 5.8739 3.2782 1.5790 0.0000 -10735.5999 1349.4886 0.0000 0.0000 1807.9107 -7567.4695 304.0207 -9375.3802 -7561.5651 303.0497 -1110.6046 -1116.2088 31622.9694 88.2733 142.3157
ENERGY: 1200000 1.9979 1.6177 1.2710 0.0000 -10930.5006 1527.9638 0.0000 0.0000 1786.2995 -7611.3507 300.3866 -9397.6502 -7564.0875 302.4364 270.1913 359.3290 30920.5317 45.2346 104.2464
ENERGY: 1500000 2.9483 1.9958 2.8039 0.0000 -10777.0881 1465.1427 0.0000 0.0000 1753.9024 -7550.2950 294.9386 -9304.1974 -7568.5516 302.1262 -99.1827 -20.2709 31335.0658 48.7202 108.3457
TCL: Running FEP window  13: Lambda1 0.6    Lambda2 0.65   [dLambda 0.050000000000000044]
TCL: Setting parameter firsttimestep to 0
TCL: Setting parameter alchLambda to 0.6
Info: NONBONDED TABLE R-SQUARED SPACING: 0.0625
Info: NONBONDED TABLE SIZE: 705 POINTS
TCL: Setting parameter alchLambda2 to 0.65
Info: NONBONDED TABLE R-SQUARED SPACING: 0.0625
Info: NONBONDED TABLE SIZE: 705 POINTS
TCL: Running for 1500000 steps
ETITLE: TS BOND ANGLE DIHED IMPRP ELECT VDW BOUNDARY MISC KINETIC TOTAL TEMP POTENTIAL TOTALAVG TEMPAVG PRESSURE GPRESSURE VOLUME PRESSAVG GPRESSAVG
ENERGY: 0 2.9483 1.9958 2.8038 0.0000 -10777.3822 1465.8255 0.0000 0.0000 1752.9981 -7550.8106 294.7866 -9303.8087 -7550.8106 294.7866 -81.0543 -7.4369 31335.0658 -81.0543 -7.4369
ENERGY: 300000 2.7365 1.8374 2.0174 0.0000 -10879.1259 1486.3525 0.0000 0.0000 1797.7112 -7588.4708 302.3056 -9386.1821 -7534.4584 299.9224 421.7311 506.6531 30495.4755 134.0847 198.4388
ENERGY: 600000 0.9207 1.8128 2.5101 0.0000 -10924.1327 1561.1564 0.0000 0.0000 1770.2534 -7587.4793 297.6882 -9357.7327 -7544.3113 300.9667 1024.1000 1054.1737 30647.6702 167.6705 226.4565
ENERGY: 900000 4.3844 3.7422 3.1336 0.0000 -10788.0895 1445.4707 0.0000 0.0000 1792.9422 -7538.4163 301.5036 -9331.3585 -7547.3495 300.3250 -109.3612 -115.1948 30799.4290 -22.9824 28.1594
ENERGY: 1200000 2.4785 3.5368 3.3828 0.0000 -10672.4987 1354.7563 0.0000 0.0000 1820.2081 -7488.1361 306.0887 -9308.3443 -7542.6112 301.3925 -659.4461 -607.1464 30881.5159 -151.2991 -104.6743
ENERGY: 1500000 1.8463 1.2249 2.7792 0.0000 -10731.8741 1425.7232 0.0000 0.0000 1804.6191 -7495.6816 303.4672 -9300.3007 -7542.6200 301.3501 -224.8653 -127.6705 31338.3732 -174.0028 -124.3442
TCL: Running FEP window  14: Lambda1 0.65   Lambda2 0.7000000000000001 [dLambda 0.050000000000000044]
TCL: Setting parameter firsttimestep to 0
TCL: Setting parameter alchLambda to 0.65
Info: NONBONDED TABLE R-SQUARED SPACING: 0.0625
Info: NONBONDED TABLE SIZE: 705 POINTS
TCL: Setting parameter alchLambda2 to 0.7000000000000001
Info: NONBONDED TABLE R-SQUARED SPACING: 0.0625
Info: NONBONDED TABLE SIZE: 705 POINTS
TCL: Running for 1500000 steps
ETITLE: TS BOND ANGLE DIHED IMPRP ELECT VDW BOUNDARY MISC KINETIC TOTAL TEMP POTENTIAL TOTALAVG TEMPAVG PRESSURE GPRESSURE VOLUME PRESSAVG GPRESSAVG
ENERGY: 0 1.8463 1.2249 2.7792 0.0000 -10732.1177 1425.1067 0.0000 0.0000 1803.7687 -7497.3919 303.3242 -9301.1607 -7497.3919 303.3242 -216.9222 -128.6956 31338.3732 -216.9222 -128.6956
ENERGY: 300000 2.4143 2.1795 2.5388 0.0000 -10797.4725 1433.3121 0.0000 0.0000 1775.0349 -7581.9929 298.4923 -9357.0278 -7572.9504 297.4958 -290.6780 -244.1403 30992.7890 -267.3151 -190.6972
ENERGY: 600000 2.8744 1.3886 3.1304 0.0000 -10738.2325 1352.2581 0.0000 0.0000 1723.0497 -7655.5314 289.7504 -9378.5811 -7566.2863 298.7924 -1007.2525 -970.2009 30773.0781 -255.5879 -194.7121
ENERGY: 900000 2.6096 3.7976 0.9526 0.0000 -10917.2918 1548.1226 0.0000 0.0000 1836.6726 -7525.1368 308.8574 -9361.8094 -7556.1723 299.9738 700.8252 767.1954 30872.9508 -6.2644 55.4105
ENERGY: 1200000 2.6057 2.9885 3.9267 0.0000 -10909.9570 1552.0460 0.0000 0.0000 1736.5212 -7611.8689 292.0158 -9348.3901 -7558.2452 299.6964 725.4012 739.4475 31078.7695 -33.9899 20.1634
ENERGY: 1500000 3.5225 2.9164 4.0403 0.0000 -10976.3914 1569.9637 0.0000 0.0000 1770.2824 -7625.6662 297.6931 -9395.9486 -7559.9657 300.3852 610.8308 654.0867 31016.0688 34.1654 90.4736
TCL: Running FEP window  15: Lambda1 0.7000000000000001 Lambda2 0.7500000000000001 [dLambda 0.050000000000000044]
TCL: Setting parameter firsttimestep to 0
TCL: Setting parameter alchLambda to 0.7000000000000001
Info: NONBONDED TABLE R-SQUARED SPACING: 0.0625
Info: NONBONDED TABLE SIZE: 705 POINTS
TCL: Setting parameter alchLambda2 to 0.7500000000000001
Info: NONBONDED TABLE R-SQUARED SPACING: 0.0625
Info: NONBONDED TABLE SIZE: 705 POINTS
TCL: Running for 1500000 steps
ETITLE: TS BOND ANGLE DIHED IMPRP ELECT VDW BOUNDARY MISC KINETIC TOTAL TEMP POTENTIAL TOTALAVG TEMPAVG PRESSURE GPRESSURE VOLUME PRESSAVG GPRESSAVG
ENERGY: 0 3.5225 2.9164 4.0403 0.0000 -10976.5711 1570.0674 0.0000 0.0000 1769.3768 -7626.6478 297.5408 -9396.0246 -7626.6478 297.5408 579.8165 662.0404 31016.0688 579.8165 662.0404
ENERGY: 300000 4.1530 1.7808 2.0119 0.0000 -10967.6987 1549.0484 0.0000 0.0000 1737.2262 -7673.4785 292.1343 -9410.7046 -7626.4907 296.5572 595.3179 660.0224 30819.0239 271.1282 330.0715
ENERGY: 600000 4.9085 2.8586 2.2403 0.0000 -10791.8177 1427.2483 0.0000 0.0000 1769.1967 -7585.3652 297.5105 -9354.5619 -7597.6978 298.5312 -618.2776 -524.1197 31313.5261 116.5407 179.0832
ENERGY: 900000 2.5227 1.6553 3.8985 0.0000 -10757.2501 1432.1994 0.0000 0.0000 1761.2708 -7555.7034 296.1777 -9316.9742 -7607.5784 297.0807 36.8860 23.5310 30716.9675 181.4968 224.7025
ENERGY: 1200000 5.1621 1.7208 4.5759 0.0000 -10726.8089 1424.2897 0.0000 0.0000 1783.3230 -7507.7374 299.8860 -9291.0604 -7587.1150 297.8729 -42.6040 20.0886 31027.2626 120.8219 172.3178
ENERGY: 1500000 2.9037 3.3338 1.6676 0.0000 -10710.7295 1373.6426 0.0000 0.0000 1795.5598 -7533.6220 301.9438 -9329.1818 -7586.2066 298.5252 -580.7102 -567.0552 31109.3574 81.9888 136.9931
TCL: Running FEP window  16: Lambda1 0.7500000000000001 Lambda2 0.8000000000000002 [dLambda 0.050000000000000044]
TCL: Setting parameter firsttimestep to 0
TCL: Setting parameter alchLambda to 0.7500000000000001
Info: NONBONDED TABLE R-SQUARED SPACING: 0.0625
Info: NONBONDED TABLE SIZE: 705 POINTS
TCL: Setting parameter alchLambda2 to 0.8000000000000002
Info: NONBONDED TABLE R-SQUARED SPACING: 0.0625
Info: NONBONDED TABLE SIZE: 705 POINTS
TCL: Running for 1500000 steps
ETITLE: TS BOND ANGLE DIHED IMPRP ELECT VDW BOUNDARY MISC KINETIC TOTAL TEMP POTENTIAL TOTALAVG TEMPAVG PRESSURE GPRESSURE VOLUME PRESSAVG GPRESSAVG
ENERGY: 0 2.9037 3.3338 1.6676 0.0000 -10710.9520 1373.5030 0.0000 0.0000 1794.6611 -7534.8829 301.7927 -9329.5439 -7534.8829 301.7927 -638.0346 -558.9348 31109.3574 -638.0346 -558.9348
ENERGY: 300000 2.3138 1.1723 3.9233 0.0000 -10900.1694 1493.7641 0.0000 0.0000 1803.4837 -7595.5123 303.2763 -9398.9960 -7576.8829 300.8754 231.8828 290.0891 30756.7759 -54.8545 15.6062
ENERGY: 600000 1.3440 1.1319 3.4726 0.0000 -10796.5920 1391.7856 0.0000 0.0000 1765.0921 -7633.7658 296.8203 -9398.8578 -7577.1075 299.5671 -575.6154 -443.8201 30645.0391 -272.0950 -202.2052
ENERGY: 900000 1.1413 3.3259 1.3541 0.0000 -10841.0498 1458.0424 0.0000 0.0000 1760.0837 -7617.1026 295.9781 -9377.1862 -7576.5422 298.8375 -40.3686 58.8278 30802.4732 -207.9015 -135.9413
ENERGY: 1200000 3.3115 1.3459 1.6098 0.0000 -10778.9431 1425.5986 0.0000 0.0000 1861.3718 -7485.7055 313.0108 -9347.0773 -7560.5434 300.2850 -199.1552 -84.1003 30792.8612 -114.1088 -46.4745
ENERGY: 1500000 3.6140 1.8982 2.2070 0.0000 -10767.1076 1414.5494 0.0000 0.0000 1768.2715 -7576.5674 297.3549 -9344.8389 -7560.2042 300.4403 -217.7940 -186.8098 30667.9269 -51.5687 11.6783
TCL: Running FEP window  17: Lambda1 0.8000000000000002 Lambda2 0.8500000000000002 [dLambda 0.050000000000000044]
TCL: Setting parameter firsttimestep to 0
TCL: Setting parameter alchLambda to 0.8000000000000002
Info: NONBONDED TABLE R-SQUARED SPACING: 0.0625
Info: NONBONDED TABLE SIZE: 705 POINTS
TCL: Setting parameter alchLambda2 to 0.8500000000000002
Info: NONBONDED TABLE R-SQUARED SPACING: 0.0625
Info: NONBONDED TABLE SIZE: 705 POINTS
TCL: Running for 1500000 steps
ETITLE: TS BOND ANGLE DIHED IMPRP ELECT VDW BOUNDARY MISC KINETIC TOTAL TEMP POTENTIAL TOTALAVG TEMPAVG PRESSURE GPRESSURE VOLUME PRESSAVG GPRESSAVG
ENERGY: 0 3.6140 1.8982 2.2070 0.0000 -10767.2107 1414.9978 0.0000 0.0000 1767.3609 -7577.1327 297.2018 -9344.4936 -7577.1327 297.2018 -245.7480 -169.5754 30667.9269 -245.7480 -169.5754
ENERGY: 300000 2.4284 3.8416 5.0943 0.0000 -10847.3791 1420.0143 0.0000 0.0000 1739.1651 -7676.8353 292.4604 -9416.0004 -7568.4947 297.6471 -421.4362 -386.2556 30899.0837 -267.1435 -204.3719
ENERGY: 600000 1.9322 8.0184 2.6739 0.0000 -10972.7979 1603.6223 0.0000 0.0000 1789.0057 -7567.5453 300.8416 -9356.5511 -7573.5415 297.9189 1440.1961 1545.9397 30136.4300 153.4635 223.4568
ENERGY: 900000 1.9352 2.7156 2.8569 0.0000 -10797.2711 1464.4593 0.0000 0.0000 1815.9395 -7509.3645 305.3709 -9325.3040 -7580.2846 300.4223 -2.3227 78.6065 31208.4565 71.1844 143.3609
ENERGY: 1200000 1.6988 1.5488 5.4270 0.0000 -10792.8679 1382.5679 0.0000 0.0000 1811.0283 -7590.5971 304.5450 -9401.6254 -7582.3400 300.7262 -439.5787 -409.6136 30612.8799 18.6956 83.2684
ENERGY: 1500000 5.1636 1.4523 3.3006 0.0000 -10711.5247 1334.6210 0.0000 0.0000 1780.4441 -7586.5431 299.4019 -9366.9872 -7585.8993 300.7533 -798.9488 -739.4792 30730.2586 -54.2179 9.3188
TCL: Running FEP window  18: Lambda1 0.8500000000000002 Lambda2 0.9000000000000002 [dLambda 0.050000000000000044]
TCL: Setting parameter firsttimestep to 0
TCL: Setting parameter alchLambda to 0.8500000000000002
Info: NONBONDED TABLE R-SQUARED SPACING: 0.0625
Info: NONBONDED TABLE SIZE: 705 POINTS
TCL: Setting parameter alchLambda2 to 0.9000000000000002
Info: NONBONDED TABLE R-SQUARED SPACING: 0.0625
Info: NONBONDED TABLE SIZE: 705 POINTS
TCL: Running for 1500000 steps
ETITLE: TS BOND ANGLE DIHED IMPRP ELECT VDW BOUNDARY MISC KINETIC TOTAL TEMP POTENTIAL TOTALAVG TEMPAVG PRESSURE GPRESSURE VOLUME PRESSAVG GPRESSAVG
ENERGY: 0 5.1636 1.4523 3.3006 0.0000 -10711.6863 1334.5725 0.0000 0.0000 1779.5555 -7587.6419 299.2525 -9367.1974 -7587.6419 299.2525 -826.2812 -733.3895 30730.2586 -826.2812 -733.3895
ENERGY: 300000 3.8091 1.7834 2.8086 0.0000 -10654.9898 1340.9965 0.0000 0.0000 1791.0759 -7514.5163 301.1898 -9305.5922 -7602.5463 297.8669 -895.3054 -827.6826 31339.3996 -426.5554 -355.4503
ENERGY: 600000 3.0526 3.6597 2.2581 0.0000 -10723.7917 1370.4992 0.0000 0.0000 1801.1539 -7543.1681 302.8845 -9344.3220 -7586.1052 297.3968 -563.7556 -544.5288 31059.7886 -246.7319 -190.8741
ENERGY: 900000 3.5650 4.2879 2.0138 0.0000 -10858.3429 1448.2215 0.0000 0.0000 1786.8705 -7613.3843 300.4826 -9400.2548 -7563.6130 300.3626 -21.8300 56.3405 30604.9290 -363.1299 -302.9815
ENERGY: 1200000 2.3222 0.6326 4.2757 0.0000 -10985.2256 1565.8021 0.0000 0.0000 1840.5485 -7571.6444 309.5092 -9412.1930 -7564.4215 302.1049 727.6332 782.7328 31092.2555 -255.5716 -187.4293
ENERGY: 1500000 2.1846 3.7609 3.0261 0.0000 -10683.1544 1427.5702 0.0000 0.0000 1737.7159 -7508.8967 292.2167 -9246.6126 -7561.6341 301.1327 62.0658 138.6303 31104.9289 -174.8370 -104.7158
TCL: Running FEP window  19: Lambda1 0.9000000000000002 Lambda2 0.9500000000000003 [dLambda 0.050000000000000044]
TCL: Setting parameter firsttimestep to 0
TCL: Setting parameter alchLambda to 0.9000000000000002
Info: NONBONDED TABLE R-SQUARED SPACING: 0.0625
Info: NONBONDED TABLE SIZE: 705 POINTS
TCL: Setting parameter alchLambda2 to 0.9500000000000003
Info: NONBONDED TABLE R-SQUARED SPACING: 0.0625
Info: NONBONDED TABLE SIZE: 705 POINTS
TCL: Running for 1500000 steps
ETITLE: TS BOND ANGLE DIHED IMPRP ELECT VDW BOUNDARY MISC KINETIC TOTAL TEMP POTENTIAL TOTALAVG TEMPAVG PRESSURE GPRESSURE VOLUME PRESSAVG GPRESSAVG
ENERGY: 0 2.1846 3.7609 3.0261 0.0000 -10683.2559 1427.3530 0.0000 0.0000 1736.8311 -7510.1002 292.0679 -9246.9314 -7510.1002 292.0679 66.9352 148.6832 31104.9289 66.9352 148.6832
ENERGY: 300000 2.8960 1.1897 1.8250 0.0000 -10899.1526 1530.9379 0.0000 0.0000 1796.7308 -7565.5732 302.1407 -9362.3040 -7563.1591 295.0729 729.2737 780.8779 30618.8769 325.2609 377.4719
ENERGY: 600000 1.9176 2.5779 3.6335 0.0000 -10936.2446 1529.3182 0.0000 0.0000 1803.5323 -7595.2650 303.2845 -9398.7973 -7573.6730 297.4031 546.9589 654.1000 30709.9940 187.7303 253.5633
ENERGY: 900000 2.9879 1.8148 4.4101 0.0000 -10597.9301 1342.8162 0.0000 0.0000 1777.5575 -7468.3436 298.9165 -9245.9010 -7582.7765 296.3695 -766.4188 -719.0350 31256.6431 93.8657 148.3120
ENERGY: 1200000 0.3510 4.5824 2.6385 0.0000 -10969.8630 1534.2948 0.0000 0.0000 1770.4081 -7657.5883 297.7142 -9427.9964 -7589.4446 298.0345 583.3822 623.8572 30625.6280 70.7748 126.5309
ENERGY: 1500000 3.3864 3.4387 2.4269 0.0000 -10903.6564 1485.4445 0.0000 0.0000 1738.5012 -7670.4588 292.3487 -9408.9599 -7603.7160 297.6293 102.4344 141.4015 30499.5885 59.5788 115.9501
TCL: Running FEP window  20: Lambda1 0.9500000000000003 Lambda2 1.0    [dLambda 0.04999999999999971]
TCL: Setting parameter firsttimestep to 0
TCL: Setting parameter alchLambda to 0.9500000000000003
Info: NONBONDED TABLE R-SQUARED SPACING: 0.0625
Info: NONBONDED TABLE SIZE: 705 POINTS
TCL: Setting parameter alchLambda2 to 1.0
Info: NONBONDED TABLE R-SQUARED SPACING: 0.0625
Info: NONBONDED TABLE SIZE: 705 POINTS
TCL: Running for 1500000 steps
ETITLE: TS BOND ANGLE DIHED IMPRP ELECT VDW BOUNDARY MISC KINETIC TOTAL TEMP POTENTIAL TOTALAVG TEMPAVG PRESSURE GPRESSURE VOLUME PRESSAVG GPRESSAVG
ENERGY: 0 3.3864 3.4387 2.4269 0.0000 -10903.8358 1485.2985 0.0000 0.0000 1737.6230 -7671.6623 292.2011 -9409.2853 -7671.6623 292.2011 76.5064 149.5835 30499.5885 76.5064 149.5835
ENERGY: 300000 2.1810 2.2707 1.2750 0.0000 -10826.4877 1488.7170 0.0000 0.0000 1776.0091 -7556.0349 298.6561 -9332.0440 -7604.0005 296.9884 259.1774 263.3635 31104.8289 -77.9137 -15.9087
ENERGY: 600000 4.1099 2.4414 1.2182 0.0000 -10755.3258 1372.5345 0.0000 0.0000 1785.8062 -7589.2157 300.3036 -9375.0218 -7581.0276 298.3016 -857.3237 -869.8062 31167.3828 -157.7953 -95.9115
ENERGY: 900000 4.9733 1.4712 1.6257 0.0000 -10885.1591 1510.8108 0.0000 0.0000 1789.6785 -7576.5997 300.9548 -9366.2781 -7573.4999 299.8156 174.2032 244.4591 30955.7443 -121.7811 -62.4175
ENERGY: 1200000 5.7789 7.2374 5.3136 0.0000 -10883.0669 1492.2567 0.0000 0.0000 1804.3313 -7568.1490 303.4188 -9372.4803 -7569.4685 300.6629 302.6812 414.5809 30873.1606 -39.2111 23.0286
ENERGY: 1500000 4.4736 1.6539 2.4435 0.0000 -10737.8472 1354.4709 0.0000 0.0000 1815.1691 -7559.6361 305.2413 -9374.8052 -7570.8179 301.1218 -1071.2335 -994.2637 31169.1081 -50.7467 11.7990
TCL: Exiting due to exit command.
