Info: SIMULATION PARAMETERS:
Info: TIMESTEP               2
Info: NUMBER OF STEPS        0
Info: STEPS PER CYCLE        10
Info: PERIODIC CELL BASIS 1  31.1109 0 0
Info: PERIODIC CELL BASIS 2  0 31.4673 0
Info: PERIODIC CELL BASIS 3  0 0 31.6743
Info: PERIODIC CELL CENTER   0 0 0
Info: WRAPPING WATERS AROUND PERIODIC BOUNDARIES ON OUTPUT.
Info: WRAPPING ALL CLUSTERS AROUND PERIODIC BOUNDARIES ON OUTPUT.
Info: FIRST LDB TIMESTEP     50
Info: LAST LDB TIMESTEP     -1
Info: HOM BACKGROUND SCALING 1
Info: PME BACKGROUND SCALING 1
Info: MIN ATOMS PER PATCH    40
Info: EMPTY PATCH LOAD       40 ATOMS
Info: VELOCITY FILE          mobley_3761215_equil.vel
Info: CENTER OF MASS MOVING INITIALLY? NO
Info: DIELECTRIC             1
Info: EXCLUDE                SCALED ONE-FOUR
Info: 1-4 ELECTROSTATICS SCALED BY 0.833333
Info: MODIFIED 1-4 VDW PARAMETERS WILL BE USED
Info: DCD FILENAME           mobley_3761215_prod.dcd
Info: DCD FREQUENCY          100000
Info: DCD FIRST STEP         100000
Info: DCD FILE WILL CONTAIN UNIT CELL DATA
Info: XST FILENAME           mobley_3761215_prod.xst
Info: XST FREQUENCY          100000
Info: NO VELOCITY DCD OUTPUT
Info: NO FORCE DCD OUTPUT
Info: OUTPUT FILENAME        mobley_3761215_prod
Info: BINARY OUTPUT FILES WILL BE USED
Info: RESTART FILENAME       mobley_3761215_prod.restart
Info: RESTART FREQUENCY      100000
Info: BINARY RESTART FILES WILL BE USED
Info: CUTOFF                 9
Info: PAIRLIST DISTANCE      11
Info: PAIRLIST SHRINK RATE   0.01
Info: PAIRLIST GROW RATE     0.01
Info: PAIRLIST TRIGGER       0.3
Info: PAIRLISTS PER CYCLE    2
Info: PAIRLISTS ENABLED
Info: MARGIN                 2
Info: HYDROGEN GROUP CUTOFF  2.5
Info: PATCH DIMENSION        15.5
Info: ENERGY OUTPUT STEPS    100000
Info: ENERGY EVALUATION STEPS    100000
Info: OUTPUT ENERGY PRECISION 4
Info: CROSSTERM ENERGY INCLUDED IN DIHEDRAL
Info: TIMING OUTPUT STEPS    1000000
Info: PRESSURE OUTPUT STEPS  100000
Info: ALCHEMICAL FEP ON
Info: FEP CURRENT LAMBDA VALUE     1
Info: FEP COMPARISON LAMBDA VALUE  0.95
Info: FEP INTRA-ALCHEMICAL NON-BONDED INTERACTIONS WILL BE RETAINED
Info: FEP INTRA-ALCHEMICAL BONDED INTERACTIONS WILL BE RETAINED
Info: FEP VDW SHIFTING COEFFICIENT 5
Info: FEP ELEC. ACTIVE FOR ANNIHILATED PARTICLES BETWEEN LAMBDA = 0 AND LAMBDA = 0.5
Info: FEP ELEC. ACTIVE FOR EXNIHILATED PARTICLES BETWEEN LAMBDA = 0.5 AND LAMBDA = 1
Info: FEP VDW ACTIVE FOR ANNIHILATED PARTICLES BETWEEN LAMBDA = 0 AND LAMBDA = 1
Info: FEP VDW ACTIVE FOR EXNIHILATED PARTICLES BETWEEN LAMBDA = 0 AND LAMBDA = 1
Info: FEP BOND ACTIVE FOR ANNIHILATED PARTICLES BETWEEN LAMBDA = 1 AND LAMBDA = 1
Info: FEP BOND ACTIVE FOR EXNIHILATED PARTICLES BETWEEN LAMBDA = 0 AND LAMBDA = 0
Info: LANGEVIN DYNAMICS ACTIVE
Info: LANGEVIN TEMPERATURE   300
Info: LANGEVIN USING BBK INTEGRATOR
Info: LANGEVIN DAMPING COEFFICIENT IS 1 INVERSE PS
Info: LANGEVIN DYNAMICS APPLIED TO HYDROGENS
Info: LANGEVIN PISTON PRESSURE CONTROL ACTIVE
Info:        TARGET PRESSURE IS 1.01325 BAR
Info:     OSCILLATION PERIOD IS 50 FS
Info:             DECAY TIME IS 25 FS
Info:     PISTON TEMPERATURE IS 300 K
Info:       PRESSURE CONTROL IS GROUP-BASED
Info:    INITIAL STRAIN RATE IS -0.000255689 -0.000255689 -0.000255689
Info:       CELL FLUCTUATION IS ISOTROPIC
Info: PARTICLE MESH EWALD (PME) ACTIVE
Info: PME TOLERANCE               1e-06
Info: PME EWALD COEFFICIENT       0.348832
Info: PME INTERPOLATION ORDER     4
Info: PME GRID DIMENSIONS         32 32 32
Info: PME MAXIMUM GRID SPACING    1
Info: PME CALCULATION WILL BE PERFORMED ON GPU
Info: FULL ELECTROSTATIC EVALUATION FREQUENCY      2
Info: USING VERLET I (r-RESPA) MTS SCHEME.
Info: C1 SPLITTING OF LONG RANGE ELECTROSTATICS
Info: PLACING ATOMS IN PATCHES BY HYDROGEN GROUPS
Info: RIGID BONDS TO HYDROGEN : ALL
Info:         ERROR TOLERANCE : 1e-08
Info:          MAX ITERATIONS : 100
Info: RIGID WATER USING SETTLE ALGORITHM
Info: RANDOM NUMBER SEED     1743504652
Info: USE HYDROGEN BONDS?    NO
Info: Using AMBER format force field!
Info: AMBER PARM FILE        mobley_3761215.prmtop
Info: COORDINATE PDB         mobley_3761215.pdb
Info: Exclusions will be read from PARM file!
Info: SCNB (VDW SCALING)     2
Info: USING ARITHMETIC MEAN TO COMBINE L-J SIGMA PARAMETERS
Info: BINARY COORDINATES     mobley_3761215_equil.coor
Info: SUMMARY OF PARAMETERS:
Info: 5 BONDS
Info: 4 ANGLES
Info:   4 HARMONIC
Info:   0 COSINE-BASED
Info: 2 DIHEDRAL
Info: 0 IMPROPER
Info: 0 CROSSTERM
Info: 0 VDW
Info: 15 VDW_PAIRS
Info: 0 NBTHOLE_PAIRS
Info: To read alchdata from file: mobley_3761215.pdb
Info: To read alchflag data from column: 5
Info: STRUCTURE SUMMARY:
Info: 2954 ATOMS
Info: 2953 BONDS
Info: 12 ANGLES
Info: 18 DIHEDRALS
Info: 0 IMPROPERS
Info: 0 CROSSTERMS
Info: 2974 EXCLUSIONS
Info: 2949 RIGID BONDS
Info: ALCH: 0 ATOMS TO DISAPPEAR IN FINAL STATE
Info: ALCH: 8 ATOMS TO APPEAR IN FINAL STATE
Info: 5913 DEGREES OF FREEDOM
Info: 987 HYDROGEN GROUPS
Info: 4 ATOMS IN LARGEST HYDROGEN GROUP
Info: 987 MIGRATION GROUPS
Info: 4 ATOMS IN LARGEST MIGRATION GROUP
Info: TOTAL MASS = 17825.1 amu
Info: TOTAL CHARGE = 0.000100031 e
Info: MASS DENSITY = 0.95458 g/cm^3
Info: ATOM DENSITY = 0.0952646 atoms/A^3
Info: ADDED 0 IMPLICIT EXCLUSIONS
Info: NONBONDED TABLE R-SQUARED SPACING: 0.0625
Info: NONBONDED TABLE SIZE: 705 POINTS
Info: REDUCING NUMBER OF PATCHES TO IMPROVE LOAD BALANCE
Info: REMOVING COM VELOCITY 0.0888497 0.14042 -0.223653
Info: Use 3D box decompostion in PME FFT.
Info: Updated CUDA force table with 4096 elements.
Info: Updated CUDA LJ table with 5 x 5 elements.
Info: Found 11 unique exclusion lists needing 16 bytes
TCL: Running for 1500000 steps
ETITLE: TS BOND ANGLE DIHED IMPRP ELECT VDW BOUNDARY MISC KINETIC TOTAL TEMP POTENTIAL TOTALAVG TEMPAVG PRESSURE GPRESSURE VOLUME PRESSAVG GPRESSAVG
ENERGY: 0 0.3416 4.3684 2.2521 0.0000 -10675.4341 1427.1160 0.0000 0.0000 1770.6572 -7470.6988 301.3818 -9241.3560 -7470.6988 301.3818 -181.1832 -100.8991 31008.3760 -181.1832 -100.8991
ENERGY: 300000 1.0907 1.2578 2.2495 0.0000 -10639.6592 1351.9084 0.0000 0.0000 1762.9615 -7520.1913 300.0719 -9283.1528 -7542.6320 297.8966 -572.0400 -501.6769 30389.3806 -84.5270 -21.0070
ENERGY: 600000 0.6589 4.9450 2.2482 0.0000 -10814.5741 1494.9342 0.0000 0.0000 1777.5783 -7534.2094 302.5598 -9311.7878 -7519.7264 299.2746 130.1663 215.5772 30675.1762 -159.4617 -106.7741
ENERGY: 900000 0.9484 4.6196 2.2532 0.0000 -10792.9495 1492.1668 0.0000 0.0000 1723.1493 -7569.8121 293.2955 -9292.9614 -7510.5148 298.9119 606.6781 680.1769 30048.1341 -150.3821 -99.4647
ENERGY: 1200000 2.2372 2.4258 2.2500 0.0000 -10654.5729 1313.8499 0.0000 0.0000 1783.8190 -7549.9910 303.6220 -9333.8100 -7527.4507 298.8864 -1191.3092 -1125.8326 30525.3047 -317.5031 -269.1708
ENERGY: 1500000 0.6955 5.7497 2.2476 0.0000 -10681.2812 1386.9790 0.0000 0.0000 1833.4970 -7452.1123 312.0777 -9285.6093 -7513.7106 300.3153 -460.0801 -390.5202 30649.8961 -325.0853 -273.3208
TCL: Running FEP window   2: Lambda1 0.95   Lambda2 0.8999999999999999 [dLambda -0.050000000000000044]
TCL: Setting parameter firsttimestep to 0
TCL: Setting parameter alchLambda to 0.95
Info: NONBONDED TABLE R-SQUARED SPACING: 0.0625
Info: NONBONDED TABLE SIZE: 705 POINTS
TCL: Setting parameter alchLambda2 to 0.8999999999999999
Info: NONBONDED TABLE R-SQUARED SPACING: 0.0625
Info: NONBONDED TABLE SIZE: 705 POINTS
TCL: Running for 1500000 steps
ETITLE: TS BOND ANGLE DIHED IMPRP ELECT VDW BOUNDARY MISC KINETIC TOTAL TEMP POTENTIAL TOTALAVG TEMPAVG PRESSURE GPRESSURE VOLUME PRESSAVG GPRESSAVG
ENERGY: 0 0.6955 5.7497 2.2476 0.0000 -10681.0398 1387.2629 0.0000 0.0000 1832.6295 -7452.4544 311.9300 -9285.0839 -7452.4544 311.9300 -489.1120 -396.8257 30649.8961 -489.1120 -396.8257
ENERGY: 300000 0.3827 2.7566 2.2537 0.0000 -10711.9451 1406.1450 0.0000 0.0000 1742.3759 -7558.0312 296.5680 -9300.4071 -7529.4804 301.9352 -473.8480 -462.4021 31010.0893 -261.4980 -208.6246
ENERGY: 600000 0.5159 2.2468 2.2500 0.0000 -10608.6676 1353.0102 0.0000 0.0000 1737.1042 -7513.5406 295.6708 -9250.6448 -7512.7109 300.6018 -693.7562 -620.2391 30732.2652 -124.3145 -67.5597
ENERGY: 900000 0.7198 3.2458 2.2477 0.0000 -10765.9066 1525.5152 0.0000 0.0000 1746.3681 -7487.8101 297.2476 -9234.1781 -7517.6104 300.1042 690.1404 796.3383 30573.8692 -21.5632 39.8425
ENERGY: 1200000 0.8414 2.8125 2.2524 0.0000 -10638.8027 1392.9624 0.0000 0.0000 1779.6203 -7460.3137 302.9074 -9239.9340 -7520.9229 299.7428 -312.0319 -271.2130 30854.3104 -0.8958 65.7994
ENERGY: 1500000 0.6118 2.0856 2.2477 0.0000 -10645.7102 1413.0095 0.0000 0.0000 1763.1268 -7464.6289 300.1000 -9227.7557 -7515.4376 299.4815 62.0146 128.3691 30344.0599 40.6456 104.2199
TCL: Running FEP window   3: Lambda1 0.8999999999999999 Lambda2 0.8499999999999999 [dLambda -0.050000000000000044]
TCL: Setting parameter firsttimestep to 0
TCL: Setting parameter alchLambda to 0.8999999999999999
Info: NONBONDED TABLE R-SQUARED SPACING: 0.0625
Info: NONBONDED TABLE SIZE: 705 POINTS
TCL: Setting parameter alchLambda2 to 0.8499999999999999
Info: NONBONDED TABLE R-SQUARED SPACING: 0.0625
Info: NONBONDED TABLE SIZE: 705 POINTS
TCL: Running for 1500000 steps
ETITLE: TS BOND ANGLE DIHED IMPRP ELECT VDW BOUNDARY MISC KINETIC TOTAL TEMP POTENTIAL TOTALAVG TEMPAVG PRESSURE GPRESSURE VOLUME PRESSAVG GPRESSAVG
ENERGY: 0 0.6118 2.0856 2.2477 0.0000 -10645.2411 1413.4776 0.0000 0.0000 1762.2446 -7464.5739 299.9499 -9226.8184 -7464.5739 299.9499 32.5274 123.6698 30344.0599 32.5274 123.6698
ENERGY: 300000 0.4486 3.4423 2.2467 0.0000 -10681.9014 1444.8462 0.0000 0.0000 1784.1239 -7446.7937 303.6739 -9230.9176 -7457.2944 300.4996 108.6317 181.5498 30564.5670 75.2966 158.8761
ENERGY: 600000 0.3234 3.2577 2.2481 0.0000 -10653.8803 1407.7785 0.0000 0.0000 1809.5892 -7430.6832 308.0084 -9240.2725 -7469.1565 300.5588 -304.8834 -165.1927 30792.1943 -120.4879 -20.9036
ENERGY: 900000 1.0353 1.9692 2.2479 0.0000 -10866.3346 1494.9950 0.0000 0.0000 1760.4001 -7605.6871 299.6359 -9366.0872 -7491.2529 300.4796 211.1349 325.1677 30149.7670 -18.3395 83.9816
ENERGY: 1200000 1.7567 4.7478 2.2538 0.0000 -10744.7816 1478.3037 0.0000 0.0000 1778.9324 -7478.7872 302.7903 -9257.7196 -7490.4992 300.2326 -5.4073 83.8702 30851.9942 15.2889 109.2666
ENERGY: 1500000 0.6199 1.7683 2.2488 0.0000 -10790.1945 1533.8756 0.0000 0.0000 1745.1021 -7506.5798 297.0321 -9251.6819 -7496.6773 299.4641 622.5705 686.3203 30634.6700 63.4297 150.7196
TCL: Running FEP window   4: Lambda1 0.8499999999999999 Lambda2 0.7999999999999998 [dLambda -0.050000000000000044]
TCL: Setting parameter firsttimestep to 0
TCL: Setting parameter alchLambda to 0.8499999999999999
Info: NONBONDED TABLE R-SQUARED SPACING: 0.0625
Info: NONBONDED TABLE SIZE: 705 POINTS
TCL: Setting parameter alchLambda2 to 0.7999999999999998
Info: NONBONDED TABLE R-SQUARED SPACING: 0.0625
Info: NONBONDED TABLE SIZE: 705 POINTS
TCL: Running for 1500000 steps
ETITLE: TS BOND ANGLE DIHED IMPRP ELECT VDW BOUNDARY MISC KINETIC TOTAL TEMP POTENTIAL TOTALAVG TEMPAVG PRESSURE GPRESSURE VOLUME PRESSAVG GPRESSAVG
ENERGY: 0 0.6199 1.7683 2.2488 0.0000 -10790.1404 1534.1397 0.0000 0.0000 1744.2335 -7507.1302 296.8842 -9251.3637 -7507.1302 296.8842 588.9731 679.5740 30634.6700 588.9731 679.5740
ENERGY: 300000 0.2822 2.8732 2.2466 0.0000 -10827.9352 1470.3956 0.0000 0.0000 1738.3727 -7613.7648 295.8867 -9352.1375 -7553.8890 296.9696 -72.0728 23.1109 30406.2153 125.7755 175.7017
ENERGY: 600000 1.9607 1.3515 2.2490 0.0000 -10597.8673 1361.3437 0.0000 0.0000 1795.7938 -7435.1686 305.6602 -9230.9623 -7506.2389 300.5619 -321.6008 -335.0542 30207.8304 17.2112 63.7620
ENERGY: 900000 0.3958 4.2597 2.2507 0.0000 -10721.8055 1443.3234 0.0000 0.0000 1758.6843 -7512.8917 299.3439 -9271.5760 -7520.8815 299.6065 -97.7732 -56.0752 30818.9830 61.7899 108.7826
ENERGY: 1200000 0.6609 1.7173 2.2493 0.0000 -10767.1975 1477.8727 0.0000 0.0000 1833.0075 -7451.6898 311.9944 -9284.6973 -7516.7468 301.0414 453.0108 557.2107 30205.4328 56.7230 108.7386
ENERGY: 1500000 0.2232 5.6519 2.2477 0.0000 -10642.5466 1408.8199 0.0000 0.0000 1751.3289 -7474.2750 298.0919 -9225.6039 -7506.7110 301.5377 -160.2897 -85.9107 30477.6075 -51.4181 8.1785
TCL: Running FEP window   5: Lambda1 0.7999999999999998 Lambda2 0.7499999999999998 [dLambda -0.050000000000000044]
TCL: Setting parameter firsttimestep to 0
TCL: Setting parameter alchLambda to 0.7999999999999998
Info: NONBONDED TABLE R-SQUARED SPACING: 0.0625
Info: NONBONDED TABLE SIZE: 705 POINTS
TCL: Setting parameter alchLambda2 to 0.7499999999999998
Info: NONBONDED TABLE R-SQUARED SPACING: 0.0625
Info: NONBONDED TABLE SIZE: 705 POINTS
TCL: Running for 1500000 steps
ETITLE: TS BOND ANGLE DIHED IMPRP ELECT VDW BOUNDARY MISC KINETIC TOTAL TEMP POTENTIAL TOTALAVG TEMPAVG PRESSURE GPRESSURE VOLUME PRESSAVG GPRESSAVG
ENERGY: 0 0.2232 5.6519 2.2477 0.0000 -10642.3460 1408.9550 0.0000 0.0000 1750.4508 -7474.8173 297.9425 -9225.2681 -7474.8173 297.9425 -176.9200 -94.1385 30477.6075 -176.9200 -94.1385
ENERGY: 300000 1.9430 1.8700 2.2488 0.0000 -10699.8234 1442.3239 0.0000 0.0000 1685.4603 -7565.9774 286.8805 -9251.4377 -7540.9522 294.9294 256.0661 299.3839 30330.2466 158.7016 211.0172
ENERGY: 600000 1.4120 4.1880 2.2525 0.0000 -10793.0703 1484.6485 0.0000 0.0000 1801.2780 -7499.2914 306.5937 -9300.5694 -7516.7028 299.7732 567.3086 620.7194 30062.4844 144.7176 198.1850
ENERGY: 900000 1.2231 3.4449 2.2498 0.0000 -10731.3121 1483.0178 0.0000 0.0000 1724.9165 -7516.4600 293.5963 -9241.3765 -7513.3942 300.2503 192.1723 291.3658 30747.0339 133.0484 184.4492
ENERGY: 1200000 0.7771 3.8531 2.2491 0.0000 -10794.6911 1446.5053 0.0000 0.0000 1786.6061 -7554.7004 304.0964 -9341.3065 -7517.5683 300.9173 -112.0273 -57.6533 30519.3411 122.2442 173.8018
ENERGY: 1500000 0.3728 2.1352 2.2486 0.0000 -10662.4857 1349.4616 0.0000 0.0000 1802.1149 -7506.1526 306.7362 -9308.2675 -7516.1636 300.3476 -898.0318 -796.7572 30634.4896 11.7647 65.1570
TCL: Running FEP window   6: Lambda1 0.7499999999999998 Lambda2 0.6999999999999997 [dLambda -0.050000000000000044]
TCL: Setting parameter firsttimestep to 0
TCL: Setting parameter alchLambda to 0.7499999999999998
Info: NONBONDED TABLE R-SQUARED SPACING: 0.0625
Info: NONBONDED TABLE SIZE: 705 POINTS
TCL: Setting parameter alchLambda2 to 0.6999999999999997
Info: NONBONDED TABLE R-SQUARED SPACING: 0.0625
Info: NONBONDED TABLE SIZE: 705 POINTS
TCL: Running for 1500000 steps
ETITLE: TS BOND ANGLE DIHED IMPRP ELECT VDW BOUNDARY MISC KINETIC TOTAL TEMP POTENTIAL TOTALAVG TEMPAVG PRESSURE GPRESSURE VOLUME PRESSAVG GPRESSAVG
ENERGY: 0 0.3728 2.1352 2.2486 0.0000 -10662.3474 1349.3712 0.0000 0.0000 1801.2427 -7506.9769 306.5877 -9308.2196 -7506.9769 306.5877 -886.7754 -808.1891 30634.4896 -886.7754 -808.1891
ENERGY: 300000 0.5820 2.6189 2.2516 0.0000 -10569.8660 1316.1610 0.0000 0.0000 1778.2038 -7470.0487 302.6663 -9248.2525 -7496.5279 304.1033 -870.7502 -779.4883 30609.6366 -650.0601 -549.2698
ENERGY: 600000 0.3725 1.5067 2.2499 0.0000 -10827.8513 1486.7675 0.0000 0.0000 1761.2791 -7575.6756 299.7855 -9336.9547 -7527.4770 300.7564 417.8930 388.4570 30199.5272 -375.7500 -303.1879
ENERGY: 900000 1.4821 3.5059 2.2519 0.0000 -10678.1104 1483.7736 0.0000 0.0000 1797.8569 -7389.2399 306.0114 -9187.0969 -7539.3938 299.7627 697.0511 711.3905 30574.7728 -123.1901 -59.3445
ENERGY: 1200000 1.4641 2.4170 2.2508 0.0000 -10597.8439 1364.7677 0.0000 0.0000 1777.8051 -7449.1392 302.5984 -9226.9444 -7524.4187 300.2294 -467.4951 -472.1304 30908.9943 -18.0958 39.5189
ENERGY: 1500000 0.9159 1.4459 2.2494 0.0000 -10869.1578 1490.6069 0.0000 0.0000 1842.4537 -7531.4859 313.6022 -9373.9396 -7522.7304 300.8870 472.1314 582.4001 29814.8524 16.0083 81.4378
TCL: Running FEP window   7: Lambda1 0.6999999999999997 Lambda2 0.6499999999999997 [dLambda -0.050000000000000044]
TCL: Setting parameter firsttimestep to 0
TCL: Setting parameter alchLambda to 0.6999999999999997
Info: NONBONDED TABLE R-SQUARED SPACING: 0.0625
Info: NONBONDED TABLE SIZE: 705 POINTS
TCL: Setting parameter alchLambda2 to 0.6499999999999997
Info: NONBONDED TABLE R-SQUARED SPACING: 0.0625
Info: NONBONDED TABLE SIZE: 705 POINTS
TCL: Running for 1500000 steps
ETITLE: TS BOND ANGLE DIHED IMPRP ELECT VDW BOUNDARY MISC KINETIC TOTAL TEMP POTENTIAL TOTALAVG TEMPAVG PRESSURE GPRESSURE VOLUME PRESSAVG GPRESSAVG
ENERGY: 0 0.9159 1.4459 2.2494 0.0000 -10868.9406 1490.9997 0.0000 0.0000 1841.5640 -7531.7657 313.4508 -9373.3297 -7531.7657 313.4508 487.1736 579.4660 29814.8524 487.1736 579.4660
ENERGY: 300000 0.3715 2.5128 2.2511 0.0000 -10748.2220 1426.4048 0.0000 0.0000 1797.7710 -7518.9107 305.9968 -9316.6817 -7536.5843 305.6584 -295.1272 -232.8244 30645.7766 177.2978 259.9122
ENERGY: 600000 0.6573 3.7122 2.2474 0.0000 -10815.5897 1520.7222 0.0000 0.0000 1756.8502 -7531.4006 299.0317 -9288.2508 -7516.7956 303.6426 582.4821 660.8311 30477.8784 45.5057 115.6703
ENERGY: 900000 0.9677 2.2445 2.2511 0.0000 -10848.6352 1477.2246 0.0000 0.0000 1800.3301 -7565.6173 306.4324 -9365.9474 -7522.7726 302.6532 541.5859 520.0358 29906.7878 -10.0299 58.0565
ENERGY: 1200000 1.7263 5.6370 2.2488 0.0000 -10880.7164 1492.0342 0.0000 0.0000 1796.0018 -7583.0684 305.6957 -9379.0702 -7522.4186 302.3368 303.7195 357.4294 30102.9066 -27.8147 36.5239
ENERGY: 1500000 0.8781 2.9638 2.2543 0.0000 -10830.6960 1459.5435 0.0000 0.0000 1804.1055 -7560.9507 307.0750 -9365.0562 -7520.7817 302.8624 165.0262 231.4541 29959.6322 -21.6899 42.8102
TCL: Running FEP window   8: Lambda1 0.6499999999999997 Lambda2 0.5999999999999996 [dLambda -0.050000000000000044]
TCL: Setting parameter firsttimestep to 0
TCL: Setting parameter alchLambda to 0.6499999999999997
Info: NONBONDED TABLE R-SQUARED SPACING: 0.0625
Info: NONBONDED TABLE SIZE: 705 POINTS
TCL: Setting parameter alchLambda2 to 0.5999999999999996
Info: NONBONDED TABLE R-SQUARED SPACING: 0.0625
Info: NONBONDED TABLE SIZE: 705 POINTS
TCL: Running for 1500000 steps
ETITLE: TS BOND ANGLE DIHED IMPRP ELECT VDW BOUNDARY MISC KINETIC TOTAL TEMP POTENTIAL TOTALAVG TEMPAVG PRESSURE GPRESSURE VOLUME PRESSAVG GPRESSAVG
ENERGY: 0 0.8781 2.9638 2.2543 0.0000 -10830.6331 1459.7779 0.0000 0.0000 1803.2286 -7561.5303 306.9257 -9364.7589 -7561.5303 306.9257 123.5564 229.1953 29959.6322 123.5564 229.1953
ENERGY: 300000 0.9093 3.5696 2.2469 0.0000 -10798.7723 1486.3166 0.0000 0.0000 1759.3953 -7546.3345 299.4649 -9305.7299 -7543.6583 299.5448 478.7384 566.6223 30204.2741 106.1252 169.9376
ENERGY: 600000 1.0212 4.4278 2.2499 0.0000 -10795.0259 1490.9608 0.0000 0.0000 1678.7991 -7617.5671 285.7467 -9296.3662 -7561.5649 296.9257 507.0210 582.0376 29960.9528 96.9732 175.5851
ENERGY: 900000 1.1444 2.4577 2.2495 0.0000 -10792.7016 1471.2562 0.0000 0.0000 1782.9928 -7532.6010 303.4814 -9315.5938 -7555.7559 297.9797 94.7225 175.3366 30493.9256 73.7221 145.2570
ENERGY: 1200000 0.3357 2.4476 2.2503 0.0000 -10730.6238 1466.7404 0.0000 0.0000 1769.0814 -7489.7685 301.1136 -9258.8498 -7549.6987 297.8618 406.3013 425.0536 30367.6448 4.8771 67.8662
ENERGY: 1500000 1.2739 3.2065 2.2481 0.0000 -10758.5189 1459.8662 0.0000 0.0000 1812.0151 -7479.9091 308.4213 -9291.9242 -7540.3829 298.9528 328.8702 337.9973 30401.4741 46.7148 99.9240
TCL: Running FEP window   9: Lambda1 0.5999999999999996 Lambda2 0.5499999999999996 [dLambda -0.050000000000000044]
TCL: Setting parameter firsttimestep to 0
TCL: Setting parameter alchLambda to 0.5999999999999996
Info: NONBONDED TABLE R-SQUARED SPACING: 0.0625
Info: NONBONDED TABLE SIZE: 705 POINTS
TCL: Setting parameter alchLambda2 to 0.5499999999999996
Info: NONBONDED TABLE R-SQUARED SPACING: 0.0625
Info: NONBONDED TABLE SIZE: 705 POINTS
TCL: Running for 1500000 steps
ETITLE: TS BOND ANGLE DIHED IMPRP ELECT VDW BOUNDARY MISC KINETIC TOTAL TEMP POTENTIAL TOTALAVG TEMPAVG PRESSURE GPRESSURE VOLUME PRESSAVG GPRESSAVG
ENERGY: 0 1.2739 3.2065 2.2481 0.0000 -10758.1574 1460.2956 0.0000 0.0000 1811.1227 -7480.0106 308.2694 -9291.1334 -7480.0106 308.2694 259.4191 335.1573 30401.4741 259.4191 335.1573
ENERGY: 300000 2.4054 2.0757 2.2517 0.0000 -10554.7700 1370.4258 0.0000 0.0000 1778.6652 -7398.9462 302.7448 -9177.6114 -7469.7824 301.0832 -401.3422 -375.5497 30751.2941 -290.6167 -260.5992
ENERGY: 600000 1.0137 4.6037 2.2497 0.0000 -10810.3630 1486.6272 0.0000 0.0000 1763.2160 -7552.6527 300.1152 -9315.8687 -7495.9042 300.6928 346.7532 452.9011 30232.6699 -109.9743 -66.1476
ENERGY: 900000 1.4312 1.5432 2.2508 0.0000 -10765.1067 1420.3038 0.0000 0.0000 1748.8803 -7590.6975 297.6752 -9339.5778 -7513.2583 300.0826 -280.2501 -285.7050 30510.3018 -82.7586 -49.3499
ENERGY: 1200000 2.4714 1.6803 2.2506 0.0000 -10863.1437 1564.3279 0.0000 0.0000 1794.2290 -7498.1845 305.3939 -9292.4135 -7501.5551 301.2905 724.6341 753.6276 30654.4503 10.4367 43.3197
ENERGY: 1500000 1.9250 3.2249 2.2459 0.0000 -10779.8592 1486.4193 0.0000 0.0000 1812.1137 -7473.9303 308.4381 -9286.0440 -7503.4835 301.9075 191.6571 185.3212 30779.1299 25.4725 56.7201
TCL: Running FEP window  10: Lambda1 0.5499999999999996 Lambda2 0.4999999999999996 [dLambda -0.04999999999999999]
TCL: Setting parameter firsttimestep to 0
TCL: Setting parameter alchLambda to 0.5499999999999996
Info: NONBONDED TABLE R-SQUARED SPACING: 0.0625
Info: NONBONDED TABLE SIZE: 705 POINTS
TCL: Setting parameter alchLambda2 to 0.4999999999999996
Info: NONBONDED TABLE R-SQUARED SPACING: 0.0625
Info: NONBONDED TABLE SIZE: 705 POINTS
TCL: Running for 1500000 steps
ETITLE: TS BOND ANGLE DIHED IMPRP ELECT VDW BOUNDARY MISC KINETIC TOTAL TEMP POTENTIAL TOTALAVG TEMPAVG PRESSURE GPRESSURE VOLUME PRESSAVG GPRESSAVG
ENERGY: 0 1.9250 3.2249 2.2459 0.0000 -10779.7222 1486.7074 0.0000 0.0000 1811.2152 -7474.4038 308.2851 -9285.6190 -7474.4038 308.2851 115.6332 178.4371 30779.1299 115.6332 178.4371
ENERGY: 300000 0.4121 5.2817 2.2534 0.0000 -10695.7200 1489.7366 0.0000 0.0000 1811.9080 -7386.1282 308.4030 -9198.0362 -7476.6949 307.2232 471.7246 531.5996 30637.9525 31.5933 78.0718
ENERGY: 600000 0.3351 2.7938 2.2493 0.0000 -10806.5141 1499.4220 0.0000 0.0000 1776.2898 -7525.4241 302.3405 -9301.7139 -7503.4832 302.4519 288.3772 386.3760 30646.1996 -8.8192 37.4697
ENERGY: 900000 0.7435 2.3010 2.2503 0.0000 -10596.3814 1379.8414 0.0000 0.0000 1807.7824 -7403.4628 307.7008 -9211.2453 -7502.5248 302.6252 -566.3023 -499.2209 31189.1281 -84.8628 -36.0059
ENERGY: 1200000 0.9187 7.4559 2.2454 0.0000 -10932.5591 1537.1892 0.0000 0.0000 1755.4393 -7629.3107 298.7916 -9384.7499 -7514.8371 301.2687 669.6476 649.0449 30051.3188 15.0262 55.7323
ENERGY: 1500000 1.4191 2.5936 2.2505 0.0000 -10778.0428 1496.2493 0.0000 0.0000 1768.3707 -7507.1597 300.9926 -9275.5304 -7520.1474 300.0218 402.0420 464.8392 30382.4141 -33.3302 14.5078
TCL: Running FEP window  11: Lambda1 0.4999999999999996 Lambda2 0.4499999999999996 [dLambda -0.04999999999999999]
TCL: Setting parameter firsttimestep to 0
TCL: Setting parameter alchLambda to 0.4999999999999996
Info: NONBONDED TABLE R-SQUARED SPACING: 0.0625
Info: NONBONDED TABLE SIZE: 705 POINTS
TCL: Setting parameter alchLambda2 to 0.4499999999999996
Info: NONBONDED TABLE R-SQUARED SPACING: 0.0625
Info: NONBONDED TABLE SIZE: 705 POINTS
TCL: Running for 1500000 steps
ETITLE: TS BOND ANGLE DIHED IMPRP ELECT VDW BOUNDARY MISC KINETIC TOTAL TEMP POTENTIAL TOTALAVG TEMPAVG PRESSURE GPRESSURE VOLUME PRESSAVG GPRESSAVG
ENERGY: 0 1.4191 2.5936 2.2505 0.0000 -10778.2275 1496.4945 0.0000 0.0000 1767.4730 -7507.9968 300.8398 -9275.4698 -7507.9968 300.8398 380.8200 462.7377 30382.4141 380.8200 462.7377
ENERGY: 300000 0.3005 4.2713 2.2508 0.0000 -10599.3299 1392.0177 0.0000 0.0000 1754.3207 -7446.1688 298.6012 -9200.4895 -7491.8823 302.7174 -236.2512 -205.5240 30826.3094 -380.7353 -316.9713
ENERGY: 600000 2.0791 1.3864 2.2487 0.0000 -10794.2609 1449.1382 0.0000 0.0000 1752.6464 -7586.7621 298.3162 -9339.4085 -7508.1224 302.5091 -129.3051 -39.9455 30322.2594 -447.7336 -367.9498
ENERGY: 900000 2.9988 3.1469 2.2473 0.0000 -10800.6713 1408.9146 0.0000 0.0000 1762.8950 -7620.4686 300.0606 -9383.3636 -7515.3046 302.6226 -485.1322 -443.9313 30459.3642 -359.2622 -287.6091
ENERGY: 1200000 1.4590 2.5356 2.2482 0.0000 -10761.0780 1494.9852 0.0000 0.0000 1789.6618 -7470.1882 304.6165 -9259.8500 -7517.5040 301.8390 665.3482 730.2910 30155.0744 -245.6789 -174.3390
ENERGY: 1500000 0.5271 3.4220 2.2478 0.0000 -10730.8847 1379.5037 0.0000 0.0000 1779.5018 -7565.6823 302.8872 -9345.1841 -7527.4406 300.8488 -551.9440 -481.6468 30188.7240 -320.9755 -245.3633
TCL: Running FEP window  12: Lambda1 0.4499999999999996 Lambda2 0.39999999999999963 [dLambda -0.04999999999999999]
TCL: Setting parameter firsttimestep to 0
TCL: Setting parameter alchLambda to 0.4499999999999996
Info: NONBONDED TABLE R-SQUARED SPACING: 0.0625
Info: NONBONDED TABLE SIZE: 705 POINTS
TCL: Setting parameter alchLambda2 to 0.39999999999999963
Info: NONBONDED TABLE R-SQUARED SPACING: 0.0625
Info: NONBONDED TABLE SIZE: 705 POINTS
TCL: Running for 1500000 steps
ETITLE: TS BOND ANGLE DIHED IMPRP ELECT VDW BOUNDARY MISC KINETIC TOTAL TEMP POTENTIAL TOTALAVG TEMPAVG PRESSURE GPRESSURE VOLUME PRESSAVG GPRESSAVG
ENERGY: 0 0.5271 3.4220 2.2478 0.0000 -10730.8840 1379.7759 0.0000 0.0000 1778.6392 -7566.2720 302.7404 -9344.9112 -7566.2720 302.7404 -566.4796 -486.3944 30188.7240 -566.4796 -486.3944
ENERGY: 300000 1.1527 3.0525 2.2467 0.0000 -10574.5187 1329.9860 0.0000 0.0000 1788.5508 -7449.5300 304.4274 -9238.0808 -7510.2193 300.8153 -1012.8585 -955.4296 30835.9964 -153.8242 -104.2686
ENERGY: 600000 1.0867 1.1564 2.2507 0.0000 -10785.1909 1420.1650 0.0000 0.0000 1796.9745 -7563.5576 305.8612 -9360.5321 -7514.5611 301.0164 -341.5754 -340.7539 30301.3183 -94.4073 -67.8174
ENERGY: 900000 0.7633 1.1639 2.2500 0.0000 -10759.7496 1441.3579 0.0000 0.0000 1838.1233 -7476.0912 312.8651 -9314.2145 -7503.8990 301.7681 143.7996 258.1852 30101.2962 -82.8827 -43.3783
ENERGY: 1200000 0.4922 4.4527 2.2514 0.0000 -10702.4199 1451.6255 0.0000 0.0000 1752.8185 -7490.7796 298.3455 -9243.5981 -7506.0586 300.7405 273.2778 242.6222 30207.7007 -69.5956 -26.1066
ENERGY: 1500000 0.6284 3.8310 2.2506 0.0000 -10667.5363 1432.1534 0.0000 0.0000 1757.5986 -7471.0743 299.1591 -9228.6729 -7508.4537 300.2447 61.0452 117.4220 30443.7094 -48.3371 5.8603
TCL: Running FEP window  13: Lambda1 0.39999999999999963 Lambda2 0.34999999999999964 [dLambda -0.04999999999999999]
TCL: Setting parameter firsttimestep to 0
TCL: Setting parameter alchLambda to 0.39999999999999963
Info: NONBONDED TABLE R-SQUARED SPACING: 0.0625
Info: NONBONDED TABLE SIZE: 705 POINTS
TCL: Setting parameter alchLambda2 to 0.34999999999999964
Info: NONBONDED TABLE R-SQUARED SPACING: 0.0625
Info: NONBONDED TABLE SIZE: 705 POINTS
TCL: Running for 1500000 steps
ETITLE: TS BOND ANGLE DIHED IMPRP ELECT VDW BOUNDARY MISC KINETIC TOTAL TEMP POTENTIAL TOTALAVG TEMPAVG PRESSURE GPRESSURE VOLUME PRESSAVG GPRESSAVG
ENERGY: 0 0.6284 3.8310 2.2506 0.0000 -10667.5353 1432.6003 0.0000 0.0000 1756.7604 -7471.4646 299.0164 -9228.2250 -7471.4646 299.0164 33.0180 116.9409 30443.7094 33.0180 116.9409
ENERGY: 300000 1.2325 2.8509 2.2515 0.0000 -10784.2601 1439.2875 0.0000 0.0000 1799.5742 -7539.0635 306.3037 -9338.6377 -7512.5809 302.9137 -50.4353 0.9359 30023.8877 73.0094 139.0316
ENERGY: 600000 1.3942 3.5082 2.2469 0.0000 -10802.3759 1443.4448 0.0000 0.0000 1753.4995 -7598.2824 298.4614 -9351.7819 -7517.5520 301.8345 -151.7715 -79.7700 30318.9730 -46.0554 18.9963
ENERGY: 900000 0.6205 2.5187 2.2523 0.0000 -10753.1312 1438.3149 0.0000 0.0000 1843.5798 -7465.8449 313.7939 -9309.4247 -7507.6793 302.4504 50.3717 129.7175 30250.9539 -97.4370 -26.3138
ENERGY: 1200000 1.1954 3.2897 2.2484 0.0000 -10828.4431 1480.3663 0.0000 0.0000 1811.9561 -7529.3872 308.4112 -9341.3434 -7511.0367 303.0782 135.4280 194.9594 30250.1256 -109.6706 -34.8866
ENERGY: 1500000 1.2440 4.2662 2.2483 0.0000 -10866.1339 1533.4105 0.0000 0.0000 1725.3038 -7599.6611 293.6622 -9324.9649 -7525.4804 301.4622 565.2695 632.5791 30104.9943 -29.2317 45.3628
TCL: Running FEP window  14: Lambda1 0.34999999999999964 Lambda2 0.29999999999999966 [dLambda -0.04999999999999999]
TCL: Setting parameter firsttimestep to 0
TCL: Setting parameter alchLambda to 0.34999999999999964
Info: NONBONDED TABLE R-SQUARED SPACING: 0.0625
Info: NONBONDED TABLE SIZE: 705 POINTS
TCL: Setting parameter alchLambda2 to 0.29999999999999966
Info: NONBONDED TABLE R-SQUARED SPACING: 0.0625
Info: NONBONDED TABLE SIZE: 705 POINTS
TCL: Running for 1500000 steps
ETITLE: TS BOND ANGLE DIHED IMPRP ELECT VDW BOUNDARY MISC KINETIC TOTAL TEMP POTENTIAL TOTALAVG TEMPAVG PRESSURE GPRESSURE VOLUME PRESSAVG GPRESSAVG
ENERGY: 0 1.2440 4.2662 2.2483 0.0000 -10866.1355 1533.0494 0.0000 0.0000 1724.3955 -7600.9321 293.5076 -9325.3276 -7600.9321 293.5076 553.2111 625.3909 30104.9943 553.2111 625.3909
ENERGY: 300000 1.2864 1.9419 2.2506 0.0000 -10584.2663 1355.0854 0.0000 0.0000 1727.3739 -7496.3282 294.0146 -9223.7021 -7519.6052 297.6782 -603.8454 -539.0570 30871.1788 -104.8211 -69.2895
ENERGY: 600000 1.8179 5.1104 2.2502 0.0000 -10731.9565 1503.1824 0.0000 0.0000 1758.5503 -7461.0452 299.3211 -9219.5955 -7515.6530 298.2341 453.3991 534.5487 30550.5142 -62.0633 -1.8645
ENERGY: 900000 1.1211 2.6754 2.2494 0.0000 -10671.1114 1448.3484 0.0000 0.0000 1738.9083 -7477.8088 295.9778 -9216.7171 -7524.2474 298.0141 -10.4717 57.4278 30937.0768 -69.0057 -13.7693
ENERGY: 1200000 0.3135 3.9477 2.2461 0.0000 -10737.6182 1479.7785 0.0000 0.0000 1770.5314 -7480.8011 301.3604 -9251.3325 -7517.4940 298.8791 239.5084 309.3959 30483.6277 -34.0735 24.8899
ENERGY: 1500000 1.2679 0.8707 2.2504 0.0000 -10842.0454 1470.0484 0.0000 0.0000 1752.2284 -7615.3797 298.2450 -9367.6082 -7519.1788 299.4564 -173.9481 -131.0893 30613.6751 -50.8692 11.1812
TCL: Running FEP window  15: Lambda1 0.29999999999999966 Lambda2 0.24999999999999967 [dLambda -0.04999999999999999]
TCL: Setting parameter firsttimestep to 0
TCL: Setting parameter alchLambda to 0.29999999999999966
Info: NONBONDED TABLE R-SQUARED SPACING: 0.0625
Info: NONBONDED TABLE SIZE: 705 POINTS
TCL: Setting parameter alchLambda2 to 0.24999999999999967
Info: NONBONDED TABLE R-SQUARED SPACING: 0.0625
Info: NONBONDED TABLE SIZE: 705 POINTS
TCL: Running for 1500000 steps
ETITLE: TS BOND ANGLE DIHED IMPRP ELECT VDW BOUNDARY MISC KINETIC TOTAL TEMP POTENTIAL TOTALAVG TEMPAVG PRESSURE GPRESSURE VOLUME PRESSAVG GPRESSAVG
ENERGY: 0 1.2679 0.8707 2.2504 0.0000 -10842.0453 1470.5490 0.0000 0.0000 1751.3785 -7615.7289 298.1004 -9367.1074 -7615.7289 298.1004 -225.4506 -131.9899 30613.6751 -225.4506 -131.9899
ENERGY: 300000 0.9035 1.6824 2.2502 0.0000 -10796.0960 1506.8617 0.0000 0.0000 1750.4360 -7533.9621 297.9400 -9284.3982 -7561.3850 298.3135 589.1352 673.1716 30146.3846 483.8372 548.6877
ENERGY: 600000 0.3553 1.5152 2.2479 0.0000 -10721.1706 1401.6385 0.0000 0.0000 1818.3574 -7497.0563 309.5008 -9315.4137 -7538.3269 302.4189 -388.1571 -293.0634 30235.1139 139.3857 205.6405
ENERGY: 900000 1.5926 1.0773 2.2498 0.0000 -10803.8629 1478.7060 0.0000 0.0000 1776.1278 -7544.1094 302.3129 -9320.2372 -7550.2084 302.1406 106.7493 213.7948 30347.9492 107.7282 168.6753
ENERGY: 1200000 1.4942 3.2724 2.2512 0.0000 -10686.0951 1418.2840 0.0000 0.0000 1737.2004 -7523.5929 295.6871 -9260.7933 -7541.1476 301.9761 -61.6097 -69.9585 30352.5818 52.5662 105.4419
ENERGY: 1500000 1.4638 4.1448 2.2509 0.0000 -10586.0600 1298.3883 0.0000 0.0000 1750.3784 -7529.4340 297.9301 -9279.8124 -7544.5910 300.7952 -1343.2023 -1257.4381 30483.1271 -1.7127 59.3911
TCL: Running FEP window  16: Lambda1 0.24999999999999967 Lambda2 0.19999999999999968 [dLambda -0.04999999999999999]
TCL: Setting parameter firsttimestep to 0
TCL: Setting parameter alchLambda to 0.24999999999999967
Info: NONBONDED TABLE R-SQUARED SPACING: 0.0625
Info: NONBONDED TABLE SIZE: 705 POINTS
TCL: Setting parameter alchLambda2 to 0.19999999999999968
Info: NONBONDED TABLE R-SQUARED SPACING: 0.0625
Info: NONBONDED TABLE SIZE: 705 POINTS
TCL: Running for 1500000 steps
ETITLE: TS BOND ANGLE DIHED IMPRP ELECT VDW BOUNDARY MISC KINETIC TOTAL TEMP POTENTIAL TOTALAVG TEMPAVG PRESSURE GPRESSURE VOLUME PRESSAVG GPRESSAVG
ENERGY: 0 1.4638 4.1448 2.2509 0.0000 -10586.0605 1297.4160 0.0000 0.0000 1749.4662 -7531.3189 297.7749 -9280.7851 -7531.3189 297.7749 -1343.1349 -1264.4904 30483.1271 -1343.1349 -1264.4904
ENERGY: 300000 1.3273 1.3419 2.2494 0.0000 -10640.7067 1361.7929 0.0000 0.0000 1797.8519 -7476.1434 306.0106 -9273.9953 -7449.2158 303.0835 -590.0986 -593.3847 30671.7256 -606.1081 -546.4690
ENERGY: 600000 1.3156 3.3149 2.2494 0.0000 -10620.3616 1401.9427 0.0000 0.0000 1763.1567 -7448.3823 300.1051 -9211.5390 -7462.3081 301.6780 -197.4730 -240.5339 30817.1189 -434.2481 -394.4732
ENERGY: 900000 0.9869 2.8363 2.2501 0.0000 -10654.0278 1372.9527 0.0000 0.0000 1797.9419 -7477.0599 306.0259 -9275.0018 -7478.3190 302.3606 -469.8239 -369.0222 30367.0116 -357.8929 -306.0378
ENERGY: 1200000 0.3357 3.4838 2.2490 0.0000 -10713.8762 1411.3982 0.0000 0.0000 1803.8145 -7492.5950 307.0254 -9296.4095 -7491.0046 301.6588 -19.5940 -28.2686 30041.5091 -303.9317 -257.1151
ENERGY: 1500000 1.3124 1.5803 2.2504 0.0000 -10722.3062 1438.9265 0.0000 0.0000 1737.3390 -7540.8977 295.7107 -9278.2367 -7496.8167 301.0678 -199.5072 -120.4188 30414.3064 -297.5103 -246.6712
TCL: Running FEP window  17: Lambda1 0.19999999999999968 Lambda2 0.1499999999999997 [dLambda -0.04999999999999999]
TCL: Setting parameter firsttimestep to 0
TCL: Setting parameter alchLambda to 0.19999999999999968
Info: NONBONDED TABLE R-SQUARED SPACING: 0.0625
Info: NONBONDED TABLE SIZE: 705 POINTS
TCL: Setting parameter alchLambda2 to 0.1499999999999997
Info: NONBONDED TABLE R-SQUARED SPACING: 0.0625
Info: NONBONDED TABLE SIZE: 705 POINTS
TCL: Running for 1500000 steps
ETITLE: TS BOND ANGLE DIHED IMPRP ELECT VDW BOUNDARY MISC KINETIC TOTAL TEMP POTENTIAL TOTALAVG TEMPAVG PRESSURE GPRESSURE VOLUME PRESSAVG GPRESSAVG
ENERGY: 0 1.3124 1.5803 2.2504 0.0000 -10722.3059 1438.9198 0.0000 0.0000 1736.4936 -7541.7495 295.5668 -9278.2431 -7541.7495 295.5668 -198.7521 -125.8984 30414.3064 -198.7521 -125.8984
ENERGY: 300000 0.4810 1.1601 2.2507 0.0000 -10625.9582 1372.3703 0.0000 0.0000 1747.6710 -7502.0252 297.4693 -9249.6961 -7536.5419 295.0289 -466.4439 -444.6421 30447.3418 -624.0370 -588.5879
ENERGY: 600000 0.8504 4.8913 2.2492 0.0000 -10815.4112 1546.3147 0.0000 0.0000 1797.3684 -7463.7372 305.9283 -9261.1056 -7547.5563 297.5257 927.1687 985.8794 30190.9875 -328.8897 -274.5546
ENERGY: 900000 0.4130 3.4257 2.2525 0.0000 -10646.3427 1434.8265 0.0000 0.0000 1755.8017 -7449.6233 298.8532 -9205.4250 -7536.6847 297.1958 140.8099 219.1200 30596.6623 -231.1802 -171.6496
ENERGY: 1200000 1.5740 3.9807 2.2490 0.0000 -10835.4150 1506.6032 0.0000 0.0000 1753.7311 -7567.2770 298.5008 -9321.0080 -7538.4902 297.7491 361.0645 408.1530 30438.3797 -146.6318 -88.9102
ENERGY: 1500000 2.0306 4.8243 2.2509 0.0000 -10615.5009 1422.3171 0.0000 0.0000 1747.7814 -7436.2964 297.4881 -9184.0778 -7530.1680 297.5404 -4.3259 151.6784 30426.1749 -115.0442 -52.7524
TCL: Running FEP window  18: Lambda1 0.1499999999999997 Lambda2 0.09999999999999969 [dLambda -0.05 ]
TCL: Setting parameter firsttimestep to 0
TCL: Setting parameter alchLambda to 0.1499999999999997
Info: NONBONDED TABLE R-SQUARED SPACING: 0.0625
Info: NONBONDED TABLE SIZE: 705 POINTS
TCL: Setting parameter alchLambda2 to 0.09999999999999969
Info: NONBONDED TABLE R-SQUARED SPACING: 0.0625
Info: NONBONDED TABLE SIZE: 705 POINTS
TCL: Running for 1500000 steps
ETITLE: TS BOND ANGLE DIHED IMPRP ELECT VDW BOUNDARY MISC KINETIC TOTAL TEMP POTENTIAL TOTALAVG TEMPAVG PRESSURE GPRESSURE VOLUME PRESSAVG GPRESSAVG
ENERGY: 0 2.0306 4.8244 2.2509 0.0000 -10615.5012 1422.5656 0.0000 0.0000 1746.8820 -7436.9476 297.3350 -9183.8297 -7436.9476 297.3350 70.9617 149.4112 30426.1749 70.9617 149.4112
ENERGY: 300000 1.0553 3.4921 2.2508 0.0000 -10714.4804 1450.8441 0.0000 0.0000 1763.9186 -7492.9195 300.2348 -9256.8381 -7495.1742 301.1676 -20.3000 112.3669 30256.1347 -131.1070 -53.3334
ENERGY: 600000 1.1497 2.3704 2.2504 0.0000 -10716.0869 1451.9656 0.0000 0.0000 1738.0322 -7520.3185 295.8287 -9258.3507 -7523.3174 298.3478 69.9555 67.6785 30587.7103 -53.7332 -1.8757
ENERGY: 900000 2.1527 3.0408 2.2519 0.0000 -10721.8720 1399.4782 0.0000 0.0000 1722.9448 -7592.0036 293.2607 -9314.9484 -7512.7557 298.5678 -624.9149 -551.5581 30518.1214 -102.7446 -47.5966
ENERGY: 1200000 1.3776 2.4770 2.2516 0.0000 -10686.4633 1432.2645 0.0000 0.0000 1762.3297 -7485.7628 299.9644 -9248.0926 -7515.2429 298.7772 -60.1464 -4.0954 30509.9730 -112.2548 -49.1482
ENERGY: 1500000 1.1247 5.1637 2.2513 0.0000 -10756.0293 1422.6118 0.0000 0.0000 1724.0968 -7600.7810 293.4568 -9324.8778 -7520.4431 298.4630 -312.8723 -219.4261 30309.0916 -197.9956 -139.0399
TCL: Running FEP window  19: Lambda1 0.09999999999999969 Lambda2 0.049999999999999684 [dLambda -0.05 ]
TCL: Setting parameter firsttimestep to 0
TCL: Setting parameter alchLambda to 0.09999999999999969
Info: NONBONDED TABLE R-SQUARED SPACING: 0.0625
Info: NONBONDED TABLE SIZE: 705 POINTS
TCL: Setting parameter alchLambda2 to 0.049999999999999684
Info: NONBONDED TABLE R-SQUARED SPACING: 0.0625
Info: NONBONDED TABLE SIZE: 705 POINTS
TCL: Running for 1500000 steps
ETITLE: TS BOND ANGLE DIHED IMPRP ELECT VDW BOUNDARY MISC KINETIC TOTAL TEMP POTENTIAL TOTALAVG TEMPAVG PRESSURE GPRESSURE VOLUME PRESSAVG GPRESSAVG
ENERGY: 0 1.1247 5.1637 2.2513 0.0000 -10756.0296 1422.1861 0.0000 0.0000 1723.2144 -7602.0894 293.3066 -9325.3038 -7602.0894 293.3066 -303.9968 -222.2707 30309.0916 -303.9968 -222.2707
ENERGY: 300000 1.6434 1.9387 2.2516 0.0000 -10837.3550 1521.3794 0.0000 0.0000 1769.1388 -7541.0031 301.1233 -9310.1420 -7539.1941 299.2199 455.6000 509.9409 30507.0766 380.1497 409.4819
ENERGY: 600000 0.4766 3.4169 2.2530 0.0000 -10750.0144 1397.6089 0.0000 0.0000 1775.9994 -7570.2596 302.2911 -9346.2590 -7536.8562 299.9012 -392.2968 -344.8051 29867.5457 20.2270 53.2827
ENERGY: 900000 0.5868 2.8281 2.2488 0.0000 -10797.0332 1506.7211 0.0000 0.0000 1807.0079 -7477.6404 307.5690 -9284.6484 -7524.3078 300.6453 626.5618 626.8305 30055.7591 134.6239 170.7497
ENERGY: 1200000 0.5858 2.0235 2.2482 0.0000 -10750.6301 1444.9248 0.0000 0.0000 1767.6572 -7533.1906 300.8711 -9300.8478 -7518.9237 300.4274 -47.1178 35.1771 30298.8604 37.0012 80.5597
ENERGY: 1500000 0.1506 3.2641 2.2479 0.0000 -10706.4177 1424.1791 0.0000 0.0000 1777.9857 -7498.5904 302.6292 -9276.5761 -7526.8042 300.7694 -330.2323 -280.2020 30902.9063 65.4950 116.7305
TCL: Running FEP window  20: Lambda1 0.049999999999999684 Lambda2 0.0    [dLambda -0.049999999999999684]
TCL: Setting parameter firsttimestep to 0
TCL: Setting parameter alchLambda to 0.049999999999999684
Info: NONBONDED TABLE R-SQUARED SPACING: 0.0625
Info: NONBONDED TABLE SIZE: 705 POINTS
TCL: Setting parameter alchLambda2 to 0.0
Info: NONBONDED TABLE R-SQUARED SPACING: 0.0625
Info: NONBONDED TABLE SIZE: 705 POINTS
TCL: Running for 1500000 steps
ETITLE: TS BOND ANGLE DIHED IMPRP ELECT VDW BOUNDARY MISC KINETIC TOTAL TEMP POTENTIAL TOTALAVG TEMPAVG PRESSURE GPRESSURE VOLUME PRESSAVG GPRESSAVG
ENERGY: 0 0.1506 3.2641 2.2479 0.0000 -10706.4173 1424.5864 0.0000 0.0000 1777.1102 -7499.0582 302.4801 -9276.1684 -7499.0582 302.4801 -363.7370 -279.9741 30902.9063 -363.7370 -279.9741
ENERGY: 300000 0.6161 3.4283 2.2495 0.0000 -10755.2925 1452.1180 0.0000 0.0000 1743.7591 -7553.1216 296.8035 -9296.8807 -7550.3216 293.5700 -92.4078 26.7299 30254.3818 -265.0603 -183.2917
ENERGY: 600000 0.3444 1.6625 2.2505 0.0000 -10753.3842 1494.3867 0.0000 0.0000 1800.4707 -7454.2695 306.4563 -9254.7402 -7529.5491 295.8806 635.6859 729.8311 30219.1089 -181.0171 -103.8589
ENERGY: 900000 0.7554 4.9497 2.2528 0.0000 -10751.5004 1435.4204 0.0000 0.0000 1809.1102 -7499.0119 307.9268 -9308.1221 -7527.5405 297.8918 -83.0969 26.7362 30312.3672 -151.3736 -62.8858
ENERGY: 1200000 0.7070 3.3151 2.2537 0.0000 -10865.8922 1491.0097 0.0000 0.0000 1719.4077 -7649.1990 292.6587 -9368.6067 -7538.0717 297.5860 184.8069 256.7896 30031.9833 -84.5312 -3.8339
ENERGY: 1500000 0.8009 2.3815 2.2487 0.0000 -10785.9040 1485.6196 0.0000 0.0000 1774.4835 -7520.3698 302.0331 -9294.8534 -7533.7300 298.5098 108.8677 201.8292 30535.3306 -164.8843 -82.8299
TCL: Exiting due to exit command.
