Info: SIMULATION PARAMETERS:
Info: TIMESTEP               2
Info: NUMBER OF STEPS        0
Info: STEPS PER CYCLE        10
Info: PERIODIC CELL BASIS 1  31.824 0 0
Info: PERIODIC CELL BASIS 2  0 31.6242 0
Info: PERIODIC CELL BASIS 3  0 0 30.6528
Info: PERIODIC CELL CENTER   0 0 0
Info: WRAPPING WATERS AROUND PERIODIC BOUNDARIES ON OUTPUT.
Info: WRAPPING ALL CLUSTERS AROUND PERIODIC BOUNDARIES ON OUTPUT.
Info: FIRST LDB TIMESTEP     50
Info: LAST LDB TIMESTEP     -1
Info: HOM BACKGROUND SCALING 1
Info: PME BACKGROUND SCALING 1
Info: MIN ATOMS PER PATCH    40
Info: EMPTY PATCH LOAD       40 ATOMS
Info: VELOCITY FILE          mobley_1659169_equil.vel
Info: CENTER OF MASS MOVING INITIALLY? NO
Info: DIELECTRIC             1
Info: EXCLUDE                SCALED ONE-FOUR
Info: 1-4 ELECTROSTATICS SCALED BY 0.833333
Info: MODIFIED 1-4 VDW PARAMETERS WILL BE USED
Info: DCD FILENAME           mobley_1659169_prod.dcd
Info: DCD FREQUENCY          100000
Info: DCD FIRST STEP         100000
Info: DCD FILE WILL CONTAIN UNIT CELL DATA
Info: XST FILENAME           mobley_1659169_prod.xst
Info: XST FREQUENCY          100000
Info: NO VELOCITY DCD OUTPUT
Info: NO FORCE DCD OUTPUT
Info: OUTPUT FILENAME        mobley_1659169_prod
Info: BINARY OUTPUT FILES WILL BE USED
Info: RESTART FILENAME       mobley_1659169_prod.restart
Info: RESTART FREQUENCY      100000
Info: BINARY RESTART FILES WILL BE USED
Info: CUTOFF                 9
Info: PAIRLIST DISTANCE      11
Info: PAIRLIST SHRINK RATE   0.01
Info: PAIRLIST GROW RATE     0.01
Info: PAIRLIST TRIGGER       0.3
Info: PAIRLISTS PER CYCLE    2
Info: PAIRLISTS ENABLED
Info: MARGIN                 2
Info: HYDROGEN GROUP CUTOFF  2.5
Info: PATCH DIMENSION        15.5
Info: ENERGY OUTPUT STEPS    100000
Info: ENERGY EVALUATION STEPS    100000
Info: OUTPUT ENERGY PRECISION 4
Info: CROSSTERM ENERGY INCLUDED IN DIHEDRAL
Info: TIMING OUTPUT STEPS    1000000
Info: PRESSURE OUTPUT STEPS  100000
Info: ALCHEMICAL FEP ON
Info: FEP CURRENT LAMBDA VALUE     1
Info: FEP COMPARISON LAMBDA VALUE  0.95
Info: FEP INTRA-ALCHEMICAL NON-BONDED INTERACTIONS WILL BE RETAINED
Info: FEP INTRA-ALCHEMICAL BONDED INTERACTIONS WILL BE RETAINED
Info: FEP VDW SHIFTING COEFFICIENT 5
Info: FEP ELEC. ACTIVE FOR ANNIHILATED PARTICLES BETWEEN LAMBDA = 0 AND LAMBDA = 0.5
Info: FEP ELEC. ACTIVE FOR EXNIHILATED PARTICLES BETWEEN LAMBDA = 0.5 AND LAMBDA = 1
Info: FEP VDW ACTIVE FOR ANNIHILATED PARTICLES BETWEEN LAMBDA = 0 AND LAMBDA = 1
Info: FEP VDW ACTIVE FOR EXNIHILATED PARTICLES BETWEEN LAMBDA = 0 AND LAMBDA = 1
Info: FEP BOND ACTIVE FOR ANNIHILATED PARTICLES BETWEEN LAMBDA = 1 AND LAMBDA = 1
Info: FEP BOND ACTIVE FOR EXNIHILATED PARTICLES BETWEEN LAMBDA = 0 AND LAMBDA = 0
Info: LANGEVIN DYNAMICS ACTIVE
Info: LANGEVIN TEMPERATURE   300
Info: LANGEVIN USING BBK INTEGRATOR
Info: LANGEVIN DAMPING COEFFICIENT IS 1 INVERSE PS
Info: LANGEVIN DYNAMICS APPLIED TO HYDROGENS
Info: LANGEVIN PISTON PRESSURE CONTROL ACTIVE
Info:        TARGET PRESSURE IS 1.01325 BAR
Info:     OSCILLATION PERIOD IS 50 FS
Info:             DECAY TIME IS 25 FS
Info:     PISTON TEMPERATURE IS 300 K
Info:       PRESSURE CONTROL IS GROUP-BASED
Info:    INITIAL STRAIN RATE IS -0.000446936 -0.000446936 -0.000446936
Info:       CELL FLUCTUATION IS ISOTROPIC
Info: PARTICLE MESH EWALD (PME) ACTIVE
Info: PME TOLERANCE               1e-06
Info: PME EWALD COEFFICIENT       0.348832
Info: PME INTERPOLATION ORDER     4
Info: PME GRID DIMENSIONS         32 32 32
Info: PME MAXIMUM GRID SPACING    1
Info: PME CALCULATION WILL BE PERFORMED ON GPU
Info: FULL ELECTROSTATIC EVALUATION FREQUENCY      2
Info: USING VERLET I (r-RESPA) MTS SCHEME.
Info: C1 SPLITTING OF LONG RANGE ELECTROSTATICS
Info: PLACING ATOMS IN PATCHES BY HYDROGEN GROUPS
Info: RIGID BONDS TO HYDROGEN : ALL
Info:         ERROR TOLERANCE : 1e-08
Info:          MAX ITERATIONS : 100
Info: RIGID WATER USING SETTLE ALGORITHM
Info: RANDOM NUMBER SEED     1743586732
Info: USE HYDROGEN BONDS?    NO
Info: Using AMBER format force field!
Info: AMBER PARM FILE        mobley_1659169.prmtop
Info: COORDINATE PDB         mobley_1659169.pdb
Info: Exclusions will be read from PARM file!
Info: SCNB (VDW SCALING)     2
Info: USING ARITHMETIC MEAN TO COMBINE L-J SIGMA PARAMETERS
Info: BINARY COORDINATES     mobley_1659169_equil.coor
Info: SUMMARY OF PARAMETERS:
Info: 7 BONDS
Info: 9 ANGLES
Info:   9 HARMONIC
Info:   0 COSINE-BASED
Info: 8 DIHEDRAL
Info: 0 IMPROPER
Info: 0 CROSSTERM
Info: 0 VDW
Info: 28 VDW_PAIRS
Info: 0 NBTHOLE_PAIRS
Info: To read alchdata from file: mobley_1659169.pdb
Info: To read alchflag data from column: 5
Info: STRUCTURE SUMMARY:
Info: 2955 ATOMS
Info: 2955 BONDS
Info: 28 ANGLES
Info: 44 DIHEDRALS
Info: 0 IMPROPERS
Info: 0 CROSSTERMS
Info: 3016 EXCLUSIONS
Info: 2949 RIGID BONDS
Info: ALCH: 0 ATOMS TO DISAPPEAR IN FINAL STATE
Info: ALCH: 15 ATOMS TO APPEAR IN FINAL STATE
Info: 5916 DEGREES OF FREEDOM
Info: 986 HYDROGEN GROUPS
Info: 3 ATOMS IN LARGEST HYDROGEN GROUP
Info: 986 MIGRATION GROUPS
Info: 3 ATOMS IN LARGEST MIGRATION GROUP
Info: TOTAL MASS = 17742.8 amu
Info: TOTAL CHARGE = -0.000199959 e
Info: MASS DENSITY = 0.955073 g/cm^3
Info: ATOM DENSITY = 0.0957883 atoms/A^3
Info: ADDED 0 IMPLICIT EXCLUSIONS
Info: NONBONDED TABLE R-SQUARED SPACING: 0.0625
Info: NONBONDED TABLE SIZE: 705 POINTS
Info: REDUCING NUMBER OF PATCHES TO IMPROVE LOAD BALANCE
Info: REMOVING COM VELOCITY -0.10631 -0.0740653 -0.139526
Info: Use 3D box decompostion in PME FFT.
Info: Updated CUDA force table with 4096 elements.
Info: Updated CUDA LJ table with 7 x 7 elements.
Info: Found 16 unique exclusion lists needing 36 bytes
TCL: Running for 1500000 steps
ETITLE: TS BOND ANGLE DIHED IMPRP ELECT VDW BOUNDARY MISC KINETIC TOTAL TEMP POTENTIAL TOTALAVG TEMPAVG PRESSURE GPRESSURE VOLUME PRESSAVG GPRESSAVG
ENERGY: 0 2.3333 7.3458 2.8796 0.0000 -10604.2491 1400.8491 0.0000 0.0000 1798.1399 -7392.7013 305.9044 -9190.8412 -7392.7013 305.9044 -358.3328 -282.0312 30849.2740 -358.3328 -282.0312
ENERGY: 300000 1.8655 8.3947 3.0112 0.0000 -10710.3214 1463.1430 0.0000 0.0000 1725.1882 -7508.7188 293.4936 -9233.9070 -7418.3270 300.5002 178.8337 275.7758 30328.2218 87.2380 151.7671
ENERGY: 600000 2.4103 7.9594 4.3155 0.0000 -10780.4443 1532.6738 0.0000 0.0000 1783.6876 -7449.3976 303.4457 -9233.0852 -7446.2190 299.6545 600.6074 610.2337 30636.7514 102.7542 135.9424
ENERGY: 900000 0.6873 7.1365 2.4655 0.0000 -10564.7497 1345.2160 0.0000 0.0000 1757.9999 -7451.2445 299.0757 -9209.2444 -7443.6348 300.8397 -683.9123 -631.3066 30554.0786 -0.1336 47.2932
ENERGY: 1200000 3.5181 4.9768 3.0456 0.0000 -10727.5144 1461.5000 0.0000 0.0000 1732.0185 -7522.4555 294.6556 -9254.4740 -7462.3058 299.6393 -59.5723 -15.8368 30654.3744 -13.9483 31.8774
ENERGY: 1500000 1.3104 7.4094 3.1340 0.0000 -10525.7328 1346.1924 0.0000 0.0000 1784.8348 -7382.8519 303.6409 -9167.6867 -7458.0191 299.6484 -468.1554 -422.8644 30680.8774 -43.8202 3.5018
TCL: Running FEP window   2: Lambda1 0.95   Lambda2 0.8999999999999999 [dLambda -0.050000000000000044]
TCL: Setting parameter firsttimestep to 0
TCL: Setting parameter alchLambda to 0.95
Info: NONBONDED TABLE R-SQUARED SPACING: 0.0625
Info: NONBONDED TABLE SIZE: 705 POINTS
TCL: Setting parameter alchLambda2 to 0.8999999999999999
Info: NONBONDED TABLE R-SQUARED SPACING: 0.0625
Info: NONBONDED TABLE SIZE: 705 POINTS
TCL: Running for 1500000 steps
ETITLE: TS BOND ANGLE DIHED IMPRP ELECT VDW BOUNDARY MISC KINETIC TOTAL TEMP POTENTIAL TOTALAVG TEMPAVG PRESSURE GPRESSURE VOLUME PRESSAVG GPRESSAVG
ENERGY: 0 1.3104 7.4094 3.1340 0.0000 -10523.7083 1345.5533 0.0000 0.0000 1783.9561 -7382.3452 303.4914 -9166.3012 -7382.3452 303.4914 -518.8936 -433.3584 30680.8774 -518.8936 -433.3584
ENERGY: 300000 3.1304 7.0400 3.8012 0.0000 -10746.2928 1465.7587 0.0000 0.0000 1776.7162 -7489.8462 302.2597 -9266.5625 -7449.0383 300.1735 176.2850 231.0806 30145.4301 512.1466 578.8054
ENERGY: 600000 2.1967 5.8496 4.0747 0.0000 -10665.0169 1384.9462 0.0000 0.0000 1769.9433 -7498.0063 301.1075 -9267.9497 -7456.4801 300.1504 -670.3853 -572.2230 30470.2105 236.7145 307.5081
ENERGY: 900000 1.1016 5.9116 2.8988 0.0000 -10767.8870 1450.4742 0.0000 0.0000 1800.5269 -7506.9738 306.3105 -9307.5007 -7457.2042 302.0117 -74.5221 -16.0514 30203.9736 142.5438 208.7674
ENERGY: 1200000 1.2942 7.3397 2.8982 0.0000 -10605.6912 1366.9761 0.0000 0.0000 1810.8609 -7416.3220 308.0685 -9227.1829 -7462.7759 302.2401 -410.7987 -309.0621 30155.9478 128.9030 199.8806
ENERGY: 1500000 3.7070 5.3627 2.8329 0.0000 -10648.8252 1409.3266 0.0000 0.0000 1804.7931 -7422.8029 307.0362 -9227.5960 -7464.3151 302.6243 -385.4388 -313.1610 30522.7827 58.0547 122.5299
TCL: Running FEP window   3: Lambda1 0.8999999999999999 Lambda2 0.8499999999999999 [dLambda -0.050000000000000044]
TCL: Setting parameter firsttimestep to 0
TCL: Setting parameter alchLambda to 0.8999999999999999
Info: NONBONDED TABLE R-SQUARED SPACING: 0.0625
Info: NONBONDED TABLE SIZE: 705 POINTS
TCL: Setting parameter alchLambda2 to 0.8499999999999999
Info: NONBONDED TABLE R-SQUARED SPACING: 0.0625
Info: NONBONDED TABLE SIZE: 705 POINTS
TCL: Running for 1500000 steps
ETITLE: TS BOND ANGLE DIHED IMPRP ELECT VDW BOUNDARY MISC KINETIC TOTAL TEMP POTENTIAL TOTALAVG TEMPAVG PRESSURE GPRESSURE VOLUME PRESSAVG GPRESSAVG
ENERGY: 0 3.7070 5.3627 2.8329 0.0000 -10646.6892 1408.3405 0.0000 0.0000 1803.9148 -7422.5312 306.8868 -9226.4460 -7422.5312 306.8868 -427.4069 -329.7134 30522.7827 -427.4069 -329.7134
ENERGY: 300000 6.3204 8.3444 4.2563 0.0000 -10635.4482 1472.6062 0.0000 0.0000 1792.7571 -7351.1639 304.9886 -9143.9209 -7394.1305 305.9292 450.0057 480.7643 30340.9340 350.9128 419.1476
ENERGY: 600000 1.9349 3.0968 2.7155 0.0000 -10734.0586 1454.5425 0.0000 0.0000 1786.5328 -7485.2360 303.9298 -9271.7688 -7451.2393 302.1795 -117.1109 -21.6465 30614.1378 76.4548 158.5594
ENERGY: 900000 2.7028 5.1211 3.8016 0.0000 -10636.9762 1454.9034 0.0000 0.0000 1799.2205 -7371.2267 306.0882 -9170.4472 -7448.8815 302.4061 280.7995 320.6547 30341.6538 147.7036 219.1567
ENERGY: 1200000 3.3198 6.9916 2.7885 0.0000 -10632.0158 1395.1421 0.0000 0.0000 1757.9325 -7465.8412 299.0642 -9223.7737 -7461.5287 301.6324 -510.5386 -443.4647 30784.6997 27.1730 97.5001
ENERGY: 1500000 4.5173 6.5272 2.9099 0.0000 -10700.5031 1451.3854 0.0000 0.0000 1834.0619 -7401.1013 312.0155 -9235.1632 -7452.7216 302.2137 -147.7253 -62.8673 30824.9221 -15.0855 54.7430
TCL: Running FEP window   4: Lambda1 0.8499999999999999 Lambda2 0.7999999999999998 [dLambda -0.050000000000000044]
TCL: Setting parameter firsttimestep to 0
TCL: Setting parameter alchLambda to 0.8499999999999999
Info: NONBONDED TABLE R-SQUARED SPACING: 0.0625
Info: NONBONDED TABLE SIZE: 705 POINTS
TCL: Setting parameter alchLambda2 to 0.7999999999999998
Info: NONBONDED TABLE R-SQUARED SPACING: 0.0625
Info: NONBONDED TABLE SIZE: 705 POINTS
TCL: Running for 1500000 steps
ETITLE: TS BOND ANGLE DIHED IMPRP ELECT VDW BOUNDARY MISC KINETIC TOTAL TEMP POTENTIAL TOTALAVG TEMPAVG PRESSURE GPRESSURE VOLUME PRESSAVG GPRESSAVG
ENERGY: 0 4.5173 6.5272 2.9099 0.0000 -10698.7459 1450.5762 0.0000 0.0000 1833.1899 -7401.0253 311.8672 -9234.2152 -7401.0253 311.8672 -145.8805 -72.4841 30824.9221 -145.8805 -72.4841
ENERGY: 300000 1.6581 6.9231 2.7343 0.0000 -10528.4884 1386.4833 0.0000 0.0000 1835.0302 -7295.6595 312.1803 -9130.6896 -7428.9596 303.5483 -231.5038 -166.7319 30618.2932 166.8515 244.7849
ENERGY: 600000 3.3741 5.9410 3.4879 0.0000 -10698.6003 1388.9926 0.0000 0.0000 1741.3182 -7555.4864 296.2377 -9296.8046 -7445.1636 303.0048 -581.6000 -516.5261 30411.6910 -106.7228 -31.4748
ENERGY: 900000 2.2526 7.3872 3.0781 0.0000 -10592.2583 1339.9163 0.0000 0.0000 1793.2824 -7446.3417 305.0780 -9239.6241 -7448.2622 302.8836 -742.0435 -660.5299 30307.4587 -137.4207 -64.7248
ENERGY: 1200000 2.2736 4.3125 2.8038 0.0000 -10732.9816 1495.2653 0.0000 0.0000 1710.4223 -7517.9041 290.9816 -9228.3264 -7455.6915 300.9083 203.8305 350.8398 30326.6708 -106.4119 -25.4414
ENERGY: 1500000 4.6305 7.0312 2.5388 0.0000 -10686.2955 1492.5426 0.0000 0.0000 1793.5614 -7385.9910 305.1255 -9179.5523 -7447.5403 300.8067 487.1569 513.9598 30472.0921 -45.3179 26.1173
TCL: Running FEP window   5: Lambda1 0.7999999999999998 Lambda2 0.7499999999999998 [dLambda -0.050000000000000044]
TCL: Setting parameter firsttimestep to 0
TCL: Setting parameter alchLambda to 0.7999999999999998
Info: NONBONDED TABLE R-SQUARED SPACING: 0.0625
Info: NONBONDED TABLE SIZE: 705 POINTS
TCL: Setting parameter alchLambda2 to 0.7499999999999998
Info: NONBONDED TABLE R-SQUARED SPACING: 0.0625
Info: NONBONDED TABLE SIZE: 705 POINTS
TCL: Running for 1500000 steps
ETITLE: TS BOND ANGLE DIHED IMPRP ELECT VDW BOUNDARY MISC KINETIC TOTAL TEMP POTENTIAL TOTALAVG TEMPAVG PRESSURE GPRESSURE VOLUME PRESSAVG GPRESSAVG
ENERGY: 0 4.6305 7.0312 2.5388 0.0000 -10684.2257 1491.4895 0.0000 0.0000 1792.7218 -7385.8137 304.9826 -9178.5356 -7385.8137 304.9826 413.8126 497.2011 30472.0921 413.8126 497.2011
ENERGY: 300000 3.9372 5.5542 2.9114 0.0000 -10631.7714 1422.3705 0.0000 0.0000 1774.9632 -7422.0349 301.9615 -9196.9981 -7395.9693 300.1117 -87.3663 11.2990 30373.3902 -40.0155 27.1708
ENERGY: 600000 0.8695 6.4720 3.0871 0.0000 -10691.6150 1412.3266 0.0000 0.0000 1753.4465 -7515.4132 298.3010 -9268.8597 -7440.5853 298.0424 -166.0254 -105.5848 30047.8761 80.5330 138.9827
ENERGY: 900000 1.8025 6.7423 3.4114 0.0000 -10710.4964 1347.3040 0.0000 0.0000 1803.5001 -7547.7361 306.8163 -9351.2361 -7442.4769 299.9956 -853.4077 -863.4084 30236.9696 4.2613 63.0922
ENERGY: 1200000 1.5697 3.2125 2.6981 0.0000 -10676.8809 1399.8444 0.0000 0.0000 1816.3630 -7453.1932 309.0045 -9269.5562 -7443.9955 300.4818 -125.4642 -88.4377 29992.0206 41.9033 105.0922
ENERGY: 1500000 2.1256 5.9582 2.8180 0.0000 -10754.0701 1486.9594 0.0000 0.0000 1742.0557 -7514.1532 296.3632 -9256.2089 -7460.2776 299.2192 264.7974 388.3014 30205.3525 15.8681 78.6136
TCL: Running FEP window   6: Lambda1 0.7499999999999998 Lambda2 0.6999999999999997 [dLambda -0.050000000000000044]
TCL: Setting parameter firsttimestep to 0
TCL: Setting parameter alchLambda to 0.7499999999999998
Info: NONBONDED TABLE R-SQUARED SPACING: 0.0625
Info: NONBONDED TABLE SIZE: 705 POINTS
TCL: Setting parameter alchLambda2 to 0.6999999999999997
Info: NONBONDED TABLE R-SQUARED SPACING: 0.0625
Info: NONBONDED TABLE SIZE: 705 POINTS
TCL: Running for 1500000 steps
ETITLE: TS BOND ANGLE DIHED IMPRP ELECT VDW BOUNDARY MISC KINETIC TOTAL TEMP POTENTIAL TOTALAVG TEMPAVG PRESSURE GPRESSURE VOLUME PRESSAVG GPRESSAVG
ENERGY: 0 2.1256 5.9582 2.8180 0.0000 -10752.7393 1486.6295 0.0000 0.0000 1741.1940 -7514.0140 296.2166 -9255.2080 -7514.0140 296.2166 278.1964 381.3352 30205.3525 278.1964 381.3352
ENERGY: 300000 3.3356 9.2040 2.6318 0.0000 -10710.3424 1406.1185 0.0000 0.0000 1783.0424 -7506.0101 303.3360 -9289.0526 -7498.5708 297.7005 -343.9504 -250.8306 29662.9117 -463.3662 -364.3939
ENERGY: 600000 0.9361 4.4860 3.1376 0.0000 -10643.4647 1369.6511 0.0000 0.0000 1744.9646 -7520.2894 296.8581 -9265.2540 -7500.9040 297.3442 -560.0494 -504.8581 30115.1198 -471.0673 -378.5833
ENERGY: 900000 4.1072 10.7729 2.7606 0.0000 -10716.5688 1497.6298 0.0000 0.0000 1753.4673 -7447.8310 298.3046 -9201.2983 -7504.6114 297.5213 183.8801 277.4224 30832.0199 -100.8435 -15.3875
ENERGY: 1200000 1.9416 5.9693 3.1689 0.0000 -10658.7595 1473.2381 0.0000 0.0000 1750.7672 -7423.6743 297.8452 -9174.4415 -7496.4359 297.4357 361.4378 433.7531 30357.9552 -57.1925 26.1346
ENERGY: 1500000 3.0398 6.1077 3.8179 0.0000 -10743.4559 1540.9069 0.0000 0.0000 1711.5088 -7478.0747 291.1665 -9189.5835 -7483.5814 298.2640 1157.9861 1242.8881 29715.2459 -14.3532 64.1493
TCL: Running FEP window   7: Lambda1 0.6999999999999997 Lambda2 0.6499999999999997 [dLambda -0.050000000000000044]
TCL: Setting parameter firsttimestep to 0
TCL: Setting parameter alchLambda to 0.6999999999999997
Info: NONBONDED TABLE R-SQUARED SPACING: 0.0625
Info: NONBONDED TABLE SIZE: 705 POINTS
TCL: Setting parameter alchLambda2 to 0.6499999999999997
Info: NONBONDED TABLE R-SQUARED SPACING: 0.0625
Info: NONBONDED TABLE SIZE: 705 POINTS
TCL: Running for 1500000 steps
ETITLE: TS BOND ANGLE DIHED IMPRP ELECT VDW BOUNDARY MISC KINETIC TOTAL TEMP POTENTIAL TOTALAVG TEMPAVG PRESSURE GPRESSURE VOLUME PRESSAVG GPRESSAVG
ENERGY: 0 3.0398 6.1077 3.8179 0.0000 -10741.8429 1540.9587 0.0000 0.0000 1710.6115 -7477.3073 291.0138 -9187.9188 -7477.3073 291.0138 1154.2429 1240.1077 29715.2459 1154.2429 1240.1077
ENERGY: 300000 3.0038 5.1537 2.6934 0.0000 -10853.3008 1554.4342 0.0000 0.0000 1750.3576 -7537.6580 297.7755 -9288.0156 -7471.1508 297.5818 753.8780 820.6947 29893.3599 699.6244 784.0375
ENERGY: 600000 0.3036 9.6157 2.8048 0.0000 -10660.8448 1407.9379 0.0000 0.0000 1720.4618 -7519.7211 292.6896 -9240.1829 -7458.9179 297.7156 -197.6915 -104.1842 30194.7288 443.7408 516.5117
ENERGY: 900000 2.1329 6.3104 2.5288 0.0000 -10564.1418 1381.7404 0.0000 0.0000 1810.3087 -7361.1206 307.9746 -9171.4293 -7440.1362 299.3826 -262.4367 -225.1629 30481.8314 187.2036 253.1151
ENERGY: 1200000 2.6843 7.4256 2.5246 0.0000 -10711.2521 1453.4829 0.0000 0.0000 1741.2355 -7503.8991 296.2237 -9245.1346 -7450.4239 299.1222 -105.5963 -64.7070 30595.6532 149.5802 212.7952
ENERGY: 1500000 2.2978 6.7403 3.0785 0.0000 -10641.3329 1437.6608 0.0000 0.0000 1789.4636 -7402.0919 304.4283 -9191.5555 -7445.9273 300.2858 -87.8321 -20.1088 30858.2171 134.8395 199.5176
TCL: Running FEP window   8: Lambda1 0.6499999999999997 Lambda2 0.5999999999999996 [dLambda -0.050000000000000044]
TCL: Setting parameter firsttimestep to 0
TCL: Setting parameter alchLambda to 0.6499999999999997
Info: NONBONDED TABLE R-SQUARED SPACING: 0.0625
Info: NONBONDED TABLE SIZE: 705 POINTS
TCL: Setting parameter alchLambda2 to 0.5999999999999996
Info: NONBONDED TABLE R-SQUARED SPACING: 0.0625
Info: NONBONDED TABLE SIZE: 705 POINTS
TCL: Running for 1500000 steps
ETITLE: TS BOND ANGLE DIHED IMPRP ELECT VDW BOUNDARY MISC KINETIC TOTAL TEMP POTENTIAL TOTALAVG TEMPAVG PRESSURE GPRESSURE VOLUME PRESSAVG GPRESSAVG
ENERGY: 0 2.2978 6.7403 3.0785 0.0000 -10639.0269 1436.4871 0.0000 0.0000 1788.5841 -7401.8390 304.2787 -9190.4231 -7401.8390 304.2787 -113.5737 -30.5330 30858.2171 -113.5737 -30.5330
ENERGY: 300000 1.1076 4.9529 2.7087 0.0000 -10811.4433 1508.6861 0.0000 0.0000 1786.2512 -7507.7367 303.8818 -9293.9880 -7476.9732 303.3248 542.9767 556.5124 29886.7784 135.8778 173.0057
ENERGY: 600000 0.4758 4.7738 2.5555 0.0000 -10687.2506 1417.4109 0.0000 0.0000 1794.6844 -7467.3502 305.3165 -9262.0346 -7451.8623 302.1495 -183.2123 -87.9115 29883.3880 110.0598 153.9396
ENERGY: 900000 2.5268 9.4333 2.8062 0.0000 -10596.3183 1358.9400 0.0000 0.0000 1749.4757 -7473.1363 297.6255 -9222.6119 -7461.0043 301.5290 -391.2263 -345.4717 30081.6393 -23.2389 34.3722
ENERGY: 1200000 3.6319 3.3275 2.6999 0.0000 -10577.8961 1370.0175 0.0000 0.0000 1820.8073 -7377.4120 309.7606 -9198.2193 -7444.8067 301.6696 -432.1787 -391.0300 30448.7384 -51.6447 3.2919
ENERGY: 1500000 2.0163 8.4110 3.1606 0.0000 -10618.1706 1424.2842 0.0000 0.0000 1798.6929 -7381.6056 305.9985 -9180.2986 -7432.3601 302.2901 124.3971 216.6436 30052.5048 -33.3094 24.7295
TCL: Running FEP window   9: Lambda1 0.5999999999999996 Lambda2 0.5499999999999996 [dLambda -0.050000000000000044]
TCL: Setting parameter firsttimestep to 0
TCL: Setting parameter alchLambda to 0.5999999999999996
Info: NONBONDED TABLE R-SQUARED SPACING: 0.0625
Info: NONBONDED TABLE SIZE: 705 POINTS
TCL: Setting parameter alchLambda2 to 0.5499999999999996
Info: NONBONDED TABLE R-SQUARED SPACING: 0.0625
Info: NONBONDED TABLE SIZE: 705 POINTS
TCL: Running for 1500000 steps
ETITLE: TS BOND ANGLE DIHED IMPRP ELECT VDW BOUNDARY MISC KINETIC TOTAL TEMP POTENTIAL TOTALAVG TEMPAVG PRESSURE GPRESSURE VOLUME PRESSAVG GPRESSAVG
ENERGY: 0 2.0163 8.4110 3.1606 0.0000 -10617.7538 1424.7087 0.0000 0.0000 1797.8325 -7381.6248 305.8521 -9179.4573 -7381.6248 305.8521 132.8291 211.2149 30052.5048 132.8291 211.2149
ENERGY: 300000 2.6658 12.9098 3.1089 0.0000 -10768.3356 1419.3297 0.0000 0.0000 1780.4174 -7549.9041 302.8894 -9330.3215 -7419.5712 306.8848 -380.3962 -347.2577 30163.3158 -50.3574 5.6654
ENERGY: 600000 2.2347 6.7052 3.1062 0.0000 -10785.8376 1441.9698 0.0000 0.0000 1769.0215 -7562.8002 300.9507 -9331.8217 -7453.2073 302.5659 -363.7885 -255.3676 30122.3302 -96.5062 -18.9652
ENERGY: 900000 0.8941 7.8119 3.0266 0.0000 -10791.0178 1562.7807 0.0000 0.0000 1789.7334 -7426.7711 304.4742 -9216.5045 -7464.4773 301.2085 976.2050 1057.0528 30359.6240 35.5122 97.8331
ENERGY: 1200000 3.3377 8.0992 3.1451 0.0000 -10719.0879 1482.8631 0.0000 0.0000 1760.5695 -7461.0734 299.5128 -9221.6428 -7456.3696 300.9829 457.1839 571.4622 30141.8170 164.5622 232.5623
ENERGY: 1500000 1.9091 5.6844 2.4799 0.0000 -10842.7626 1523.1532 0.0000 0.0000 1862.1024 -7447.4336 316.7858 -9309.5360 -7452.2524 301.8850 587.6851 623.9923 29944.3356 161.8671 227.5743
TCL: Running FEP window  10: Lambda1 0.5499999999999996 Lambda2 0.4999999999999996 [dLambda -0.04999999999999999]
TCL: Setting parameter firsttimestep to 0
TCL: Setting parameter alchLambda to 0.5499999999999996
Info: NONBONDED TABLE R-SQUARED SPACING: 0.0625
Info: NONBONDED TABLE SIZE: 705 POINTS
TCL: Setting parameter alchLambda2 to 0.4999999999999996
Info: NONBONDED TABLE R-SQUARED SPACING: 0.0625
Info: NONBONDED TABLE SIZE: 705 POINTS
TCL: Running for 1500000 steps
ETITLE: TS BOND ANGLE DIHED IMPRP ELECT VDW BOUNDARY MISC KINETIC TOTAL TEMP POTENTIAL TOTALAVG TEMPAVG PRESSURE GPRESSURE VOLUME PRESSAVG GPRESSAVG
ENERGY: 0 1.9091 5.6844 2.4799 0.0000 -10842.7020 1523.8098 0.0000 0.0000 1861.1979 -7447.6208 316.6320 -9308.8187 -7447.6208 316.6320 538.6350 626.2179 29944.3356 538.6350 626.2179
ENERGY: 300000 1.7899 8.8380 3.2215 0.0000 -10606.8866 1415.0924 0.0000 0.0000 1770.0132 -7407.9316 301.1194 -9177.9449 -7450.5359 303.3020 144.7548 151.2123 30076.3123 329.4846 388.2907
ENERGY: 600000 3.1013 7.5935 3.0929 0.0000 -10710.5340 1436.1218 0.0000 0.0000 1722.9840 -7537.6405 293.1187 -9260.6245 -7460.4506 301.2262 -218.7954 -169.5997 30105.6625 205.5136 262.8450
ENERGY: 900000 1.5475 8.0487 2.5964 0.0000 -10816.7970 1494.0360 0.0000 0.0000 1753.1966 -7557.3717 298.2585 -9310.5683 -7470.0216 301.1709 203.0081 200.0109 30196.0060 97.4708 148.6623
ENERGY: 1200000 2.2949 3.6352 3.0240 0.0000 -10717.9711 1440.9229 0.0000 0.0000 1771.2593 -7496.8348 301.3314 -9268.0940 -7466.0909 301.5996 -315.6000 -243.3035 30576.6744 0.3266 60.8130
ENERGY: 1500000 1.1082 6.2999 2.7835 0.0000 -10639.6208 1450.0952 0.0000 0.0000 1753.8057 -7425.5283 298.3621 -9179.3340 -7465.7118 300.9752 97.2166 174.4496 30350.8639 -38.7687 22.1909
TCL: Running FEP window  11: Lambda1 0.4999999999999996 Lambda2 0.4499999999999996 [dLambda -0.04999999999999999]
TCL: Setting parameter firsttimestep to 0
TCL: Setting parameter alchLambda to 0.4999999999999996
Info: NONBONDED TABLE R-SQUARED SPACING: 0.0625
Info: NONBONDED TABLE SIZE: 705 POINTS
TCL: Setting parameter alchLambda2 to 0.4499999999999996
Info: NONBONDED TABLE R-SQUARED SPACING: 0.0625
Info: NONBONDED TABLE SIZE: 705 POINTS
TCL: Running for 1500000 steps
ETITLE: TS BOND ANGLE DIHED IMPRP ELECT VDW BOUNDARY MISC KINETIC TOTAL TEMP POTENTIAL TOTALAVG TEMPAVG PRESSURE GPRESSURE VOLUME PRESSAVG GPRESSAVG
ENERGY: 0 1.1082 6.2999 2.7835 0.0000 -10640.0169 1450.5011 0.0000 0.0000 1752.9395 -7426.3848 298.2148 -9179.3243 -7426.3848 298.2148 82.7090 173.9194 30350.8639 82.7090 173.9194
ENERGY: 300000 6.1902 5.2196 2.5542 0.0000 -10726.6241 1411.1082 0.0000 0.0000 1764.3798 -7537.1720 300.1610 -9301.5518 -7482.0569 296.1931 -705.7836 -608.0110 30214.6334 -261.4780 -159.9131
ENERGY: 600000 2.2688 7.3431 4.4196 0.0000 -10618.5863 1369.4699 0.0000 0.0000 1735.6230 -7499.4619 295.2688 -9235.0848 -7477.9116 296.5628 -803.5425 -776.3411 30687.1730 -247.4825 -168.1438
ENERGY: 900000 2.5273 4.4728 3.0963 0.0000 -10694.8916 1490.8112 0.0000 0.0000 1817.9039 -7376.0803 309.2667 -9193.9842 -7459.8825 297.9488 447.9318 499.0645 30359.6516 -78.9142 -3.8473
ENERGY: 1200000 3.1570 6.2191 4.2255 0.0000 -10619.6507 1424.0873 0.0000 0.0000 1794.1217 -7387.8401 305.2208 -9181.9618 -7445.1979 300.5655 -372.0096 -302.1273 30896.5181 0.7437 71.2812
ENERGY: 1500000 2.4005 6.7265 2.8044 0.0000 -10797.8029 1438.0412 0.0000 0.0000 1741.0223 -7606.8080 296.1874 -9347.8303 -7461.9316 299.8521 -88.1105 26.2840 29619.2267 -45.7160 32.5202
TCL: Running FEP window  12: Lambda1 0.4499999999999996 Lambda2 0.39999999999999963 [dLambda -0.04999999999999999]
TCL: Setting parameter firsttimestep to 0
TCL: Setting parameter alchLambda to 0.4499999999999996
Info: NONBONDED TABLE R-SQUARED SPACING: 0.0625
Info: NONBONDED TABLE SIZE: 705 POINTS
TCL: Setting parameter alchLambda2 to 0.39999999999999963
Info: NONBONDED TABLE R-SQUARED SPACING: 0.0625
Info: NONBONDED TABLE SIZE: 705 POINTS
TCL: Running for 1500000 steps
ETITLE: TS BOND ANGLE DIHED IMPRP ELECT VDW BOUNDARY MISC KINETIC TOTAL TEMP POTENTIAL TOTALAVG TEMPAVG PRESSURE GPRESSURE VOLUME PRESSAVG GPRESSAVG
ENERGY: 0 2.4005 6.7265 2.8044 0.0000 -10797.8024 1437.9086 0.0000 0.0000 1740.1431 -7607.8193 296.0378 -9347.9625 -7607.8193 296.0378 -64.9460 18.3729 29619.2267 -64.9460 18.3729
ENERGY: 300000 0.6773 6.3595 2.9158 0.0000 -10640.6399 1466.8392 0.0000 0.0000 1738.2633 -7425.5848 295.7180 -9163.8481 -7459.8559 298.9922 125.6060 206.9733 30639.4643 87.3951 175.0483
ENERGY: 600000 1.9442 4.6556 3.5961 0.0000 -10685.2293 1377.8259 0.0000 0.0000 1772.4464 -7524.7610 301.5333 -9297.2074 -7456.6005 300.0673 -632.9710 -606.2228 30043.9780 -30.4954 44.9659
ENERGY: 900000 2.2911 9.3110 3.2324 0.0000 -10832.3340 1554.9339 0.0000 0.0000 1750.5307 -7512.0349 297.8050 -9262.5656 -7467.3467 299.4633 976.6489 1055.8076 29766.2812 28.0558 107.1385
ENERGY: 1200000 4.7757 4.2413 2.7672 0.0000 -10640.8115 1434.4328 0.0000 0.0000 1697.1949 -7497.3997 288.7313 -9194.5946 -7461.9362 298.4393 49.0437 20.2981 30081.4793 70.9514 146.8239
ENERGY: 1500000 0.2623 8.5920 2.6857 0.0000 -10775.8244 1454.3772 0.0000 0.0000 1756.6276 -7553.2795 298.8422 -9309.9071 -7456.9954 298.8869 -5.9999 147.2404 29858.8965 81.0260 162.2501
TCL: Running FEP window  13: Lambda1 0.39999999999999963 Lambda2 0.34999999999999964 [dLambda -0.04999999999999999]
TCL: Setting parameter firsttimestep to 0
TCL: Setting parameter alchLambda to 0.39999999999999963
Info: NONBONDED TABLE R-SQUARED SPACING: 0.0625
Info: NONBONDED TABLE SIZE: 705 POINTS
TCL: Setting parameter alchLambda2 to 0.34999999999999964
Info: NONBONDED TABLE R-SQUARED SPACING: 0.0625
Info: NONBONDED TABLE SIZE: 705 POINTS
TCL: Running for 1500000 steps
ETITLE: TS BOND ANGLE DIHED IMPRP ELECT VDW BOUNDARY MISC KINETIC TOTAL TEMP POTENTIAL TOTALAVG TEMPAVG PRESSURE GPRESSURE VOLUME PRESSAVG GPRESSAVG
ENERGY: 0 0.2623 8.5920 2.6857 0.0000 -10775.8262 1454.9180 0.0000 0.0000 1755.7275 -7553.6406 298.6891 -9309.3681 -7553.6406 298.6891 60.0539 145.6876 29858.8965 60.0539 145.6876
ENERGY: 300000 1.9551 7.0955 3.3623 0.0000 -10583.3783 1395.8537 0.0000 0.0000 1766.4920 -7408.6197 300.5204 -9175.1117 -7421.7080 303.3205 -479.2376 -434.2831 30605.6645 -208.4354 -136.4467
ENERGY: 600000 1.2534 4.8787 3.1720 0.0000 -10588.6160 1368.7845 0.0000 0.0000 1798.7700 -7411.7574 306.0116 -9210.5274 -7416.5942 303.3810 -627.1287 -550.2049 30556.5939 -109.1796 -37.8735
ENERGY: 900000 5.2409 4.1320 2.7929 0.0000 -10746.1634 1464.9490 0.0000 0.0000 1804.2557 -7464.7929 306.9448 -9269.0486 -7411.2541 303.9566 148.2432 179.3780 30145.6330 -24.9363 42.0159
ENERGY: 1200000 4.6271 7.9079 3.1085 0.0000 -10729.3824 1457.4887 0.0000 0.0000 1760.6644 -7495.5858 299.5290 -9256.2502 -7415.8663 303.4591 -57.1607 36.6723 29907.1963 -88.1822 -24.7683
ENERGY: 1500000 1.7448 6.5295 2.8385 0.0000 -10595.6620 1417.9710 0.0000 0.0000 1734.3538 -7432.2244 295.0529 -9166.5782 -7414.7681 302.0365 49.3368 81.5839 30299.4057 -47.7368 12.3484
TCL: Running FEP window  14: Lambda1 0.34999999999999964 Lambda2 0.29999999999999966 [dLambda -0.04999999999999999]
TCL: Setting parameter firsttimestep to 0
TCL: Setting parameter alchLambda to 0.34999999999999964
Info: NONBONDED TABLE R-SQUARED SPACING: 0.0625
Info: NONBONDED TABLE SIZE: 705 POINTS
TCL: Setting parameter alchLambda2 to 0.29999999999999966
Info: NONBONDED TABLE R-SQUARED SPACING: 0.0625
Info: NONBONDED TABLE SIZE: 705 POINTS
TCL: Running for 1500000 steps
ETITLE: TS BOND ANGLE DIHED IMPRP ELECT VDW BOUNDARY MISC KINETIC TOTAL TEMP POTENTIAL TOTALAVG TEMPAVG PRESSURE GPRESSURE VOLUME PRESSAVG GPRESSAVG
ENERGY: 0 1.7448 6.5295 2.8385 0.0000 -10595.6616 1418.2449 0.0000 0.0000 1733.4908 -7432.8130 294.9061 -9166.3039 -7432.8130 294.9061 2.6803 79.5982 30299.4057 2.6803 79.5982
ENERGY: 300000 1.8389 8.7627 2.9147 0.0000 -10589.1076 1447.5172 0.0000 0.0000 1751.5246 -7376.5495 297.9741 -9128.0741 -7403.7140 297.4656 54.7840 85.5881 30690.5938 92.0198 153.5521
ENERGY: 600000 1.0293 5.2928 2.7443 0.0000 -10781.9565 1474.9828 0.0000 0.0000 1795.4951 -7502.4123 305.4544 -9297.9073 -7431.6584 299.7117 459.1393 465.0343 29669.0303 18.5489 69.5339
ENERGY: 900000 1.9024 7.6797 2.7234 0.0000 -10635.0371 1388.3829 0.0000 0.0000 1741.0328 -7493.3158 296.1892 -9234.3486 -7436.5240 299.5099 -562.9073 -514.4156 30444.3116 -1.3199 55.7393
ENERGY: 1200000 2.6584 4.4358 2.6988 0.0000 -10606.8414 1418.4470 0.0000 0.0000 1764.9423 -7413.6591 300.2567 -9178.6014 -7441.5760 299.0246 -297.7169 -266.7025 30652.9099 -4.2007 47.0105
ENERGY: 1500000 2.5003 8.3249 2.6559 0.0000 -10670.3906 1429.8507 0.0000 0.0000 1757.6456 -7469.4134 299.0154 -9227.0590 -7451.3253 298.1908 -163.2832 -85.3169 30209.9006 -50.8262 2.9811
TCL: Running FEP window  15: Lambda1 0.29999999999999966 Lambda2 0.24999999999999967 [dLambda -0.04999999999999999]
TCL: Setting parameter firsttimestep to 0
TCL: Setting parameter alchLambda to 0.29999999999999966
Info: NONBONDED TABLE R-SQUARED SPACING: 0.0625
Info: NONBONDED TABLE SIZE: 705 POINTS
TCL: Setting parameter alchLambda2 to 0.24999999999999967
Info: NONBONDED TABLE R-SQUARED SPACING: 0.0625
Info: NONBONDED TABLE SIZE: 705 POINTS
TCL: Running for 1500000 steps
ETITLE: TS BOND ANGLE DIHED IMPRP ELECT VDW BOUNDARY MISC KINETIC TOTAL TEMP POTENTIAL TOTALAVG TEMPAVG PRESSURE GPRESSURE VOLUME PRESSAVG GPRESSAVG
ENERGY: 0 2.5003 8.3249 2.6559 0.0000 -10670.3908 1430.0873 0.0000 0.0000 1756.8242 -7469.9984 298.8756 -9226.8225 -7469.9984 298.8756 -165.3795 -88.8744 30209.9006 -165.3795 -88.8744
ENERGY: 300000 2.5974 5.7764 2.7163 0.0000 -10564.9625 1392.5534 0.0000 0.0000 1839.3130 -7322.0061 312.9089 -9161.3190 -7438.7170 300.9140 -449.0070 -399.3947 30803.9910 -46.0082 21.8294
ENERGY: 600000 1.6623 7.5349 2.8572 0.0000 -10781.9886 1484.9656 0.0000 0.0000 1703.3292 -7581.6393 289.7749 -9284.9685 -7459.3622 299.4479 -75.9342 14.6007 30335.6126 -281.8714 -208.9256
ENERGY: 900000 3.1413 9.9034 3.0096 0.0000 -10588.8416 1366.0192 0.0000 0.0000 1759.5001 -7447.2680 299.3309 -9206.7681 -7467.1242 299.1139 -606.8198 -552.9388 30623.6404 -336.9297 -262.8818
ENERGY: 1200000 1.6808 9.8190 3.9853 0.0000 -10741.8757 1520.3209 0.0000 0.0000 1838.8160 -7367.2537 312.8243 -9206.0697 -7451.4785 300.6561 539.4952 551.6709 30567.9462 -171.5661 -112.9735
ENERGY: 1500000 1.2855 8.9155 3.3296 0.0000 -10707.4037 1430.3215 0.0000 0.0000 1749.7829 -7513.7687 297.6778 -9263.5516 -7452.3823 300.7078 -251.2300 -165.0686 30226.2603 -233.3827 -173.1990
TCL: Running FEP window  16: Lambda1 0.24999999999999967 Lambda2 0.19999999999999968 [dLambda -0.04999999999999999]
TCL: Setting parameter firsttimestep to 0
TCL: Setting parameter alchLambda to 0.24999999999999967
Info: NONBONDED TABLE R-SQUARED SPACING: 0.0625
Info: NONBONDED TABLE SIZE: 705 POINTS
TCL: Setting parameter alchLambda2 to 0.19999999999999968
Info: NONBONDED TABLE R-SQUARED SPACING: 0.0625
Info: NONBONDED TABLE SIZE: 705 POINTS
TCL: Running for 1500000 steps
ETITLE: TS BOND ANGLE DIHED IMPRP ELECT VDW BOUNDARY MISC KINETIC TOTAL TEMP POTENTIAL TOTALAVG TEMPAVG PRESSURE GPRESSURE VOLUME PRESSAVG GPRESSAVG
ENERGY: 0 1.2856 8.9155 3.3296 0.0000 -10707.4032 1430.5299 0.0000 0.0000 1748.8615 -7514.4812 297.5210 -9263.3427 -7514.4812 297.5210 -234.4976 -168.4008 30226.2603 -234.4976 -168.4008
ENERGY: 300000 2.5491 8.8056 4.0035 0.0000 -10531.0723 1349.1985 0.0000 0.0000 1763.1798 -7403.3358 299.9569 -9166.5156 -7423.0996 299.4096 -936.6884 -850.6374 30737.3540 -356.0993 -269.6095
ENERGY: 600000 1.1642 5.4230 2.8469 0.0000 -10583.3154 1381.4085 0.0000 0.0000 1768.9193 -7423.5534 300.9333 -9192.4727 -7429.4710 300.1210 -504.3197 -484.2325 30793.8800 -450.2127 -383.7783
ENERGY: 900000 5.0848 6.1106 3.2651 0.0000 -10676.1286 1421.1975 0.0000 0.0000 1769.7892 -7470.6814 301.0813 -9240.4706 -7430.0491 301.2587 -300.1959 -241.7355 30319.9275 -415.5263 -353.1573
ENERGY: 1200000 3.8775 5.6013 3.5656 0.0000 -10701.8805 1451.9820 0.0000 0.0000 1779.5121 -7457.3421 302.7354 -9236.8542 -7436.4598 300.6245 88.3889 168.2477 30197.9548 -381.4656 -310.6494
ENERGY: 1500000 1.2297 6.5232 2.7851 0.0000 -10638.8238 1349.4731 0.0000 0.0000 1741.5588 -7537.2540 296.2786 -9278.8128 -7446.5653 299.0988 -777.5664 -748.8603 30203.7649 -345.5622 -279.5182
TCL: Running FEP window  17: Lambda1 0.19999999999999968 Lambda2 0.1499999999999997 [dLambda -0.04999999999999999]
TCL: Setting parameter firsttimestep to 0
TCL: Setting parameter alchLambda to 0.19999999999999968
Info: NONBONDED TABLE R-SQUARED SPACING: 0.0625
Info: NONBONDED TABLE SIZE: 705 POINTS
TCL: Setting parameter alchLambda2 to 0.1499999999999997
Info: NONBONDED TABLE R-SQUARED SPACING: 0.0625
Info: NONBONDED TABLE SIZE: 705 POINTS
TCL: Running for 1500000 steps
ETITLE: TS BOND ANGLE DIHED IMPRP ELECT VDW BOUNDARY MISC KINETIC TOTAL TEMP POTENTIAL TOTALAVG TEMPAVG PRESSURE GPRESSURE VOLUME PRESSAVG GPRESSAVG
ENERGY: 0 1.2296 6.5232 2.7851 0.0000 -10638.8239 1349.7996 0.0000 0.0000 1740.6509 -7537.8355 296.1242 -9278.4863 -7537.8355 296.1242 -836.3327 -753.6241 30203.7649 -836.3327 -753.6241
ENERGY: 300000 3.5858 6.9549 2.7695 0.0000 -10696.6348 1439.8415 0.0000 0.0000 1758.4390 -7485.0441 299.1504 -9243.4831 -7468.1469 299.6450 -234.3668 -201.1013 30317.8451 -10.1896 48.4789
ENERGY: 600000 4.6780 5.7752 2.5981 0.0000 -10561.4236 1364.9705 0.0000 0.0000 1756.4184 -7426.9835 298.8066 -9183.4018 -7463.5298 299.8812 -640.2776 -610.6061 30431.5116 -240.6975 -180.5266
ENERGY: 900000 1.9409 6.8711 2.6505 0.0000 -10706.9758 1462.1130 0.0000 0.0000 1732.3932 -7501.0069 294.7194 -9233.4001 -7458.2381 299.4338 -84.5051 26.4218 30457.5170 -160.8239 -95.6493
ENERGY: 1200000 2.4679 5.6942 3.0444 0.0000 -10542.8687 1345.7592 0.0000 0.0000 1722.6358 -7463.2673 293.0594 -9185.9030 -7457.2851 298.3770 -694.2840 -625.8698 30534.8046 -142.3360 -69.6524
ENERGY: 1500000 3.2573 12.0406 3.2280 0.0000 -10591.0639 1443.7562 0.0000 0.0000 1744.1233 -7384.6584 296.7149 -9128.7817 -7455.5770 298.9293 177.3487 193.2955 30501.2343 -87.1768 -22.0267
TCL: Running FEP window  18: Lambda1 0.1499999999999997 Lambda2 0.09999999999999969 [dLambda -0.05 ]
TCL: Setting parameter firsttimestep to 0
TCL: Setting parameter alchLambda to 0.1499999999999997
Info: NONBONDED TABLE R-SQUARED SPACING: 0.0625
Info: NONBONDED TABLE SIZE: 705 POINTS
TCL: Setting parameter alchLambda2 to 0.09999999999999969
Info: NONBONDED TABLE R-SQUARED SPACING: 0.0625
Info: NONBONDED TABLE SIZE: 705 POINTS
TCL: Running for 1500000 steps
ETITLE: TS BOND ANGLE DIHED IMPRP ELECT VDW BOUNDARY MISC KINETIC TOTAL TEMP POTENTIAL TOTALAVG TEMPAVG PRESSURE GPRESSURE VOLUME PRESSAVG GPRESSAVG
ENERGY: 0 3.2573 12.0406 3.2280 0.0000 -10591.0638 1444.1433 0.0000 0.0000 1743.2582 -7385.1363 296.5678 -9128.3945 -7385.1363 296.5678 107.3778 189.4375 30501.2343 107.3778 189.4375
ENERGY: 300000 1.7659 9.5012 2.6331 0.0000 -10615.2092 1430.3810 0.0000 0.0000 1757.9805 -7412.9475 299.0724 -9170.9280 -7426.2026 298.3545 50.5659 125.6346 30414.9938 -79.9577 -10.8668
ENERGY: 600000 1.1095 5.1065 2.9345 0.0000 -10768.1681 1583.0496 0.0000 0.0000 1794.1256 -7381.8424 305.2215 -9175.9681 -7412.0958 299.6813 1183.5699 1240.7809 30209.9043 284.8161 364.4614
ENERGY: 900000 1.5303 7.1394 2.9192 0.0000 -10618.5152 1375.4486 0.0000 0.0000 1822.8897 -7408.5880 310.1149 -9231.4777 -7406.5693 300.5543 -554.3662 -457.7054 30453.6748 180.8502 265.4769
ENERGY: 1200000 1.9074 3.8559 2.7284 0.0000 -10670.9350 1445.3873 0.0000 0.0000 1812.2510 -7404.8052 308.3050 -9217.0561 -7410.6390 301.6987 129.4669 162.9543 30427.7580 199.0649 271.5908
ENERGY: 1500000 5.2348 7.9604 3.2081 0.0000 -10746.7087 1456.9845 0.0000 0.0000 1711.6628 -7561.6580 291.1927 -9273.3208 -7421.4677 301.5660 -230.6716 -161.4356 30102.4098 162.3238 231.2969
TCL: Running FEP window  19: Lambda1 0.09999999999999969 Lambda2 0.049999999999999684 [dLambda -0.05 ]
TCL: Setting parameter firsttimestep to 0
TCL: Setting parameter alchLambda to 0.09999999999999969
Info: NONBONDED TABLE R-SQUARED SPACING: 0.0625
Info: NONBONDED TABLE SIZE: 705 POINTS
TCL: Setting parameter alchLambda2 to 0.049999999999999684
Info: NONBONDED TABLE R-SQUARED SPACING: 0.0625
Info: NONBONDED TABLE SIZE: 705 POINTS
TCL: Running for 1500000 steps
ETITLE: TS BOND ANGLE DIHED IMPRP ELECT VDW BOUNDARY MISC KINETIC TOTAL TEMP POTENTIAL TOTALAVG TEMPAVG PRESSURE GPRESSURE VOLUME PRESSAVG GPRESSAVG
ENERGY: 0 5.2348 7.9604 3.2081 0.0000 -10746.7094 1456.5727 0.0000 0.0000 1710.8088 -7562.9246 291.0474 -9273.7334 -7562.9246 291.0474 -266.0760 -163.4117 30102.4098 -266.0760 -163.4117
ENERGY: 300000 0.7876 8.6360 2.9881 0.0000 -10835.3103 1517.1198 0.0000 0.0000 1739.0190 -7566.7597 295.8466 -9305.7788 -7523.8965 294.4123 267.2495 382.8097 29812.8644 -211.7880 -122.4736
ENERGY: 600000 1.0712 7.0191 3.0557 0.0000 -10629.6193 1419.0510 0.0000 0.0000 1784.2715 -7415.1510 303.5450 -9199.4224 -7470.7054 298.1784 -213.3694 -160.5169 30457.9789 -266.0478 -193.7968
ENERGY: 900000 3.2044 2.9444 3.2098 0.0000 -10725.5704 1454.4734 0.0000 0.0000 1788.4595 -7473.2790 304.2575 -9261.7385 -7475.6292 299.2792 214.9980 238.4639 29714.7488 -109.9908 -54.1502
ENERGY: 1200000 2.0132 5.4041 2.4834 0.0000 -10655.8403 1471.8065 0.0000 0.0000 1825.3948 -7348.7383 310.5411 -9174.1331 -7463.0116 300.0688 300.7798 399.5346 30296.4819 -125.6607 -65.8000
ENERGY: 1500000 1.1210 7.6111 2.8580 0.0000 -10730.6952 1497.6261 0.0000 0.0000 1789.9425 -7431.5364 304.5098 -9221.4789 -7458.7718 301.1964 637.7616 760.2545 30105.6012 -118.4403 -50.4697
TCL: Running FEP window  20: Lambda1 0.049999999999999684 Lambda2 0.0    [dLambda -0.049999999999999684]
TCL: Setting parameter firsttimestep to 0
TCL: Setting parameter alchLambda to 0.049999999999999684
Info: NONBONDED TABLE R-SQUARED SPACING: 0.0625
Info: NONBONDED TABLE SIZE: 705 POINTS
TCL: Setting parameter alchLambda2 to 0.0
Info: NONBONDED TABLE R-SQUARED SPACING: 0.0625
Info: NONBONDED TABLE SIZE: 705 POINTS
TCL: Running for 1500000 steps
ETITLE: TS BOND ANGLE DIHED IMPRP ELECT VDW BOUNDARY MISC KINETIC TOTAL TEMP POTENTIAL TOTALAVG TEMPAVG PRESSURE GPRESSURE VOLUME PRESSAVG GPRESSAVG
ENERGY: 0 1.1210 7.6111 2.8580 0.0000 -10730.6957 1497.1595 0.0000 0.0000 1789.0407 -7432.9054 304.3564 -9221.9461 -7432.9054 304.3564 654.6469 757.6861 30105.6012 654.6469 757.6861
ENERGY: 300000 2.6185 6.7345 2.8938 0.0000 -10710.5812 1455.4566 0.0000 0.0000 1750.7598 -7492.1181 297.8439 -9242.8778 -7491.6783 296.0744 -113.1772 -125.9897 30328.8145 182.1322 228.0707
ENERGY: 600000 1.0588 5.3702 2.9576 0.0000 -10826.5521 1537.8845 0.0000 0.0000 1767.5746 -7511.7063 300.7045 -9279.2809 -7470.8425 299.3182 422.1067 459.6017 30408.5822 283.0113 317.3206
ENERGY: 900000 1.4835 6.9023 3.0205 0.0000 -10802.9463 1480.8196 0.0000 0.0000 1773.2653 -7537.4550 301.6726 -9310.7203 -7482.3794 299.5853 -74.6794 -46.5907 30545.8090 153.5041 198.0369
ENERGY: 1200000 6.3423 4.5050 2.4773 0.0000 -10798.6097 1437.2754 0.0000 0.0000 1772.9470 -7575.0627 301.6185 -9348.0098 -7478.5384 299.5393 -90.2086 -82.7412 29390.0621 78.8904 121.2713
ENERGY: 1500000 0.8070 5.8887 2.6649 0.0000 -10722.1151 1487.1897 0.0000 0.0000 1815.4689 -7410.0960 308.8524 -9225.5648 -7474.3251 300.5536 484.8730 488.4713 30138.9414 140.2243 183.2040
TCL: Exiting due to exit command.
