Info: SIMULATION PARAMETERS:
Info: TIMESTEP               2
Info: NUMBER OF STEPS        0
Info: STEPS PER CYCLE        10
Info: PERIODIC CELL BASIS 1  30.2918 0 0
Info: PERIODIC CELL BASIS 2  0 30.3387 0
Info: PERIODIC CELL BASIS 3  0 0 32.9378
Info: PERIODIC CELL CENTER   0 0 0
Info: WRAPPING WATERS AROUND PERIODIC BOUNDARIES ON OUTPUT.
Info: WRAPPING ALL CLUSTERS AROUND PERIODIC BOUNDARIES ON OUTPUT.
Info: FIRST LDB TIMESTEP     50
Info: LAST LDB TIMESTEP     -1
Info: HOM BACKGROUND SCALING 1
Info: PME BACKGROUND SCALING 1
Info: MIN ATOMS PER PATCH    40
Info: EMPTY PATCH LOAD       40 ATOMS
Info: VELOCITY FILE          mobley_9571888_equil.vel
Info: CENTER OF MASS MOVING INITIALLY? NO
Info: DIELECTRIC             1
Info: EXCLUDE                SCALED ONE-FOUR
Info: 1-4 ELECTROSTATICS SCALED BY 0.833333
Info: MODIFIED 1-4 VDW PARAMETERS WILL BE USED
Info: DCD FILENAME           mobley_9571888_prod.dcd
Info: DCD FREQUENCY          100000
Info: DCD FIRST STEP         100000
Info: DCD FILE WILL CONTAIN UNIT CELL DATA
Info: XST FILENAME           mobley_9571888_prod.xst
Info: XST FREQUENCY          100000
Info: NO VELOCITY DCD OUTPUT
Info: NO FORCE DCD OUTPUT
Info: OUTPUT FILENAME        mobley_9571888_prod
Info: BINARY OUTPUT FILES WILL BE USED
Info: RESTART FILENAME       mobley_9571888_prod.restart
Info: RESTART FREQUENCY      100000
Info: BINARY RESTART FILES WILL BE USED
Info: CUTOFF                 9
Info: PAIRLIST DISTANCE      11
Info: PAIRLIST SHRINK RATE   0.01
Info: PAIRLIST GROW RATE     0.01
Info: PAIRLIST TRIGGER       0.3
Info: PAIRLISTS PER CYCLE    2
Info: PAIRLISTS ENABLED
Info: MARGIN                 2
Info: HYDROGEN GROUP CUTOFF  2.5
Info: PATCH DIMENSION        15.5
Info: ENERGY OUTPUT STEPS    100000
Info: ENERGY EVALUATION STEPS    100000
Info: OUTPUT ENERGY PRECISION 4
Info: CROSSTERM ENERGY INCLUDED IN DIHEDRAL
Info: TIMING OUTPUT STEPS    1000000
Info: PRESSURE OUTPUT STEPS  100000
Info: ALCHEMICAL FEP ON
Info: FEP CURRENT LAMBDA VALUE     0
Info: FEP COMPARISON LAMBDA VALUE  0.05
Info: FEP INTRA-ALCHEMICAL NON-BONDED INTERACTIONS WILL BE RETAINED
Info: FEP INTRA-ALCHEMICAL BONDED INTERACTIONS WILL BE RETAINED
Info: FEP VDW SHIFTING COEFFICIENT 5
Info: FEP ELEC. ACTIVE FOR ANNIHILATED PARTICLES BETWEEN LAMBDA = 0 AND LAMBDA = 0.5
Info: FEP ELEC. ACTIVE FOR EXNIHILATED PARTICLES BETWEEN LAMBDA = 0.5 AND LAMBDA = 1
Info: FEP VDW ACTIVE FOR ANNIHILATED PARTICLES BETWEEN LAMBDA = 0 AND LAMBDA = 1
Info: FEP VDW ACTIVE FOR EXNIHILATED PARTICLES BETWEEN LAMBDA = 0 AND LAMBDA = 1
Info: FEP BOND ACTIVE FOR ANNIHILATED PARTICLES BETWEEN LAMBDA = 1 AND LAMBDA = 1
Info: FEP BOND ACTIVE FOR EXNIHILATED PARTICLES BETWEEN LAMBDA = 0 AND LAMBDA = 0
Info: LANGEVIN DYNAMICS ACTIVE
Info: LANGEVIN TEMPERATURE   300
Info: LANGEVIN USING BBK INTEGRATOR
Info: LANGEVIN DAMPING COEFFICIENT IS 1 INVERSE PS
Info: LANGEVIN DYNAMICS APPLIED TO HYDROGENS
Info: LANGEVIN PISTON PRESSURE CONTROL ACTIVE
Info:        TARGET PRESSURE IS 1.01325 BAR
Info:     OSCILLATION PERIOD IS 50 FS
Info:             DECAY TIME IS 25 FS
Info:     PISTON TEMPERATURE IS 300 K
Info:       PRESSURE CONTROL IS GROUP-BASED
Info:    INITIAL STRAIN RATE IS -0.000591987 -0.000591987 -0.000591987
Info:       CELL FLUCTUATION IS ISOTROPIC
Info: PARTICLE MESH EWALD (PME) ACTIVE
Info: PME TOLERANCE               1e-06
Info: PME EWALD COEFFICIENT       0.348832
Info: PME INTERPOLATION ORDER     4
Info: PME GRID DIMENSIONS         32 32 36
Info: PME MAXIMUM GRID SPACING    1
Info: PME CALCULATION WILL BE PERFORMED ON GPU
Info: FULL ELECTROSTATIC EVALUATION FREQUENCY      2
Info: USING VERLET I (r-RESPA) MTS SCHEME.
Info: C1 SPLITTING OF LONG RANGE ELECTROSTATICS
Info: PLACING ATOMS IN PATCHES BY HYDROGEN GROUPS
Info: RIGID BONDS TO HYDROGEN : ALL
Info:         ERROR TOLERANCE : 1e-08
Info:          MAX ITERATIONS : 100
Info: RIGID WATER USING SETTLE ALGORITHM
Info: RANDOM NUMBER SEED     1743654634
Info: USE HYDROGEN BONDS?    NO
Info: Using AMBER format force field!
Info: AMBER PARM FILE        mobley_9571888.prmtop
Info: COORDINATE PDB         mobley_9571888.pdb
Info: Exclusions will be read from PARM file!
Info: SCNB (VDW SCALING)     2
Info: USING ARITHMETIC MEAN TO COMBINE L-J SIGMA PARAMETERS
Info: BINARY COORDINATES     mobley_9571888_equil.coor
Info: SUMMARY OF PARAMETERS:
Info: 12 BONDS
Info: 16 ANGLES
Info:   16 HARMONIC
Info:   0 COSINE-BASED
Info: 15 DIHEDRAL
Info: 0 IMPROPER
Info: 0 CROSSTERM
Info: 0 VDW
Info: 55 VDW_PAIRS
Info: 0 NBTHOLE_PAIRS
Info: To read alchdata from file: mobley_9571888.pdb
Info: To read alchflag data from column: 5
Info: STRUCTURE SUMMARY:
Info: 2947 ATOMS
Info: 2949 BONDS
Info: 53 ANGLES
Info: 120 DIHEDRALS
Info: 0 IMPROPERS
Info: 0 CROSSTERMS
Info: 3079 EXCLUSIONS
Info: 2928 RIGID BONDS
Info: ALCH: 0 ATOMS TO DISAPPEAR IN FINAL STATE
Info: ALCH: 25 ATOMS TO APPEAR IN FINAL STATE
Info: 5913 DEGREES OF FREEDOM
Info: 993 HYDROGEN GROUPS
Info: 3 ATOMS IN LARGEST HYDROGEN GROUP
Info: 993 MIGRATION GROUPS
Info: 3 ATOMS IN LARGEST MIGRATION GROUP
Info: TOTAL MASS = 17954.5 amu
Info: TOTAL CHARGE = 7.17118e-08 e
Info: MASS DENSITY = 0.984953 g/cm^3
Info: ATOM DENSITY = 0.0973562 atoms/A^3
Info: ADDED 0 IMPLICIT EXCLUSIONS
Info: NONBONDED TABLE R-SQUARED SPACING: 0.0625
Info: NONBONDED TABLE SIZE: 705 POINTS
Info: REMOVING COM VELOCITY 0.129633 -0.112929 -0.0855346
Info: Use 3D box decompostion in PME FFT.
Info: Updated CUDA force table with 4096 elements.
Info: Updated CUDA LJ table with 10 x 10 elements.
Info: Found 28 unique exclusion lists needing 92 bytes
TCL: Running for 1500000 steps
ETITLE: TS BOND ANGLE DIHED IMPRP ELECT VDW BOUNDARY MISC KINETIC TOTAL TEMP POTENTIAL TOTALAVG TEMPAVG PRESSURE GPRESSURE VOLUME PRESSAVG GPRESSAVG
ENERGY: 0 9.8606 49.0980 16.1031 0.0000 -10764.0958 1522.5693 0.0000 0.0000 1767.7765 -7398.6884 300.8915 -9166.4649 -7398.6884 300.8915 462.0607 539.9115 30270.2969 462.0607 539.9115
ENERGY: 300000 9.7991 55.0106 14.1518 0.0000 -10753.4889 1485.1241 0.0000 0.0000 1720.7563 -7468.6471 292.8882 -9189.4034 -7371.4415 295.2368 489.6480 499.4445 29542.0642 2.9568 33.2778
ENERGY: 600000 5.1468 48.8168 15.0891 0.0000 -10547.9556 1386.7400 0.0000 0.0000 1807.2427 -7284.9202 307.6090 -9092.1629 -7374.1101 298.5611 -114.4474 -43.2218 29889.5462 66.0057 114.4391
ENERGY: 900000 4.7592 53.4856 14.8853 0.0000 -10697.9390 1392.5897 0.0000 0.0000 1735.6966 -7496.5226 295.4312 -9232.2192 -7375.8426 298.5755 -312.0097 -233.4399 29569.1673 87.2018 148.6485
ENERGY: 1200000 7.7621 55.3712 14.4606 0.0000 -10750.8211 1509.2976 0.0000 0.0000 1767.4446 -7396.4851 300.8350 -9163.9296 -7381.5840 299.6183 535.1879 598.1774 30097.9360 146.5066 209.8268
ENERGY: 1500000 9.0635 50.5289 13.7686 0.0000 -10708.2364 1456.1181 0.0000 0.0000 1760.7475 -7418.0097 299.6951 -9178.7572 -7381.5310 300.0506 136.4054 200.3530 30079.0202 116.5268 179.4540
TCL: Running FEP window   2: Lambda1 0.05   Lambda2 0.1    [dLambda 0.05  ]
TCL: Setting parameter firsttimestep to 0
TCL: Setting parameter alchLambda to 0.05
Info: NONBONDED TABLE R-SQUARED SPACING: 0.0625
Info: NONBONDED TABLE SIZE: 705 POINTS
TCL: Setting parameter alchLambda2 to 0.1
Info: NONBONDED TABLE R-SQUARED SPACING: 0.0625
Info: NONBONDED TABLE SIZE: 705 POINTS
TCL: Running for 1500000 steps
ETITLE: TS BOND ANGLE DIHED IMPRP ELECT VDW BOUNDARY MISC KINETIC TOTAL TEMP POTENTIAL TOTALAVG TEMPAVG PRESSURE GPRESSURE VOLUME PRESSAVG GPRESSAVG
ENERGY: 0 9.0635 50.5289 13.7686 0.0000 -10708.2372 1465.8444 0.0000 0.0000 1759.8976 -7409.1341 299.5504 -9169.0317 -7409.1341 299.5504 142.5923 227.4957 30079.0202 142.5923 227.4957
ENERGY: 300000 7.5011 55.1050 13.5007 0.0000 -10577.5221 1388.1569 0.0000 0.0000 1711.5323 -7401.7260 291.3182 -9113.2583 -7398.5464 297.6742 -519.5953 -434.6571 30089.5318 -326.2232 -238.7262
ENERGY: 600000 9.6239 52.2861 14.9357 0.0000 -10688.7319 1440.2831 0.0000 0.0000 1757.1189 -7414.4841 299.0774 -9171.6030 -7402.9399 297.8117 -314.3503 -266.3845 29969.7790 -231.8571 -155.7592
ENERGY: 900000 11.7022 53.0670 15.2984 0.0000 -10497.2969 1347.4434 0.0000 0.0000 1759.7228 -7310.0631 299.5206 -9069.7859 -7396.7131 297.8141 -715.6147 -707.9006 30325.7432 -219.4999 -155.1715
ENERGY: 1200000 7.2171 51.5442 16.2065 0.0000 -10680.8642 1478.3807 0.0000 0.0000 1810.3821 -7317.1337 308.1433 -9127.5158 -7381.3869 299.2671 488.7926 512.9454 29811.8470 -92.3873 -30.3806
ENERGY: 1500000 7.9399 50.3200 15.6220 0.0000 -10559.4697 1363.4313 0.0000 0.0000 1806.8265 -7315.3301 307.5381 -9122.1565 -7371.5977 300.2951 -551.2901 -491.5883 30132.1645 -139.8155 -76.9883
TCL: Running FEP window   3: Lambda1 0.1    Lambda2 0.15000000000000002 [dLambda 0.05000000000000002]
TCL: Setting parameter firsttimestep to 0
TCL: Setting parameter alchLambda to 0.1
Info: NONBONDED TABLE R-SQUARED SPACING: 0.0625
Info: NONBONDED TABLE SIZE: 705 POINTS
TCL: Setting parameter alchLambda2 to 0.15000000000000002
Info: NONBONDED TABLE R-SQUARED SPACING: 0.0625
Info: NONBONDED TABLE SIZE: 705 POINTS
TCL: Running for 1500000 steps
ETITLE: TS BOND ANGLE DIHED IMPRP ELECT VDW BOUNDARY MISC KINETIC TOTAL TEMP POTENTIAL TOTALAVG TEMPAVG PRESSURE GPRESSURE VOLUME PRESSAVG GPRESSAVG
ENERGY: 0 7.9399 50.3200 15.6220 0.0000 -10559.4702 1369.6026 0.0000 0.0000 1805.9247 -7310.0609 307.3846 -9115.9857 -7310.0609 307.3846 -545.3003 -465.2437 30132.1645 -545.3003 -465.2437
ENERGY: 300000 9.2918 46.5642 16.9453 0.0000 -10766.5231 1486.0943 0.0000 0.0000 1717.8059 -7489.8215 292.3860 -9207.6274 -7367.1934 300.8274 240.9843 325.6407 30117.8444 -314.0504 -275.2091
ENERGY: 600000 6.0530 52.0336 14.6129 0.0000 -10721.4609 1521.4247 0.0000 0.0000 1754.4803 -7372.8564 298.6283 -9127.3366 -7375.8360 300.4130 712.8058 794.4592 30230.8949 -173.7026 -119.1197
ENERGY: 900000 2.7661 47.3851 14.5791 0.0000 -10724.5427 1462.5109 0.0000 0.0000 1756.0259 -7441.2756 298.8914 -9197.3014 -7386.8861 301.0358 334.4776 335.8417 29825.3717 -96.3947 -43.1537
ENERGY: 1200000 6.4404 46.9338 18.4152 0.0000 -10468.1119 1373.1976 0.0000 0.0000 1780.9556 -7242.1693 303.1347 -9023.1248 -7369.2589 302.0965 -499.7872 -414.4729 30711.1382 -110.4452 -52.9436
ENERGY: 1500000 7.1280 53.4576 12.8925 0.0000 -10586.6260 1425.9727 0.0000 0.0000 1761.9088 -7325.2666 299.8927 -9087.1753 -7362.2609 302.4708 72.8382 141.2535 29954.8893 -71.5008 -19.4302
TCL: Running FEP window   4: Lambda1 0.15000000000000002 Lambda2 0.2    [dLambda 0.04999999999999999]
TCL: Setting parameter firsttimestep to 0
TCL: Setting parameter alchLambda to 0.15000000000000002
Info: NONBONDED TABLE R-SQUARED SPACING: 0.0625
Info: NONBONDED TABLE SIZE: 705 POINTS
TCL: Setting parameter alchLambda2 to 0.2
Info: NONBONDED TABLE R-SQUARED SPACING: 0.0625
Info: NONBONDED TABLE SIZE: 705 POINTS
TCL: Running for 1500000 steps
ETITLE: TS BOND ANGLE DIHED IMPRP ELECT VDW BOUNDARY MISC KINETIC TOTAL TEMP POTENTIAL TOTALAVG TEMPAVG PRESSURE GPRESSURE VOLUME PRESSAVG GPRESSAVG
ENERGY: 0 7.1279 53.4576 12.8925 0.0000 -10586.6272 1429.2889 0.0000 0.0000 1761.0355 -7322.8248 299.7441 -9083.8603 -7322.8248 299.7441 64.0821 161.6608 29954.8893 64.0821 161.6608
ENERGY: 300000 5.3439 50.3421 16.3131 0.0000 -10681.6430 1510.1025 0.0000 0.0000 1777.1682 -7322.3732 302.4900 -9099.5414 -7349.5864 299.7089 654.8984 717.3100 30345.8284 -59.8012 5.3813
ENERGY: 600000 6.3396 51.8924 15.5744 0.0000 -10634.9366 1412.8912 0.0000 0.0000 1761.0020 -7387.2370 299.7384 -9148.2389 -7379.0274 298.5289 -57.2926 29.5918 29951.1993 -149.3816 -71.0477
ENERGY: 900000 8.0258 52.9975 14.4811 0.0000 -10674.0060 1493.1057 0.0000 0.0000 1754.8672 -7350.5287 298.6942 -9105.3959 -7376.6123 299.1621 455.8653 509.7751 30269.2386 4.6284 67.0901
ENERGY: 1200000 7.1123 50.1784 14.0458 0.0000 -10708.8945 1442.5903 0.0000 0.0000 1762.3843 -7432.5835 299.9737 -9194.9678 -7366.0767 299.9036 190.0099 183.9136 30145.2842 4.6649 61.1312
ENERGY: 1500000 7.0050 47.7075 16.3114 0.0000 -10671.6786 1499.6333 0.0000 0.0000 1785.8840 -7315.1373 303.9735 -9101.0213 -7370.9447 299.5288 547.7686 653.8425 30142.9915 20.8220 77.3623
TCL: Running FEP window   5: Lambda1 0.2    Lambda2 0.25   [dLambda 0.04999999999999999]
TCL: Setting parameter firsttimestep to 0
TCL: Setting parameter alchLambda to 0.2
Info: NONBONDED TABLE R-SQUARED SPACING: 0.0625
Info: NONBONDED TABLE SIZE: 705 POINTS
TCL: Setting parameter alchLambda2 to 0.25
Info: NONBONDED TABLE R-SQUARED SPACING: 0.0625
Info: NONBONDED TABLE SIZE: 705 POINTS
TCL: Running for 1500000 steps
ETITLE: TS BOND ANGLE DIHED IMPRP ELECT VDW BOUNDARY MISC KINETIC TOTAL TEMP POTENTIAL TOTALAVG TEMPAVG PRESSURE GPRESSURE VOLUME PRESSAVG GPRESSAVG
ENERGY: 0 7.0050 47.7075 16.3114 0.0000 -10671.6777 1500.4515 0.0000 0.0000 1785.0297 -7315.1725 303.8281 -9100.2023 -7315.1725 303.8281 590.2576 666.5713 30142.9915 590.2576 666.5713
ENERGY: 300000 12.0787 52.2194 14.8363 0.0000 -10735.1803 1498.8339 0.0000 0.0000 1772.9147 -7384.2973 301.7660 -9157.2120 -7370.9467 302.2938 605.6555 544.0831 30176.4895 127.7795 137.2586
ENERGY: 600000 4.8530 55.0293 15.5045 0.0000 -10695.6643 1468.4491 0.0000 0.0000 1768.1147 -7383.7137 300.9490 -9151.8284 -7351.7353 302.3139 132.8814 232.0571 30278.8549 168.4622 203.9667
ENERGY: 900000 8.3239 57.3919 14.5310 0.0000 -10715.3532 1500.0607 0.0000 0.0000 1777.5212 -7357.5246 302.5501 -9135.0458 -7351.6433 301.4715 707.8501 757.3686 30066.5066 168.4418 205.4516
ENERGY: 1200000 5.1215 49.9980 14.1668 0.0000 -10640.0220 1413.1109 0.0000 0.0000 1792.3979 -7365.2269 305.0822 -9157.6248 -7353.6420 301.6008 -98.3803 -125.8505 30219.7992 222.0759 255.8618
ENERGY: 1500000 7.6481 46.0485 15.6111 0.0000 -10852.1986 1483.4304 0.0000 0.0000 1814.3735 -7485.0869 308.8227 -9299.4604 -7366.5242 302.2370 1.8097 49.9164 30216.2703 190.2714 229.0017
TCL: Running FEP window   6: Lambda1 0.25   Lambda2 0.3    [dLambda 0.04999999999999999]
TCL: Setting parameter firsttimestep to 0
TCL: Setting parameter alchLambda to 0.25
Info: NONBONDED TABLE R-SQUARED SPACING: 0.0625
Info: NONBONDED TABLE SIZE: 705 POINTS
TCL: Setting parameter alchLambda2 to 0.3
Info: NONBONDED TABLE R-SQUARED SPACING: 0.0625
Info: NONBONDED TABLE SIZE: 705 POINTS
TCL: Running for 1500000 steps
ETITLE: TS BOND ANGLE DIHED IMPRP ELECT VDW BOUNDARY MISC KINETIC TOTAL TEMP POTENTIAL TOTALAVG TEMPAVG PRESSURE GPRESSURE VOLUME PRESSAVG GPRESSAVG
ENERGY: 0 7.6481 46.0485 15.6111 0.0000 -10852.2005 1484.2449 0.0000 0.0000 1813.5442 -7485.1036 308.6815 -9298.6479 -7485.1036 308.6815 0.7508 61.7104 30216.2703 0.7508 61.7104
ENERGY: 300000 7.6560 51.6282 13.8307 0.0000 -10649.3118 1425.2863 0.0000 0.0000 1749.5018 -7401.4088 297.7809 -9150.9106 -7419.2515 303.1458 -33.9028 19.3186 30257.3702 84.3438 145.8022
ENERGY: 600000 6.9129 54.4728 15.5445 0.0000 -10573.3184 1387.2051 0.0000 0.0000 1738.4931 -7370.6900 295.9072 -9109.1831 -7402.7387 300.8719 -370.5235 -341.4050 30660.2320 -262.3995 -197.4529
ENERGY: 900000 6.1706 52.6321 15.5330 0.0000 -10853.7019 1517.4637 0.0000 0.0000 1815.0457 -7446.8568 308.9371 -9261.9025 -7422.1780 300.1589 644.5151 703.8742 29733.3642 -129.0871 -76.7896
ENERGY: 1200000 5.0888 47.2154 15.0717 0.0000 -10561.3611 1330.0597 0.0000 0.0000 1760.5827 -7403.3428 299.6670 -9163.9255 -7409.6638 300.5576 -897.9285 -831.6671 30588.7914 -163.9060 -108.1846
ENERGY: 1500000 7.6094 49.7253 14.5842 0.0000 -10734.7415 1523.2011 0.0000 0.0000 1765.5779 -7374.0436 300.5172 -9139.6214 -7409.0551 300.4720 737.0403 812.8474 30136.7042 -110.9960 -54.1756
TCL: Running FEP window   7: Lambda1 0.3    Lambda2 0.35   [dLambda 0.04999999999999999]
TCL: Setting parameter firsttimestep to 0
TCL: Setting parameter alchLambda to 0.3
Info: NONBONDED TABLE R-SQUARED SPACING: 0.0625
Info: NONBONDED TABLE SIZE: 705 POINTS
TCL: Setting parameter alchLambda2 to 0.35
Info: NONBONDED TABLE R-SQUARED SPACING: 0.0625
Info: NONBONDED TABLE SIZE: 705 POINTS
TCL: Running for 1500000 steps
ETITLE: TS BOND ANGLE DIHED IMPRP ELECT VDW BOUNDARY MISC KINETIC TOTAL TEMP POTENTIAL TOTALAVG TEMPAVG PRESSURE GPRESSURE VOLUME PRESSAVG GPRESSAVG
ENERGY: 0 7.6094 49.7254 14.5842 0.0000 -10734.7397 1524.0171 0.0000 0.0000 1764.6757 -7374.1279 300.3637 -9138.8036 -7374.1279 300.3637 744.3106 828.4227 30136.7042 744.3106 828.4227
ENERGY: 300000 13.3217 45.6883 14.7464 0.0000 -10861.4054 1513.9924 0.0000 0.0000 1792.4141 -7481.2425 305.0850 -9273.6566 -7425.1244 298.4467 234.7359 331.6706 30077.3412 178.4321 236.4041
ENERGY: 600000 10.5304 45.3787 14.9664 0.0000 -10744.8104 1527.7241 0.0000 0.0000 1732.3194 -7413.8914 294.8563 -9146.2108 -7415.9361 300.0275 642.7265 691.8349 30708.6941 257.1188 335.9904
ENERGY: 900000 7.2392 53.0901 13.8187 0.0000 -10600.1061 1364.8309 0.0000 0.0000 1768.1653 -7392.9619 300.9576 -9161.1271 -7408.8044 299.9821 -406.0853 -401.3809 30383.7295 79.2109 152.1224
ENERGY: 1200000 11.1498 53.2339 16.5662 0.0000 -10776.2482 1503.4964 0.0000 0.0000 1704.8006 -7487.0013 290.1724 -9191.8019 -7414.6369 298.7290 436.3540 573.6777 29698.0433 -76.1097 10.6438
ENERGY: 1500000 7.3705 51.4446 13.4783 0.0000 -10556.9019 1410.4997 0.0000 0.0000 1732.9987 -7341.1102 294.9720 -9074.1089 -7408.8882 298.1782 -133.9212 -82.9660 30406.2838 -115.2735 -36.9921
TCL: Running FEP window   8: Lambda1 0.35   Lambda2 0.39999999999999997 [dLambda 0.04999999999999999]
TCL: Setting parameter firsttimestep to 0
TCL: Setting parameter alchLambda to 0.35
Info: NONBONDED TABLE R-SQUARED SPACING: 0.0625
Info: NONBONDED TABLE SIZE: 705 POINTS
TCL: Setting parameter alchLambda2 to 0.39999999999999997
Info: NONBONDED TABLE R-SQUARED SPACING: 0.0625
Info: NONBONDED TABLE SIZE: 705 POINTS
TCL: Running for 1500000 steps
ETITLE: TS BOND ANGLE DIHED IMPRP ELECT VDW BOUNDARY MISC KINETIC TOTAL TEMP POTENTIAL TOTALAVG TEMPAVG PRESSURE GPRESSURE VOLUME PRESSAVG GPRESSAVG
ENERGY: 0 7.3705 51.4446 13.4783 0.0000 -10556.9028 1409.4860 0.0000 0.0000 1732.1340 -7342.9895 294.8248 -9075.1235 -7342.9895 294.8248 -173.9330 -84.9070 30406.2838 -173.9330 -84.9070
ENERGY: 300000 4.8689 48.4113 13.4886 0.0000 -10715.3860 1427.2160 0.0000 0.0000 1722.0753 -7499.3259 293.1127 -9221.4011 -7399.0016 293.8718 -109.5917 -82.9455 29977.0556 42.0510 101.1725
ENERGY: 600000 9.6193 52.9441 14.2410 0.0000 -10500.6422 1325.7802 0.0000 0.0000 1761.5858 -7336.4718 299.8377 -9098.0576 -7375.7023 296.8268 -725.3427 -677.0809 30566.0471 -138.8141 -62.6137
ENERGY: 900000 5.2445 52.8712 14.4387 0.0000 -10599.5347 1454.1791 0.0000 0.0000 1763.1622 -7309.6389 300.1061 -9072.8011 -7368.8001 298.8628 286.9431 345.5484 30486.7730 74.7885 141.4316
ENERGY: 1200000 8.4934 51.6583 15.2027 0.0000 -10580.9083 1446.0011 0.0000 0.0000 1789.4369 -7270.1157 304.5782 -9059.5526 -7362.8762 300.5323 619.5143 688.7498 30291.4446 29.9101 96.8015
ENERGY: 1500000 7.2134 51.6103 15.7500 0.0000 -10814.4052 1589.0659 0.0000 0.0000 1789.9399 -7360.8257 304.6639 -9150.7656 -7365.9973 300.7702 986.0230 1031.7474 30233.1142 59.4155 128.7757
TCL: Running FEP window   9: Lambda1 0.39999999999999997 Lambda2 0.44999999999999996 [dLambda 0.04999999999999999]
TCL: Setting parameter firsttimestep to 0
TCL: Setting parameter alchLambda to 0.39999999999999997
Info: NONBONDED TABLE R-SQUARED SPACING: 0.0625
Info: NONBONDED TABLE SIZE: 705 POINTS
TCL: Setting parameter alchLambda2 to 0.44999999999999996
Info: NONBONDED TABLE R-SQUARED SPACING: 0.0625
Info: NONBONDED TABLE SIZE: 705 POINTS
TCL: Running for 1500000 steps
ETITLE: TS BOND ANGLE DIHED IMPRP ELECT VDW BOUNDARY MISC KINETIC TOTAL TEMP POTENTIAL TOTALAVG TEMPAVG PRESSURE GPRESSURE VOLUME PRESSAVG GPRESSAVG
ENERGY: 0 7.2134 51.6103 15.7500 0.0000 -10814.4039 1588.1153 0.0000 0.0000 1789.0777 -7362.6372 304.5171 -9151.7149 -7362.6372 304.5171 966.3810 1034.8221 30233.1142 966.3810 1034.8221
ENERGY: 300000 6.5096 51.6461 12.6394 0.0000 -10564.8977 1357.0649 0.0000 0.0000 1796.6050 -7340.4326 305.7983 -9137.0376 -7373.2866 302.5623 -640.4529 -614.0636 30730.7273 -42.6213 -3.9318
ENERGY: 600000 8.5992 53.3683 13.9154 0.0000 -10719.6873 1448.6364 0.0000 0.0000 1760.6496 -7434.5183 299.6784 -9195.1679 -7375.8102 301.5640 -161.0153 -77.9115 30596.5791 -62.6876 -14.9140
ENERGY: 900000 8.3178 51.6228 15.1620 0.0000 -10716.6953 1491.4030 0.0000 0.0000 1748.5950 -7401.5946 297.6266 -9150.1896 -7381.7348 301.4010 491.9933 537.6957 30121.3408 -69.2807 -24.9840
ENERGY: 1200000 6.4950 52.0538 14.7923 0.0000 -10627.0348 1378.3678 0.0000 0.0000 1728.9339 -7446.3920 294.2801 -9175.3259 -7390.7433 300.3698 -333.2669 -336.3725 29854.9809 -84.6167 -42.4578
ENERGY: 1500000 8.3730 51.0611 14.6075 0.0000 -10680.7417 1457.1837 0.0000 0.0000 1795.2384 -7354.2780 305.5657 -9149.5164 -7384.5031 299.3886 236.5753 278.9374 29997.4529 -89.4711 -41.4202
TCL: Running FEP window  10: Lambda1 0.44999999999999996 Lambda2 0.49999999999999994 [dLambda 0.04999999999999999]
TCL: Setting parameter firsttimestep to 0
TCL: Setting parameter alchLambda to 0.44999999999999996
Info: NONBONDED TABLE R-SQUARED SPACING: 0.0625
Info: NONBONDED TABLE SIZE: 705 POINTS
TCL: Setting parameter alchLambda2 to 0.49999999999999994
Info: NONBONDED TABLE R-SQUARED SPACING: 0.0625
Info: NONBONDED TABLE SIZE: 705 POINTS
TCL: Running for 1500000 steps
ETITLE: TS BOND ANGLE DIHED IMPRP ELECT VDW BOUNDARY MISC KINETIC TOTAL TEMP POTENTIAL TOTALAVG TEMPAVG PRESSURE GPRESSURE VOLUME PRESSAVG GPRESSAVG
ENERGY: 0 8.3730 51.0611 14.6075 0.0000 -10680.7424 1457.0542 0.0000 0.0000 1794.3622 -7355.2844 305.4166 -9149.6466 -7355.2844 305.4166 198.9504 290.4099 29997.4529 198.9504 290.4099
ENERGY: 300000 7.6654 48.3017 14.7816 0.0000 -10626.6958 1472.4615 0.0000 0.0000 1758.4509 -7325.0346 299.3042 -9083.4855 -7367.9451 301.3496 708.5485 718.1567 30179.4565 322.9804 362.0631
ENERGY: 600000 13.6337 53.2752 14.1215 0.0000 -10554.6003 1334.8828 0.0000 0.0000 1721.9452 -7416.7419 293.0906 -9138.6871 -7371.6711 301.0085 -1086.5398 -979.8865 30688.5954 -198.5347 -125.7910
ENERGY: 900000 4.6008 49.6572 13.5011 0.0000 -10487.8981 1343.1890 0.0000 0.0000 1749.6191 -7327.3309 297.8009 -9076.9500 -7362.8744 300.3177 -565.1500 -479.6825 30345.5602 -239.2466 -169.9724
ENERGY: 1200000 6.1862 52.8368 15.8418 0.0000 -10601.7843 1322.1742 0.0000 0.0000 1747.3742 -7457.3710 297.4188 -9204.7452 -7371.1866 300.5214 -1107.3079 -1079.2689 30317.0395 -422.7125 -356.5442
ENERGY: 1500000 4.2775 54.8708 12.8719 0.0000 -10713.7757 1466.3087 0.0000 0.0000 1798.4505 -7376.9962 306.1124 -9175.4467 -7376.6658 301.4868 32.1763 109.6439 30782.3029 -406.4806 -336.6749
TCL: Running FEP window  11: Lambda1 0.49999999999999994 Lambda2 0.5499999999999999 [dLambda 0.04999999999999999]
TCL: Setting parameter firsttimestep to 0
TCL: Setting parameter alchLambda to 0.49999999999999994
Info: NONBONDED TABLE R-SQUARED SPACING: 0.0625
Info: NONBONDED TABLE SIZE: 705 POINTS
TCL: Setting parameter alchLambda2 to 0.5499999999999999
Info: NONBONDED TABLE R-SQUARED SPACING: 0.0625
Info: NONBONDED TABLE SIZE: 705 POINTS
TCL: Running for 1500000 steps
ETITLE: TS BOND ANGLE DIHED IMPRP ELECT VDW BOUNDARY MISC KINETIC TOTAL TEMP POTENTIAL TOTALAVG TEMPAVG PRESSURE GPRESSURE VOLUME PRESSAVG GPRESSAVG
ENERGY: 0 4.2775 54.8708 12.8719 0.0000 -10713.7768 1465.3757 0.0000 0.0000 1797.6197 -7378.7611 305.9710 -9176.3808 -7378.7611 305.9710 37.9646 114.3878 30782.3029 37.9646 114.3878
ENERGY: 300000 13.2380 52.4472 14.4221 0.0000 -10622.9687 1402.0018 0.0000 0.0000 1715.6503 -7425.2094 292.0191 -9140.8597 -7404.1143 298.2779 -61.7733 -27.6030 30111.1128 -45.4067 -6.2942
ENERGY: 600000 4.8330 51.4228 17.5878 0.0000 -10694.1323 1425.1768 0.0000 0.0000 1742.3457 -7452.7661 296.5629 -9195.1118 -7431.5328 296.9645 -194.5619 -125.9198 30307.5914 -14.2442 29.2709
ENERGY: 900000 9.5683 55.4313 13.1538 0.0000 -10459.9370 1311.6674 0.0000 0.0000 1790.9988 -7279.1175 304.8441 -9070.1163 -7415.0488 296.5922 -832.1708 -771.4513 30452.6476 -42.9030 -0.4978
ENERGY: 1200000 9.8234 48.7667 13.9370 0.0000 -10635.8407 1413.4089 0.0000 0.0000 1759.2785 -7390.6261 299.4450 -9149.9047 -7391.4366 297.9093 -71.5299 -7.9232 30455.8226 -1.2564 44.7981
ENERGY: 1500000 6.5445 49.5269 14.0097 0.0000 -10637.5258 1393.3120 0.0000 0.0000 1782.6536 -7391.4791 303.4237 -9174.1327 -7379.8133 298.8538 159.9317 130.8859 29828.0106 33.4301 79.4787
TCL: Running FEP window  12: Lambda1 0.5499999999999999 Lambda2 0.6    [dLambda 0.050000000000000044]
TCL: Setting parameter firsttimestep to 0
TCL: Setting parameter alchLambda to 0.5499999999999999
Info: NONBONDED TABLE R-SQUARED SPACING: 0.0625
Info: NONBONDED TABLE SIZE: 705 POINTS
TCL: Setting parameter alchLambda2 to 0.6
Info: NONBONDED TABLE R-SQUARED SPACING: 0.0625
Info: NONBONDED TABLE SIZE: 705 POINTS
TCL: Running for 1500000 steps
ETITLE: TS BOND ANGLE DIHED IMPRP ELECT VDW BOUNDARY MISC KINETIC TOTAL TEMP POTENTIAL TOTALAVG TEMPAVG PRESSURE GPRESSURE VOLUME PRESSAVG GPRESSAVG
ENERGY: 0 6.5445 49.5269 14.0097 0.0000 -10637.5911 1394.1218 0.0000 0.0000 1781.8024 -7391.5857 303.2788 -9173.3881 -7391.5857 303.2788 63.9372 153.0788 29828.0106 63.9372 153.0788
ENERGY: 300000 10.5799 47.4110 15.8250 0.0000 -10512.8738 1255.9326 0.0000 0.0000 1754.1848 -7428.9405 298.5780 -9183.1253 -7420.0183 300.7773 -1764.3952 -1689.2827 30741.6601 -649.8297 -568.5448
ENERGY: 600000 10.2775 50.4549 15.1144 0.0000 -10683.4139 1467.9319 0.0000 0.0000 1798.2314 -7341.4038 306.0752 -9139.6352 -7416.7474 300.9784 233.3073 277.8712 30602.6338 -316.0203 -248.0757
ENERGY: 900000 7.3724 47.0273 15.0216 0.0000 -10632.6977 1402.3211 0.0000 0.0000 1780.0212 -7380.9340 302.9756 -9160.9553 -7373.9470 302.1477 -88.2527 -91.5456 30196.1161 -211.1658 -142.7588
ENERGY: 1200000 5.5938 51.9948 15.5558 0.0000 -10592.7540 1373.2739 0.0000 0.0000 1778.9216 -7367.4140 302.7885 -9146.3357 -7377.3716 302.1102 -11.1609 10.0373 29855.2616 -165.9146 -103.9252
ENERGY: 1500000 6.7755 49.1738 13.9744 0.0000 -10430.9797 1349.5705 0.0000 0.0000 1784.9326 -7226.5529 303.8116 -9011.4855 -7367.5745 302.1323 -329.0175 -313.8596 30920.4236 -195.1009 -137.7862
TCL: Running FEP window  13: Lambda1 0.6    Lambda2 0.65   [dLambda 0.050000000000000044]
TCL: Setting parameter firsttimestep to 0
TCL: Setting parameter alchLambda to 0.6
Info: NONBONDED TABLE R-SQUARED SPACING: 0.0625
Info: NONBONDED TABLE SIZE: 705 POINTS
TCL: Setting parameter alchLambda2 to 0.65
Info: NONBONDED TABLE R-SQUARED SPACING: 0.0625
Info: NONBONDED TABLE SIZE: 705 POINTS
TCL: Running for 1500000 steps
ETITLE: TS BOND ANGLE DIHED IMPRP ELECT VDW BOUNDARY MISC KINETIC TOTAL TEMP POTENTIAL TOTALAVG TEMPAVG PRESSURE GPRESSURE VOLUME PRESSAVG GPRESSAVG
ENERGY: 0 6.7755 49.1738 13.9744 0.0000 -10431.7360 1348.8988 0.0000 0.0000 1784.1311 -7228.7823 303.6752 -9012.9135 -7228.7823 303.6752 -387.5423 -307.2390 30920.4236 -387.5423 -307.2390
ENERGY: 300000 7.6870 53.8673 14.3185 0.0000 -10606.2042 1391.8177 0.0000 0.0000 1729.0822 -7409.4316 294.3053 -9138.5137 -7319.4834 304.2839 -204.3713 -256.1100 30598.8285 -233.2170 -193.6888
ENERGY: 600000 7.6331 54.3925 13.1338 0.0000 -10572.3013 1368.4758 0.0000 0.0000 1780.5932 -7348.0727 303.0730 -9128.6660 -7358.0830 301.6855 -482.3745 -376.4467 30274.7956 -227.2677 -174.3997
ENERGY: 900000 9.3026 52.8950 13.8547 0.0000 -10540.9019 1311.5994 0.0000 0.0000 1745.9582 -7407.2921 297.1778 -9153.2502 -7355.9046 301.4311 -1287.4375 -1176.9128 30872.7360 -247.0056 -178.7219
ENERGY: 1200000 3.2384 53.2499 16.6046 0.0000 -10663.8487 1389.9924 0.0000 0.0000 1802.3594 -7398.4040 306.7778 -9200.7634 -7362.5885 301.2501 -362.0452 -370.4604 30526.0356 -231.2083 -172.5907
ENERGY: 1500000 7.1175 50.0442 14.7394 0.0000 -10754.3091 1488.5432 0.0000 0.0000 1770.6407 -7423.2240 301.3790 -9193.8647 -7367.3864 301.3747 293.1641 351.9606 30220.8487 -148.3132 -91.7615
TCL: Running FEP window  14: Lambda1 0.65   Lambda2 0.7000000000000001 [dLambda 0.050000000000000044]
TCL: Setting parameter firsttimestep to 0
TCL: Setting parameter alchLambda to 0.65
Info: NONBONDED TABLE R-SQUARED SPACING: 0.0625
Info: NONBONDED TABLE SIZE: 705 POINTS
TCL: Setting parameter alchLambda2 to 0.7000000000000001
Info: NONBONDED TABLE R-SQUARED SPACING: 0.0625
Info: NONBONDED TABLE SIZE: 705 POINTS
TCL: Running for 1500000 steps
ETITLE: TS BOND ANGLE DIHED IMPRP ELECT VDW BOUNDARY MISC KINETIC TOTAL TEMP POTENTIAL TOTALAVG TEMPAVG PRESSURE GPRESSURE VOLUME PRESSAVG GPRESSAVG
ENERGY: 0 7.1175 50.0442 14.7394 0.0000 -10754.6474 1487.7812 0.0000 0.0000 1769.7485 -7425.2164 301.2271 -9194.9650 -7425.2164 301.2271 260.6876 355.8789 30220.8487 260.6876 355.8789
ENERGY: 300000 6.5542 51.7150 15.2966 0.0000 -10569.8384 1383.5728 0.0000 0.0000 1780.3161 -7332.3837 303.0258 -9112.6998 -7382.3030 299.2631 -273.5539 -213.7663 30768.6201 -134.1816 -63.7005
ENERGY: 600000 7.7509 48.5050 15.1189 0.0000 -10718.4074 1470.7135 0.0000 0.0000 1799.7595 -7376.5596 306.3353 -9176.3192 -7381.4673 301.7035 295.6850 328.7886 30507.4314 122.5523 191.1070
ENERGY: 900000 11.3897 55.1548 13.5969 0.0000 -10613.3558 1411.2482 0.0000 0.0000 1760.6641 -7361.3021 299.6809 -9121.9662 -7385.4364 301.4421 -100.2682 -102.9791 30628.0256 129.8741 184.5047
ENERGY: 1200000 6.0656 45.0055 14.9972 0.0000 -10521.3764 1355.3934 0.0000 0.0000 1747.7176 -7352.1969 297.4773 -9099.9146 -7382.5112 300.2293 -703.3752 -563.7991 30695.7185 25.7243 88.5155
ENERGY: 1500000 9.1265 49.7455 13.3265 0.0000 -10667.4483 1446.3584 0.0000 0.0000 1791.0068 -7357.8845 304.8455 -9148.8913 -7385.9689 300.4581 105.9993 167.4712 30489.2326 35.9483 98.2564
TCL: Running FEP window  15: Lambda1 0.7000000000000001 Lambda2 0.7500000000000001 [dLambda 0.050000000000000044]
TCL: Setting parameter firsttimestep to 0
TCL: Setting parameter alchLambda to 0.7000000000000001
Info: NONBONDED TABLE R-SQUARED SPACING: 0.0625
Info: NONBONDED TABLE SIZE: 705 POINTS
TCL: Setting parameter alchLambda2 to 0.7500000000000001
Info: NONBONDED TABLE R-SQUARED SPACING: 0.0625
Info: NONBONDED TABLE SIZE: 705 POINTS
TCL: Running for 1500000 steps
ETITLE: TS BOND ANGLE DIHED IMPRP ELECT VDW BOUNDARY MISC KINETIC TOTAL TEMP POTENTIAL TOTALAVG TEMPAVG PRESSURE GPRESSURE VOLUME PRESSAVG GPRESSAVG
ENERGY: 0 9.1265 49.7455 13.3265 0.0000 -10667.4850 1446.1310 0.0000 0.0000 1790.1819 -7358.9735 304.7051 -9149.1554 -7358.9735 304.7051 100.1648 182.6333 30489.2326 100.1648 182.6333
ENERGY: 300000 5.2318 48.6550 15.6040 0.0000 -10654.7143 1385.6795 0.0000 0.0000 1822.4435 -7377.1005 310.1963 -9199.5441 -7346.8256 305.8213 -366.8920 -250.7718 30320.1134 64.9079 158.4925
ENERGY: 600000 6.1134 49.5262 14.0768 0.0000 -10622.8191 1449.4595 0.0000 0.0000 1802.0365 -7301.6066 306.7228 -9103.6432 -7324.6385 306.0069 361.3616 404.5212 30549.8817 -18.2104 62.3916
ENERGY: 900000 10.4301 48.6372 15.1272 0.0000 -10578.7867 1339.5661 0.0000 0.0000 1778.4212 -7386.6050 302.7033 -9165.0261 -7337.3335 305.0396 -985.3885 -934.2144 31082.8549 53.0732 125.5312
ENERGY: 1200000 5.7692 47.7278 14.6484 0.0000 -10623.2001 1361.9144 0.0000 0.0000 1725.1671 -7467.9731 293.6390 -9193.1402 -7341.8754 303.8675 -804.5110 -759.2307 30666.6802 15.0385 86.3475
ENERGY: 1500000 9.4797 52.1777 15.2107 0.0000 -10618.5765 1377.6940 0.0000 0.0000 1786.2092 -7377.8052 304.0289 -9164.0144 -7350.2515 303.9326 -383.6654 -394.2239 30453.1973 -26.0153 35.2455
TCL: Running FEP window  16: Lambda1 0.7500000000000001 Lambda2 0.8000000000000002 [dLambda 0.050000000000000044]
TCL: Setting parameter firsttimestep to 0
TCL: Setting parameter alchLambda to 0.7500000000000001
Info: NONBONDED TABLE R-SQUARED SPACING: 0.0625
Info: NONBONDED TABLE SIZE: 705 POINTS
TCL: Setting parameter alchLambda2 to 0.8000000000000002
Info: NONBONDED TABLE R-SQUARED SPACING: 0.0625
Info: NONBONDED TABLE SIZE: 705 POINTS
TCL: Running for 1500000 steps
ETITLE: TS BOND ANGLE DIHED IMPRP ELECT VDW BOUNDARY MISC KINETIC TOTAL TEMP POTENTIAL TOTALAVG TEMPAVG PRESSURE GPRESSURE VOLUME PRESSAVG GPRESSAVG
ENERGY: 0 9.4797 52.1777 15.2107 0.0000 -10619.6738 1378.5796 0.0000 0.0000 1785.3399 -7378.8862 303.8809 -9164.2261 -7378.8862 303.8809 -453.4234 -367.2049 30453.1973 -453.4234 -367.2049
ENERGY: 300000 13.3420 56.8295 13.0591 0.0000 -10484.5924 1278.0010 0.0000 0.0000 1773.7101 -7349.6508 301.9014 -9123.3608 -7373.2342 301.2803 -1186.8597 -1146.6124 30555.2595 -405.9394 -332.6241
ENERGY: 600000 5.7232 50.3496 13.3031 0.0000 -10639.0041 1365.8262 0.0000 0.0000 1734.8843 -7468.9177 295.2929 -9203.8020 -7375.7936 301.7829 -654.0201 -533.6783 30606.4717 -333.8389 -259.7708
ENERGY: 900000 8.6288 55.2096 13.6335 0.0000 -10729.9190 1516.5906 0.0000 0.0000 1781.1863 -7354.6702 303.1739 -9135.8565 -7364.7032 302.7749 1136.5414 1177.8986 30164.1733 -126.0049 -49.4966
ENERGY: 1200000 11.0875 58.6454 14.2046 0.0000 -10620.9296 1406.2295 0.0000 0.0000 1719.6580 -7411.1046 292.7013 -9130.7626 -7375.8110 301.1750 -396.9627 -336.0648 30318.5586 -189.9699 -113.9827
ENERGY: 1500000 8.5143 48.9526 14.6823 0.0000 -10697.7530 1465.2476 0.0000 0.0000 1750.8542 -7409.5020 298.0111 -9160.3563 -7384.5084 300.5500 132.7826 189.4245 30121.1379 -166.3479 -91.1043
TCL: Running FEP window  17: Lambda1 0.8000000000000002 Lambda2 0.8500000000000002 [dLambda 0.050000000000000044]
TCL: Setting parameter firsttimestep to 0
TCL: Setting parameter alchLambda to 0.8000000000000002
Info: NONBONDED TABLE R-SQUARED SPACING: 0.0625
Info: NONBONDED TABLE SIZE: 705 POINTS
TCL: Setting parameter alchLambda2 to 0.8500000000000002
Info: NONBONDED TABLE R-SQUARED SPACING: 0.0625
Info: NONBONDED TABLE SIZE: 705 POINTS
TCL: Running for 1500000 steps
ETITLE: TS BOND ANGLE DIHED IMPRP ELECT VDW BOUNDARY MISC KINETIC TOTAL TEMP POTENTIAL TOTALAVG TEMPAVG PRESSURE GPRESSURE VOLUME PRESSAVG GPRESSAVG
ENERGY: 0 8.5143 48.9526 14.6823 0.0000 -10699.6859 1465.9079 0.0000 0.0000 1749.9758 -7411.6529 297.8616 -9161.6288 -7411.6529 297.8616 121.2244 209.7083 30121.1379 121.2244 209.7083
ENERGY: 300000 5.6349 51.1869 15.1755 0.0000 -10665.0227 1411.1541 0.0000 0.0000 1740.4062 -7441.4652 296.2328 -9181.8713 -7412.5766 298.6084 -154.7836 -43.5955 30623.5091 -181.8892 -95.4578
ENERGY: 600000 8.2398 60.5623 13.2690 0.0000 -10679.6218 1417.7541 0.0000 0.0000 1816.7764 -7363.0202 309.2317 -9179.7966 -7377.8200 302.2606 -244.9400 -186.7018 30102.8910 -200.5259 -128.4753
ENERGY: 900000 7.4019 48.9409 14.7069 0.0000 -10597.7224 1345.3711 0.0000 0.0000 1861.9066 -7319.3950 316.9133 -9181.3017 -7370.8597 303.5727 -654.6460 -609.4767 30543.6124 -235.8071 -158.0777
ENERGY: 1200000 6.8754 50.7745 15.0620 0.0000 -10735.9481 1428.7627 0.0000 0.0000 1769.7901 -7464.6834 301.2342 -9234.4734 -7382.4690 302.6734 -186.0724 -161.8773 30533.9062 -263.5795 -199.1378
ENERGY: 1500000 5.4801 51.9438 13.1840 0.0000 -10745.4316 1515.9801 0.0000 0.0000 1736.6574 -7422.1862 295.5947 -9158.8436 -7389.2713 302.3857 527.5917 601.1347 30381.8042 -125.0241 -58.7181
TCL: Running FEP window  18: Lambda1 0.8500000000000002 Lambda2 0.9000000000000002 [dLambda 0.050000000000000044]
TCL: Setting parameter firsttimestep to 0
TCL: Setting parameter alchLambda to 0.8500000000000002
Info: NONBONDED TABLE R-SQUARED SPACING: 0.0625
Info: NONBONDED TABLE SIZE: 705 POINTS
TCL: Setting parameter alchLambda2 to 0.9000000000000002
Info: NONBONDED TABLE R-SQUARED SPACING: 0.0625
Info: NONBONDED TABLE SIZE: 705 POINTS
TCL: Running for 1500000 steps
ETITLE: TS BOND ANGLE DIHED IMPRP ELECT VDW BOUNDARY MISC KINETIC TOTAL TEMP POTENTIAL TOTALAVG TEMPAVG PRESSURE GPRESSURE VOLUME PRESSAVG GPRESSAVG
ENERGY: 0 5.4801 51.9438 13.1840 0.0000 -10747.1228 1516.1548 0.0000 0.0000 1735.7586 -7424.6014 295.4417 -9160.3600 -7424.6014 295.4417 532.2934 616.7460 30381.8042 532.2934 616.7460
ENERGY: 300000 7.1614 46.2072 14.4359 0.0000 -10555.2350 1334.2360 0.0000 0.0000 1719.2942 -7433.9002 292.6393 -9153.1944 -7416.1243 294.9566 -790.8352 -736.2814 30633.6554 65.1746 138.2407
ENERGY: 600000 5.6925 47.1243 15.2213 0.0000 -10547.1487 1357.8904 0.0000 0.0000 1768.8219 -7352.3984 301.0694 -9121.2203 -7414.5117 295.9451 -423.4752 -382.2678 30597.6832 36.0005 98.5938
ENERGY: 900000 7.3288 49.3775 15.0180 0.0000 -10674.7839 1402.1554 0.0000 0.0000 1750.0447 -7450.8595 297.8733 -9200.9042 -7427.5045 296.1403 -387.0376 -333.6463 30353.5608 67.7127 122.4876
ENERGY: 1200000 7.4679 52.9160 14.4670 0.0000 -10531.2294 1340.3193 0.0000 0.0000 1856.1761 -7259.8831 315.9379 -9116.0592 -7399.8217 298.9602 -735.9213 -674.9514 31256.2036 -13.7726 43.2895
ENERGY: 1500000 6.2900 55.0426 13.7554 0.0000 -10606.7450 1393.2352 0.0000 0.0000 1746.1442 -7392.2775 297.2094 -9138.4217 -7398.5681 298.5362 -812.7499 -675.7755 31358.2646 -156.8216 -90.7661
TCL: Running FEP window  19: Lambda1 0.9000000000000002 Lambda2 0.9500000000000003 [dLambda 0.050000000000000044]
TCL: Setting parameter firsttimestep to 0
TCL: Setting parameter alchLambda to 0.9000000000000002
Info: NONBONDED TABLE R-SQUARED SPACING: 0.0625
Info: NONBONDED TABLE SIZE: 705 POINTS
TCL: Setting parameter alchLambda2 to 0.9500000000000003
Info: NONBONDED TABLE R-SQUARED SPACING: 0.0625
Info: NONBONDED TABLE SIZE: 705 POINTS
TCL: Running for 1500000 steps
ETITLE: TS BOND ANGLE DIHED IMPRP ELECT VDW BOUNDARY MISC KINETIC TOTAL TEMP POTENTIAL TOTALAVG TEMPAVG PRESSURE GPRESSURE VOLUME PRESSAVG GPRESSAVG
ENERGY: 0 6.2900 55.0426 13.7554 0.0000 -10608.0498 1394.3161 0.0000 0.0000 1745.2818 -7393.3639 297.0627 -9138.6457 -7393.3639 297.0627 -724.0186 -649.0179 31358.2646 -724.0186 -649.0179
ENERGY: 300000 6.4686 49.8251 14.8901 0.0000 -10595.7816 1417.0564 0.0000 0.0000 1816.8041 -7290.7373 309.2364 -9107.5414 -7376.3582 299.6777 100.9340 184.1684 30582.3044 -232.5704 -147.5335
ENERGY: 600000 7.7682 50.2472 15.2011 0.0000 -10595.3465 1376.5801 0.0000 0.0000 1755.4457 -7390.1042 298.7926 -9145.5499 -7362.1134 300.0394 -87.2126 -40.7659 29853.6464 -245.3172 -162.5544
ENERGY: 900000 9.2940 53.8168 16.3484 0.0000 -10660.1819 1449.9216 0.0000 0.0000 1802.4622 -7328.3389 306.7953 -9130.8011 -7360.7966 300.3422 144.5672 264.1017 30351.2811 -155.1451 -67.5248
ENERGY: 1200000 5.0287 48.7020 13.4168 0.0000 -10826.8282 1485.8936 0.0000 0.0000 1723.8878 -7549.8993 293.4212 -9273.7870 -7376.3758 300.7104 387.8301 421.5805 29895.8276 -117.1398 -36.4111
ENERGY: 1500000 5.6243 50.1881 14.1662 0.0000 -10486.2973 1339.0673 0.0000 0.0000 1741.6319 -7335.6195 296.4414 -9077.2514 -7388.1388 300.0760 -321.3929 -297.6608 30687.7882 -161.2430 -82.3118
TCL: Running FEP window  20: Lambda1 0.9500000000000003 Lambda2 1.0    [dLambda 0.04999999999999971]
TCL: Setting parameter firsttimestep to 0
TCL: Setting parameter alchLambda to 0.9500000000000003
Info: NONBONDED TABLE R-SQUARED SPACING: 0.0625
Info: NONBONDED TABLE SIZE: 705 POINTS
TCL: Setting parameter alchLambda2 to 1.0
Info: NONBONDED TABLE R-SQUARED SPACING: 0.0625
Info: NONBONDED TABLE SIZE: 705 POINTS
TCL: Running for 1500000 steps
ETITLE: TS BOND ANGLE DIHED IMPRP ELECT VDW BOUNDARY MISC KINETIC TOTAL TEMP POTENTIAL TOTALAVG TEMPAVG PRESSURE GPRESSURE VOLUME PRESSAVG GPRESSAVG
ENERGY: 0 5.6243 50.1881 14.1662 0.0000 -10488.0343 1339.1251 0.0000 0.0000 1740.7613 -7338.1693 296.2932 -9078.9306 -7338.1693 296.2932 -363.8167 -276.7712 30687.7882 -363.8167 -276.7712
ENERGY: 300000 2.9097 51.8108 15.2385 0.0000 -10785.8827 1538.2121 0.0000 0.0000 1726.4956 -7451.2160 293.8651 -9177.7115 -7398.6236 295.8934 1008.7897 1130.7674 30282.3014 76.2524 175.1740
ENERGY: 600000 6.2588 53.3200 15.3057 0.0000 -10659.9163 1464.6679 0.0000 0.0000 1748.1947 -7372.1692 297.5585 -9120.3639 -7388.5102 297.9645 493.4188 490.3861 30664.6742 39.2668 118.4573
ENERGY: 900000 8.5767 51.2024 13.3860 0.0000 -10706.3513 1461.4009 0.0000 0.0000 1713.8777 -7457.9074 291.7174 -9171.7852 -7402.9785 297.9758 -130.7746 -56.3667 30590.7414 -11.7651 68.3829
ENERGY: 1200000 6.1060 56.9433 12.7363 0.0000 -10695.0838 1422.4761 0.0000 0.0000 1752.9947 -7443.8274 298.3755 -9196.8221 -7415.1175 297.8854 -111.2128 -82.5416 30291.3755 -72.4363 -2.0412
ENERGY: 1500000 10.5650 47.1218 15.3339 0.0000 -10685.0866 1459.2706 0.0000 0.0000 1703.1887 -7449.6066 289.8980 -9152.7953 -7421.2656 297.5412 166.6041 239.3324 30477.4202 -39.6233 32.2528
TCL: Exiting due to exit command.
