Info: SIMULATION PARAMETERS:
Info: TIMESTEP               2
Info: NUMBER OF STEPS        0
Info: STEPS PER CYCLE        10
Info: PERIODIC CELL BASIS 1  31.8708 0 0
Info: PERIODIC CELL BASIS 2  0 30.0955 0
Info: PERIODIC CELL BASIS 3  0 0 31.4975
Info: PERIODIC CELL CENTER   0 0 0
Info: WRAPPING WATERS AROUND PERIODIC BOUNDARIES ON OUTPUT.
Info: WRAPPING ALL CLUSTERS AROUND PERIODIC BOUNDARIES ON OUTPUT.
Info: FIRST LDB TIMESTEP     50
Info: LAST LDB TIMESTEP     -1
Info: HOM BACKGROUND SCALING 1
Info: PME BACKGROUND SCALING 1
Info: MIN ATOMS PER PATCH    40
Info: EMPTY PATCH LOAD       40 ATOMS
Info: VELOCITY FILE          mobley_6257907_equil.vel
Info: CENTER OF MASS MOVING INITIALLY? NO
Info: DIELECTRIC             1
Info: EXCLUDE                SCALED ONE-FOUR
Info: 1-4 ELECTROSTATICS SCALED BY 0.833333
Info: MODIFIED 1-4 VDW PARAMETERS WILL BE USED
Info: DCD FILENAME           mobley_6257907_prod.dcd
Info: DCD FREQUENCY          100000
Info: DCD FIRST STEP         100000
Info: DCD FILE WILL CONTAIN UNIT CELL DATA
Info: XST FILENAME           mobley_6257907_prod.xst
Info: XST FREQUENCY          100000
Info: NO VELOCITY DCD OUTPUT
Info: NO FORCE DCD OUTPUT
Info: OUTPUT FILENAME        mobley_6257907_prod
Info: BINARY OUTPUT FILES WILL BE USED
Info: RESTART FILENAME       mobley_6257907_prod.restart
Info: RESTART FREQUENCY      100000
Info: BINARY RESTART FILES WILL BE USED
Info: CUTOFF                 9
Info: PAIRLIST DISTANCE      11
Info: PAIRLIST SHRINK RATE   0.01
Info: PAIRLIST GROW RATE     0.01
Info: PAIRLIST TRIGGER       0.3
Info: PAIRLISTS PER CYCLE    2
Info: PAIRLISTS ENABLED
Info: MARGIN                 2
Info: HYDROGEN GROUP CUTOFF  2.5
Info: PATCH DIMENSION        15.5
Info: ENERGY OUTPUT STEPS    100000
Info: ENERGY EVALUATION STEPS    100000
Info: OUTPUT ENERGY PRECISION 4
Info: CROSSTERM ENERGY INCLUDED IN DIHEDRAL
Info: TIMING OUTPUT STEPS    1000000
Info: PRESSURE OUTPUT STEPS  100000
Info: ALCHEMICAL FEP ON
Info: FEP CURRENT LAMBDA VALUE     1
Info: FEP COMPARISON LAMBDA VALUE  0.95
Info: FEP INTRA-ALCHEMICAL NON-BONDED INTERACTIONS WILL BE RETAINED
Info: FEP INTRA-ALCHEMICAL BONDED INTERACTIONS WILL BE RETAINED
Info: FEP VDW SHIFTING COEFFICIENT 5
Info: FEP ELEC. ACTIVE FOR ANNIHILATED PARTICLES BETWEEN LAMBDA = 0 AND LAMBDA = 0.5
Info: FEP ELEC. ACTIVE FOR EXNIHILATED PARTICLES BETWEEN LAMBDA = 0.5 AND LAMBDA = 1
Info: FEP VDW ACTIVE FOR ANNIHILATED PARTICLES BETWEEN LAMBDA = 0 AND LAMBDA = 1
Info: FEP VDW ACTIVE FOR EXNIHILATED PARTICLES BETWEEN LAMBDA = 0 AND LAMBDA = 1
Info: FEP BOND ACTIVE FOR ANNIHILATED PARTICLES BETWEEN LAMBDA = 1 AND LAMBDA = 1
Info: FEP BOND ACTIVE FOR EXNIHILATED PARTICLES BETWEEN LAMBDA = 0 AND LAMBDA = 0
Info: LANGEVIN DYNAMICS ACTIVE
Info: LANGEVIN TEMPERATURE   300
Info: LANGEVIN USING BBK INTEGRATOR
Info: LANGEVIN DAMPING COEFFICIENT IS 1 INVERSE PS
Info: LANGEVIN DYNAMICS APPLIED TO HYDROGENS
Info: LANGEVIN PISTON PRESSURE CONTROL ACTIVE
Info:        TARGET PRESSURE IS 1.01325 BAR
Info:     OSCILLATION PERIOD IS 50 FS
Info:             DECAY TIME IS 25 FS
Info:     PISTON TEMPERATURE IS 300 K
Info:       PRESSURE CONTROL IS GROUP-BASED
Info:    INITIAL STRAIN RATE IS -6.92667e-05 -6.92667e-05 -6.92667e-05
Info:       CELL FLUCTUATION IS ISOTROPIC
Info: PARTICLE MESH EWALD (PME) ACTIVE
Info: PME TOLERANCE               1e-06
Info: PME EWALD COEFFICIENT       0.348832
Info: PME INTERPOLATION ORDER     4
Info: PME GRID DIMENSIONS         32 32 32
Info: PME MAXIMUM GRID SPACING    1
Info: PME CALCULATION WILL BE PERFORMED ON GPU
Info: FULL ELECTROSTATIC EVALUATION FREQUENCY      2
Info: USING VERLET I (r-RESPA) MTS SCHEME.
Info: C1 SPLITTING OF LONG RANGE ELECTROSTATICS
Info: PLACING ATOMS IN PATCHES BY HYDROGEN GROUPS
Info: RIGID BONDS TO HYDROGEN : ALL
Info:         ERROR TOLERANCE : 1e-08
Info:          MAX ITERATIONS : 100
Info: RIGID WATER USING SETTLE ALGORITHM
Info: RANDOM NUMBER SEED     1743579900
Info: USE HYDROGEN BONDS?    NO
Info: Using AMBER format force field!
Info: AMBER PARM FILE        mobley_6257907.prmtop
Info: COORDINATE PDB         mobley_6257907.pdb
Info: Exclusions will be read from PARM file!
Info: SCNB (VDW SCALING)     2
Info: USING ARITHMETIC MEAN TO COMBINE L-J SIGMA PARAMETERS
Info: BINARY COORDINATES     mobley_6257907_equil.coor
Info: SUMMARY OF PARAMETERS:
Info: 7 BONDS
Info: 6 ANGLES
Info:   6 HARMONIC
Info:   0 COSINE-BASED
Info: 3 DIHEDRAL
Info: 0 IMPROPER
Info: 0 CROSSTERM
Info: 0 VDW
Info: 28 VDW_PAIRS
Info: 0 NBTHOLE_PAIRS
Info: To read alchdata from file: mobley_6257907.pdb
Info: To read alchflag data from column: 5
Info: STRUCTURE SUMMARY:
Info: 2927 ATOMS
Info: 2927 BONDS
Info: 21 ANGLES
Info: 35 DIHEDRALS
Info: 0 IMPROPERS
Info: 0 CROSSTERMS
Info: 2973 EXCLUSIONS
Info: 2919 RIGID BONDS
Info: ALCH: 0 ATOMS TO DISAPPEAR IN FINAL STATE
Info: ALCH: 14 ATOMS TO APPEAR IN FINAL STATE
Info: 5862 DEGREES OF FREEDOM
Info: 979 HYDROGEN GROUPS
Info: 3 ATOMS IN LARGEST HYDROGEN GROUP
Info: 979 MIGRATION GROUPS
Info: 3 ATOMS IN LARGEST MIGRATION GROUP
Info: TOTAL MASS = 17621.1 amu
Info: TOTAL CHARGE = 0.000200048 e
Info: MASS DENSITY = 0.968552 g/cm^3
Info: ATOM DENSITY = 0.0968843 atoms/A^3
Info: ADDED 0 IMPLICIT EXCLUSIONS
Info: NONBONDED TABLE R-SQUARED SPACING: 0.0625
Info: NONBONDED TABLE SIZE: 705 POINTS
Info: REMOVING COM VELOCITY -0.1723 0.0640034 -0.166192
Info: Use 3D box decompostion in PME FFT.
Info: Updated CUDA force table with 4096 elements.
Info: Updated CUDA LJ table with 7 x 7 elements.
Info: Found 17 unique exclusion lists needing 36 bytes
TCL: Running for 1500000 steps
ETITLE: TS BOND ANGLE DIHED IMPRP ELECT VDW BOUNDARY MISC KINETIC TOTAL TEMP POTENTIAL TOTALAVG TEMPAVG PRESSURE GPRESSURE VOLUME PRESSAVG GPRESSAVG
ENERGY: 0 1.8109 5.9327 3.1627 0.0000 -10643.3859 1414.4198 0.0000 0.0000 1713.7983 -7504.2615 294.2417 -9218.0598 -7504.2615 294.2417 -138.0425 -62.0477 30211.2953 -138.0425 -62.0477
ENERGY: 300000 3.9003 3.4628 5.6770 0.0000 -10647.9448 1427.3319 0.0000 0.0000 1761.2929 -7446.2799 302.3961 -9207.5728 -7475.3191 299.6942 -68.9026 -3.2135 30067.2784 -105.9429 -40.4784
ENERGY: 600000 1.9787 5.1979 7.2438 0.0000 -10525.9689 1411.9753 0.0000 0.0000 1735.4291 -7364.1441 297.9555 -9099.5732 -7446.9847 300.2009 170.7393 238.8211 30294.0136 -74.1451 -10.0440
ENERGY: 900000 3.5151 2.1310 6.2124 0.0000 -10713.7212 1449.7348 0.0000 0.0000 1750.5057 -7501.6223 300.5440 -9252.1279 -7460.9152 300.1428 8.6412 99.9523 29957.7707 -35.7971 27.4607
ENERGY: 1200000 1.7027 2.8254 1.6623 0.0000 -10613.1199 1379.6676 0.0000 0.0000 1765.9981 -7461.2639 303.2039 -9227.2620 -7457.2244 299.2940 -492.0862 -479.5591 30193.2111 -73.0340 -6.4964
ENERGY: 1500000 0.9248 3.4842 6.1929 0.0000 -10663.3761 1441.2782 0.0000 0.0000 1730.3611 -7481.1349 297.0854 -9211.4960 -7467.7455 299.5190 -67.0058 -19.0022 30691.1213 -98.5429 -35.3375
TCL: Running FEP window   2: Lambda1 0.95   Lambda2 0.8999999999999999 [dLambda -0.050000000000000044]
TCL: Setting parameter firsttimestep to 0
TCL: Setting parameter alchLambda to 0.95
Info: NONBONDED TABLE R-SQUARED SPACING: 0.0625
Info: NONBONDED TABLE SIZE: 705 POINTS
TCL: Setting parameter alchLambda2 to 0.8999999999999999
Info: NONBONDED TABLE R-SQUARED SPACING: 0.0625
Info: NONBONDED TABLE SIZE: 705 POINTS
TCL: Running for 1500000 steps
ETITLE: TS BOND ANGLE DIHED IMPRP ELECT VDW BOUNDARY MISC KINETIC TOTAL TEMP POTENTIAL TOTALAVG TEMPAVG PRESSURE GPRESSURE VOLUME PRESSAVG GPRESSAVG
ENERGY: 0 0.9248 3.4842 6.1929 0.0000 -10662.1157 1440.9808 0.0000 0.0000 1729.4936 -7481.0393 296.9365 -9210.5330 -7481.0393 296.9365 -118.4885 -29.7690 30691.1213 -118.4885 -29.7690
ENERGY: 300000 1.2058 2.2826 5.8419 0.0000 -10647.1103 1437.0545 0.0000 0.0000 1716.4551 -7484.2704 294.6979 -9200.7255 -7452.4235 299.3566 241.0748 225.2071 30153.9616 -336.9684 -287.9160
ENERGY: 600000 2.6559 4.2004 1.5520 0.0000 -10803.0979 1582.9285 0.0000 0.0000 1802.3497 -7409.4115 309.4451 -9211.7612 -7442.6055 302.1427 1410.6059 1433.3056 30105.9194 -64.5087 1.3939
ENERGY: 900000 2.8050 2.8394 2.5894 0.0000 -10648.1361 1426.4351 0.0000 0.0000 1747.9630 -7465.5042 300.1075 -9213.4671 -7452.4454 300.8591 170.8543 215.5809 29840.7837 -118.7439 -59.4647
ENERGY: 1200000 1.8429 5.6005 7.6073 0.0000 -10533.9581 1354.5680 0.0000 0.0000 1783.6419 -7380.6974 306.2332 -9164.3394 -7431.7148 302.2305 -474.3731 -387.1382 30415.0405 -209.2558 -139.1388
ENERGY: 1500000 1.6874 3.4453 5.6858 0.0000 -10680.5565 1399.3638 0.0000 0.0000 1732.5447 -7537.8294 297.4603 -9270.3741 -7439.8918 302.2034 -413.5904 -299.5545 30003.8978 -201.7914 -130.0855
TCL: Running FEP window   3: Lambda1 0.8999999999999999 Lambda2 0.8499999999999999 [dLambda -0.050000000000000044]
TCL: Setting parameter firsttimestep to 0
TCL: Setting parameter alchLambda to 0.8999999999999999
Info: NONBONDED TABLE R-SQUARED SPACING: 0.0625
Info: NONBONDED TABLE SIZE: 705 POINTS
TCL: Setting parameter alchLambda2 to 0.8499999999999999
Info: NONBONDED TABLE R-SQUARED SPACING: 0.0625
Info: NONBONDED TABLE SIZE: 705 POINTS
TCL: Running for 1500000 steps
ETITLE: TS BOND ANGLE DIHED IMPRP ELECT VDW BOUNDARY MISC KINETIC TOTAL TEMP POTENTIAL TOTALAVG TEMPAVG PRESSURE GPRESSURE VOLUME PRESSAVG GPRESSAVG
ENERGY: 0 1.6874 3.4453 5.6858 0.0000 -10679.3968 1399.7002 0.0000 0.0000 1731.6611 -7537.2170 297.3086 -9268.8781 -7537.2170 297.3086 -394.0116 -303.0084 30003.8978 -394.0116 -303.0084
ENERGY: 300000 2.1746 7.0817 5.3481 0.0000 -10765.8443 1526.3355 0.0000 0.0000 1735.7049 -7489.1996 298.0029 -9224.9045 -7484.0514 298.4722 608.2467 601.0760 30536.6665 77.7746 125.9677
ENERGY: 600000 2.0907 6.0203 2.6316 0.0000 -10618.6631 1440.9904 0.0000 0.0000 1766.2516 -7400.6785 303.2474 -9166.9301 -7460.9140 299.7535 326.8072 403.3130 30173.0496 -2.3068 48.2359
ENERGY: 900000 1.6909 2.7593 7.0865 0.0000 -10628.8846 1460.8128 0.0000 0.0000 1753.7784 -7402.7566 301.1059 -9156.5350 -7465.9329 299.5790 424.0810 468.2368 30056.4717 86.6523 141.1835
ENERGY: 1200000 0.6921 6.1922 4.0064 0.0000 -10567.6143 1376.1837 0.0000 0.0000 1740.1383 -7440.4015 298.7640 -9180.5398 -7463.1388 299.0105 -654.9042 -601.0433 30928.3284 48.9480 105.6130
ENERGY: 1500000 1.6781 4.4221 3.7793 0.0000 -10643.9251 1450.3858 0.0000 0.0000 1766.0886 -7417.5712 303.2195 -9183.6598 -7456.7853 299.0690 256.1427 324.3515 30185.1363 54.0156 115.5231
TCL: Running FEP window   4: Lambda1 0.8499999999999999 Lambda2 0.7999999999999998 [dLambda -0.050000000000000044]
TCL: Setting parameter firsttimestep to 0
TCL: Setting parameter alchLambda to 0.8499999999999999
Info: NONBONDED TABLE R-SQUARED SPACING: 0.0625
Info: NONBONDED TABLE SIZE: 705 POINTS
TCL: Setting parameter alchLambda2 to 0.7999999999999998
Info: NONBONDED TABLE R-SQUARED SPACING: 0.0625
Info: NONBONDED TABLE SIZE: 705 POINTS
TCL: Running for 1500000 steps
ETITLE: TS BOND ANGLE DIHED IMPRP ELECT VDW BOUNDARY MISC KINETIC TOTAL TEMP POTENTIAL TOTALAVG TEMPAVG PRESSURE GPRESSURE VOLUME PRESSAVG GPRESSAVG
ENERGY: 0 1.6781 4.4221 3.7793 0.0000 -10642.0648 1449.2713 0.0000 0.0000 1765.2007 -7417.7133 303.0670 -9182.9140 -7417.7133 303.0670 223.1535 308.3315 30185.1363 223.1535 308.3315
ENERGY: 300000 2.1727 2.2312 9.7829 0.0000 -10714.3770 1511.2089 0.0000 0.0000 1676.5243 -7512.4570 287.8422 -9188.9813 -7422.1020 298.6784 609.7628 692.2227 30155.0334 -3.8651 72.1568
ENERGY: 600000 1.2260 3.2096 2.0959 0.0000 -10585.4971 1356.7076 0.0000 0.0000 1761.0230 -7461.2350 302.3497 -9222.2580 -7432.2733 299.1901 -726.7209 -649.3686 30194.7772 -211.1586 -129.0725
ENERGY: 900000 2.4167 4.6615 1.8497 0.0000 -10633.2515 1406.2898 0.0000 0.0000 1770.2861 -7447.7476 303.9401 -9218.0337 -7436.6292 299.1144 -433.8798 -345.5677 30490.7174 -172.4912 -102.5124
ENERGY: 1200000 3.2858 1.6389 6.7496 0.0000 -10822.2596 1488.0881 0.0000 0.0000 1766.7451 -7555.7521 303.3322 -9322.4972 -7456.2190 298.2723 130.2664 220.0661 29688.4286 -153.7852 -88.8884
ENERGY: 1500000 1.3500 4.0052 3.7910 0.0000 -10586.7493 1422.1778 0.0000 0.0000 1729.3322 -7426.0933 296.9088 -9155.4255 -7457.4802 298.0789 -184.1254 -102.1522 30753.6055 -202.7543 -142.6431
TCL: Running FEP window   5: Lambda1 0.7999999999999998 Lambda2 0.7499999999999998 [dLambda -0.050000000000000044]
TCL: Setting parameter firsttimestep to 0
TCL: Setting parameter alchLambda to 0.7999999999999998
Info: NONBONDED TABLE R-SQUARED SPACING: 0.0625
Info: NONBONDED TABLE SIZE: 705 POINTS
TCL: Setting parameter alchLambda2 to 0.7499999999999998
Info: NONBONDED TABLE R-SQUARED SPACING: 0.0625
Info: NONBONDED TABLE SIZE: 705 POINTS
TCL: Running for 1500000 steps
ETITLE: TS BOND ANGLE DIHED IMPRP ELECT VDW BOUNDARY MISC KINETIC TOTAL TEMP POTENTIAL TOTALAVG TEMPAVG PRESSURE GPRESSURE VOLUME PRESSAVG GPRESSAVG
ENERGY: 0 1.3500 4.0052 3.7910 0.0000 -10585.1432 1422.5238 0.0000 0.0000 1728.4497 -7425.0236 296.7572 -9153.4733 -7425.0236 296.7572 -180.9884 -101.8383 30753.6055 -180.9884 -101.8383
ENERGY: 300000 3.2910 2.8256 3.5564 0.0000 -10636.5556 1468.7203 0.0000 0.0000 1817.7904 -7340.3718 312.0961 -9158.1622 -7447.7087 301.2406 297.7309 283.0039 30566.1474 -194.2746 -123.1590
ENERGY: 600000 2.1864 6.6806 3.4084 0.0000 -10595.3411 1447.8874 0.0000 0.0000 1823.7339 -7311.4445 313.1166 -9135.1784 -7441.4018 302.6143 427.8237 468.8666 30365.2869 -82.8978 -17.1940
ENERGY: 900000 1.1061 2.8001 4.3921 0.0000 -10653.4730 1426.9235 0.0000 0.0000 1763.1344 -7455.1168 302.7123 -9218.2512 -7439.5653 302.5983 -160.1507 -66.5994 30402.2482 -71.1946 -5.0664
ENERGY: 1200000 0.8158 6.7787 11.9445 0.0000 -10619.3649 1379.7751 0.0000 0.0000 1745.3189 -7474.7321 299.6535 -9220.0509 -7442.3516 302.6442 -393.7099 -263.0122 30095.7397 -160.5830 -92.3170
ENERGY: 1500000 1.0869 1.7886 2.8966 0.0000 -10577.0783 1343.1106 0.0000 0.0000 1773.8057 -7454.3899 304.5444 -9228.1956 -7451.3674 301.9250 -770.5515 -697.8901 30488.2523 -132.9712 -63.6333
TCL: Running FEP window   6: Lambda1 0.7499999999999998 Lambda2 0.6999999999999997 [dLambda -0.050000000000000044]
TCL: Setting parameter firsttimestep to 0
TCL: Setting parameter alchLambda to 0.7499999999999998
Info: NONBONDED TABLE R-SQUARED SPACING: 0.0625
Info: NONBONDED TABLE SIZE: 705 POINTS
TCL: Setting parameter alchLambda2 to 0.6999999999999997
Info: NONBONDED TABLE R-SQUARED SPACING: 0.0625
Info: NONBONDED TABLE SIZE: 705 POINTS
TCL: Running for 1500000 steps
ETITLE: TS BOND ANGLE DIHED IMPRP ELECT VDW BOUNDARY MISC KINETIC TOTAL TEMP POTENTIAL TOTALAVG TEMPAVG PRESSURE GPRESSURE VOLUME PRESSAVG GPRESSAVG
ENERGY: 0 1.0869 1.7886 2.8966 0.0000 -10576.5068 1343.3591 0.0000 0.0000 1772.9642 -7454.4114 304.3999 -9227.3756 -7454.4114 304.3999 -789.1394 -707.0896 30488.2523 -789.1394 -707.0896
ENERGY: 300000 5.8741 2.7843 5.4285 0.0000 -10721.8620 1444.3723 0.0000 0.0000 1716.2842 -7547.1185 294.6685 -9263.4027 -7443.7490 301.2423 -150.2477 -168.4512 29904.7343 -464.7964 -384.4963
ENERGY: 600000 3.8846 3.8512 5.6211 0.0000 -10587.9438 1380.5551 0.0000 0.0000 1766.4568 -7427.5751 303.2827 -9194.0319 -7451.3063 301.0322 -204.1172 -183.3176 30130.8022 -278.7540 -199.3994
ENERGY: 900000 2.2634 2.4436 1.4398 0.0000 -10728.6678 1443.0284 0.0000 0.0000 1762.6691 -7516.8235 302.6324 -9279.4925 -7459.3057 299.5553 -328.1188 -241.4141 30666.7665 -350.5907 -281.8975
ENERGY: 1200000 3.0752 3.3885 3.3660 0.0000 -10630.2527 1423.4643 0.0000 0.0000 1771.3482 -7425.6105 304.1225 -9196.9587 -7461.6235 299.8511 131.8971 147.9031 30107.4998 -293.5165 -233.2765
ENERGY: 1500000 2.3740 3.5904 3.1778 0.0000 -10643.5321 1435.3062 0.0000 0.0000 1819.6351 -7379.4486 312.4128 -9199.0837 -7451.4893 300.3557 30.7600 119.5022 30194.4176 -276.2817 -209.9120
TCL: Running FEP window   7: Lambda1 0.6999999999999997 Lambda2 0.6499999999999997 [dLambda -0.050000000000000044]
TCL: Setting parameter firsttimestep to 0
TCL: Setting parameter alchLambda to 0.6999999999999997
Info: NONBONDED TABLE R-SQUARED SPACING: 0.0625
Info: NONBONDED TABLE SIZE: 705 POINTS
TCL: Setting parameter alchLambda2 to 0.6499999999999997
Info: NONBONDED TABLE R-SQUARED SPACING: 0.0625
Info: NONBONDED TABLE SIZE: 705 POINTS
TCL: Running for 1500000 steps
ETITLE: TS BOND ANGLE DIHED IMPRP ELECT VDW BOUNDARY MISC KINETIC TOTAL TEMP POTENTIAL TOTALAVG TEMPAVG PRESSURE GPRESSURE VOLUME PRESSAVG GPRESSAVG
ENERGY: 0 2.3740 3.5904 3.1778 0.0000 -10642.9206 1435.4864 0.0000 0.0000 1818.7222 -7379.5698 312.2561 -9198.2920 -7379.5698 312.2561 28.0540 114.0953 30194.4176 28.0540 114.0953
ENERGY: 300000 2.6420 4.1060 2.0162 0.0000 -10486.2397 1341.0197 0.0000 0.0000 1782.3491 -7354.1066 306.0112 -9136.4557 -7376.7207 306.1215 -242.7963 -178.1776 29885.5608 145.0051 198.3052
ENERGY: 600000 1.5877 2.8948 3.1863 0.0000 -10601.7007 1468.2832 0.0000 0.0000 1682.6624 -7443.0863 288.8960 -9125.7487 -7406.0371 303.6210 416.4701 501.7547 30095.7207 195.8480 261.5639
ENERGY: 900000 1.1790 3.6894 6.4924 0.0000 -10542.6863 1387.5282 0.0000 0.0000 1694.7342 -7449.0631 290.9686 -9143.7974 -7413.7118 301.7269 -288.2730 -225.5460 30149.6701 130.3093 197.5543
ENERGY: 1200000 1.5596 4.5368 4.6819 0.0000 -10704.2267 1431.9833 0.0000 0.0000 1725.6690 -7535.7961 296.2798 -9261.4651 -7426.3320 301.6820 -53.4781 80.3836 29769.6016 63.5572 139.4961
ENERGY: 1500000 2.6281 5.1068 5.2432 0.0000 -10666.6331 1447.9675 0.0000 0.0000 1688.6094 -7517.0781 289.9171 -9205.6875 -7436.9361 301.2468 -69.6666 -14.6642 30451.7408 41.5638 117.3726
TCL: Running FEP window   8: Lambda1 0.6499999999999997 Lambda2 0.5999999999999996 [dLambda -0.050000000000000044]
TCL: Setting parameter firsttimestep to 0
TCL: Setting parameter alchLambda to 0.6499999999999997
Info: NONBONDED TABLE R-SQUARED SPACING: 0.0625
Info: NONBONDED TABLE SIZE: 705 POINTS
TCL: Setting parameter alchLambda2 to 0.5999999999999996
Info: NONBONDED TABLE R-SQUARED SPACING: 0.0625
Info: NONBONDED TABLE SIZE: 705 POINTS
TCL: Running for 1500000 steps
ETITLE: TS BOND ANGLE DIHED IMPRP ELECT VDW BOUNDARY MISC KINETIC TOTAL TEMP POTENTIAL TOTALAVG TEMPAVG PRESSURE GPRESSURE VOLUME PRESSAVG GPRESSAVG
ENERGY: 0 2.6281 5.1068 5.2432 0.0000 -10664.9653 1447.7681 0.0000 0.0000 1687.7322 -7516.4869 289.7665 -9204.2191 -7516.4869 289.7665 -125.1321 -23.8133 30451.7408 -125.1321 -23.8133
ENERGY: 300000 1.7430 1.1584 2.1749 0.0000 -10508.8766 1358.3298 0.0000 0.0000 1712.8671 -7432.6035 294.0819 -9145.4706 -7479.9839 294.7423 -440.0160 -414.8149 30444.8277 88.3755 164.5175
ENERGY: 600000 1.6608 2.1275 7.6113 0.0000 -10629.0916 1442.2735 0.0000 0.0000 1710.3528 -7465.0657 293.6502 -9175.4185 -7458.9043 296.7095 165.3357 182.8378 30202.0460 154.1517 207.0281
ENERGY: 900000 2.9991 3.7156 2.8243 0.0000 -10809.5237 1556.9735 0.0000 0.0000 1787.1377 -7455.8734 306.8334 -9243.0111 -7472.4468 296.9042 849.5322 881.8172 30347.1882 303.1980 362.4532
ENERGY: 1200000 2.4335 3.0626 3.6965 0.0000 -10712.4099 1490.6959 0.0000 0.0000 1755.8380 -7456.6833 301.4595 -9212.5214 -7465.0677 298.2179 374.5438 415.5115 30154.6747 295.3422 361.6314
ENERGY: 1500000 0.5166 5.4945 4.8506 0.0000 -10663.2012 1437.2984 0.0000 0.0000 1741.2579 -7473.7832 298.9563 -9215.0411 -7459.2684 298.8496 122.9500 147.4645 29986.1406 204.7943 275.8168
TCL: Running FEP window   9: Lambda1 0.5999999999999996 Lambda2 0.5499999999999996 [dLambda -0.050000000000000044]
TCL: Setting parameter firsttimestep to 0
TCL: Setting parameter alchLambda to 0.5999999999999996
Info: NONBONDED TABLE R-SQUARED SPACING: 0.0625
Info: NONBONDED TABLE SIZE: 705 POINTS
TCL: Setting parameter alchLambda2 to 0.5499999999999996
Info: NONBONDED TABLE R-SQUARED SPACING: 0.0625
Info: NONBONDED TABLE SIZE: 705 POINTS
TCL: Running for 1500000 steps
ETITLE: TS BOND ANGLE DIHED IMPRP ELECT VDW BOUNDARY MISC KINETIC TOTAL TEMP POTENTIAL TOTALAVG TEMPAVG PRESSURE GPRESSURE VOLUME PRESSAVG GPRESSAVG
ENERGY: 0 0.5166 5.4945 4.8506 0.0000 -10662.5777 1437.3651 0.0000 0.0000 1740.3820 -7473.9689 298.8059 -9214.3509 -7473.9689 298.8059 59.3502 142.4844 29986.1406 59.3502 142.4844
ENERGY: 300000 2.6633 2.0839 4.7957 0.0000 -10706.3975 1425.6553 0.0000 0.0000 1738.4633 -7532.7360 298.4765 -9271.1993 -7473.1475 296.3588 -91.6524 -75.2364 29949.5215 -137.1706 -85.5066
ENERGY: 600000 2.1293 2.4961 2.0960 0.0000 -10678.7209 1448.2371 0.0000 0.0000 1814.3167 -7409.4456 311.4997 -9223.7623 -7448.0385 300.6995 270.2209 288.4305 29980.7896 -40.7175 12.7913
ENERGY: 900000 0.7939 1.2750 1.8429 0.0000 -10626.1424 1422.0670 0.0000 0.0000 1783.2912 -7416.8723 306.1730 -9200.1635 -7452.1508 301.5697 -184.8044 -71.3972 30272.2405 -183.4428 -118.5786
ENERGY: 1200000 0.7964 2.2875 5.2819 0.0000 -10658.3031 1426.9614 0.0000 0.0000 1778.3872 -7444.5887 305.3310 -9222.9760 -7453.7724 301.3580 -67.8207 36.9606 30062.9143 -280.7954 -213.1177
ENERGY: 1500000 0.9592 1.3678 5.1749 0.0000 -10674.5957 1386.8394 0.0000 0.0000 1734.7535 -7545.5008 297.8395 -9280.2543 -7458.7728 300.7459 -545.5768 -444.2654 30081.4001 -320.0555 -251.0152
TCL: Running FEP window  10: Lambda1 0.5499999999999996 Lambda2 0.4999999999999996 [dLambda -0.04999999999999999]
TCL: Setting parameter firsttimestep to 0
TCL: Setting parameter alchLambda to 0.5499999999999996
Info: NONBONDED TABLE R-SQUARED SPACING: 0.0625
Info: NONBONDED TABLE SIZE: 705 POINTS
TCL: Setting parameter alchLambda2 to 0.4999999999999996
Info: NONBONDED TABLE R-SQUARED SPACING: 0.0625
Info: NONBONDED TABLE SIZE: 705 POINTS
TCL: Running for 1500000 steps
ETITLE: TS BOND ANGLE DIHED IMPRP ELECT VDW BOUNDARY MISC KINETIC TOTAL TEMP POTENTIAL TOTALAVG TEMPAVG PRESSURE GPRESSURE VOLUME PRESSAVG GPRESSAVG
ENERGY: 0 0.9592 1.3678 5.1749 0.0000 -10674.3411 1387.1750 0.0000 0.0000 1733.8480 -7545.8161 297.6841 -9279.6642 -7545.8161 297.6841 -536.7234 -447.3628 30081.4001 -536.7234 -447.3628
ENERGY: 300000 4.3238 5.6032 2.0064 0.0000 -10690.8568 1487.2567 0.0000 0.0000 1718.5906 -7473.0762 295.0645 -9191.6667 -7453.9911 300.0306 534.9297 668.2083 29586.1210 -115.0425 -26.5345
ENERGY: 600000 2.1814 7.7883 1.9904 0.0000 -10635.8479 1388.1169 0.0000 0.0000 1747.9583 -7487.8126 300.1067 -9235.7710 -7457.1275 299.3298 -290.7001 -228.6640 29754.0862 -331.6809 -246.6454
ENERGY: 900000 3.9817 4.6904 1.9591 0.0000 -10759.5142 1502.0943 0.0000 0.0000 1745.2152 -7501.5736 299.6357 -9246.7888 -7462.2537 299.3658 554.7666 628.2268 29984.1567 -173.6005 -98.5549
ENERGY: 1200000 1.4087 4.0540 3.5560 0.0000 -10551.1270 1341.6842 0.0000 0.0000 1718.1529 -7482.2711 294.9894 -9200.4241 -7469.4109 299.1551 -673.7240 -673.4170 30197.4582 -115.4980 -46.9930
ENERGY: 1500000 2.0201 2.3186 5.6334 0.0000 -10633.4340 1450.8360 0.0000 0.0000 1708.7688 -7463.8572 293.3782 -9172.6259 -7462.6073 298.4847 415.8902 469.4498 30161.0142 -138.3548 -71.6741
TCL: Running FEP window  11: Lambda1 0.4999999999999996 Lambda2 0.4499999999999996 [dLambda -0.04999999999999999]
TCL: Setting parameter firsttimestep to 0
TCL: Setting parameter alchLambda to 0.4999999999999996
Info: NONBONDED TABLE R-SQUARED SPACING: 0.0625
Info: NONBONDED TABLE SIZE: 705 POINTS
TCL: Setting parameter alchLambda2 to 0.4499999999999996
Info: NONBONDED TABLE R-SQUARED SPACING: 0.0625
Info: NONBONDED TABLE SIZE: 705 POINTS
TCL: Running for 1500000 steps
ETITLE: TS BOND ANGLE DIHED IMPRP ELECT VDW BOUNDARY MISC KINETIC TOTAL TEMP POTENTIAL TOTALAVG TEMPAVG PRESSURE GPRESSURE VOLUME PRESSAVG GPRESSAVG
ENERGY: 0 2.0201 2.3186 5.6334 0.0000 -10633.4243 1450.7717 0.0000 0.0000 1707.8849 -7464.7955 293.2265 -9172.6804 -7464.7955 293.2265 384.3687 462.7985 30161.0142 384.3687 462.7985
ENERGY: 300000 2.1949 4.3928 3.6762 0.0000 -10697.1936 1442.3883 0.0000 0.0000 1730.2712 -7514.2702 297.0700 -9244.5414 -7470.1413 298.6585 -19.0181 51.5123 30042.7421 162.1691 238.0458
ENERGY: 600000 3.7747 3.5457 3.6102 0.0000 -10593.7404 1422.0251 0.0000 0.0000 1710.7873 -7449.9974 293.7248 -9160.7848 -7451.2747 298.9864 463.3441 419.2015 29878.0167 212.7964 277.0527
ENERGY: 900000 2.6110 1.1998 2.8260 0.0000 -10656.2558 1457.9565 0.0000 0.0000 1828.0483 -7363.6142 313.8573 -9191.6625 -7443.6689 300.4695 72.9057 128.7862 30103.7242 145.3185 205.1209
ENERGY: 1200000 2.2514 3.8603 2.3497 0.0000 -10416.7867 1275.0964 0.0000 0.0000 1716.3204 -7416.9085 294.6748 -9133.2289 -7439.9484 298.8327 -1114.9026 -1078.1911 30285.5849 -46.5102 10.8588
ENERGY: 1500000 1.6492 5.1946 3.7607 0.0000 -10776.7247 1585.1291 0.0000 0.0000 1694.0969 -7486.8943 290.8592 -9180.9912 -7447.8127 297.9294 1421.8088 1499.1820 29632.6383 43.6545 102.6198
TCL: Running FEP window  12: Lambda1 0.4499999999999996 Lambda2 0.39999999999999963 [dLambda -0.04999999999999999]
TCL: Setting parameter firsttimestep to 0
TCL: Setting parameter alchLambda to 0.4499999999999996
Info: NONBONDED TABLE R-SQUARED SPACING: 0.0625
Info: NONBONDED TABLE SIZE: 705 POINTS
TCL: Setting parameter alchLambda2 to 0.39999999999999963
Info: NONBONDED TABLE R-SQUARED SPACING: 0.0625
Info: NONBONDED TABLE SIZE: 705 POINTS
TCL: Running for 1500000 steps
ETITLE: TS BOND ANGLE DIHED IMPRP ELECT VDW BOUNDARY MISC KINETIC TOTAL TEMP POTENTIAL TOTALAVG TEMPAVG PRESSURE GPRESSURE VOLUME PRESSAVG GPRESSAVG
ENERGY: 0 1.6492 5.1946 3.7607 0.0000 -10776.7251 1585.3599 0.0000 0.0000 1693.2317 -7487.5290 290.7107 -9180.7607 -7487.5290 290.7107 1389.9375 1493.7648 29632.6383 1389.9375 1493.7648
ENERGY: 300000 1.4249 2.6162 4.4604 0.0000 -10667.0381 1441.9940 0.0000 0.0000 1752.1418 -7464.4010 300.8249 -9216.5427 -7454.4415 297.8234 294.7154 372.0486 29658.2399 188.4239 292.6667
ENERGY: 600000 0.6557 1.8742 3.7275 0.0000 -10455.5699 1309.1719 0.0000 0.0000 1712.9264 -7427.2142 294.0920 -9140.1405 -7450.1272 297.8212 -1014.5182 -961.8112 30571.5387 -0.0454 73.8293
ENERGY: 900000 3.6305 2.1218 2.9803 0.0000 -10670.5460 1447.1981 0.0000 0.0000 1760.3466 -7454.2688 302.2336 -9214.6154 -7461.7753 299.6062 413.0559 445.2439 29968.4597 -23.3409 54.5907
ENERGY: 1200000 2.5497 5.3287 4.5291 0.0000 -10670.2929 1459.4418 0.0000 0.0000 1727.9054 -7470.5383 296.6638 -9198.4437 -7457.5272 299.4420 -24.5105 37.2213 30343.2998 -97.6073 -26.8627
ENERGY: 1500000 1.9835 2.0691 5.7294 0.0000 -10630.7517 1397.6980 0.0000 0.0000 1748.0722 -7475.1995 300.1262 -9223.2717 -7458.1946 299.2312 -170.4214 -118.9491 30109.6558 -135.0856 -67.3623
TCL: Running FEP window  13: Lambda1 0.39999999999999963 Lambda2 0.34999999999999964 [dLambda -0.04999999999999999]
TCL: Setting parameter firsttimestep to 0
TCL: Setting parameter alchLambda to 0.39999999999999963
Info: NONBONDED TABLE R-SQUARED SPACING: 0.0625
Info: NONBONDED TABLE SIZE: 705 POINTS
TCL: Setting parameter alchLambda2 to 0.34999999999999964
Info: NONBONDED TABLE R-SQUARED SPACING: 0.0625
Info: NONBONDED TABLE SIZE: 705 POINTS
TCL: Running for 1500000 steps
ETITLE: TS BOND ANGLE DIHED IMPRP ELECT VDW BOUNDARY MISC KINETIC TOTAL TEMP POTENTIAL TOTALAVG TEMPAVG PRESSURE GPRESSURE VOLUME PRESSAVG GPRESSAVG
ENERGY: 0 1.9835 2.0691 5.7294 0.0000 -10630.7516 1397.7353 0.0000 0.0000 1747.2253 -7476.0090 299.9808 -9223.2343 -7476.0090 299.9808 -201.7957 -122.8311 30109.6558 -201.7957 -122.8311
ENERGY: 300000 3.1905 5.5393 2.0350 0.0000 -10604.2361 1484.4891 0.0000 0.0000 1783.9069 -7325.0753 306.2787 -9108.9822 -7400.0219 302.2505 558.5270 686.7976 30488.7661 -422.8542 -343.6482
ENERGY: 600000 1.6391 2.2607 1.9960 0.0000 -10587.5843 1375.3516 0.0000 0.0000 1787.1677 -7419.1692 306.8385 -9206.3369 -7429.6530 301.7542 -631.4280 -588.4940 30773.3291 -318.5320 -246.4432
ENERGY: 900000 2.5687 7.8662 3.9489 0.0000 -10719.6449 1496.4251 0.0000 0.0000 1742.6158 -7466.2201 299.1894 -9208.8359 -7452.9279 300.7138 441.6279 542.1854 29918.7327 -11.0758 55.7367
ENERGY: 1200000 1.2991 4.0078 6.3368 0.0000 -10523.4607 1294.4170 0.0000 0.0000 1764.8224 -7452.5775 303.0021 -9217.3999 -7450.3643 300.4892 -1203.6159 -1082.0687 30268.0637 -30.7544 42.0631
ENERGY: 1500000 2.6924 2.3530 2.3335 0.0000 -10681.3945 1445.4301 0.0000 0.0000 1756.4953 -7472.0902 301.5724 -9228.5856 -7456.6783 300.2361 89.5223 191.8263 29911.8596 -69.9499 2.3725
TCL: Running FEP window  14: Lambda1 0.34999999999999964 Lambda2 0.29999999999999966 [dLambda -0.04999999999999999]
TCL: Setting parameter firsttimestep to 0
TCL: Setting parameter alchLambda to 0.34999999999999964
Info: NONBONDED TABLE R-SQUARED SPACING: 0.0625
Info: NONBONDED TABLE SIZE: 705 POINTS
TCL: Setting parameter alchLambda2 to 0.29999999999999966
Info: NONBONDED TABLE R-SQUARED SPACING: 0.0625
Info: NONBONDED TABLE SIZE: 705 POINTS
TCL: Running for 1500000 steps
ETITLE: TS BOND ANGLE DIHED IMPRP ELECT VDW BOUNDARY MISC KINETIC TOTAL TEMP POTENTIAL TOTALAVG TEMPAVG PRESSURE GPRESSURE VOLUME PRESSAVG GPRESSAVG
ENERGY: 0 2.6924 2.3530 2.3335 0.0000 -10681.3957 1445.5195 0.0000 0.0000 1755.6274 -7472.8699 301.4234 -9228.4973 -7472.8699 301.4234 110.3814 187.0845 29911.8596 110.3814 187.0845
ENERGY: 300000 1.5391 6.5269 4.4942 0.0000 -10726.6423 1540.8107 0.0000 0.0000 1720.1975 -7453.0740 295.3404 -9173.2715 -7445.8599 298.6980 850.4087 929.9590 30180.1884 30.2669 113.6319
ENERGY: 600000 2.8743 1.8188 4.2729 0.0000 -10533.9642 1299.9991 0.0000 0.0000 1773.7385 -7451.2606 304.5329 -9224.9991 -7446.1561 300.7418 -1175.0081 -1115.0742 30219.5203 -150.1478 -71.4914
ENERGY: 900000 6.3495 4.6259 4.8840 0.0000 -10457.4665 1330.2633 0.0000 0.0000 1717.3990 -7393.9448 294.8599 -9111.3438 -7443.8784 300.0629 -769.1673 -709.0630 30671.1674 -245.1919 -171.7953
ENERGY: 1200000 0.9577 2.9813 2.5678 0.0000 -10685.7428 1452.7728 0.0000 0.0000 1790.4742 -7435.9890 307.4062 -9226.4631 -7426.9875 301.4965 -163.0127 -69.0259 30544.8041 -220.2930 -140.0022
ENERGY: 1500000 4.8576 2.2129 2.2735 0.0000 -10664.9384 1386.6275 0.0000 0.0000 1680.5123 -7588.4545 288.5269 -9268.9669 -7438.7885 300.2607 -934.3070 -802.9911 30297.2989 -254.9399 -175.2807
TCL: Running FEP window  15: Lambda1 0.29999999999999966 Lambda2 0.24999999999999967 [dLambda -0.04999999999999999]
TCL: Setting parameter firsttimestep to 0
TCL: Setting parameter alchLambda to 0.29999999999999966
Info: NONBONDED TABLE R-SQUARED SPACING: 0.0625
Info: NONBONDED TABLE SIZE: 705 POINTS
TCL: Setting parameter alchLambda2 to 0.24999999999999967
Info: NONBONDED TABLE R-SQUARED SPACING: 0.0625
Info: NONBONDED TABLE SIZE: 705 POINTS
TCL: Running for 1500000 steps
ETITLE: TS BOND ANGLE DIHED IMPRP ELECT VDW BOUNDARY MISC KINETIC TOTAL TEMP POTENTIAL TOTALAVG TEMPAVG PRESSURE GPRESSURE VOLUME PRESSAVG GPRESSAVG
ENERGY: 0 4.8576 2.2129 2.2735 0.0000 -10664.9393 1386.9622 0.0000 0.0000 1679.6018 -7589.0315 288.3705 -9268.6332 -7589.0315 288.3705 -895.2951 -807.6614 30297.2989 -895.2951 -807.6614
ENERGY: 300000 3.8670 8.0769 4.5963 0.0000 -10779.5157 1557.2859 0.0000 0.0000 1762.1566 -7443.5332 302.5444 -9205.6898 -7499.0442 296.0109 1077.6645 1188.7385 29652.9881 -88.4180 -6.6569
ENERGY: 600000 1.2872 1.5886 8.3064 0.0000 -10750.4068 1550.3917 0.0000 0.0000 1732.7902 -7456.0427 297.5025 -9188.8329 -7462.5549 298.4986 1193.8066 1166.2450 29695.6429 200.5219 265.1783
ENERGY: 900000 3.1508 3.6546 2.9898 0.0000 -10527.8943 1293.4253 0.0000 0.0000 1784.4474 -7440.2264 306.3715 -9224.6738 -7464.8892 298.9160 -1079.8966 -971.5788 30001.6315 71.1795 133.5834
ENERGY: 1200000 2.5798 4.5493 6.7464 0.0000 -10429.9275 1312.9591 0.0000 0.0000 1741.0604 -7362.0326 298.9224 -9103.0929 -7458.0413 298.5281 -746.9776 -683.7437 30351.1361 -22.1925 36.8692
ENERGY: 1500000 1.6974 2.8220 1.9917 0.0000 -10598.4430 1437.6056 0.0000 0.0000 1753.6855 -7400.6408 301.0900 -9154.3263 -7449.0492 298.8576 385.2069 472.9490 29621.4505 -7.7453 55.0774
TCL: Running FEP window  16: Lambda1 0.24999999999999967 Lambda2 0.19999999999999968 [dLambda -0.04999999999999999]
TCL: Setting parameter firsttimestep to 0
TCL: Setting parameter alchLambda to 0.24999999999999967
Info: NONBONDED TABLE R-SQUARED SPACING: 0.0625
Info: NONBONDED TABLE SIZE: 705 POINTS
TCL: Setting parameter alchLambda2 to 0.19999999999999968
Info: NONBONDED TABLE R-SQUARED SPACING: 0.0625
Info: NONBONDED TABLE SIZE: 705 POINTS
TCL: Running for 1500000 steps
ETITLE: TS BOND ANGLE DIHED IMPRP ELECT VDW BOUNDARY MISC KINETIC TOTAL TEMP POTENTIAL TOTALAVG TEMPAVG PRESSURE GPRESSURE VOLUME PRESSAVG GPRESSAVG
ENERGY: 0 1.6974 2.8220 1.9917 0.0000 -10598.4446 1438.2795 0.0000 0.0000 1752.8262 -7400.8278 300.9424 -9153.6540 -7400.8278 300.9424 399.4298 474.7086 29621.4505 399.4298 474.7086
ENERGY: 300000 1.6363 1.8790 3.1656 0.0000 -10607.3720 1420.2641 0.0000 0.0000 1756.3977 -7424.0292 301.5556 -9180.4269 -7434.7634 301.3878 148.3395 233.1745 29877.9579 400.5970 480.9705
ENERGY: 600000 2.2900 6.1368 1.2814 0.0000 -10576.0618 1370.6437 0.0000 0.0000 1804.6998 -7391.0101 309.8486 -9195.7099 -7436.2722 301.9665 -426.9333 -321.7766 29964.5327 126.0686 209.5370
ENERGY: 900000 3.6835 6.1339 2.5073 0.0000 -10840.4524 1532.8716 0.0000 0.0000 1755.7640 -7539.4921 301.4468 -9295.2561 -7432.0002 301.7860 540.3046 619.2785 29890.9155 51.6636 113.6483
ENERGY: 1200000 1.4666 6.3034 6.4740 0.0000 -10689.2794 1480.5845 0.0000 0.0000 1758.7347 -7435.7162 301.9569 -9194.4509 -7430.1294 301.9246 606.9169 645.0394 29700.1401 125.1835 190.6947
ENERGY: 1500000 1.4892 2.4717 2.4573 0.0000 -10775.8240 1465.9834 0.0000 0.0000 1724.7290 -7578.6934 296.1184 -9303.4224 -7444.7223 300.9457 113.7738 222.5315 29591.8884 101.7464 167.2454
TCL: Running FEP window  17: Lambda1 0.19999999999999968 Lambda2 0.1499999999999997 [dLambda -0.04999999999999999]
TCL: Setting parameter firsttimestep to 0
TCL: Setting parameter alchLambda to 0.19999999999999968
Info: NONBONDED TABLE R-SQUARED SPACING: 0.0625
Info: NONBONDED TABLE SIZE: 705 POINTS
TCL: Setting parameter alchLambda2 to 0.1499999999999997
Info: NONBONDED TABLE R-SQUARED SPACING: 0.0625
Info: NONBONDED TABLE SIZE: 705 POINTS
TCL: Running for 1500000 steps
ETITLE: TS BOND ANGLE DIHED IMPRP ELECT VDW BOUNDARY MISC KINETIC TOTAL TEMP POTENTIAL TOTALAVG TEMPAVG PRESSURE GPRESSURE VOLUME PRESSAVG GPRESSAVG
ENERGY: 0 1.4892 2.4717 2.4573 0.0000 -10775.8220 1465.8478 0.0000 0.0000 1723.8714 -7579.6845 295.9712 -9303.5559 -7579.6845 295.9712 130.3198 217.8345 29591.8884 130.3198 217.8345
ENERGY: 300000 2.1576 3.1041 1.8617 0.0000 -10613.9192 1442.5406 0.0000 0.0000 1761.6672 -7402.5881 302.4603 -9164.2552 -7454.3912 301.3942 89.8210 147.9980 29976.0740 187.8045 261.1179
ENERGY: 600000 1.4047 2.0397 2.0285 0.0000 -10512.8279 1366.1861 0.0000 0.0000 1771.4646 -7369.7043 304.1424 -9141.1688 -7436.2740 300.7352 -597.5891 -505.3606 30384.7904 -66.9351 -2.1713
ENERGY: 900000 0.3527 2.9898 2.8414 0.0000 -10588.2441 1393.1345 0.0000 0.0000 1721.6670 -7467.2588 295.5927 -9188.9258 -7432.5789 300.3931 -290.1532 -305.0924 30321.1721 -7.9745 41.2341
ENERGY: 1200000 1.4987 2.8409 3.4793 0.0000 -10654.9373 1495.6481 0.0000 0.0000 1769.4080 -7382.0623 303.7894 -9151.4703 -7422.7497 300.6964 567.0802 620.0146 30004.8069 14.0222 67.8770
ENERGY: 1500000 0.9418 3.9581 1.5397 0.0000 -10577.6844 1437.0791 0.0000 0.0000 1727.4201 -7406.7454 296.5805 -9134.1656 -7425.5644 300.8878 -162.5957 -99.8107 30889.6900 -27.6133 29.7867
TCL: Running FEP window  18: Lambda1 0.1499999999999997 Lambda2 0.09999999999999969 [dLambda -0.05 ]
TCL: Setting parameter firsttimestep to 0
TCL: Setting parameter alchLambda to 0.1499999999999997
Info: NONBONDED TABLE R-SQUARED SPACING: 0.0625
Info: NONBONDED TABLE SIZE: 705 POINTS
TCL: Setting parameter alchLambda2 to 0.09999999999999969
Info: NONBONDED TABLE R-SQUARED SPACING: 0.0625
Info: NONBONDED TABLE SIZE: 705 POINTS
TCL: Running for 1500000 steps
ETITLE: TS BOND ANGLE DIHED IMPRP ELECT VDW BOUNDARY MISC KINETIC TOTAL TEMP POTENTIAL TOTALAVG TEMPAVG PRESSURE GPRESSURE VOLUME PRESSAVG GPRESSAVG
ENERGY: 0 0.9418 3.9581 1.5397 0.0000 -10577.6838 1436.8101 0.0000 0.0000 1726.5387 -7407.8954 296.4291 -9134.4341 -7407.8954 296.4291 -172.3865 -103.9183 30889.6900 -172.3865 -103.9183
ENERGY: 300000 3.3302 5.1809 4.0532 0.0000 -10679.0855 1432.8651 0.0000 0.0000 1767.9699 -7465.6864 303.5424 -9233.6563 -7432.4756 297.8633 -121.0316 -55.2266 30022.2141 -346.5018 -275.7789
ENERGY: 600000 2.5979 2.1670 4.0897 0.0000 -10605.9938 1381.6132 0.0000 0.0000 1749.0122 -7466.5138 300.2876 -9215.5259 -7422.8206 300.6767 -579.7477 -505.7008 30105.6144 -7.0964 56.3111
ENERGY: 900000 3.6944 2.4973 4.3285 0.0000 -10740.7527 1486.0911 0.0000 0.0000 1775.5127 -7468.6287 304.8375 -9244.1414 -7438.4312 300.6244 179.4958 285.6687 30111.3269 -83.9152 -22.0904
ENERGY: 1200000 7.4506 2.3222 2.1997 0.0000 -10600.4333 1402.1983 0.0000 0.0000 1723.5524 -7462.7101 295.9164 -9186.2626 -7432.3088 300.1166 -264.5253 -228.7420 29779.7764 -107.6729 -52.2081
ENERGY: 1500000 1.0944 1.7393 3.1302 0.0000 -10652.7640 1414.8619 0.0000 0.0000 1780.0883 -7451.8499 305.6231 -9231.9382 -7441.1923 300.2836 -355.3207 -268.4030 30188.9873 -89.0337 -34.0857
TCL: Running FEP window  19: Lambda1 0.09999999999999969 Lambda2 0.049999999999999684 [dLambda -0.05 ]
TCL: Setting parameter firsttimestep to 0
TCL: Setting parameter alchLambda to 0.09999999999999969
Info: NONBONDED TABLE R-SQUARED SPACING: 0.0625
Info: NONBONDED TABLE SIZE: 705 POINTS
TCL: Setting parameter alchLambda2 to 0.049999999999999684
Info: NONBONDED TABLE R-SQUARED SPACING: 0.0625
Info: NONBONDED TABLE SIZE: 705 POINTS
TCL: Running for 1500000 steps
ETITLE: TS BOND ANGLE DIHED IMPRP ELECT VDW BOUNDARY MISC KINETIC TOTAL TEMP POTENTIAL TOTALAVG TEMPAVG PRESSURE GPRESSURE VOLUME PRESSAVG GPRESSAVG
ENERGY: 0 1.0944 1.7393 3.1302 0.0000 -10652.7649 1413.6662 0.0000 0.0000 1779.2110 -7453.9238 305.4724 -9233.1348 -7453.9238 305.4724 -346.7473 -273.9725 30188.9873 -346.7473 -273.9725
ENERGY: 300000 2.3920 5.6285 3.8272 0.0000 -10624.6910 1440.8699 0.0000 0.0000 1768.1916 -7403.7819 303.5805 -9171.9735 -7442.2273 305.1556 130.9926 192.6541 30099.7397 226.3199 273.2669
ENERGY: 600000 2.5340 4.4723 1.8146 0.0000 -10748.7281 1508.4123 0.0000 0.0000 1760.9521 -7470.5428 302.3376 -9231.4949 -7441.5835 302.5942 429.1198 546.6242 30040.9783 225.2487 275.3406
ENERGY: 900000 0.8739 2.0177 5.3896 0.0000 -10526.5026 1373.5296 0.0000 0.0000 1819.7889 -7324.9029 312.4392 -9144.6918 -7433.7894 302.7893 -265.6364 -179.7982 30178.4183 158.2111 210.5089
ENERGY: 1200000 5.2006 7.3706 2.7728 0.0000 -10491.3595 1320.7569 0.0000 0.0000 1764.0762 -7391.1826 302.8739 -9155.2587 -7434.8013 302.5417 -938.2897 -811.7888 30050.9640 6.9640 66.9609
ENERGY: 1500000 1.1952 3.2483 3.5372 0.0000 -10613.9004 1423.1060 0.0000 0.0000 1760.0177 -7422.7961 302.1771 -9182.8138 -7433.9281 302.2841 225.8733 302.8500 29461.2154 -3.4679 55.1607
TCL: Running FEP window  20: Lambda1 0.049999999999999684 Lambda2 0.0    [dLambda -0.049999999999999684]
TCL: Setting parameter firsttimestep to 0
TCL: Setting parameter alchLambda to 0.049999999999999684
Info: NONBONDED TABLE R-SQUARED SPACING: 0.0625
Info: NONBONDED TABLE SIZE: 705 POINTS
TCL: Setting parameter alchLambda2 to 0.0
Info: NONBONDED TABLE R-SQUARED SPACING: 0.0625
Info: NONBONDED TABLE SIZE: 705 POINTS
TCL: Running for 1500000 steps
ETITLE: TS BOND ANGLE DIHED IMPRP ELECT VDW BOUNDARY MISC KINETIC TOTAL TEMP POTENTIAL TOTALAVG TEMPAVG PRESSURE GPRESSURE VOLUME PRESSAVG GPRESSAVG
ENERGY: 0 1.1952 3.2483 3.5371 0.0000 -10613.9016 1422.7857 0.0000 0.0000 1759.1213 -7424.0140 302.0232 -9183.1353 -7424.0140 302.0232 210.5853 298.4938 29461.2154 210.5853 298.4938
ENERGY: 300000 2.6563 2.5412 4.9820 0.0000 -10618.4862 1447.1851 0.0000 0.0000 1744.4496 -7416.6719 299.5043 -9161.1215 -7422.5308 300.0899 311.3524 355.5116 29871.6338 393.5282 474.0047
ENERGY: 600000 2.0049 3.7107 6.9894 0.0000 -10754.9491 1485.2367 0.0000 0.0000 1787.9091 -7469.0983 306.9658 -9257.0074 -7449.9999 300.3611 327.5822 354.0876 29689.9653 217.9867 293.8568
ENERGY: 900000 2.0050 3.5254 3.3313 0.0000 -10570.2195 1448.7116 0.0000 0.0000 1803.2529 -7309.3933 309.6002 -9112.6462 -7434.9327 301.2030 356.2020 462.8805 30024.3051 185.7359 261.2268
ENERGY: 1200000 1.1230 3.5051 6.2172 0.0000 -10665.2486 1450.6675 0.0000 0.0000 1750.2924 -7453.4435 300.5074 -9203.7359 -7443.1789 300.3673 79.5700 178.0430 30169.9496 100.9046 177.7595
ENERGY: 1500000 1.2080 3.1547 2.8624 0.0000 -10591.2251 1402.1811 0.0000 0.0000 1755.1024 -7426.7166 301.3332 -9181.8190 -7445.9043 300.5129 -437.8862 -311.2461 30332.7941 -10.9476 67.0040
TCL: Exiting due to exit command.
