Info: SIMULATION PARAMETERS:
Info: TIMESTEP               2
Info: NUMBER OF STEPS        0
Info: STEPS PER CYCLE        10
Info: PERIODIC CELL BASIS 1  30.9414 0 0
Info: PERIODIC CELL BASIS 2  0 31.2958 0
Info: PERIODIC CELL BASIS 3  0 0 31.4328
Info: PERIODIC CELL CENTER   0 0 0
Info: WRAPPING WATERS AROUND PERIODIC BOUNDARIES ON OUTPUT.
Info: WRAPPING ALL CLUSTERS AROUND PERIODIC BOUNDARIES ON OUTPUT.
Info: FIRST LDB TIMESTEP     50
Info: LAST LDB TIMESTEP     -1
Info: HOM BACKGROUND SCALING 1
Info: PME BACKGROUND SCALING 1
Info: MIN ATOMS PER PATCH    40
Info: EMPTY PATCH LOAD       40 ATOMS
Info: VELOCITY FILE          mobley_1636752_equil.vel
Info: CENTER OF MASS MOVING INITIALLY? NO
Info: DIELECTRIC             1
Info: EXCLUDE                SCALED ONE-FOUR
Info: 1-4 ELECTROSTATICS SCALED BY 0.833333
Info: MODIFIED 1-4 VDW PARAMETERS WILL BE USED
Info: DCD FILENAME           mobley_1636752_prod.dcd
Info: DCD FREQUENCY          100000
Info: DCD FIRST STEP         100000
Info: DCD FILE WILL CONTAIN UNIT CELL DATA
Info: XST FILENAME           mobley_1636752_prod.xst
Info: XST FREQUENCY          100000
Info: NO VELOCITY DCD OUTPUT
Info: NO FORCE DCD OUTPUT
Info: OUTPUT FILENAME        mobley_1636752_prod
Info: BINARY OUTPUT FILES WILL BE USED
Info: RESTART FILENAME       mobley_1636752_prod.restart
Info: RESTART FREQUENCY      100000
Info: BINARY RESTART FILES WILL BE USED
Info: CUTOFF                 9
Info: PAIRLIST DISTANCE      11
Info: PAIRLIST SHRINK RATE   0.01
Info: PAIRLIST GROW RATE     0.01
Info: PAIRLIST TRIGGER       0.3
Info: PAIRLISTS PER CYCLE    2
Info: PAIRLISTS ENABLED
Info: MARGIN                 2
Info: HYDROGEN GROUP CUTOFF  2.5
Info: PATCH DIMENSION        15.5
Info: ENERGY OUTPUT STEPS    100000
Info: ENERGY EVALUATION STEPS    100000
Info: OUTPUT ENERGY PRECISION 4
Info: CROSSTERM ENERGY INCLUDED IN DIHEDRAL
Info: TIMING OUTPUT STEPS    1000000
Info: PRESSURE OUTPUT STEPS  100000
Info: ALCHEMICAL FEP ON
Info: FEP CURRENT LAMBDA VALUE     1
Info: FEP COMPARISON LAMBDA VALUE  0.95
Info: FEP INTRA-ALCHEMICAL NON-BONDED INTERACTIONS WILL BE RETAINED
Info: FEP INTRA-ALCHEMICAL BONDED INTERACTIONS WILL BE RETAINED
Info: FEP VDW SHIFTING COEFFICIENT 5
Info: FEP ELEC. ACTIVE FOR ANNIHILATED PARTICLES BETWEEN LAMBDA = 0 AND LAMBDA = 0.5
Info: FEP ELEC. ACTIVE FOR EXNIHILATED PARTICLES BETWEEN LAMBDA = 0.5 AND LAMBDA = 1
Info: FEP VDW ACTIVE FOR ANNIHILATED PARTICLES BETWEEN LAMBDA = 0 AND LAMBDA = 1
Info: FEP VDW ACTIVE FOR EXNIHILATED PARTICLES BETWEEN LAMBDA = 0 AND LAMBDA = 1
Info: FEP BOND ACTIVE FOR ANNIHILATED PARTICLES BETWEEN LAMBDA = 1 AND LAMBDA = 1
Info: FEP BOND ACTIVE FOR EXNIHILATED PARTICLES BETWEEN LAMBDA = 0 AND LAMBDA = 0
Info: LANGEVIN DYNAMICS ACTIVE
Info: LANGEVIN TEMPERATURE   300
Info: LANGEVIN USING BBK INTEGRATOR
Info: LANGEVIN DAMPING COEFFICIENT IS 1 INVERSE PS
Info: LANGEVIN DYNAMICS APPLIED TO HYDROGENS
Info: LANGEVIN PISTON PRESSURE CONTROL ACTIVE
Info:        TARGET PRESSURE IS 1.01325 BAR
Info:     OSCILLATION PERIOD IS 50 FS
Info:             DECAY TIME IS 25 FS
Info:     PISTON TEMPERATURE IS 300 K
Info:       PRESSURE CONTROL IS GROUP-BASED
Info:    INITIAL STRAIN RATE IS -0.00029223 -0.00029223 -0.00029223
Info:       CELL FLUCTUATION IS ISOTROPIC
Info: PARTICLE MESH EWALD (PME) ACTIVE
Info: PME TOLERANCE               1e-06
Info: PME EWALD COEFFICIENT       0.348832
Info: PME INTERPOLATION ORDER     4
Info: PME GRID DIMENSIONS         32 32 32
Info: PME MAXIMUM GRID SPACING    1
Info: PME CALCULATION WILL BE PERFORMED ON GPU
Info: FULL ELECTROSTATIC EVALUATION FREQUENCY      2
Info: USING VERLET I (r-RESPA) MTS SCHEME.
Info: C1 SPLITTING OF LONG RANGE ELECTROSTATICS
Info: PLACING ATOMS IN PATCHES BY HYDROGEN GROUPS
Info: RIGID BONDS TO HYDROGEN : ALL
Info:         ERROR TOLERANCE : 1e-08
Info:          MAX ITERATIONS : 100
Info: RIGID WATER USING SETTLE ALGORITHM
Info: RANDOM NUMBER SEED     1743480328
Info: USE HYDROGEN BONDS?    NO
Info: Using AMBER format force field!
Info: AMBER PARM FILE        mobley_1636752.prmtop
Info: COORDINATE PDB         mobley_1636752.pdb
Info: Exclusions will be read from PARM file!
Info: SCNB (VDW SCALING)     2
Info: USING ARITHMETIC MEAN TO COMBINE L-J SIGMA PARAMETERS
Info: BINARY COORDINATES     mobley_1636752_equil.coor
Info: SUMMARY OF PARAMETERS:
Info: 5 BONDS
Info: 3 ANGLES
Info:   3 HARMONIC
Info:   0 COSINE-BASED
Info: 1 DIHEDRAL
Info: 0 IMPROPER
Info: 0 CROSSTERM
Info: 0 VDW
Info: 15 VDW_PAIRS
Info: 0 NBTHOLE_PAIRS
Info: To read alchdata from file: mobley_1636752.pdb
Info: To read alchflag data from column: 5
Info: STRUCTURE SUMMARY:
Info: 2964 ATOMS
Info: 2963 BONDS
Info: 7 ANGLES
Info: 3 DIHEDRALS
Info: 0 IMPROPERS
Info: 0 CROSSTERMS
Info: 2973 EXCLUSIONS
Info: 2962 RIGID BONDS
Info: ALCH: 0 ATOMS TO DISAPPEAR IN FINAL STATE
Info: ALCH: 6 ATOMS TO APPEAR IN FINAL STATE
Info: 5930 DEGREES OF FREEDOM
Info: 988 HYDROGEN GROUPS
Info: 4 ATOMS IN LARGEST HYDROGEN GROUP
Info: 988 MIGRATION GROUPS
Info: 4 ATOMS IN LARGEST MIGRATION GROUP
Info: TOTAL MASS = 17795.8 amu
Info: TOTAL CHARGE = 9.99756e-05 e
Info: MASS DENSITY = 0.970889 g/cm^3
Info: ATOM DENSITY = 0.0973802 atoms/A^3
Info: ADDED 0 IMPLICIT EXCLUSIONS
Info: NONBONDED TABLE R-SQUARED SPACING: 0.0625
Info: NONBONDED TABLE SIZE: 705 POINTS
Info: REMOVING COM VELOCITY -0.0208947 -0.0822285 -0.0640555
Info: Use 3D box decompostion in PME FFT.
Info: Updated CUDA force table with 4096 elements.
Info: Updated CUDA LJ table with 5 x 5 elements.
Info: Found 9 unique exclusion lists needing 12 bytes
TCL: Running for 1500000 steps
ETITLE: TS BOND ANGLE DIHED IMPRP ELECT VDW BOUNDARY MISC KINETIC TOTAL TEMP POTENTIAL TOTALAVG TEMPAVG PRESSURE GPRESSURE VOLUME PRESSAVG GPRESSAVG
ENERGY: 0 0.1799 0.4744 0.4733 0.0000 -10685.1497 1426.3527 0.0000 0.0000 1744.7735 -7512.8959 296.1248 -9257.6694 -7512.8959 296.1248 -42.4358 44.3089 30437.4054 -42.4358 44.3089
ENERGY: 300000 0.1214 1.3097 0.0983 0.0000 -10705.9843 1439.4305 0.0000 0.0000 1751.8620 -7513.1624 297.3278 -9265.0244 -7533.5316 295.8811 -77.4837 69.5196 30480.2118 -417.2067 -309.6091
ENERGY: 600000 0.5123 1.7138 0.7123 0.0000 -10838.8515 1514.0142 0.0000 0.0000 1782.8200 -7539.0790 302.5821 -9321.8989 -7535.9996 299.5851 640.7670 665.6002 30346.4847 -184.9166 -96.8581
ENERGY: 900000 0.0391 1.1097 0.1359 0.0000 -10663.0986 1353.3428 0.0000 0.0000 1794.4824 -7513.9887 304.5614 -9308.4712 -7537.2574 301.2964 -772.4523 -738.4361 30721.8636 -148.1461 -73.2997
ENERGY: 1200000 0.0217 2.1948 0.4314 0.0000 -10769.5809 1453.4955 0.0000 0.0000 1783.5453 -7529.8923 302.7052 -9313.4376 -7539.1306 301.1940 119.4813 153.9704 30379.1966 -97.7912 -26.8698
ENERGY: 1500000 0.1574 5.0774 0.3731 0.0000 -10719.5172 1448.1980 0.0000 0.0000 1761.4825 -7504.2287 298.9606 -9265.7112 -7526.6284 301.8794 162.4082 191.9438 30594.5496 -33.7598 39.3067
TCL: Running FEP window   2: Lambda1 0.95   Lambda2 0.8999999999999999 [dLambda -0.050000000000000044]
TCL: Setting parameter firsttimestep to 0
TCL: Setting parameter alchLambda to 0.95
Info: NONBONDED TABLE R-SQUARED SPACING: 0.0625
Info: NONBONDED TABLE SIZE: 705 POINTS
TCL: Setting parameter alchLambda2 to 0.8999999999999999
Info: NONBONDED TABLE R-SQUARED SPACING: 0.0625
Info: NONBONDED TABLE SIZE: 705 POINTS
TCL: Running for 1500000 steps
ETITLE: TS BOND ANGLE DIHED IMPRP ELECT VDW BOUNDARY MISC KINETIC TOTAL TEMP POTENTIAL TOTALAVG TEMPAVG PRESSURE GPRESSURE VOLUME PRESSAVG GPRESSAVG
ENERGY: 0 0.1574 5.0774 0.3731 0.0000 -10718.0781 1447.7541 0.0000 0.0000 1760.5987 -7504.1174 298.8106 -9264.7160 -7504.1174 298.8106 100.2761 186.3324 30594.5496 100.2761 186.3324
ENERGY: 300000 0.3401 0.4689 0.0104 0.0000 -10601.7918 1338.3374 0.0000 0.0000 1735.7491 -7526.8859 294.5931 -9262.6350 -7538.4663 299.3456 -851.7636 -783.0912 30768.3757 -565.9668 -493.7178
ENERGY: 600000 0.0199 0.8014 0.0885 0.0000 -10811.3438 1510.7491 0.0000 0.0000 1743.8382 -7555.8468 295.9660 -9299.6849 -7540.3083 299.9870 378.9401 429.5315 30818.0124 -195.6831 -137.3583
ENERGY: 900000 0.0241 1.6664 0.1446 0.0000 -10739.3936 1393.6437 0.0000 0.0000 1798.7306 -7545.1842 305.2824 -9343.9148 -7545.7779 299.9673 -633.8967 -571.7213 31042.5695 -267.5847 -208.5001
ENERGY: 1200000 0.0000 2.9013 0.0940 0.0000 -10725.2989 1420.8933 0.0000 0.0000 1792.8860 -7508.5242 304.2905 -9301.4103 -7543.5609 300.9123 -194.9381 -117.1135 30524.1484 -142.7057 -79.9587
ENERGY: 1500000 0.1153 1.9881 0.0030 0.0000 -10774.7472 1500.9507 0.0000 0.0000 1772.6098 -7499.0802 300.8492 -9271.6900 -7533.2688 301.5781 178.1952 238.2437 31114.0446 -104.1827 -36.7460
TCL: Running FEP window   3: Lambda1 0.8999999999999999 Lambda2 0.8499999999999999 [dLambda -0.050000000000000044]
TCL: Setting parameter firsttimestep to 0
TCL: Setting parameter alchLambda to 0.8999999999999999
Info: NONBONDED TABLE R-SQUARED SPACING: 0.0625
Info: NONBONDED TABLE SIZE: 705 POINTS
TCL: Setting parameter alchLambda2 to 0.8499999999999999
Info: NONBONDED TABLE R-SQUARED SPACING: 0.0625
Info: NONBONDED TABLE SIZE: 705 POINTS
TCL: Running for 1500000 steps
ETITLE: TS BOND ANGLE DIHED IMPRP ELECT VDW BOUNDARY MISC KINETIC TOTAL TEMP POTENTIAL TOTALAVG TEMPAVG PRESSURE GPRESSURE VOLUME PRESSAVG GPRESSAVG
ENERGY: 0 0.1153 1.9881 0.0030 0.0000 -10773.1932 1500.2309 0.0000 0.0000 1771.7396 -7499.1163 300.7015 -9270.8558 -7499.1163 300.7015 130.2252 228.4310 31114.0446 130.2252 228.4310
ENERGY: 300000 0.2288 0.9052 0.1010 0.0000 -10595.0445 1339.5414 0.0000 0.0000 1770.2525 -7484.0157 300.4491 -9254.2681 -7517.9797 302.6939 -907.6586 -884.9247 31309.4782 -154.5000 -100.6497
ENERGY: 600000 0.4298 2.4902 0.0377 0.0000 -10870.4600 1456.0907 0.0000 0.0000 1763.7751 -7647.6366 299.3497 -9411.4116 -7539.6743 303.3713 -69.5536 -43.3846 30130.7954 -159.6832 -111.4266
ENERGY: 900000 0.0084 4.4241 0.2497 0.0000 -10828.6799 1519.9130 0.0000 0.0000 1744.3467 -7559.7381 296.0523 -9304.0848 -7535.8327 303.1792 548.3827 656.5478 30461.0965 -5.8076 47.0509
ENERGY: 1200000 0.1042 1.0200 0.0127 0.0000 -10739.5605 1448.8690 0.0000 0.0000 1792.1894 -7497.3653 304.1722 -9289.5547 -7537.9944 302.8616 -125.4211 -63.6910 30904.2388 -57.0381 1.3860
ENERGY: 1500000 1.6499 2.7296 0.0986 0.0000 -10940.1358 1545.0975 0.0000 0.0000 1754.3309 -7636.2292 297.7469 -9390.5601 -7551.8384 300.8469 477.2008 599.3499 30133.0693 16.0556 71.1059
TCL: Running FEP window   4: Lambda1 0.8499999999999999 Lambda2 0.7999999999999998 [dLambda -0.050000000000000044]
TCL: Setting parameter firsttimestep to 0
TCL: Setting parameter alchLambda to 0.8499999999999999
Info: NONBONDED TABLE R-SQUARED SPACING: 0.0625
Info: NONBONDED TABLE SIZE: 705 POINTS
TCL: Setting parameter alchLambda2 to 0.7999999999999998
Info: NONBONDED TABLE R-SQUARED SPACING: 0.0625
Info: NONBONDED TABLE SIZE: 705 POINTS
TCL: Running for 1500000 steps
ETITLE: TS BOND ANGLE DIHED IMPRP ELECT VDW BOUNDARY MISC KINETIC TOTAL TEMP POTENTIAL TOTALAVG TEMPAVG PRESSURE GPRESSURE VOLUME PRESSAVG GPRESSAVG
ENERGY: 0 1.6499 2.7296 0.0986 0.0000 -10938.8532 1544.1442 0.0000 0.0000 1753.4646 -7636.7661 297.5998 -9390.2307 -7636.7661 297.5998 500.8103 589.0752 30133.0693 500.8103 589.0752
ENERGY: 300000 0.0034 2.7357 0.0224 0.0000 -10832.7292 1520.4555 0.0000 0.0000 1777.8709 -7531.6414 301.7421 -9309.5123 -7582.2313 298.7606 618.7761 713.0101 30412.6062 304.3779 379.3727
ENERGY: 600000 0.1574 1.6462 0.2218 0.0000 -10846.2571 1435.2182 0.0000 0.0000 1730.3137 -7678.6997 293.6707 -9409.0134 -7585.5123 298.8815 -509.7973 -466.2445 30659.6436 76.8476 132.5451
ENERGY: 900000 0.0170 1.0906 0.0510 0.0000 -10700.2802 1413.0732 0.0000 0.0000 1768.6897 -7517.3587 300.1839 -9286.0484 -7579.2675 297.4227 -239.1393 -179.0814 30763.9170 26.3424 97.3135
ENERGY: 1200000 0.7028 1.2321 0.1382 0.0000 -10838.7760 1463.9417 0.0000 0.0000 1779.9575 -7592.8037 302.0962 -9372.7612 -7578.0484 298.7723 -135.9338 -81.4317 30874.0448 1.5277 65.9429
ENERGY: 1500000 0.2370 0.8049 0.0308 0.0000 -10818.4971 1470.1089 0.0000 0.0000 1749.1924 -7598.1231 296.8748 -9347.3154 -7581.8611 298.6136 -56.9222 102.0538 30522.9952 -3.8716 66.3591
TCL: Running FEP window   5: Lambda1 0.7999999999999998 Lambda2 0.7499999999999998 [dLambda -0.050000000000000044]
TCL: Setting parameter firsttimestep to 0
TCL: Setting parameter alchLambda to 0.7999999999999998
Info: NONBONDED TABLE R-SQUARED SPACING: 0.0625
Info: NONBONDED TABLE SIZE: 705 POINTS
TCL: Setting parameter alchLambda2 to 0.7499999999999998
Info: NONBONDED TABLE R-SQUARED SPACING: 0.0625
Info: NONBONDED TABLE SIZE: 705 POINTS
TCL: Running for 1500000 steps
ETITLE: TS BOND ANGLE DIHED IMPRP ELECT VDW BOUNDARY MISC KINETIC TOTAL TEMP POTENTIAL TOTALAVG TEMPAVG PRESSURE GPRESSURE VOLUME PRESSAVG GPRESSAVG
ENERGY: 0 0.2370 0.8049 0.0308 0.0000 -10816.7967 1469.0059 0.0000 0.0000 1748.3164 -7598.4016 296.7261 -9346.7181 -7598.4016 296.7261 -6.5445 91.1395 30522.9952 -6.5445 91.1395
ENERGY: 300000 0.5046 4.3951 0.8999 0.0000 -10786.0043 1436.1010 0.0000 0.0000 1711.1810 -7632.9227 290.4234 -9344.1037 -7630.6110 293.1422 -344.4419 -274.3483 30764.1633 -116.8708 -27.7609
ENERGY: 600000 0.0222 1.2749 0.0544 0.0000 -10737.3185 1440.9264 0.0000 0.0000 1778.9693 -7516.0714 301.9285 -9295.0406 -7590.8789 295.7270 25.1052 66.4444 30161.1336 -263.0372 -177.6292
ENERGY: 900000 0.0327 2.7601 0.9953 0.0000 -10671.2656 1379.8738 0.0000 0.0000 1779.0339 -7508.5698 301.9395 -9287.6037 -7576.2797 297.7009 -477.6110 -468.8562 30624.2925 -310.3849 -242.3843
ENERGY: 1200000 0.0515 2.0084 0.0012 0.0000 -10652.6641 1445.6272 0.0000 0.0000 1730.7941 -7474.1818 293.7522 -9204.9758 -7564.0855 297.7507 141.4936 216.4961 30889.3870 -287.1847 -217.4192
ENERGY: 1500000 0.7118 0.7649 0.9337 0.0000 -10717.4553 1372.3446 0.0000 0.0000 1819.5971 -7523.1033 308.8239 -9342.7003 -7562.8840 298.6284 -569.0235 -546.0508 30397.5796 -233.6307 -177.5099
TCL: Running FEP window   6: Lambda1 0.7499999999999998 Lambda2 0.6999999999999997 [dLambda -0.050000000000000044]
TCL: Setting parameter firsttimestep to 0
TCL: Setting parameter alchLambda to 0.7499999999999998
Info: NONBONDED TABLE R-SQUARED SPACING: 0.0625
Info: NONBONDED TABLE SIZE: 705 POINTS
TCL: Setting parameter alchLambda2 to 0.6999999999999997
Info: NONBONDED TABLE R-SQUARED SPACING: 0.0625
Info: NONBONDED TABLE SIZE: 705 POINTS
TCL: Running for 1500000 steps
ETITLE: TS BOND ANGLE DIHED IMPRP ELECT VDW BOUNDARY MISC KINETIC TOTAL TEMP POTENTIAL TOTALAVG TEMPAVG PRESSURE GPRESSURE VOLUME PRESSAVG GPRESSAVG
ENERGY: 0 0.7118 0.7649 0.9337 0.0000 -10716.7818 1372.1695 0.0000 0.0000 1818.6990 -7523.5029 308.6715 -9342.2019 -7523.5029 308.6715 -619.1762 -548.3795 30397.5796 -619.1762 -548.3795
ENERGY: 300000 0.0030 0.7142 0.4082 0.0000 -10730.6893 1409.2371 0.0000 0.0000 1768.6140 -7551.7129 300.1710 -9320.3269 -7544.7165 301.4953 20.7031 51.8043 30110.4494 -283.0676 -229.6618
ENERGY: 600000 0.1018 3.1766 0.0141 0.0000 -10846.7415 1461.6210 0.0000 0.0000 1783.6945 -7598.1335 302.7305 -9381.8280 -7536.0245 302.0695 -84.8146 -22.5397 30340.9648 13.2045 71.1773
ENERGY: 900000 0.1478 1.1632 0.9928 0.0000 -10762.7881 1422.9164 0.0000 0.0000 1690.9902 -7646.5777 286.9966 -9337.5679 -7552.9797 300.5290 -422.6137 -458.4651 30750.6352 -42.4626 13.1506
ENERGY: 1200000 0.5336 2.3849 0.0905 0.0000 -10804.5665 1485.1513 0.0000 0.0000 1818.2023 -7498.2040 308.5872 -9316.4063 -7540.2183 301.2493 161.5238 177.2305 30716.3207 98.9491 158.8992
ENERGY: 1500000 0.1551 2.3749 0.1089 0.0000 -10864.8966 1464.7426 0.0000 0.0000 1699.8137 -7697.7014 288.4942 -9397.5152 -7548.1987 300.0814 -22.9264 68.4910 30110.3782 69.9780 135.0713
TCL: Running FEP window   7: Lambda1 0.6999999999999997 Lambda2 0.6499999999999997 [dLambda -0.050000000000000044]
TCL: Setting parameter firsttimestep to 0
TCL: Setting parameter alchLambda to 0.6999999999999997
Info: NONBONDED TABLE R-SQUARED SPACING: 0.0625
Info: NONBONDED TABLE SIZE: 705 POINTS
TCL: Setting parameter alchLambda2 to 0.6499999999999997
Info: NONBONDED TABLE R-SQUARED SPACING: 0.0625
Info: NONBONDED TABLE SIZE: 705 POINTS
TCL: Running for 1500000 steps
ETITLE: TS BOND ANGLE DIHED IMPRP ELECT VDW BOUNDARY MISC KINETIC TOTAL TEMP POTENTIAL TOTALAVG TEMPAVG PRESSURE GPRESSURE VOLUME PRESSAVG GPRESSAVG
ENERGY: 0 0.1551 2.3749 0.1089 0.0000 -10863.0975 1463.8837 0.0000 0.0000 1698.9145 -7697.6604 288.3415 -9396.5749 -7697.6604 288.3415 -26.0238 60.2576 30110.3782 -26.0238 60.2576
ENERGY: 300000 0.0094 3.8657 0.5082 0.0000 -10656.9310 1419.5959 0.0000 0.0000 1772.4329 -7460.5188 300.8192 -9232.9517 -7570.9009 293.4380 26.9803 85.2133 30502.7775 15.3584 85.5359
ENERGY: 600000 0.0874 1.2192 0.3549 0.0000 -10820.8408 1491.8601 0.0000 0.0000 1782.8602 -7544.4590 302.5889 -9327.3192 -7556.1253 296.9542 288.5019 341.7748 30514.2797 100.2218 173.1357
ENERGY: 900000 0.0926 3.3457 0.4103 0.0000 -10706.2283 1374.9280 0.0000 0.0000 1794.5928 -7532.8589 304.5802 -9327.4518 -7566.2256 298.0731 -622.6529 -485.7325 30281.2051 77.8351 160.7330
ENERGY: 1200000 0.0002 2.2780 0.1355 0.0000 -10612.5808 1345.7342 0.0000 0.0000 1689.2961 -7575.1369 286.7091 -9264.4330 -7565.7034 297.6119 -1030.4190 -911.0023 31147.8064 64.9229 151.8973
ENERGY: 1500000 0.0110 2.0051 0.0502 0.0000 -10784.5983 1468.0751 0.0000 0.0000 1784.0115 -7530.4454 302.7843 -9314.4569 -7572.3317 297.0201 -4.2645 -4.0135 30872.1948 -8.8853 76.5685
TCL: Running FEP window   8: Lambda1 0.6499999999999997 Lambda2 0.5999999999999996 [dLambda -0.050000000000000044]
TCL: Setting parameter firsttimestep to 0
TCL: Setting parameter alchLambda to 0.6499999999999997
Info: NONBONDED TABLE R-SQUARED SPACING: 0.0625
Info: NONBONDED TABLE SIZE: 705 POINTS
TCL: Setting parameter alchLambda2 to 0.5999999999999996
Info: NONBONDED TABLE R-SQUARED SPACING: 0.0625
Info: NONBONDED TABLE SIZE: 705 POINTS
TCL: Running for 1500000 steps
ETITLE: TS BOND ANGLE DIHED IMPRP ELECT VDW BOUNDARY MISC KINETIC TOTAL TEMP POTENTIAL TOTALAVG TEMPAVG PRESSURE GPRESSURE VOLUME PRESSAVG GPRESSAVG
ENERGY: 0 0.0110 2.0051 0.0502 0.0000 -10783.3293 1467.6535 0.0000 0.0000 1783.1270 -7530.4825 302.6342 -9313.6094 -7530.4825 302.6342 -80.9341 -9.0241 30872.1948 -80.9341 -9.0241
ENERGY: 300000 0.2039 1.2389 0.4450 0.0000 -10749.3139 1443.1659 0.0000 0.0000 1777.6016 -7526.6587 301.6964 -9304.2603 -7525.5995 297.3142 -28.1551 6.8788 30575.1880 -34.5595 18.8942
ENERGY: 600000 0.1992 2.0542 0.5518 0.0000 -10837.5326 1492.1298 0.0000 0.0000 1806.6675 -7535.9301 306.6295 -9342.5976 -7523.3007 300.6691 -67.8690 55.1436 31046.3962 45.1626 108.7862
ENERGY: 900000 0.0148 2.2314 0.0722 0.0000 -10688.7042 1379.2621 0.0000 0.0000 1771.4175 -7535.7063 300.6468 -9307.1238 -7535.9420 299.5983 -581.7397 -493.1647 30474.5025 -88.4225 -27.6519
ENERGY: 1200000 0.1670 0.5726 0.0760 0.0000 -10657.8695 1389.5293 0.0000 0.0000 1751.7447 -7515.7800 297.3079 -9267.5246 -7536.3796 300.7202 -537.6604 -532.7303 30841.4187 8.4692 65.6089
ENERGY: 1500000 0.0338 0.7590 0.2013 0.0000 -10578.4326 1324.3726 0.0000 0.0000 1826.2778 -7426.7883 309.9578 -9253.0660 -7533.4960 301.3017 -923.8679 -828.8662 31002.0180 -76.7192 -16.6014
TCL: Running FEP window   9: Lambda1 0.5999999999999996 Lambda2 0.5499999999999996 [dLambda -0.050000000000000044]
TCL: Setting parameter firsttimestep to 0
TCL: Setting parameter alchLambda to 0.5999999999999996
Info: NONBONDED TABLE R-SQUARED SPACING: 0.0625
Info: NONBONDED TABLE SIZE: 705 POINTS
TCL: Setting parameter alchLambda2 to 0.5499999999999996
Info: NONBONDED TABLE R-SQUARED SPACING: 0.0625
Info: NONBONDED TABLE SIZE: 705 POINTS
TCL: Running for 1500000 steps
ETITLE: TS BOND ANGLE DIHED IMPRP ELECT VDW BOUNDARY MISC KINETIC TOTAL TEMP POTENTIAL TOTALAVG TEMPAVG PRESSURE GPRESSURE VOLUME PRESSAVG GPRESSAVG
ENERGY: 0 0.0338 0.7590 0.2013 0.0000 -10578.1908 1324.6442 0.0000 0.0000 1825.4046 -7427.1480 309.8096 -9252.5526 -7427.1480 309.8096 -908.9100 -829.5679 31002.0180 -908.9100 -829.5679
ENERGY: 300000 0.1421 2.4601 0.2291 0.0000 -10728.0773 1411.6009 0.0000 0.0000 1803.9511 -7509.6940 306.1685 -9313.6451 -7484.1036 307.1625 -174.8849 -48.1408 30266.8003 -200.7840 -126.0260
ENERGY: 600000 0.1207 3.9987 0.5749 0.0000 -10789.1887 1506.1072 0.0000 0.0000 1774.8797 -7503.5074 301.2344 -9278.3871 -7524.0162 304.5141 406.5885 465.5451 30911.3537 -97.9539 -27.6062
ENERGY: 900000 0.1717 3.3101 0.9306 0.0000 -10709.6069 1416.2273 0.0000 0.0000 1792.9258 -7496.0413 304.2972 -9288.9672 -7533.9725 301.7774 -224.7908 -158.2058 30711.5606 -179.3474 -114.9282
ENERGY: 1200000 0.3223 1.3087 0.1355 0.0000 -10845.3452 1496.3019 0.0000 0.0000 1767.2620 -7580.0148 299.9416 -9347.2768 -7524.6261 302.1366 325.3342 373.4124 30339.6268 -109.8700 -44.2874
ENERGY: 1500000 0.1316 1.1631 0.1477 0.0000 -10769.6345 1485.8100 0.0000 0.0000 1776.3875 -7505.9946 301.4903 -9282.3821 -7531.6766 301.7165 455.8735 517.4913 30274.9056 -9.5876 57.5638
TCL: Running FEP window  10: Lambda1 0.5499999999999996 Lambda2 0.4999999999999996 [dLambda -0.04999999999999999]
TCL: Setting parameter firsttimestep to 0
TCL: Setting parameter alchLambda to 0.5499999999999996
Info: NONBONDED TABLE R-SQUARED SPACING: 0.0625
Info: NONBONDED TABLE SIZE: 705 POINTS
TCL: Setting parameter alchLambda2 to 0.4999999999999996
Info: NONBONDED TABLE R-SQUARED SPACING: 0.0625
Info: NONBONDED TABLE SIZE: 705 POINTS
TCL: Running for 1500000 steps
ETITLE: TS BOND ANGLE DIHED IMPRP ELECT VDW BOUNDARY MISC KINETIC TOTAL TEMP POTENTIAL TOTALAVG TEMPAVG PRESSURE GPRESSURE VOLUME PRESSAVG GPRESSAVG
ENERGY: 0 0.1316 1.1631 0.1477 0.0000 -10769.3238 1485.5506 0.0000 0.0000 1775.5062 -7506.8246 301.3408 -9282.3308 -7506.8246 301.3408 415.8237 514.8388 30274.9056 415.8237 514.8388
ENERGY: 300000 0.0126 2.3869 0.2593 0.0000 -10704.7724 1393.2168 0.0000 0.0000 1767.3349 -7541.5619 299.9539 -9308.8968 -7549.6868 299.4820 -261.8725 -217.5075 30267.3048 271.3681 336.7427
ENERGY: 600000 0.6329 1.8311 0.0202 0.0000 -10759.1319 1421.4535 0.0000 0.0000 1738.8140 -7596.3802 295.1133 -9335.1942 -7561.8036 299.0297 -416.6369 -356.7817 30647.5115 63.3356 123.8125
ENERGY: 900000 0.0376 1.6690 0.3825 0.0000 -10815.2894 1468.9328 0.0000 0.0000 1797.5920 -7546.6754 305.0892 -9344.2674 -7575.1497 299.2148 251.9360 253.0723 30201.9883 50.2375 105.2743
ENERGY: 1200000 0.2447 2.6707 0.7431 0.0000 -10559.5983 1361.1952 0.0000 0.0000 1792.5749 -7402.1697 304.2377 -9194.7446 -7562.5698 298.3897 -210.5285 -162.8763 30373.7187 61.2595 110.6930
ENERGY: 1500000 0.0701 4.6428 0.6153 0.0000 -10736.9045 1451.8401 0.0000 0.0000 1775.0499 -7504.6863 301.2633 -9279.7362 -7554.0686 298.8997 205.1019 279.1897 30143.9121 97.5981 149.0016
TCL: Running FEP window  11: Lambda1 0.4999999999999996 Lambda2 0.4499999999999996 [dLambda -0.04999999999999999]
TCL: Setting parameter firsttimestep to 0
TCL: Setting parameter alchLambda to 0.4999999999999996
Info: NONBONDED TABLE R-SQUARED SPACING: 0.0625
Info: NONBONDED TABLE SIZE: 705 POINTS
TCL: Setting parameter alchLambda2 to 0.4499999999999996
Info: NONBONDED TABLE R-SQUARED SPACING: 0.0625
Info: NONBONDED TABLE SIZE: 705 POINTS
TCL: Running for 1500000 steps
ETITLE: TS BOND ANGLE DIHED IMPRP ELECT VDW BOUNDARY MISC KINETIC TOTAL TEMP POTENTIAL TOTALAVG TEMPAVG PRESSURE GPRESSURE VOLUME PRESSAVG GPRESSAVG
ENERGY: 0 0.0701 4.6428 0.6153 0.0000 -10736.4301 1451.7733 0.0000 0.0000 1774.1791 -7505.1496 301.1155 -9279.3286 -7505.1496 301.1155 194.7801 278.7058 30143.9121 194.7801 278.7058
ENERGY: 300000 0.0023 1.6034 0.0224 0.0000 -10734.8819 1435.7120 0.0000 0.0000 1774.2810 -7523.2608 301.1328 -9297.5417 -7541.0786 299.5966 -423.6100 -251.5038 30949.5199 -166.5786 -87.1110
ENERGY: 600000 0.4957 0.9917 0.6326 0.0000 -10776.3734 1445.0818 0.0000 0.0000 1784.2062 -7544.9654 302.8173 -9329.1716 -7567.8484 299.0048 -332.1531 -269.3729 31012.1466 -45.4884 33.3296
ENERGY: 900000 0.0379 0.3019 0.1932 0.0000 -10786.0178 1453.2582 0.0000 0.0000 1802.9920 -7529.2345 306.0057 -9332.2265 -7571.9587 299.0902 -28.9857 57.4362 30432.4058 -31.2698 43.3474
ENERGY: 1200000 0.3780 1.3338 0.9592 0.0000 -10644.3117 1417.2663 0.0000 0.0000 1782.9890 -7441.3854 302.6108 -9224.3744 -7559.9102 299.9784 -64.8491 1.5837 30875.6791 -72.2165 -2.7660
ENERGY: 1500000 0.0151 1.7065 0.9878 0.0000 -10733.2595 1420.1826 0.0000 0.0000 1734.5794 -7575.7880 294.3946 -9310.3674 -7557.2544 299.6200 -364.0783 -250.4595 30680.8809 -151.3467 -91.3818
TCL: Running FEP window  12: Lambda1 0.4499999999999996 Lambda2 0.39999999999999963 [dLambda -0.04999999999999999]
TCL: Setting parameter firsttimestep to 0
TCL: Setting parameter alchLambda to 0.4499999999999996
Info: NONBONDED TABLE R-SQUARED SPACING: 0.0625
Info: NONBONDED TABLE SIZE: 705 POINTS
TCL: Setting parameter alchLambda2 to 0.39999999999999963
Info: NONBONDED TABLE R-SQUARED SPACING: 0.0625
Info: NONBONDED TABLE SIZE: 705 POINTS
TCL: Running for 1500000 steps
ETITLE: TS BOND ANGLE DIHED IMPRP ELECT VDW BOUNDARY MISC KINETIC TOTAL TEMP POTENTIAL TOTALAVG TEMPAVG PRESSURE GPRESSURE VOLUME PRESSAVG GPRESSAVG
ENERGY: 0 0.0151 1.7065 0.9878 0.0000 -10733.2607 1420.3029 0.0000 0.0000 1733.6629 -7576.5854 294.2391 -9310.2483 -7576.5854 294.2391 -333.6811 -252.0704 30680.8809 -333.6811 -252.0704
ENERGY: 300000 1.5931 0.7328 0.1033 0.0000 -10858.8990 1484.3135 0.0000 0.0000 1758.2736 -7613.8828 298.4160 -9372.1564 -7584.9635 296.3430 -135.0150 -94.5966 30880.1882 171.5645 242.8414
ENERGY: 600000 0.1366 1.1408 0.1091 0.0000 -10794.0850 1524.4032 0.0000 0.0000 1750.2523 -7518.0430 297.0546 -9268.2953 -7556.9035 300.9681 499.0213 511.2060 30726.4772 198.1706 247.6026
ENERGY: 900000 0.7628 1.3462 0.8148 0.0000 -10796.1083 1425.5601 0.0000 0.0000 1812.5863 -7555.0383 307.6340 -9367.6245 -7563.3597 301.2162 77.1771 58.5502 29962.3954 312.9169 362.1683
ENERGY: 1200000 0.2730 2.7786 0.0764 0.0000 -10799.7576 1515.3580 0.0000 0.0000 1792.2959 -7488.9756 304.1903 -9281.2716 -7553.1943 300.7649 744.0101 795.6918 30265.3833 201.4496 253.9136
ENERGY: 1500000 0.8205 1.0712 0.0123 0.0000 -10826.3435 1473.3791 0.0000 0.0000 1812.3967 -7538.6637 307.6019 -9351.0604 -7544.2254 301.0563 132.5964 164.7516 30557.6975 238.0203 294.3686
TCL: Running FEP window  13: Lambda1 0.39999999999999963 Lambda2 0.34999999999999964 [dLambda -0.04999999999999999]
TCL: Setting parameter firsttimestep to 0
TCL: Setting parameter alchLambda to 0.39999999999999963
Info: NONBONDED TABLE R-SQUARED SPACING: 0.0625
Info: NONBONDED TABLE SIZE: 705 POINTS
TCL: Setting parameter alchLambda2 to 0.34999999999999964
Info: NONBONDED TABLE R-SQUARED SPACING: 0.0625
Info: NONBONDED TABLE SIZE: 705 POINTS
TCL: Running for 1500000 steps
ETITLE: TS BOND ANGLE DIHED IMPRP ELECT VDW BOUNDARY MISC KINETIC TOTAL TEMP POTENTIAL TOTALAVG TEMPAVG PRESSURE GPRESSURE VOLUME PRESSAVG GPRESSAVG
ENERGY: 0 0.8205 1.0712 0.0123 0.0000 -10826.3432 1473.3933 0.0000 0.0000 1811.5409 -7539.5050 307.4566 -9351.0459 -7539.5050 307.4566 66.2941 161.8844 30557.6975 66.2941 161.8844
ENERGY: 300000 0.4231 0.6639 0.3105 0.0000 -10732.7941 1433.3354 0.0000 0.0000 1771.4552 -7526.6060 300.6532 -9298.0612 -7548.4567 302.6181 -280.6054 -181.5775 30665.6702 -310.3009 -253.5149
ENERGY: 600000 0.0266 1.6718 0.0398 0.0000 -10861.7471 1491.4339 0.0000 0.0000 1807.3287 -7561.2464 306.7417 -9368.5751 -7555.1044 302.8752 100.1744 121.5514 30439.9127 -189.5661 -121.1841
ENERGY: 900000 0.9928 4.2360 0.0273 0.0000 -10911.5324 1554.8961 0.0000 0.0000 1778.7019 -7572.6782 301.8831 -9351.3802 -7544.1965 302.3989 442.1090 560.7177 30713.4253 -82.4070 -15.9666
ENERGY: 1200000 0.0612 3.5118 0.0183 0.0000 -10708.9622 1400.4341 0.0000 0.0000 1807.0586 -7497.8782 306.6959 -9304.9368 -7530.7564 303.0091 -389.2438 -317.2619 30579.1856 -154.6393 -87.5218
ENERGY: 1500000 0.5157 1.3416 0.0634 0.0000 -10729.7647 1442.1042 0.0000 0.0000 1738.2405 -7547.4994 295.0160 -9285.7398 -7544.0079 300.9422 35.3595 97.4276 30072.9053 -142.1407 -79.9559
TCL: Running FEP window  14: Lambda1 0.34999999999999964 Lambda2 0.29999999999999966 [dLambda -0.04999999999999999]
TCL: Setting parameter firsttimestep to 0
TCL: Setting parameter alchLambda to 0.34999999999999964
Info: NONBONDED TABLE R-SQUARED SPACING: 0.0625
Info: NONBONDED TABLE SIZE: 705 POINTS
TCL: Setting parameter alchLambda2 to 0.29999999999999966
Info: NONBONDED TABLE R-SQUARED SPACING: 0.0625
Info: NONBONDED TABLE SIZE: 705 POINTS
TCL: Running for 1500000 steps
ETITLE: TS BOND ANGLE DIHED IMPRP ELECT VDW BOUNDARY MISC KINETIC TOTAL TEMP POTENTIAL TOTALAVG TEMPAVG PRESSURE GPRESSURE VOLUME PRESSAVG GPRESSAVG
ENERGY: 0 0.5157 1.3416 0.0634 0.0000 -10729.7646 1442.0625 0.0000 0.0000 1737.3270 -7548.4545 294.8609 -9285.7815 -7548.4545 294.8609 8.5585 95.2128 30072.9053 8.5585 95.2128
ENERGY: 300000 0.1517 1.2296 0.1256 0.0000 -10907.9017 1532.4618 0.0000 0.0000 1789.5384 -7584.3946 303.7223 -9373.9330 -7584.1916 297.2902 607.2635 662.7888 30189.9053 -95.2947 -33.2306
ENERGY: 600000 0.0228 3.8389 0.5497 0.0000 -10787.9585 1467.7666 0.0000 0.0000 1744.1008 -7571.6797 296.0106 -9315.7805 -7590.2968 297.4042 171.9397 212.5157 30352.8207 44.3661 105.9851
ENERGY: 900000 0.0197 2.0359 0.9601 0.0000 -10816.2332 1450.0728 0.0000 0.0000 1769.0933 -7594.0514 300.2524 -9363.1447 -7582.8853 298.8913 -183.5539 -97.5752 30415.4386 -68.4166 -9.0200
ENERGY: 1200000 1.1730 1.4599 0.2483 0.0000 -10721.9151 1400.0603 0.0000 0.0000 1847.5347 -7471.4390 313.5655 -9318.9737 -7575.7952 299.5955 -85.7782 -29.2409 30274.8348 -126.4704 -60.7775
ENERGY: 1500000 0.0134 1.3964 0.0749 0.0000 -10875.6058 1545.9247 0.0000 0.0000 1776.5569 -7551.6394 301.5191 -9328.1963 -7569.7820 299.5101 513.2760 518.2705 30850.0383 -37.1654 22.4313
TCL: Running FEP window  15: Lambda1 0.29999999999999966 Lambda2 0.24999999999999967 [dLambda -0.04999999999999999]
TCL: Setting parameter firsttimestep to 0
TCL: Setting parameter alchLambda to 0.29999999999999966
Info: NONBONDED TABLE R-SQUARED SPACING: 0.0625
Info: NONBONDED TABLE SIZE: 705 POINTS
TCL: Setting parameter alchLambda2 to 0.24999999999999967
Info: NONBONDED TABLE R-SQUARED SPACING: 0.0625
Info: NONBONDED TABLE SIZE: 705 POINTS
TCL: Running for 1500000 steps
ETITLE: TS BOND ANGLE DIHED IMPRP ELECT VDW BOUNDARY MISC KINETIC TOTAL TEMP POTENTIAL TOTALAVG TEMPAVG PRESSURE GPRESSURE VOLUME PRESSAVG GPRESSAVG
ENERGY: 0 0.0134 1.3964 0.0749 0.0000 -10875.6036 1546.1431 0.0000 0.0000 1775.6861 -7552.2897 301.3713 -9327.9758 -7552.2897 301.3713 442.8469 519.4142 30850.0383 442.8469 519.4142
ENERGY: 300000 0.0151 1.7862 0.9955 0.0000 -10731.4305 1388.7201 0.0000 0.0000 1823.7189 -7516.1947 309.5235 -9339.9136 -7527.1349 303.0694 -642.0275 -501.1968 30478.8170 -263.3094 -178.2263
ENERGY: 600000 0.2479 1.3873 0.1686 0.0000 -10831.2287 1452.7549 0.0000 0.0000 1779.4630 -7597.2071 302.0123 -9376.6701 -7521.4740 303.7485 -222.6741 -178.9904 30751.0411 -214.9875 -134.9465
ENERGY: 900000 0.6288 2.3939 0.3018 0.0000 -10658.0586 1369.5673 0.0000 0.0000 1799.5711 -7485.5957 305.4251 -9285.1668 -7522.6848 302.2689 -346.1991 -318.4109 30464.3918 -267.9151 -202.3220
ENERGY: 1200000 1.5560 2.3261 0.5173 0.0000 -10837.6623 1428.9350 0.0000 0.0000 1786.4382 -7617.8897 303.1962 -9404.3278 -7534.3371 302.0373 -246.5959 -230.4866 30050.0505 -272.1532 -212.1115
ENERGY: 1500000 0.0383 4.1050 0.6258 0.0000 -10758.6346 1458.8478 0.0000 0.0000 1804.5110 -7490.5067 306.2635 -9295.0177 -7534.3535 301.8538 391.4803 412.0635 30036.9273 -291.1363 -231.4541
TCL: Running FEP window  16: Lambda1 0.24999999999999967 Lambda2 0.19999999999999968 [dLambda -0.04999999999999999]
TCL: Setting parameter firsttimestep to 0
TCL: Setting parameter alchLambda to 0.24999999999999967
Info: NONBONDED TABLE R-SQUARED SPACING: 0.0625
Info: NONBONDED TABLE SIZE: 705 POINTS
TCL: Setting parameter alchLambda2 to 0.19999999999999968
Info: NONBONDED TABLE R-SQUARED SPACING: 0.0625
Info: NONBONDED TABLE SIZE: 705 POINTS
TCL: Running for 1500000 steps
ETITLE: TS BOND ANGLE DIHED IMPRP ELECT VDW BOUNDARY MISC KINETIC TOTAL TEMP POTENTIAL TOTALAVG TEMPAVG PRESSURE GPRESSURE VOLUME PRESSAVG GPRESSAVG
ENERGY: 0 0.0383 4.1050 0.6258 0.0000 -10758.6351 1459.0851 0.0000 0.0000 1803.6432 -7491.1376 306.1162 -9294.7808 -7491.1376 306.1162 336.4387 414.8855 30036.9273 336.4387 414.8855
ENERGY: 300000 0.1398 1.0029 0.1318 0.0000 -10693.2024 1383.2166 0.0000 0.0000 1709.0545 -7599.6569 290.0625 -9308.7113 -7557.6227 297.5593 -607.3049 -512.9810 30665.8127 -172.7860 -104.1047
ENERGY: 600000 0.0191 1.6543 0.0763 0.0000 -10948.7308 1547.4023 0.0000 0.0000 1793.5415 -7606.0373 304.4017 -9399.5788 -7556.0288 301.3293 750.6155 765.0250 29860.8744 -46.6438 13.0937
ENERGY: 900000 0.0017 1.3684 0.2189 0.0000 -10601.2342 1398.1483 0.0000 0.0000 1718.3513 -7483.1455 291.6404 -9201.4969 -7545.1873 300.5476 -148.0544 -99.8738 30399.8866 -95.7309 -32.1824
ENERGY: 1200000 0.8322 1.0676 0.1995 0.0000 -10868.6080 1476.5616 0.0000 0.0000 1771.9960 -7617.9512 300.7450 -9389.9471 -7565.0269 299.3850 108.0046 156.7485 30161.6777 2.4824 66.1393
ENERGY: 1500000 0.0187 2.1095 0.0092 0.0000 -10790.5644 1496.3339 0.0000 0.0000 1775.9418 -7516.1513 301.4147 -9292.0932 -7566.4305 299.1198 597.6172 672.0651 30349.3230 157.2683 225.0992
TCL: Running FEP window  17: Lambda1 0.19999999999999968 Lambda2 0.1499999999999997 [dLambda -0.04999999999999999]
TCL: Setting parameter firsttimestep to 0
TCL: Setting parameter alchLambda to 0.19999999999999968
Info: NONBONDED TABLE R-SQUARED SPACING: 0.0625
Info: NONBONDED TABLE SIZE: 705 POINTS
TCL: Setting parameter alchLambda2 to 0.1499999999999997
Info: NONBONDED TABLE R-SQUARED SPACING: 0.0625
Info: NONBONDED TABLE SIZE: 705 POINTS
TCL: Running for 1500000 steps
ETITLE: TS BOND ANGLE DIHED IMPRP ELECT VDW BOUNDARY MISC KINETIC TOTAL TEMP POTENTIAL TOTALAVG TEMPAVG PRESSURE GPRESSURE VOLUME PRESSAVG GPRESSAVG
ENERGY: 0 0.0187 2.1095 0.0092 0.0000 -10790.5647 1496.1532 0.0000 0.0000 1775.0667 -7517.2074 301.2662 -9292.2741 -7517.2074 301.2662 578.1016 670.5021 30349.3230 578.1016 670.5021
ENERGY: 300000 0.5514 0.2954 0.4881 0.0000 -10820.0807 1537.8086 0.0000 0.0000 1723.5531 -7557.3841 292.5232 -9280.9373 -7537.0514 298.3355 600.9992 650.8755 30532.4153 540.9732 584.4656
ENERGY: 600000 0.0586 1.2007 0.2102 0.0000 -10784.7579 1462.5310 0.0000 0.0000 1727.1104 -7593.6470 293.1270 -9320.7574 -7544.0388 299.9493 140.7561 168.8465 30356.9521 506.0042 536.1147
ENERGY: 900000 0.0372 0.9611 0.6141 0.0000 -10961.8760 1597.4948 0.0000 0.0000 1799.0750 -7563.6938 305.3409 -9362.7688 -7550.5266 301.9884 1097.5393 1197.0934 30155.2315 472.7537 514.3237
ENERGY: 1200000 0.2540 3.4202 0.3793 0.0000 -10799.9777 1447.4059 0.0000 0.0000 1715.9287 -7632.5897 291.2292 -9348.5183 -7554.1300 300.5336 -2.0571 93.6710 29982.0385 295.2901 348.3928
ENERGY: 1500000 0.1753 1.1122 0.1758 0.0000 -10748.1524 1476.1083 0.0000 0.0000 1749.2595 -7521.3212 296.8862 -9270.5808 -7557.9797 299.1088 679.6358 708.1665 29793.2148 259.3455 312.8447
TCL: Running FEP window  18: Lambda1 0.1499999999999997 Lambda2 0.09999999999999969 [dLambda -0.05 ]
TCL: Setting parameter firsttimestep to 0
TCL: Setting parameter alchLambda to 0.1499999999999997
Info: NONBONDED TABLE R-SQUARED SPACING: 0.0625
Info: NONBONDED TABLE SIZE: 705 POINTS
TCL: Setting parameter alchLambda2 to 0.09999999999999969
Info: NONBONDED TABLE R-SQUARED SPACING: 0.0625
Info: NONBONDED TABLE SIZE: 705 POINTS
TCL: Running for 1500000 steps
ETITLE: TS BOND ANGLE DIHED IMPRP ELECT VDW BOUNDARY MISC KINETIC TOTAL TEMP POTENTIAL TOTALAVG TEMPAVG PRESSURE GPRESSURE VOLUME PRESSAVG GPRESSAVG
ENERGY: 0 0.1753 1.1122 0.1758 0.0000 -10748.1528 1475.8281 0.0000 0.0000 1748.4130 -7522.4485 296.7425 -9270.8615 -7522.4485 296.7425 619.6173 704.5397 29793.2148 619.6173 704.5397
ENERGY: 300000 0.0006 1.0733 0.0722 0.0000 -10881.6942 1468.5882 0.0000 0.0000 1796.2052 -7615.7546 304.8538 -9411.9598 -7519.7309 300.0667 8.7307 89.6072 30174.1559 -220.6610 -149.9458
ENERGY: 600000 0.0887 1.5241 0.3923 0.0000 -10648.1780 1373.5773 0.0000 0.0000 1801.7947 -7470.8008 305.8025 -9272.5956 -7504.8566 303.6063 -562.0238 -539.7208 30564.9246 -100.2075 -46.4457
ENERGY: 900000 0.0269 1.0957 0.8832 0.0000 -10771.3581 1493.6971 0.0000 0.0000 1820.7487 -7454.9066 309.0194 -9275.6553 -7515.2492 303.1799 726.7506 771.4534 30053.1625 24.5187 82.2734
ENERGY: 1200000 0.0027 2.3146 0.2081 0.0000 -10745.2991 1425.7809 0.0000 0.0000 1764.6627 -7552.3301 299.5004 -9316.9928 -7518.5459 302.7060 -309.9921 -153.8393 30589.9530 -58.3932 4.8314
ENERGY: 1500000 0.0012 3.5630 0.4735 0.0000 -10750.9527 1423.9049 0.0000 0.0000 1779.2362 -7543.7738 301.9738 -9323.0101 -7524.5826 302.6143 -191.0050 -96.9882 30350.7827 -37.1021 31.2202
TCL: Running FEP window  19: Lambda1 0.09999999999999969 Lambda2 0.049999999999999684 [dLambda -0.05 ]
TCL: Setting parameter firsttimestep to 0
TCL: Setting parameter alchLambda to 0.09999999999999969
Info: NONBONDED TABLE R-SQUARED SPACING: 0.0625
Info: NONBONDED TABLE SIZE: 705 POINTS
TCL: Setting parameter alchLambda2 to 0.049999999999999684
Info: NONBONDED TABLE R-SQUARED SPACING: 0.0625
Info: NONBONDED TABLE SIZE: 705 POINTS
TCL: Running for 1500000 steps
ETITLE: TS BOND ANGLE DIHED IMPRP ELECT VDW BOUNDARY MISC KINETIC TOTAL TEMP POTENTIAL TOTALAVG TEMPAVG PRESSURE GPRESSURE VOLUME PRESSAVG GPRESSAVG
ENERGY: 0 0.0012 3.5630 0.4735 0.0000 -10750.9527 1423.7156 0.0000 0.0000 1778.3889 -7544.8105 301.8300 -9323.1994 -7544.8105 301.8300 -192.4081 -99.3415 30350.7827 -192.4081 -99.3415
ENERGY: 300000 0.1836 1.0869 0.1425 0.0000 -10756.1449 1408.1539 0.0000 0.0000 1733.5022 -7613.0758 294.2118 -9346.5780 -7543.9884 299.7473 -686.6150 -582.7797 30629.6753 46.7114 142.1993
ENERGY: 600000 0.0484 0.4674 0.1947 0.0000 -10792.2686 1500.3619 0.0000 0.0000 1757.6986 -7533.4976 298.3184 -9291.1962 -7539.9631 299.2806 752.9050 822.5100 29813.8765 84.3933 167.5038
ENERGY: 900000 0.0153 3.2203 0.1790 0.0000 -10900.4407 1548.5435 0.0000 0.0000 1747.1469 -7601.3357 296.5276 -9348.4826 -7555.4434 299.4459 915.0748 917.4460 29954.8633 163.3117 222.7593
ENERGY: 1200000 0.0030 1.1776 0.4140 0.0000 -10744.1614 1441.3319 0.0000 0.0000 1783.0213 -7518.2137 302.6162 -9301.2350 -7569.6487 298.6789 -124.9248 1.2829 30578.6359 191.5016 244.6353
ENERGY: 1500000 0.1110 2.2441 0.0211 0.0000 -10664.6203 1445.2221 0.0000 0.0000 1765.4446 -7451.5773 299.6331 -9217.0219 -7564.1213 298.4500 -131.6347 -35.7949 31040.8762 166.4772 225.0291
TCL: Running FEP window  20: Lambda1 0.049999999999999684 Lambda2 0.0    [dLambda -0.049999999999999684]
TCL: Setting parameter firsttimestep to 0
TCL: Setting parameter alchLambda to 0.049999999999999684
Info: NONBONDED TABLE R-SQUARED SPACING: 0.0625
Info: NONBONDED TABLE SIZE: 705 POINTS
TCL: Setting parameter alchLambda2 to 0.0
Info: NONBONDED TABLE R-SQUARED SPACING: 0.0625
Info: NONBONDED TABLE SIZE: 705 POINTS
TCL: Running for 1500000 steps
ETITLE: TS BOND ANGLE DIHED IMPRP ELECT VDW BOUNDARY MISC KINETIC TOTAL TEMP POTENTIAL TOTALAVG TEMPAVG PRESSURE GPRESSURE VOLUME PRESSAVG GPRESSAVG
ENERGY: 0 0.1110 2.2441 0.0211 0.0000 -10664.6214 1445.3133 0.0000 0.0000 1764.5446 -7452.3871 299.4804 -9216.9318 -7452.3871 299.4804 -119.3137 -34.1486 31040.8762 -119.3137 -34.1486
ENERGY: 300000 0.1215 1.1332 0.0103 0.0000 -10707.6976 1441.3826 0.0000 0.0000 1801.7678 -7463.2822 305.7979 -9265.0500 -7510.5379 303.1126 -4.6575 53.3550 30537.8245 -269.5117 -206.4348
ENERGY: 600000 0.1554 1.3821 0.0366 0.0000 -10833.3943 1478.0628 0.0000 0.0000 1766.1362 -7587.6211 299.7505 -9353.7573 -7529.7464 301.9588 268.5578 376.9044 29960.4551 -93.6771 -20.2525
ENERGY: 900000 0.0810 1.7610 0.3345 0.0000 -10836.6832 1514.7512 0.0000 0.0000 1767.3687 -7552.3868 299.9597 -9319.7555 -7543.1765 301.1712 681.4086 738.8710 30069.2037 75.1873 147.1277
ENERGY: 1200000 0.0993 2.8377 0.3608 0.0000 -10669.3690 1445.4736 0.0000 0.0000 1771.7511 -7448.8465 300.7034 -9220.5976 -7530.9662 301.8094 201.7769 294.0629 30506.7468 107.6909 175.5370
ENERGY: 1500000 0.5601 3.0253 0.5620 0.0000 -10627.2785 1363.8329 0.0000 0.0000 1722.0439 -7537.2544 292.2671 -9259.2983 -7534.2823 300.6442 -691.9225 -509.6278 30824.5874 -34.5932 35.6193
TCL: Exiting due to exit command.
