Info: SIMULATION PARAMETERS:
Info: TIMESTEP               2
Info: NUMBER OF STEPS        0
Info: STEPS PER CYCLE        10
Info: PERIODIC CELL BASIS 1  30.8171 0 0
Info: PERIODIC CELL BASIS 2  0 32.0855 0
Info: PERIODIC CELL BASIS 3  0 0 30.5266
Info: PERIODIC CELL CENTER   0 0 0
Info: WRAPPING WATERS AROUND PERIODIC BOUNDARIES ON OUTPUT.
Info: WRAPPING ALL CLUSTERS AROUND PERIODIC BOUNDARIES ON OUTPUT.
Info: FIRST LDB TIMESTEP     50
Info: LAST LDB TIMESTEP     -1
Info: HOM BACKGROUND SCALING 1
Info: PME BACKGROUND SCALING 1
Info: MIN ATOMS PER PATCH    40
Info: EMPTY PATCH LOAD       40 ATOMS
Info: VELOCITY FILE          mobley_7099614_equil.vel
Info: CENTER OF MASS MOVING INITIALLY? NO
Info: DIELECTRIC             1
Info: EXCLUDE                SCALED ONE-FOUR
Info: 1-4 ELECTROSTATICS SCALED BY 0.833333
Info: MODIFIED 1-4 VDW PARAMETERS WILL BE USED
Info: DCD FILENAME           mobley_7099614_prod.dcd
Info: DCD FREQUENCY          100000
Info: DCD FIRST STEP         100000
Info: DCD FILE WILL CONTAIN UNIT CELL DATA
Info: XST FILENAME           mobley_7099614_prod.xst
Info: XST FREQUENCY          100000
Info: NO VELOCITY DCD OUTPUT
Info: NO FORCE DCD OUTPUT
Info: OUTPUT FILENAME        mobley_7099614_prod
Info: BINARY OUTPUT FILES WILL BE USED
Info: RESTART FILENAME       mobley_7099614_prod.restart
Info: RESTART FREQUENCY      100000
Info: BINARY RESTART FILES WILL BE USED
Info: CUTOFF                 9
Info: PAIRLIST DISTANCE      11
Info: PAIRLIST SHRINK RATE   0.01
Info: PAIRLIST GROW RATE     0.01
Info: PAIRLIST TRIGGER       0.3
Info: PAIRLISTS PER CYCLE    2
Info: PAIRLISTS ENABLED
Info: MARGIN                 2
Info: HYDROGEN GROUP CUTOFF  2.5
Info: PATCH DIMENSION        15.5
Info: ENERGY OUTPUT STEPS    100000
Info: ENERGY EVALUATION STEPS    100000
Info: OUTPUT ENERGY PRECISION 4
Info: CROSSTERM ENERGY INCLUDED IN DIHEDRAL
Info: TIMING OUTPUT STEPS    1000000
Info: PRESSURE OUTPUT STEPS  100000
Info: ALCHEMICAL FEP ON
Info: FEP CURRENT LAMBDA VALUE     1
Info: FEP COMPARISON LAMBDA VALUE  0.95
Info: FEP INTRA-ALCHEMICAL NON-BONDED INTERACTIONS WILL BE RETAINED
Info: FEP INTRA-ALCHEMICAL BONDED INTERACTIONS WILL BE RETAINED
Info: FEP VDW SHIFTING COEFFICIENT 5
Info: FEP ELEC. ACTIVE FOR ANNIHILATED PARTICLES BETWEEN LAMBDA = 0 AND LAMBDA = 0.5
Info: FEP ELEC. ACTIVE FOR EXNIHILATED PARTICLES BETWEEN LAMBDA = 0.5 AND LAMBDA = 1
Info: FEP VDW ACTIVE FOR ANNIHILATED PARTICLES BETWEEN LAMBDA = 0 AND LAMBDA = 1
Info: FEP VDW ACTIVE FOR EXNIHILATED PARTICLES BETWEEN LAMBDA = 0 AND LAMBDA = 1
Info: FEP BOND ACTIVE FOR ANNIHILATED PARTICLES BETWEEN LAMBDA = 1 AND LAMBDA = 1
Info: FEP BOND ACTIVE FOR EXNIHILATED PARTICLES BETWEEN LAMBDA = 0 AND LAMBDA = 0
Info: LANGEVIN DYNAMICS ACTIVE
Info: LANGEVIN TEMPERATURE   300
Info: LANGEVIN USING BBK INTEGRATOR
Info: LANGEVIN DAMPING COEFFICIENT IS 1 INVERSE PS
Info: LANGEVIN DYNAMICS APPLIED TO HYDROGENS
Info: LANGEVIN PISTON PRESSURE CONTROL ACTIVE
Info:        TARGET PRESSURE IS 1.01325 BAR
Info:     OSCILLATION PERIOD IS 50 FS
Info:             DECAY TIME IS 25 FS
Info:     PISTON TEMPERATURE IS 300 K
Info:       PRESSURE CONTROL IS GROUP-BASED
Info:    INITIAL STRAIN RATE IS 0.000387123 0.000387123 0.000387123
Info:       CELL FLUCTUATION IS ISOTROPIC
Info: PARTICLE MESH EWALD (PME) ACTIVE
Info: PME TOLERANCE               1e-06
Info: PME EWALD COEFFICIENT       0.348832
Info: PME INTERPOLATION ORDER     4
Info: PME GRID DIMENSIONS         32 36 32
Info: PME MAXIMUM GRID SPACING    1
Info: PME CALCULATION WILL BE PERFORMED ON GPU
Info: FULL ELECTROSTATIC EVALUATION FREQUENCY      2
Info: USING VERLET I (r-RESPA) MTS SCHEME.
Info: C1 SPLITTING OF LONG RANGE ELECTROSTATICS
Info: PLACING ATOMS IN PATCHES BY HYDROGEN GROUPS
Info: RIGID BONDS TO HYDROGEN : ALL
Info:         ERROR TOLERANCE : 1e-08
Info:          MAX ITERATIONS : 100
Info: RIGID WATER USING SETTLE ALGORITHM
Info: RANDOM NUMBER SEED     1743675110
Info: USE HYDROGEN BONDS?    NO
Info: Using AMBER format force field!
Info: AMBER PARM FILE        mobley_7099614.prmtop
Info: COORDINATE PDB         mobley_7099614.pdb
Info: Exclusions will be read from PARM file!
Info: SCNB (VDW SCALING)     2
Info: USING ARITHMETIC MEAN TO COMBINE L-J SIGMA PARAMETERS
Info: BINARY COORDINATES     mobley_7099614_equil.coor
Info: SUMMARY OF PARAMETERS:
Info: 7 BONDS
Info: 8 ANGLES
Info:   8 HARMONIC
Info:   0 COSINE-BASED
Info: 3 DIHEDRAL
Info: 0 IMPROPER
Info: 0 CROSSTERM
Info: 0 VDW
Info: 28 VDW_PAIRS
Info: 0 NBTHOLE_PAIRS
Info: To read alchdata from file: mobley_7099614.pdb
Info: To read alchflag data from column: 5
Info: STRUCTURE SUMMARY:
Info: 2904 ATOMS
Info: 2903 BONDS
Info: 12 ANGLES
Info: 12 DIHEDRALS
Info: 0 IMPROPERS
Info: 0 CROSSTERMS
Info: 2925 EXCLUSIONS
Info: 2900 RIGID BONDS
Info: ALCH: 0 ATOMS TO DISAPPEAR IN FINAL STATE
Info: ALCH: 9 ATOMS TO APPEAR IN FINAL STATE
Info: 5812 DEGREES OF FREEDOM
Info: 969 HYDROGEN GROUPS
Info: 3 ATOMS IN LARGEST HYDROGEN GROUP
Info: 969 MIGRATION GROUPS
Info: 3 ATOMS IN LARGEST MIGRATION GROUP
Info: TOTAL MASS = 17462 amu
Info: TOTAL CHARGE = -7.45058e-09 e
Info: MASS DENSITY = 0.960667 g/cm^3
Info: ATOM DENSITY = 0.0962093 atoms/A^3
Info: ADDED 0 IMPLICIT EXCLUSIONS
Info: NONBONDED TABLE R-SQUARED SPACING: 0.0625
Info: NONBONDED TABLE SIZE: 705 POINTS
Info: REMOVING COM VELOCITY 0.0600044 0.053361 -0.0539649
Info: Use 3D box decompostion in PME FFT.
Info: Updated CUDA force table with 4096 elements.
Info: Updated CUDA LJ table with 7 x 7 elements.
Info: Found 12 unique exclusion lists needing 16 bytes
TCL: Running for 1500000 steps
ETITLE: TS BOND ANGLE DIHED IMPRP ELECT VDW BOUNDARY MISC KINETIC TOTAL TEMP POTENTIAL TOTALAVG TEMPAVG PRESSURE GPRESSURE VOLUME PRESSAVG GPRESSAVG
ENERGY: 0 0.8198 2.8250 1.3780 0.0000 -10575.3668 1517.6054 0.0000 0.0000 1715.6859 -7337.0527 297.0999 -9052.7386 -7337.0527 297.0999 757.8077 835.5854 30184.1799 757.8077 835.5854
ENERGY: 300000 1.6237 2.2244 0.9130 0.0000 -10510.3714 1386.7557 0.0000 0.0000 1704.8961 -7413.9585 295.2315 -9118.8546 -7357.0257 302.1956 -329.2269 -247.3313 29884.5251 288.2782 359.0131
ENERGY: 600000 1.1931 2.1639 0.7788 0.0000 -10634.4631 1426.8831 0.0000 0.0000 1747.0746 -7456.3697 302.5354 -9203.4444 -7373.3510 301.2099 -111.4454 -83.1593 29906.2187 335.6995 401.0654
ENERGY: 900000 0.8048 4.3795 1.0740 0.0000 -10603.0817 1414.7131 0.0000 0.0000 1733.8897 -7448.2206 300.2522 -9182.1103 -7373.3314 301.8238 -175.5260 -128.1387 30075.7336 316.3689 383.6018
ENERGY: 1200000 1.1463 2.2756 1.0733 0.0000 -10687.4356 1509.2327 0.0000 0.0000 1761.0734 -7412.6343 304.9595 -9173.7077 -7360.4057 301.8615 480.1991 517.1320 29944.4548 342.6818 407.9036
ENERGY: 1500000 1.9451 1.6010 0.9737 0.0000 -10452.8284 1373.8229 0.0000 0.0000 1714.7915 -7359.6942 296.9450 -9074.4857 -7362.0539 301.6495 -499.7733 -334.2540 30092.8411 235.2734 309.9581
TCL: Running FEP window   2: Lambda1 0.95   Lambda2 0.8999999999999999 [dLambda -0.050000000000000044]
TCL: Setting parameter firsttimestep to 0
TCL: Setting parameter alchLambda to 0.95
Info: NONBONDED TABLE R-SQUARED SPACING: 0.0625
Info: NONBONDED TABLE SIZE: 705 POINTS
TCL: Setting parameter alchLambda2 to 0.8999999999999999
Info: NONBONDED TABLE R-SQUARED SPACING: 0.0625
Info: NONBONDED TABLE SIZE: 705 POINTS
TCL: Running for 1500000 steps
ETITLE: TS BOND ANGLE DIHED IMPRP ELECT VDW BOUNDARY MISC KINETIC TOTAL TEMP POTENTIAL TOTALAVG TEMPAVG PRESSURE GPRESSURE VOLUME PRESSAVG GPRESSAVG
ENERGY: 0 1.9451 1.6010 0.9737 0.0000 -10452.6595 1373.8029 0.0000 0.0000 1713.9272 -7360.4096 296.7954 -9074.3368 -7360.4096 296.7954 -413.1765 -341.3950 30092.8411 -413.1765 -341.3950
ENERGY: 300000 3.7664 1.8606 0.4364 0.0000 -10529.1062 1380.7001 0.0000 0.0000 1727.6097 -7414.7330 299.1648 -9142.3428 -7353.1510 300.2281 -643.5113 -524.3259 30119.5381 -533.1391 -450.4263
ENERGY: 600000 0.4182 0.3962 0.2980 0.0000 -10529.7604 1406.7076 0.0000 0.0000 1764.4587 -7357.4817 305.5458 -9121.9404 -7388.3219 299.0814 -363.9647 -229.0081 30233.2559 -163.3665 -88.6229
ENERGY: 900000 2.8076 0.9356 3.5004 0.0000 -10624.9907 1518.8457 0.0000 0.0000 1713.8888 -7385.0125 296.7887 -9098.9014 -7393.9762 299.2475 1046.9661 1117.5974 29562.4984 -61.6861 2.4572
ENERGY: 1200000 1.0556 0.9369 0.1446 0.0000 -10628.5581 1458.7229 0.0000 0.0000 1730.5954 -7437.1027 299.6818 -9167.6980 -7402.3954 299.1527 239.4412 287.3183 29954.6637 -16.3461 48.9902
ENERGY: 1500000 1.5627 2.8079 1.4385 0.0000 -10491.6839 1413.1323 0.0000 0.0000 1738.2826 -7334.4600 301.0129 -9072.7426 -7394.8336 299.5376 135.4873 236.0058 29617.7686 -22.9290 45.5492
TCL: Running FEP window   3: Lambda1 0.8999999999999999 Lambda2 0.8499999999999999 [dLambda -0.050000000000000044]
TCL: Setting parameter firsttimestep to 0
TCL: Setting parameter alchLambda to 0.8999999999999999
Info: NONBONDED TABLE R-SQUARED SPACING: 0.0625
Info: NONBONDED TABLE SIZE: 705 POINTS
TCL: Setting parameter alchLambda2 to 0.8499999999999999
Info: NONBONDED TABLE R-SQUARED SPACING: 0.0625
Info: NONBONDED TABLE SIZE: 705 POINTS
TCL: Running for 1500000 steps
ETITLE: TS BOND ANGLE DIHED IMPRP ELECT VDW BOUNDARY MISC KINETIC TOTAL TEMP POTENTIAL TOTALAVG TEMPAVG PRESSURE GPRESSURE VOLUME PRESSAVG GPRESSAVG
ENERGY: 0 1.5627 2.8079 1.4385 0.0000 -10491.4070 1412.5116 0.0000 0.0000 1737.3906 -7335.6957 300.8585 -9073.0864 -7335.6957 300.8585 142.8829 219.5037 29617.7686 142.8829 219.5037
ENERGY: 300000 1.2873 2.1999 0.7342 0.0000 -10463.8750 1372.9461 0.0000 0.0000 1720.2580 -7366.4495 297.8917 -9086.7075 -7383.8560 296.6186 -248.9832 -162.2921 29695.8519 30.1976 130.6852
ENERGY: 600000 0.2008 3.9207 0.4605 0.0000 -10620.0828 1440.9984 0.0000 0.0000 1721.6505 -7452.8519 298.1328 -9174.5023 -7375.5049 298.3206 -11.5926 110.8704 29829.6335 115.7749 215.8288
ENERGY: 900000 0.8236 3.3704 0.7121 0.0000 -10542.6927 1479.1041 0.0000 0.0000 1731.0282 -7327.6543 299.7567 -9058.6825 -7358.6990 299.2897 573.4092 626.1787 30030.9590 180.4401 268.3640
ENERGY: 1200000 1.8711 2.1237 0.4150 0.0000 -10466.7098 1389.5591 0.0000 0.0000 1746.6152 -7326.1256 302.4559 -9072.7409 -7356.8213 299.1996 -248.0748 -144.0921 30223.4812 69.9438 151.6336
ENERGY: 1500000 0.9025 1.6182 0.1759 0.0000 -10647.1909 1463.3433 0.0000 0.0000 1741.2703 -7439.8806 301.5303 -9181.1510 -7374.7628 298.9875 298.2860 419.6175 29514.1485 120.6767 200.3973
TCL: Running FEP window   4: Lambda1 0.8499999999999999 Lambda2 0.7999999999999998 [dLambda -0.050000000000000044]
TCL: Setting parameter firsttimestep to 0
TCL: Setting parameter alchLambda to 0.8499999999999999
Info: NONBONDED TABLE R-SQUARED SPACING: 0.0625
Info: NONBONDED TABLE SIZE: 705 POINTS
TCL: Setting parameter alchLambda2 to 0.7999999999999998
Info: NONBONDED TABLE R-SQUARED SPACING: 0.0625
Info: NONBONDED TABLE SIZE: 705 POINTS
TCL: Running for 1500000 steps
ETITLE: TS BOND ANGLE DIHED IMPRP ELECT VDW BOUNDARY MISC KINETIC TOTAL TEMP POTENTIAL TOTALAVG TEMPAVG PRESSURE GPRESSURE VOLUME PRESSAVG GPRESSAVG
ENERGY: 0 0.9025 1.6182 0.1759 0.0000 -10647.0460 1463.6559 0.0000 0.0000 1740.4062 -7440.2872 301.3807 -9180.6934 -7440.2872 301.3807 332.9121 414.8276 29514.1485 332.9121 414.8276
ENERGY: 300000 0.6087 2.7483 3.0900 0.0000 -10441.0760 1329.1597 0.0000 0.0000 1782.2553 -7323.2140 308.6275 -9105.4693 -7362.5628 304.6125 -586.6450 -509.5193 29947.3029 -267.4033 -214.2044
ENERGY: 600000 0.5274 2.5686 0.8333 0.0000 -10606.5136 1383.5851 0.0000 0.0000 1725.4049 -7493.5942 298.7829 -9218.9991 -7396.5481 301.1126 -456.7742 -375.1034 29495.2100 -306.8690 -241.8600
ENERGY: 900000 1.0501 1.8339 0.9559 0.0000 -10522.6937 1384.3424 0.0000 0.0000 1791.4594 -7343.0520 310.2214 -9134.5114 -7371.7192 303.4974 -280.6561 -175.7135 29957.3742 -304.2684 -231.9463
ENERGY: 1200000 0.6349 4.6472 2.0559 0.0000 -10590.1208 1429.1785 0.0000 0.0000 1759.3435 -7394.2608 304.6600 -9153.6043 -7369.7967 302.7913 87.7900 189.4129 29671.9019 -231.9644 -159.9547
ENERGY: 1500000 1.0559 1.6130 0.4490 0.0000 -10583.5593 1417.1663 0.0000 0.0000 1728.5185 -7434.7567 299.3221 -9163.2751 -7375.0681 302.4759 -27.6571 -16.2588 29587.1127 -201.7711 -131.1177
TCL: Running FEP window   5: Lambda1 0.7999999999999998 Lambda2 0.7499999999999998 [dLambda -0.050000000000000044]
TCL: Setting parameter firsttimestep to 0
TCL: Setting parameter alchLambda to 0.7999999999999998
Info: NONBONDED TABLE R-SQUARED SPACING: 0.0625
Info: NONBONDED TABLE SIZE: 705 POINTS
TCL: Setting parameter alchLambda2 to 0.7499999999999998
Info: NONBONDED TABLE R-SQUARED SPACING: 0.0625
Info: NONBONDED TABLE SIZE: 705 POINTS
TCL: Running for 1500000 steps
ETITLE: TS BOND ANGLE DIHED IMPRP ELECT VDW BOUNDARY MISC KINETIC TOTAL TEMP POTENTIAL TOTALAVG TEMPAVG PRESSURE GPRESSURE VOLUME PRESSAVG GPRESSAVG
ENERGY: 0 1.0559 1.6130 0.4490 0.0000 -10583.0983 1417.3617 0.0000 0.0000 1727.7052 -7434.9136 299.1813 -9162.6188 -7434.9136 299.1813 -98.4034 -19.8745 29587.1127 -98.4034 -19.8745
ENERGY: 300000 0.1746 2.4030 0.7649 0.0000 -10377.8842 1308.0490 0.0000 0.0000 1724.3103 -7342.1823 298.5934 -9066.4926 -7377.2585 303.5190 -830.0393 -780.2661 30183.3815 10.2334 68.1366
ENERGY: 600000 0.7841 2.5012 0.4897 0.0000 -10536.5536 1412.4577 0.0000 0.0000 1716.5260 -7403.7949 297.2454 -9120.3209 -7383.7754 301.8093 -13.2477 69.0970 29774.0932 -152.8450 -86.2978
ENERGY: 900000 1.2907 1.8742 0.0106 0.0000 -10562.0215 1427.2748 0.0000 0.0000 1679.1849 -7452.3864 290.7792 -9131.5713 -7387.1490 301.2350 -2.3297 89.2608 29740.6520 -22.7790 51.6340
ENERGY: 1200000 1.4936 6.0209 1.8761 0.0000 -10620.3575 1462.6649 0.0000 0.0000 1698.5915 -7449.7105 294.1398 -9148.3020 -7396.0997 299.7139 241.7773 257.4832 29551.3615 -40.0380 29.5597
ENERGY: 1500000 1.0599 1.8137 1.3498 0.0000 -10544.9812 1417.4797 0.0000 0.0000 1770.2210 -7353.0571 306.5436 -9123.2781 -7385.1784 300.0707 3.3947 -4.3862 30120.4460 -78.0949 -15.0917
TCL: Running FEP window   6: Lambda1 0.7499999999999998 Lambda2 0.6999999999999997 [dLambda -0.050000000000000044]
TCL: Setting parameter firsttimestep to 0
TCL: Setting parameter alchLambda to 0.7499999999999998
Info: NONBONDED TABLE R-SQUARED SPACING: 0.0625
Info: NONBONDED TABLE SIZE: 705 POINTS
TCL: Setting parameter alchLambda2 to 0.6999999999999997
Info: NONBONDED TABLE R-SQUARED SPACING: 0.0625
Info: NONBONDED TABLE SIZE: 705 POINTS
TCL: Running for 1500000 steps
ETITLE: TS BOND ANGLE DIHED IMPRP ELECT VDW BOUNDARY MISC KINETIC TOTAL TEMP POTENTIAL TOTALAVG TEMPAVG PRESSURE GPRESSURE VOLUME PRESSAVG GPRESSAVG
ENERGY: 0 1.0599 1.8137 1.3498 0.0000 -10544.7094 1417.2889 0.0000 0.0000 1769.3321 -7353.8649 306.3897 -9123.1971 -7353.8649 306.3897 -75.9995 -15.5312 30120.4460 -75.9995 -15.5312
ENERGY: 300000 0.8634 3.0215 0.1354 0.0000 -10466.7507 1418.2341 0.0000 0.0000 1718.3897 -7326.1067 297.5681 -9044.4963 -7330.2084 305.1603 175.1690 189.6405 30054.7107 -167.1414 -129.8067
ENERGY: 600000 0.9826 2.6343 1.8653 0.0000 -10645.5655 1518.2780 0.0000 0.0000 1736.2082 -7385.5971 300.6537 -9121.8053 -7340.0932 304.3882 549.1871 567.0566 30106.6631 12.5251 49.6854
ENERGY: 900000 1.3097 2.9145 0.2958 0.0000 -10480.9265 1402.2729 0.0000 0.0000 1734.2698 -7339.8638 300.3181 -9074.1336 -7345.1875 304.0474 -99.4691 -60.7904 30100.5958 47.2810 88.8439
ENERGY: 1200000 2.4855 4.1528 0.7508 0.0000 -10663.1057 1455.0886 0.0000 0.0000 1705.9973 -7494.6307 295.4222 -9200.6280 -7367.7476 302.5614 290.7246 340.1469 29317.1248 -13.7746 38.4432
ENERGY: 1500000 0.9946 3.3417 0.8040 0.0000 -10594.3973 1416.7540 0.0000 0.0000 1747.7201 -7424.7830 302.6472 -9172.5030 -7366.5266 303.0079 -163.5258 -79.8639 29938.6478 -15.9319 37.5758
TCL: Running FEP window   7: Lambda1 0.6999999999999997 Lambda2 0.6499999999999997 [dLambda -0.050000000000000044]
TCL: Setting parameter firsttimestep to 0
TCL: Setting parameter alchLambda to 0.6999999999999997
Info: NONBONDED TABLE R-SQUARED SPACING: 0.0625
Info: NONBONDED TABLE SIZE: 705 POINTS
TCL: Setting parameter alchLambda2 to 0.6499999999999997
Info: NONBONDED TABLE R-SQUARED SPACING: 0.0625
Info: NONBONDED TABLE SIZE: 705 POINTS
TCL: Running for 1500000 steps
ETITLE: TS BOND ANGLE DIHED IMPRP ELECT VDW BOUNDARY MISC KINETIC TOTAL TEMP POTENTIAL TOTALAVG TEMPAVG PRESSURE GPRESSURE VOLUME PRESSAVG GPRESSAVG
ENERGY: 0 0.9946 3.3417 0.8040 0.0000 -10593.9815 1416.8236 0.0000 0.0000 1746.8575 -7425.1601 302.4978 -9172.0176 -7425.1601 302.4978 -169.5237 -83.0435 29938.6478 -169.5237 -83.0435
ENERGY: 300000 0.0221 3.7458 0.3888 0.0000 -10526.2909 1370.8874 0.0000 0.0000 1719.2288 -7432.0180 297.7134 -9151.2467 -7393.6917 300.6077 -341.9869 -254.5624 29477.9650 10.9730 83.6264
ENERGY: 600000 0.9023 2.8779 0.5628 0.0000 -10286.3166 1272.0243 0.0000 0.0000 1709.7390 -7300.2102 296.0701 -9009.9493 -7390.3366 300.1855 -1123.7855 -1068.0852 30536.0147 -280.7603 -211.6791
ENERGY: 900000 0.6729 3.3466 0.5289 0.0000 -10507.1117 1422.4575 0.0000 0.0000 1716.7971 -7363.3086 297.2924 -9080.1057 -7370.3576 300.9200 -89.3413 -89.0079 30215.3367 -254.5602 -195.6382
ENERGY: 1200000 0.2100 1.0661 0.6935 0.0000 -10404.7006 1366.9171 0.0000 0.0000 1751.0824 -7284.7314 303.2294 -9035.8138 -7361.7293 301.0630 -130.2023 -40.6865 29962.4668 -178.5307 -123.7809
ENERGY: 1500000 0.3181 2.7940 0.8482 0.0000 -10557.9441 1436.7580 0.0000 0.0000 1763.8771 -7353.3486 305.4451 -9117.2257 -7362.0479 301.3881 -73.9938 -17.4705 30078.3822 -166.1414 -111.8854
TCL: Running FEP window   8: Lambda1 0.6499999999999997 Lambda2 0.5999999999999996 [dLambda -0.050000000000000044]
TCL: Setting parameter firsttimestep to 0
TCL: Setting parameter alchLambda to 0.6499999999999997
Info: NONBONDED TABLE R-SQUARED SPACING: 0.0625
Info: NONBONDED TABLE SIZE: 705 POINTS
TCL: Setting parameter alchLambda2 to 0.5999999999999996
Info: NONBONDED TABLE R-SQUARED SPACING: 0.0625
Info: NONBONDED TABLE SIZE: 705 POINTS
TCL: Running for 1500000 steps
ETITLE: TS BOND ANGLE DIHED IMPRP ELECT VDW BOUNDARY MISC KINETIC TOTAL TEMP POTENTIAL TOTALAVG TEMPAVG PRESSURE GPRESSURE VOLUME PRESSAVG GPRESSAVG
ENERGY: 0 0.3181 2.7940 0.8482 0.0000 -10557.6574 1437.1308 0.0000 0.0000 1763.0338 -7353.5324 305.2990 -9116.5662 -7353.5324 305.2990 -105.9024 -16.5968 30078.3822 -105.9024 -16.5968
ENERGY: 300000 0.8712 1.3515 0.4637 0.0000 -10605.8490 1505.2708 0.0000 0.0000 1713.7311 -7384.1607 296.7614 -9097.8918 -7347.7113 302.3584 528.3134 562.0911 30170.2476 209.6262 281.0947
ENERGY: 600000 0.6231 3.4378 0.2688 0.0000 -10474.9842 1379.4899 0.0000 0.0000 1715.7010 -7375.4635 297.1026 -9091.1646 -7351.1278 300.9493 -273.5644 -258.3492 29996.8161 -181.5782 -116.3803
ENERGY: 900000 0.1831 3.6089 0.8780 0.0000 -10573.7068 1456.0506 0.0000 0.0000 1757.1533 -7355.8329 304.2807 -9112.9862 -7352.3423 301.2894 217.6182 297.1880 30246.7858 60.0361 124.1590
ENERGY: 1200000 1.3758 1.8545 0.8112 0.0000 -10603.0289 1449.0250 0.0000 0.0000 1726.4297 -7423.5327 298.9604 -9149.9624 -7370.2428 301.3542 102.9968 148.1460 29816.4740 107.3544 166.6883
ENERGY: 1500000 0.9744 4.5743 1.5579 0.0000 -10487.3952 1331.2184 0.0000 0.0000 1685.7818 -7463.2884 291.9215 -9149.0702 -7374.9199 301.2795 -707.0706 -657.9661 29923.3090 51.4409 115.5152
TCL: Running FEP window   9: Lambda1 0.5999999999999996 Lambda2 0.5499999999999996 [dLambda -0.050000000000000044]
TCL: Setting parameter firsttimestep to 0
TCL: Setting parameter alchLambda to 0.5999999999999996
Info: NONBONDED TABLE R-SQUARED SPACING: 0.0625
Info: NONBONDED TABLE SIZE: 705 POINTS
TCL: Setting parameter alchLambda2 to 0.5499999999999996
Info: NONBONDED TABLE R-SQUARED SPACING: 0.0625
Info: NONBONDED TABLE SIZE: 705 POINTS
TCL: Running for 1500000 steps
ETITLE: TS BOND ANGLE DIHED IMPRP ELECT VDW BOUNDARY MISC KINETIC TOTAL TEMP POTENTIAL TOTALAVG TEMPAVG PRESSURE GPRESSURE VOLUME PRESSAVG GPRESSAVG
ENERGY: 0 0.9744 4.5743 1.5579 0.0000 -10487.1685 1331.4445 0.0000 0.0000 1684.9074 -7463.7100 291.7701 -9148.6174 -7463.7100 291.7701 -737.3927 -661.8163 29923.3090 -737.3927 -661.8163
ENERGY: 300000 0.5859 2.1993 0.5040 0.0000 -10519.6401 1437.5998 0.0000 0.0000 1795.3387 -7283.4124 310.8932 -9078.7511 -7374.1699 302.5628 63.4935 101.3091 30512.9747 -242.3549 -193.1826
ENERGY: 600000 0.6506 1.4114 0.1344 0.0000 -10623.6748 1412.4020 0.0000 0.0000 1740.8823 -7468.1942 301.4631 -9209.0765 -7391.7990 301.5424 -68.3915 -10.2487 29344.4165 -325.3479 -274.5807
ENERGY: 900000 0.2609 1.7090 0.1691 0.0000 -10385.7253 1367.7017 0.0000 0.0000 1738.9532 -7276.9314 301.1291 -9015.8847 -7390.6515 299.7599 -4.5430 21.4121 29738.8306 -163.7309 -117.1693
ENERGY: 1200000 1.7167 2.2992 0.6483 0.0000 -10638.4117 1465.1163 0.0000 0.0000 1761.7909 -7406.8403 305.0838 -9168.6312 -7370.9163 300.9248 286.7793 331.1659 29821.4361 -115.4864 -65.3726
ENERGY: 1500000 0.6176 5.9591 0.1815 0.0000 -10531.4260 1428.6888 0.0000 0.0000 1739.9949 -7355.9841 301.3095 -9095.9790 -7361.7730 301.2380 280.2000 314.7587 29758.4261 -110.8742 -64.5901
TCL: Running FEP window  10: Lambda1 0.5499999999999996 Lambda2 0.4999999999999996 [dLambda -0.04999999999999999]
TCL: Setting parameter firsttimestep to 0
TCL: Setting parameter alchLambda to 0.5499999999999996
Info: NONBONDED TABLE R-SQUARED SPACING: 0.0625
Info: NONBONDED TABLE SIZE: 705 POINTS
TCL: Setting parameter alchLambda2 to 0.4999999999999996
Info: NONBONDED TABLE R-SQUARED SPACING: 0.0625
Info: NONBONDED TABLE SIZE: 705 POINTS
TCL: Running for 1500000 steps
ETITLE: TS BOND ANGLE DIHED IMPRP ELECT VDW BOUNDARY MISC KINETIC TOTAL TEMP POTENTIAL TOTALAVG TEMPAVG PRESSURE GPRESSURE VOLUME PRESSAVG GPRESSAVG
ENERGY: 0 0.6176 5.9591 0.1815 0.0000 -10531.3643 1428.6519 0.0000 0.0000 1739.1039 -7356.8502 301.1552 -9095.9542 -7356.8502 301.1552 220.3980 310.9404 29758.4261 220.3980 310.9404
ENERGY: 300000 2.0848 3.2130 0.7690 0.0000 -10536.0849 1434.1713 0.0000 0.0000 1751.6685 -7344.1784 303.3309 -9095.8469 -7342.1356 301.8878 -47.2372 27.3990 30031.0357 70.0956 129.8269
ENERGY: 600000 1.5150 1.6017 0.0534 0.0000 -10522.1957 1468.8232 0.0000 0.0000 1754.6245 -7295.5777 303.8428 -9050.2023 -7350.6833 302.3756 565.0401 637.3431 29865.8141 -48.0336 13.2709
ENERGY: 900000 1.0890 1.6873 0.3225 0.0000 -10655.3847 1470.2134 0.0000 0.0000 1694.0588 -7488.0136 293.3548 -9182.0724 -7364.1076 302.3824 178.8150 252.7014 29586.2736 -123.6148 -56.6948
ENERGY: 1200000 2.5838 1.7568 3.3383 0.0000 -10465.9641 1383.9966 0.0000 0.0000 1795.1454 -7279.1433 310.8597 -9074.2886 -7353.3191 302.2699 -240.0688 -195.5270 30010.0476 -211.5774 -139.5276
ENERGY: 1500000 0.2809 2.9883 0.5616 0.0000 -10511.9829 1423.8141 0.0000 0.0000 1741.1596 -7343.1784 301.5111 -9084.3380 -7358.5168 301.9884 286.7477 350.7729 29373.5845 -186.1213 -113.1160
TCL: Running FEP window  11: Lambda1 0.4999999999999996 Lambda2 0.4499999999999996 [dLambda -0.04999999999999999]
TCL: Setting parameter firsttimestep to 0
TCL: Setting parameter alchLambda to 0.4999999999999996
Info: NONBONDED TABLE R-SQUARED SPACING: 0.0625
Info: NONBONDED TABLE SIZE: 705 POINTS
TCL: Setting parameter alchLambda2 to 0.4499999999999996
Info: NONBONDED TABLE R-SQUARED SPACING: 0.0625
Info: NONBONDED TABLE SIZE: 705 POINTS
TCL: Running for 1500000 steps
ETITLE: TS BOND ANGLE DIHED IMPRP ELECT VDW BOUNDARY MISC KINETIC TOTAL TEMP POTENTIAL TOTALAVG TEMPAVG PRESSURE GPRESSURE VOLUME PRESSAVG GPRESSAVG
ENERGY: 0 0.2809 2.9883 0.5616 0.0000 -10511.6068 1424.0295 0.0000 0.0000 1740.2862 -7343.4603 301.3599 -9083.7465 -7343.4603 301.3599 259.5047 348.0438 29373.5845 259.5047 348.0438
ENERGY: 300000 0.1655 3.6939 1.6118 0.0000 -10337.9185 1361.2090 0.0000 0.0000 1737.9205 -7233.3179 300.9502 -8971.2384 -7336.6876 301.0002 -183.2836 -93.0833 30205.5476 36.6002 140.8582
ENERGY: 600000 0.2806 0.7959 0.2237 0.0000 -10532.1664 1396.3532 0.0000 0.0000 1689.8601 -7444.6530 292.6278 -9134.5130 -7344.4120 301.0877 -2.5569 90.5401 29421.0379 -16.1302 74.4830
ENERGY: 900000 2.2388 3.1871 0.7268 0.0000 -10616.3237 1474.8691 0.0000 0.0000 1721.6047 -7413.6972 298.1249 -9135.3019 -7363.1943 301.6533 260.9674 321.7945 30152.9730 23.4448 105.8779
ENERGY: 1200000 0.9802 1.3364 0.4562 0.0000 -10608.7449 1406.0723 0.0000 0.0000 1737.6198 -7462.2800 300.8982 -9199.8998 -7377.6612 301.9901 -444.6120 -372.6899 29910.5536 -50.6612 28.2344
ENERGY: 1500000 0.0574 3.0592 1.5620 0.0000 -10682.2776 1485.4887 0.0000 0.0000 1676.7978 -7515.3124 290.3658 -9192.1102 -7391.4970 300.4973 430.7122 503.9889 29548.3627 -68.2641 10.0799
TCL: Running FEP window  12: Lambda1 0.4499999999999996 Lambda2 0.39999999999999963 [dLambda -0.04999999999999999]
TCL: Setting parameter firsttimestep to 0
TCL: Setting parameter alchLambda to 0.4499999999999996
Info: NONBONDED TABLE R-SQUARED SPACING: 0.0625
Info: NONBONDED TABLE SIZE: 705 POINTS
TCL: Setting parameter alchLambda2 to 0.39999999999999963
Info: NONBONDED TABLE R-SQUARED SPACING: 0.0625
Info: NONBONDED TABLE SIZE: 705 POINTS
TCL: Running for 1500000 steps
ETITLE: TS BOND ANGLE DIHED IMPRP ELECT VDW BOUNDARY MISC KINETIC TOTAL TEMP POTENTIAL TOTALAVG TEMPAVG PRESSURE GPRESSURE VOLUME PRESSAVG GPRESSAVG
ENERGY: 0 0.0574 3.0592 1.5620 0.0000 -10682.2758 1485.7077 0.0000 0.0000 1675.9651 -7515.9244 290.2216 -9191.8895 -7515.9244 290.2216 427.9048 503.1763 29548.3627 427.9048 503.1763
ENERGY: 300000 1.0709 1.8286 0.4642 0.0000 -10551.5997 1440.2522 0.0000 0.0000 1722.0636 -7385.9202 298.2043 -9107.9838 -7404.3183 298.0262 111.1470 186.2782 29823.2496 58.0621 122.6893
ENERGY: 600000 0.1167 1.5425 0.3592 0.0000 -10509.6872 1391.1614 0.0000 0.0000 1720.0359 -7396.4716 297.8532 -9116.5075 -7384.6777 299.4766 -215.6305 -176.4509 29956.9787 -25.1319 26.4893
ENERGY: 900000 1.4489 4.0893 2.7831 0.0000 -10680.1643 1454.2650 0.0000 0.0000 1741.3548 -7476.2232 301.5449 -9217.5780 -7385.0367 300.1488 86.0635 188.9929 29401.7363 104.5044 161.3474
ENERGY: 1200000 0.7922 3.6041 1.1858 0.0000 -10369.9916 1262.2121 0.0000 0.0000 1723.7800 -7378.4174 298.5016 -9102.1974 -7380.4819 299.9879 -1329.8161 -1238.0686 30265.5549 -116.0258 -58.0860
ENERGY: 1500000 2.2776 3.5857 1.3670 0.0000 -10602.4719 1478.6483 0.0000 0.0000 1736.9019 -7379.6914 300.7738 -9116.5933 -7374.7687 300.3783 576.9725 619.7317 29663.8318 -58.1233 0.1209
TCL: Running FEP window  13: Lambda1 0.39999999999999963 Lambda2 0.34999999999999964 [dLambda -0.04999999999999999]
TCL: Setting parameter firsttimestep to 0
TCL: Setting parameter alchLambda to 0.39999999999999963
Info: NONBONDED TABLE R-SQUARED SPACING: 0.0625
Info: NONBONDED TABLE SIZE: 705 POINTS
TCL: Setting parameter alchLambda2 to 0.34999999999999964
Info: NONBONDED TABLE R-SQUARED SPACING: 0.0625
Info: NONBONDED TABLE SIZE: 705 POINTS
TCL: Running for 1500000 steps
ETITLE: TS BOND ANGLE DIHED IMPRP ELECT VDW BOUNDARY MISC KINETIC TOTAL TEMP POTENTIAL TOTALAVG TEMPAVG PRESSURE GPRESSURE VOLUME PRESSAVG GPRESSAVG
ENERGY: 0 2.2776 3.5857 1.3670 0.0000 -10602.4724 1478.6118 0.0000 0.0000 1736.0181 -7380.6121 300.6208 -9116.6302 -7380.6121 300.6208 520.6552 615.5143 29663.8318 520.6552 615.5143
ENERGY: 300000 0.8834 1.6193 0.2179 0.0000 -10390.5003 1290.4917 0.0000 0.0000 1731.5211 -7365.7670 299.8421 -9097.2881 -7347.7364 301.6884 -1080.9080 -1064.9542 30048.7270 -189.2679 -124.3940
ENERGY: 600000 1.6630 2.7554 0.5281 0.0000 -10495.6124 1414.8943 0.0000 0.0000 1720.0015 -7355.7701 297.8473 -9075.7715 -7388.4239 299.2894 188.8180 253.0839 29839.1316 -23.8669 35.7275
ENERGY: 900000 1.1592 4.2326 2.3385 0.0000 -10665.8060 1555.4570 0.0000 0.0000 1706.7265 -7395.8922 295.5485 -9102.6188 -7367.2410 298.8394 1313.2238 1331.8958 29215.5468 165.6474 220.5627
ENERGY: 1200000 3.7786 5.0389 1.7488 0.0000 -10496.7956 1380.7947 0.0000 0.0000 1696.5668 -7408.8679 293.7891 -9105.4347 -7369.0563 298.7554 -444.6582 -442.0414 29910.1854 82.3466 131.3622
ENERGY: 1500000 0.6296 2.3008 1.0257 0.0000 -10702.5838 1524.8129 0.0000 0.0000 1727.2537 -7446.5611 299.1031 -9173.8148 -7366.4332 299.4967 957.9037 1004.0957 29387.7349 111.6702 164.3943
TCL: Running FEP window  14: Lambda1 0.34999999999999964 Lambda2 0.29999999999999966 [dLambda -0.04999999999999999]
TCL: Setting parameter firsttimestep to 0
TCL: Setting parameter alchLambda to 0.34999999999999964
Info: NONBONDED TABLE R-SQUARED SPACING: 0.0625
Info: NONBONDED TABLE SIZE: 705 POINTS
TCL: Setting parameter alchLambda2 to 0.29999999999999966
Info: NONBONDED TABLE R-SQUARED SPACING: 0.0625
Info: NONBONDED TABLE SIZE: 705 POINTS
TCL: Running for 1500000 steps
ETITLE: TS BOND ANGLE DIHED IMPRP ELECT VDW BOUNDARY MISC KINETIC TOTAL TEMP POTENTIAL TOTALAVG TEMPAVG PRESSURE GPRESSURE VOLUME PRESSAVG GPRESSAVG
ENERGY: 0 0.6296 2.3008 1.0257 0.0000 -10702.5847 1524.9468 0.0000 0.0000 1726.4348 -7447.2470 298.9613 -9173.6818 -7447.2470 298.9613 907.7805 1001.0137 29387.7349 907.7805 1001.0137
ENERGY: 300000 2.2541 4.0552 1.9138 0.0000 -10470.1375 1391.0277 0.0000 0.0000 1768.9950 -7301.8918 306.3313 -9070.8868 -7336.6628 302.7985 -18.5478 47.6863 29571.2115 112.7810 178.8658
ENERGY: 600000 1.3357 3.0147 0.1769 0.0000 -10457.5271 1376.8176 0.0000 0.0000 1736.9342 -7339.2481 300.7794 -9076.1823 -7355.2305 303.5477 -178.4867 -58.1777 29383.4796 47.5468 104.6127
ENERGY: 900000 1.0880 1.6573 1.1425 0.0000 -10514.4304 1425.3556 0.0000 0.0000 1761.6977 -7323.4893 305.0677 -9085.1870 -7362.0191 302.0067 177.6381 243.6097 29774.8476 -0.4731 53.0132
ENERGY: 1200000 1.0375 1.9050 0.8219 0.0000 -10352.6997 1327.0241 0.0000 0.0000 1701.1052 -7320.8058 294.5751 -9021.9111 -7356.3157 299.9485 -392.1904 -355.7475 30211.0600 -52.3465 -2.7758
ENERGY: 1500000 1.7418 1.0649 0.4524 0.0000 -10517.4648 1435.9873 0.0000 0.0000 1705.5257 -7372.6926 295.3405 -9078.2183 -7362.4261 299.5533 431.1204 431.5701 29388.9435 10.3640 56.2395
TCL: Running FEP window  15: Lambda1 0.29999999999999966 Lambda2 0.24999999999999967 [dLambda -0.04999999999999999]
TCL: Setting parameter firsttimestep to 0
TCL: Setting parameter alchLambda to 0.29999999999999966
Info: NONBONDED TABLE R-SQUARED SPACING: 0.0625
Info: NONBONDED TABLE SIZE: 705 POINTS
TCL: Setting parameter alchLambda2 to 0.24999999999999967
Info: NONBONDED TABLE R-SQUARED SPACING: 0.0625
Info: NONBONDED TABLE SIZE: 705 POINTS
TCL: Running for 1500000 steps
ETITLE: TS BOND ANGLE DIHED IMPRP ELECT VDW BOUNDARY MISC KINETIC TOTAL TEMP POTENTIAL TOTALAVG TEMPAVG PRESSURE GPRESSURE VOLUME PRESSAVG GPRESSAVG
ENERGY: 0 1.7418 1.0649 0.4524 0.0000 -10517.4652 1435.9092 0.0000 0.0000 1704.6547 -7373.6422 295.1897 -9078.2969 -7373.6422 295.1897 344.5387 429.6474 29388.9435 344.5387 429.6474
ENERGY: 300000 0.3902 2.3921 0.9793 0.0000 -10656.7860 1486.1253 0.0000 0.0000 1727.9721 -7438.9270 299.2275 -9166.8991 -7398.0037 294.9156 205.4198 239.9430 30260.6662 22.1992 82.9450
ENERGY: 600000 0.6659 2.1848 1.3417 0.0000 -10620.1994 1490.6048 0.0000 0.0000 1717.3621 -7408.0402 297.3902 -9125.4022 -7393.4525 295.7978 519.1035 567.2952 29633.6143 -13.0061 47.0413
ENERGY: 900000 0.4576 2.6082 1.2913 0.0000 -10556.3048 1391.3076 0.0000 0.0000 1748.9386 -7411.7015 302.8582 -9160.6401 -7391.6524 298.1470 -255.4520 -230.8699 29536.7719 13.0510 69.3548
ENERGY: 1200000 2.6271 3.3481 0.0922 0.0000 -10558.8234 1422.5534 0.0000 0.0000 1747.6971 -7382.5055 302.6432 -9130.2026 -7398.5504 298.8651 -183.8385 -87.8641 29926.7759 -16.3059 45.2841
ENERGY: 1500000 3.0328 5.0141 1.4977 0.0000 -10607.6706 1517.0641 0.0000 0.0000 1726.6879 -7354.3740 299.0051 -9081.0619 -7389.1637 298.9448 1173.3627 1203.5323 29265.7989 67.9148 124.2743
TCL: Running FEP window  16: Lambda1 0.24999999999999967 Lambda2 0.19999999999999968 [dLambda -0.04999999999999999]
TCL: Setting parameter firsttimestep to 0
TCL: Setting parameter alchLambda to 0.24999999999999967
Info: NONBONDED TABLE R-SQUARED SPACING: 0.0625
Info: NONBONDED TABLE SIZE: 705 POINTS
TCL: Setting parameter alchLambda2 to 0.19999999999999968
Info: NONBONDED TABLE R-SQUARED SPACING: 0.0625
Info: NONBONDED TABLE SIZE: 705 POINTS
TCL: Running for 1500000 steps
ETITLE: TS BOND ANGLE DIHED IMPRP ELECT VDW BOUNDARY MISC KINETIC TOTAL TEMP POTENTIAL TOTALAVG TEMPAVG PRESSURE GPRESSURE VOLUME PRESSAVG GPRESSAVG
ENERGY: 0 3.0328 5.0141 1.4977 0.0000 -10607.6706 1516.6299 0.0000 0.0000 1725.8374 -7355.6587 298.8578 -9081.4961 -7355.6587 298.8578 1115.4514 1200.9657 29265.7989 1115.4514 1200.9657
ENERGY: 300000 1.4895 4.4915 0.2215 0.0000 -10466.1169 1354.9759 0.0000 0.0000 1718.5655 -7386.3730 297.5986 -9104.9385 -7389.3315 297.4021 -600.5719 -514.9719 30004.3482 -211.4933 -140.6494
ENERGY: 600000 1.1306 3.1542 1.0807 0.0000 -10473.6007 1331.0862 0.0000 0.0000 1692.1409 -7445.0082 293.0227 -9137.1491 -7390.7775 298.9378 -728.8732 -710.8182 29630.6278 -406.4395 -345.3907
ENERGY: 900000 0.5255 1.9449 0.3746 0.0000 -10438.0036 1303.0613 0.0000 0.0000 1735.9880 -7396.1092 300.6156 -9132.0972 -7396.0113 300.1241 -779.7902 -776.1528 29577.5990 -439.8181 -389.5736
ENERGY: 1200000 3.0335 3.4061 1.6941 0.0000 -10598.2150 1490.2555 0.0000 0.0000 1752.6564 -7347.1694 303.5020 -9099.8258 -7392.3444 299.5687 243.6048 358.5073 30037.7507 -311.8935 -252.7994
ENERGY: 1500000 1.8038 3.1226 0.4482 0.0000 -10488.5279 1415.5916 0.0000 0.0000 1725.9337 -7341.6281 298.8745 -9067.5618 -7380.3063 299.6179 -175.0811 -74.1865 30123.4550 -261.0882 -196.9805
TCL: Running FEP window  17: Lambda1 0.19999999999999968 Lambda2 0.1499999999999997 [dLambda -0.04999999999999999]
TCL: Setting parameter firsttimestep to 0
TCL: Setting parameter alchLambda to 0.19999999999999968
Info: NONBONDED TABLE R-SQUARED SPACING: 0.0625
Info: NONBONDED TABLE SIZE: 705 POINTS
TCL: Setting parameter alchLambda2 to 0.1499999999999997
Info: NONBONDED TABLE R-SQUARED SPACING: 0.0625
Info: NONBONDED TABLE SIZE: 705 POINTS
TCL: Running for 1500000 steps
ETITLE: TS BOND ANGLE DIHED IMPRP ELECT VDW BOUNDARY MISC KINETIC TOTAL TEMP POTENTIAL TOTALAVG TEMPAVG PRESSURE GPRESSURE VOLUME PRESSAVG GPRESSAVG
ENERGY: 0 1.8038 3.1226 0.4482 0.0000 -10488.5261 1414.9255 0.0000 0.0000 1725.0476 -7343.1784 298.7211 -9068.2260 -7343.1784 298.7211 -170.1517 -81.5991 30123.4550 -170.1517 -81.5991
ENERGY: 300000 0.4343 3.3218 1.6011 0.0000 -10371.4410 1319.1034 0.0000 0.0000 1774.4813 -7272.4991 307.2813 -9046.9804 -7345.5427 302.9567 -833.9928 -733.8010 30258.0414 -252.8469 -155.5375
ENERGY: 600000 0.2213 4.3216 1.1390 0.0000 -10482.4991 1422.3322 0.0000 0.0000 1672.6705 -7381.8145 289.6511 -9054.4851 -7352.7347 300.8223 166.1236 220.3062 29961.8673 -175.1811 -103.6507
ENERGY: 900000 0.3708 3.2503 0.0957 0.0000 -10496.9108 1405.5675 0.0000 0.0000 1739.2189 -7348.4075 301.1751 -9087.6265 -7362.6687 300.5048 -48.5827 55.0971 29972.0781 -89.3521 -20.8670
ENERGY: 1200000 0.6359 4.1653 0.7330 0.0000 -10584.4070 1453.0200 0.0000 0.0000 1675.1014 -7450.7514 290.0720 -9125.8528 -7372.0069 300.1507 61.5810 155.5264 29678.9568 -178.6334 -99.6727
ENERGY: 1500000 0.4241 2.9793 0.7580 0.0000 -10637.5549 1478.2628 0.0000 0.0000 1745.8100 -7409.3207 302.3164 -9155.1306 -7383.3969 299.8988 416.5827 472.7823 29681.4551 -119.9005 -43.9386
TCL: Running FEP window  18: Lambda1 0.1499999999999997 Lambda2 0.09999999999999969 [dLambda -0.05 ]
TCL: Setting parameter firsttimestep to 0
TCL: Setting parameter alchLambda to 0.1499999999999997
Info: NONBONDED TABLE R-SQUARED SPACING: 0.0625
Info: NONBONDED TABLE SIZE: 705 POINTS
TCL: Setting parameter alchLambda2 to 0.09999999999999969
Info: NONBONDED TABLE R-SQUARED SPACING: 0.0625
Info: NONBONDED TABLE SIZE: 705 POINTS
TCL: Running for 1500000 steps
ETITLE: TS BOND ANGLE DIHED IMPRP ELECT VDW BOUNDARY MISC KINETIC TOTAL TEMP POTENTIAL TOTALAVG TEMPAVG PRESSURE GPRESSURE VOLUME PRESSAVG GPRESSAVG
ENERGY: 0 0.4241 2.9793 0.7580 0.0000 -10637.5550 1478.1807 0.0000 0.0000 1744.9542 -7410.2587 302.1682 -9155.2129 -7410.2587 302.1682 390.9794 472.5190 29681.4551 390.9794 472.5190
ENERGY: 300000 0.4569 3.7308 0.5413 0.0000 -10518.0472 1401.5491 0.0000 0.0000 1718.5071 -7393.2620 297.5885 -9111.7691 -7342.8141 301.5801 -181.9469 -136.3342 29889.5215 -80.7052 -19.1539
ENERGY: 600000 1.7230 2.3982 0.6234 0.0000 -10593.8794 1460.3775 0.0000 0.0000 1722.1968 -7406.5603 298.2274 -9128.7572 -7370.2747 299.8926 -49.7361 14.0714 30014.0687 -134.3454 -63.4734
ENERGY: 900000 0.0007 4.3669 1.3101 0.0000 -10545.8341 1450.8204 0.0000 0.0000 1751.0493 -7338.2867 303.2237 -9089.3359 -7370.5133 301.0617 179.2523 247.2877 29922.6823 -115.0301 -49.9998
ENERGY: 1200000 1.5157 3.1358 0.7605 0.0000 -10636.9974 1459.3682 0.0000 0.0000 1774.3859 -7397.8313 307.2648 -9172.2172 -7377.1953 301.6994 247.9250 367.5369 29485.1380 -114.0458 -38.6915
ENERGY: 1500000 0.7092 2.2777 1.5454 0.0000 -10560.8903 1518.4108 0.0000 0.0000 1755.9537 -7281.9935 304.0730 -9037.9472 -7368.6570 302.1263 1084.4348 1190.2533 29715.2689 -31.9703 47.4407
TCL: Running FEP window  19: Lambda1 0.09999999999999969 Lambda2 0.049999999999999684 [dLambda -0.05 ]
TCL: Setting parameter firsttimestep to 0
TCL: Setting parameter alchLambda to 0.09999999999999969
Info: NONBONDED TABLE R-SQUARED SPACING: 0.0625
Info: NONBONDED TABLE SIZE: 705 POINTS
TCL: Setting parameter alchLambda2 to 0.049999999999999684
Info: NONBONDED TABLE R-SQUARED SPACING: 0.0625
Info: NONBONDED TABLE SIZE: 705 POINTS
TCL: Running for 1500000 steps
ETITLE: TS BOND ANGLE DIHED IMPRP ELECT VDW BOUNDARY MISC KINETIC TOTAL TEMP POTENTIAL TOTALAVG TEMPAVG PRESSURE GPRESSURE VOLUME PRESSAVG GPRESSAVG
ENERGY: 0 0.7092 2.2777 1.5454 0.0000 -10560.8907 1517.5437 0.0000 0.0000 1755.1314 -7283.6834 303.9306 -9038.8147 -7283.6834 303.9306 1099.9373 1184.0784 29715.2689 1099.9373 1184.0784
ENERGY: 300000 3.3412 4.5468 0.8141 0.0000 -10442.8374 1334.2225 0.0000 0.0000 1722.2066 -7377.7061 298.2291 -9099.9128 -7373.5754 300.1703 -675.1706 -625.6281 29863.1885 -93.9556 -21.3301
ENERGY: 600000 1.4753 2.7315 0.8683 0.0000 -10505.2503 1369.4189 0.0000 0.0000 1767.9509 -7362.8053 306.1505 -9130.7562 -7380.6892 300.2126 -403.7780 -388.0088 29866.2251 -64.0563 0.8551
ENERGY: 900000 2.3283 3.2869 1.7318 0.0000 -10578.9327 1447.4621 0.0000 0.0000 1717.3922 -7406.7313 297.3954 -9124.1235 -7389.2381 299.0003 222.0508 248.1872 29463.5104 -94.0380 -37.9827
ENERGY: 1200000 1.2628 2.8872 0.2330 0.0000 -10437.3050 1351.8648 0.0000 0.0000 1721.2834 -7359.7739 298.0692 -9081.0572 -7382.8510 299.2060 -473.8404 -428.7244 29983.4026 -151.4241 -94.4196
ENERGY: 1500000 1.3482 1.3166 0.7295 0.0000 -10592.9900 1457.7759 0.0000 0.0000 1711.1371 -7420.6826 296.3122 -9131.8197 -7385.3547 299.4753 -114.2528 -52.9995 30361.7898 -121.1517 -62.9972
TCL: Running FEP window  20: Lambda1 0.049999999999999684 Lambda2 0.0    [dLambda -0.049999999999999684]
TCL: Setting parameter firsttimestep to 0
TCL: Setting parameter alchLambda to 0.049999999999999684
Info: NONBONDED TABLE R-SQUARED SPACING: 0.0625
Info: NONBONDED TABLE SIZE: 705 POINTS
TCL: Setting parameter alchLambda2 to 0.0
Info: NONBONDED TABLE R-SQUARED SPACING: 0.0625
Info: NONBONDED TABLE SIZE: 705 POINTS
TCL: Running for 1500000 steps
ETITLE: TS BOND ANGLE DIHED IMPRP ELECT VDW BOUNDARY MISC KINETIC TOTAL TEMP POTENTIAL TOTALAVG TEMPAVG PRESSURE GPRESSURE VOLUME PRESSAVG GPRESSAVG
ENERGY: 0 1.3482 1.3166 0.7295 0.0000 -10592.9900 1457.4126 0.0000 0.0000 1710.3028 -7421.8803 296.1678 -9132.1831 -7421.8803 296.1678 -140.1453 -55.7523 30361.7898 -140.1453 -55.7523
ENERGY: 300000 2.4694 2.7020 0.6477 0.0000 -10513.0616 1477.8138 0.0000 0.0000 1758.0904 -7271.3384 304.4430 -9029.4287 -7356.7111 298.6197 690.4748 770.9705 29909.7165 -268.4013 -206.6869
ENERGY: 600000 0.4151 1.9013 1.7026 0.0000 -10653.8721 1463.2604 0.0000 0.0000 1664.3723 -7522.2204 288.2141 -9186.5927 -7380.4136 297.8641 180.4167 272.0942 29642.9110 -186.7261 -132.3242
ENERGY: 900000 0.3117 5.5260 0.2382 0.0000 -10497.0054 1423.0596 0.0000 0.0000 1753.7821 -7314.0878 303.6969 -9067.8699 -7375.6710 298.1870 243.8823 344.9279 29887.5598 -110.8425 -49.3177
ENERGY: 1200000 0.8113 1.5838 1.0082 0.0000 -10308.1827 1382.0405 0.0000 0.0000 1643.7077 -7279.0312 284.6357 -8922.7389 -7380.6821 296.6532 -19.6089 94.4785 30270.3731 -123.4362 -65.5938
ENERGY: 1500000 1.1586 1.7491 1.7911 0.0000 -10498.9932 1407.3796 0.0000 0.0000 1722.4409 -7364.4738 298.2697 -9086.9147 -7369.3510 298.0088 -66.4686 -12.4333 29870.2652 -81.3637 -23.7159
TCL: Exiting due to exit command.
