Info: SIMULATION PARAMETERS:
Info: TIMESTEP               2
Info: NUMBER OF STEPS        0
Info: STEPS PER CYCLE        10
Info: PERIODIC CELL BASIS 1  32.2154 0 0
Info: PERIODIC CELL BASIS 2  0 33.2754 0
Info: PERIODIC CELL BASIS 3  0 0 27.5995
Info: PERIODIC CELL CENTER   0 0 0
Info: WRAPPING WATERS AROUND PERIODIC BOUNDARIES ON OUTPUT.
Info: WRAPPING ALL CLUSTERS AROUND PERIODIC BOUNDARIES ON OUTPUT.
Info: FIRST LDB TIMESTEP     50
Info: LAST LDB TIMESTEP     -1
Info: HOM BACKGROUND SCALING 1
Info: PME BACKGROUND SCALING 1
Info: MIN ATOMS PER PATCH    40
Info: EMPTY PATCH LOAD       40 ATOMS
Info: VELOCITY FILE          mobley_8827942_equil.vel
Info: CENTER OF MASS MOVING INITIALLY? NO
Info: DIELECTRIC             1
Info: EXCLUDE                SCALED ONE-FOUR
Info: 1-4 ELECTROSTATICS SCALED BY 0.833333
Info: MODIFIED 1-4 VDW PARAMETERS WILL BE USED
Info: DCD FILENAME           mobley_8827942_prod.dcd
Info: DCD FREQUENCY          100000
Info: DCD FIRST STEP         100000
Info: DCD FILE WILL CONTAIN UNIT CELL DATA
Info: XST FILENAME           mobley_8827942_prod.xst
Info: XST FREQUENCY          100000
Info: NO VELOCITY DCD OUTPUT
Info: NO FORCE DCD OUTPUT
Info: OUTPUT FILENAME        mobley_8827942_prod
Info: BINARY OUTPUT FILES WILL BE USED
Info: RESTART FILENAME       mobley_8827942_prod.restart
Info: RESTART FREQUENCY      100000
Info: BINARY RESTART FILES WILL BE USED
Info: CUTOFF                 9
Info: PAIRLIST DISTANCE      11
Info: PAIRLIST SHRINK RATE   0.01
Info: PAIRLIST GROW RATE     0.01
Info: PAIRLIST TRIGGER       0.3
Info: PAIRLISTS PER CYCLE    2
Info: PAIRLISTS ENABLED
Info: MARGIN                 2
Info: HYDROGEN GROUP CUTOFF  2.5
Info: PATCH DIMENSION        15.5
Info: ENERGY OUTPUT STEPS    100000
Info: ENERGY EVALUATION STEPS    100000
Info: OUTPUT ENERGY PRECISION 4
Info: CROSSTERM ENERGY INCLUDED IN DIHEDRAL
Info: TIMING OUTPUT STEPS    1000000
Info: PRESSURE OUTPUT STEPS  100000
Info: ALCHEMICAL FEP ON
Info: FEP CURRENT LAMBDA VALUE     1
Info: FEP COMPARISON LAMBDA VALUE  0.95
Info: FEP INTRA-ALCHEMICAL NON-BONDED INTERACTIONS WILL BE RETAINED
Info: FEP INTRA-ALCHEMICAL BONDED INTERACTIONS WILL BE RETAINED
Info: FEP VDW SHIFTING COEFFICIENT 5
Info: FEP ELEC. ACTIVE FOR ANNIHILATED PARTICLES BETWEEN LAMBDA = 0 AND LAMBDA = 0.5
Info: FEP ELEC. ACTIVE FOR EXNIHILATED PARTICLES BETWEEN LAMBDA = 0.5 AND LAMBDA = 1
Info: FEP VDW ACTIVE FOR ANNIHILATED PARTICLES BETWEEN LAMBDA = 0 AND LAMBDA = 1
Info: FEP VDW ACTIVE FOR EXNIHILATED PARTICLES BETWEEN LAMBDA = 0 AND LAMBDA = 1
Info: FEP BOND ACTIVE FOR ANNIHILATED PARTICLES BETWEEN LAMBDA = 1 AND LAMBDA = 1
Info: FEP BOND ACTIVE FOR EXNIHILATED PARTICLES BETWEEN LAMBDA = 0 AND LAMBDA = 0
Info: LANGEVIN DYNAMICS ACTIVE
Info: LANGEVIN TEMPERATURE   300
Info: LANGEVIN USING BBK INTEGRATOR
Info: LANGEVIN DAMPING COEFFICIENT IS 1 INVERSE PS
Info: LANGEVIN DYNAMICS APPLIED TO HYDROGENS
Info: LANGEVIN PISTON PRESSURE CONTROL ACTIVE
Info:        TARGET PRESSURE IS 1.01325 BAR
Info:     OSCILLATION PERIOD IS 50 FS
Info:             DECAY TIME IS 25 FS
Info:     PISTON TEMPERATURE IS 300 K
Info:       PRESSURE CONTROL IS GROUP-BASED
Info:    INITIAL STRAIN RATE IS 0.00041435 0.00041435 0.00041435
Info:       CELL FLUCTUATION IS ISOTROPIC
Info: PARTICLE MESH EWALD (PME) ACTIVE
Info: PME TOLERANCE               1e-06
Info: PME EWALD COEFFICIENT       0.348832
Info: PME INTERPOLATION ORDER     4
Info: PME GRID DIMENSIONS         36 36 28
Info: PME MAXIMUM GRID SPACING    1
Info: PME CALCULATION WILL BE PERFORMED ON GPU
Info: FULL ELECTROSTATIC EVALUATION FREQUENCY      2
Info: USING VERLET I (r-RESPA) MTS SCHEME.
Info: C1 SPLITTING OF LONG RANGE ELECTROSTATICS
Info: PLACING ATOMS IN PATCHES BY HYDROGEN GROUPS
Info: RIGID BONDS TO HYDROGEN : ALL
Info:         ERROR TOLERANCE : 1e-08
Info:          MAX ITERATIONS : 100
Info: RIGID WATER USING SETTLE ALGORITHM
Info: RANDOM NUMBER SEED     1743649908
Info: USE HYDROGEN BONDS?    NO
Info: Using AMBER format force field!
Info: AMBER PARM FILE        mobley_8827942.prmtop
Info: COORDINATE PDB         mobley_8827942.pdb
Info: Exclusions will be read from PARM file!
Info: SCNB (VDW SCALING)     2
Info: USING ARITHMETIC MEAN TO COMBINE L-J SIGMA PARAMETERS
Info: BINARY COORDINATES     mobley_8827942_equil.coor
Info: SUMMARY OF PARAMETERS:
Info: 6 BONDS
Info: 5 ANGLES
Info:   5 HARMONIC
Info:   0 COSINE-BASED
Info: 3 DIHEDRAL
Info: 0 IMPROPER
Info: 0 CROSSTERM
Info: 0 VDW
Info: 21 VDW_PAIRS
Info: 0 NBTHOLE_PAIRS
Info: To read alchdata from file: mobley_8827942.pdb
Info: To read alchflag data from column: 5
Info: STRUCTURE SUMMARY:
Info: 2908 ATOMS
Info: 2910 BONDS
Info: 38 ANGLES
Info: 68 DIHEDRALS
Info: 0 IMPROPERS
Info: 0 CROSSTERMS
Info: 2995 EXCLUSIONS
Info: 2891 RIGID BONDS
Info: ALCH: 0 ATOMS TO DISAPPEAR IN FINAL STATE
Info: ALCH: 22 ATOMS TO APPEAR IN FINAL STATE
Info: 5833 DEGREES OF FREEDOM
Info: 979 HYDROGEN GROUPS
Info: 3 ATOMS IN LARGEST HYDROGEN GROUP
Info: 979 MIGRATION GROUPS
Info: 3 ATOMS IN LARGEST MIGRATION GROUP
Info: TOTAL MASS = 17618.9 amu
Info: TOTAL CHARGE = 0.000100013 e
Info: MASS DENSITY = 0.988891 g/cm^3
Info: ATOM DENSITY = 0.0982889 atoms/A^3
Info: ADDED 0 IMPLICIT EXCLUSIONS
Info: NONBONDED TABLE R-SQUARED SPACING: 0.0625
Info: NONBONDED TABLE SIZE: 705 POINTS
Info: REDUCING NUMBER OF PATCHES TO IMPROVE LOAD BALANCE
Info: REMOVING COM VELOCITY 0.0947135 0.0243012 0.0749203
Info: Use 3D box decompostion in PME FFT.
Info: Updated CUDA force table with 4096 elements.
Info: Updated CUDA LJ table with 6 x 6 elements.
Info: Found 24 unique exclusion lists needing 72 bytes
TCL: Running for 1500000 steps
ETITLE: TS BOND ANGLE DIHED IMPRP ELECT VDW BOUNDARY MISC KINETIC TOTAL TEMP POTENTIAL TOTALAVG TEMPAVG PRESSURE GPRESSURE VOLUME PRESSAVG GPRESSAVG
ENERGY: 0 10.2067 3.4496 7.3332 0.0000 -10597.4192 1398.9381 0.0000 0.0000 1697.3929 -7480.0987 292.8740 -9177.4916 -7480.0987 292.8740 -381.9816 -292.3498 29586.2380 -381.9816 -292.3498
ENERGY: 300000 8.8632 8.2467 7.3236 0.0000 -10474.9454 1426.8692 0.0000 0.0000 1755.1376 -7268.5051 302.8374 -9023.6427 -7361.4860 300.3593 179.0322 213.9502 29959.6430 -191.2133 -127.6427
ENERGY: 600000 10.5444 6.6753 6.0322 0.0000 -10623.7179 1490.6563 0.0000 0.0000 1781.3736 -7328.4361 307.3643 -9109.8097 -7366.7205 300.2156 331.2049 398.1384 29976.9351 -145.8901 -90.4052
ENERGY: 900000 7.7503 7.7478 3.9545 0.0000 -10441.5182 1370.2558 0.0000 0.0000 1723.4353 -7328.3744 297.3674 -9051.8098 -7344.0422 300.0407 -410.3482 -339.9454 30035.2054 -148.9855 -94.4394
ENERGY: 1200000 1.7833 2.3922 5.9623 0.0000 -10426.0242 1372.4613 0.0000 0.0000 1805.7190 -7237.7062 311.5649 -9043.4252 -7328.6715 302.1326 -180.4215 -85.9594 30294.5001 -147.0264 -83.6228
ENERGY: 1500000 8.4922 4.1076 4.6750 0.0000 -10569.0734 1471.9520 0.0000 0.0000 1731.6186 -7348.2280 298.7794 -9079.8466 -7328.4056 302.0052 656.4959 731.6965 29375.5409 -78.9017 -18.4926
TCL: Running FEP window   2: Lambda1 0.95   Lambda2 0.8999999999999999 [dLambda -0.050000000000000044]
TCL: Setting parameter firsttimestep to 0
TCL: Setting parameter alchLambda to 0.95
Info: NONBONDED TABLE R-SQUARED SPACING: 0.0625
Info: NONBONDED TABLE SIZE: 705 POINTS
TCL: Setting parameter alchLambda2 to 0.8999999999999999
Info: NONBONDED TABLE R-SQUARED SPACING: 0.0625
Info: NONBONDED TABLE SIZE: 705 POINTS
TCL: Running for 1500000 steps
ETITLE: TS BOND ANGLE DIHED IMPRP ELECT VDW BOUNDARY MISC KINETIC TOTAL TEMP POTENTIAL TOTALAVG TEMPAVG PRESSURE GPRESSURE VOLUME PRESSAVG GPRESSAVG
ENERGY: 0 8.4922 4.1076 4.6750 0.0000 -10568.4689 1472.3823 0.0000 0.0000 1730.8047 -7348.0071 298.6390 -9078.8118 -7348.0071 298.6390 616.6836 715.7562 29375.5409 616.6836 715.7562
ENERGY: 300000 7.6667 4.2050 5.9241 0.0000 -10365.0272 1325.9997 0.0000 0.0000 1744.7007 -7276.5309 301.0366 -9021.2317 -7324.2894 300.8387 -301.2078 -224.5785 29970.8762 -11.1117 58.6357
ENERGY: 600000 4.8205 5.2763 6.5339 0.0000 -10412.1312 1438.5884 0.0000 0.0000 1765.5314 -7191.3808 304.6308 -8956.9122 -7297.6906 302.4828 425.2882 534.6688 30257.3171 275.3972 363.5644
ENERGY: 900000 7.1898 6.7309 7.7653 0.0000 -10445.7978 1319.9049 0.0000 0.0000 1737.3066 -7366.9003 299.7608 -9104.2069 -7305.3795 301.3741 -961.3317 -856.4001 30075.6942 83.5905 166.9894
ENERGY: 1200000 3.3623 7.6694 6.4526 0.0000 -10334.8649 1345.5453 0.0000 0.0000 1740.0077 -7231.8277 300.2269 -8971.8353 -7305.2098 300.3441 -389.3406 -294.4693 30535.8670 56.8106 134.7247
ENERGY: 1500000 8.8803 3.1563 6.7568 0.0000 -10436.5305 1335.1259 0.0000 0.0000 1736.0932 -7346.5179 299.5515 -9082.6111 -7317.2368 299.7608 -749.3828 -696.3055 30355.4646 81.5465 153.9035
TCL: Running FEP window   3: Lambda1 0.8999999999999999 Lambda2 0.8499999999999999 [dLambda -0.050000000000000044]
TCL: Setting parameter firsttimestep to 0
TCL: Setting parameter alchLambda to 0.8999999999999999
Info: NONBONDED TABLE R-SQUARED SPACING: 0.0625
Info: NONBONDED TABLE SIZE: 705 POINTS
TCL: Setting parameter alchLambda2 to 0.8499999999999999
Info: NONBONDED TABLE R-SQUARED SPACING: 0.0625
Info: NONBONDED TABLE SIZE: 705 POINTS
TCL: Running for 1500000 steps
ETITLE: TS BOND ANGLE DIHED IMPRP ELECT VDW BOUNDARY MISC KINETIC TOTAL TEMP POTENTIAL TOTALAVG TEMPAVG PRESSURE GPRESSURE VOLUME PRESSAVG GPRESSAVG
ENERGY: 0 8.8802 3.1563 6.7568 0.0000 -10435.9418 1336.0380 0.0000 0.0000 1735.2327 -7345.8777 299.4030 -9081.1104 -7345.8777 299.4030 -795.4169 -700.2144 30355.4646 -795.4169 -700.2144
ENERGY: 300000 6.4754 6.7807 6.0333 0.0000 -10549.0313 1446.1768 0.0000 0.0000 1769.5927 -7313.9724 305.3316 -9083.5650 -7327.8570 300.2907 87.8377 179.2944 30220.0951 -454.2809 -389.9793
ENERGY: 600000 7.5809 7.3842 9.1762 0.0000 -10400.8298 1361.2313 0.0000 0.0000 1763.1794 -7252.2779 304.2250 -9015.4573 -7321.9138 299.1268 -193.0274 -169.3502 30051.1206 -367.4305 -305.8162
ENERGY: 900000 6.3761 5.2366 3.4769 0.0000 -10559.8141 1448.0041 0.0000 0.0000 1780.8692 -7315.8511 307.2773 -9096.7203 -7320.8601 301.1620 612.3620 712.2157 29716.5751 -126.1152 -69.2150
ENERGY: 1200000 7.1230 4.1168 7.2562 0.0000 -10451.7871 1384.3787 0.0000 0.0000 1712.0266 -7336.8858 295.3989 -9048.9124 -7320.3050 300.9919 -249.2543 -174.5650 30270.0351 -194.8787 -135.5824
ENERGY: 1500000 7.1858 6.3681 5.5966 0.0000 -10544.9145 1435.5074 0.0000 0.0000 1738.8718 -7351.3849 300.0309 -9090.2566 -7328.2866 300.6612 167.6273 280.6511 29663.9270 -156.4577 -99.5322
TCL: Running FEP window   4: Lambda1 0.8499999999999999 Lambda2 0.7999999999999998 [dLambda -0.050000000000000044]
TCL: Setting parameter firsttimestep to 0
TCL: Setting parameter alchLambda to 0.8499999999999999
Info: NONBONDED TABLE R-SQUARED SPACING: 0.0625
Info: NONBONDED TABLE SIZE: 705 POINTS
TCL: Setting parameter alchLambda2 to 0.7999999999999998
Info: NONBONDED TABLE R-SQUARED SPACING: 0.0625
Info: NONBONDED TABLE SIZE: 705 POINTS
TCL: Running for 1500000 steps
ETITLE: TS BOND ANGLE DIHED IMPRP ELECT VDW BOUNDARY MISC KINETIC TOTAL TEMP POTENTIAL TOTALAVG TEMPAVG PRESSURE GPRESSURE VOLUME PRESSAVG GPRESSAVG
ENERGY: 0 7.1858 6.3681 5.5966 0.0000 -10544.1573 1436.3909 0.0000 0.0000 1738.0209 -7350.5950 299.8841 -9088.6159 -7350.5950 299.8841 184.7054 272.2508 29663.9270 184.7054 272.2508
ENERGY: 300000 6.1882 3.5364 6.4575 0.0000 -10458.7272 1360.3323 0.0000 0.0000 1797.3103 -7284.9024 310.1141 -9082.2128 -7307.1221 300.6834 -473.3530 -442.2751 30202.0185 27.9080 100.2145
ENERGY: 600000 5.4024 2.8590 7.6396 0.0000 -10620.2111 1524.3932 0.0000 0.0000 1788.5298 -7291.3871 308.5991 -9079.9169 -7299.6994 300.5261 1190.9643 1259.2668 30032.5638 291.4522 355.5489
ENERGY: 900000 5.7897 7.2833 6.6397 0.0000 -10387.2353 1302.8848 0.0000 0.0000 1745.6514 -7318.9864 301.2007 -9064.6379 -7307.1541 300.8557 -720.1631 -679.5179 29942.2780 124.5600 185.9226
ENERGY: 1200000 9.7323 6.0456 5.6730 0.0000 -10410.4921 1398.6724 0.0000 0.0000 1721.2849 -7269.0838 296.9964 -8990.3687 -7313.8123 301.0710 -260.1333 -114.1002 30176.8254 157.9377 223.4013
ENERGY: 1500000 5.6170 4.4846 3.4793 0.0000 -10496.7570 1424.7150 0.0000 0.0000 1760.0909 -7298.3702 303.6921 -9058.4611 -7313.0289 301.3325 39.6275 56.3127 30765.4883 65.6618 126.3291
TCL: Running FEP window   5: Lambda1 0.7999999999999998 Lambda2 0.7499999999999998 [dLambda -0.050000000000000044]
TCL: Setting parameter firsttimestep to 0
TCL: Setting parameter alchLambda to 0.7999999999999998
Info: NONBONDED TABLE R-SQUARED SPACING: 0.0625
Info: NONBONDED TABLE SIZE: 705 POINTS
TCL: Setting parameter alchLambda2 to 0.7499999999999998
Info: NONBONDED TABLE R-SQUARED SPACING: 0.0625
Info: NONBONDED TABLE SIZE: 705 POINTS
TCL: Running for 1500000 steps
ETITLE: TS BOND ANGLE DIHED IMPRP ELECT VDW BOUNDARY MISC KINETIC TOTAL TEMP POTENTIAL TOTALAVG TEMPAVG PRESSURE GPRESSURE VOLUME PRESSAVG GPRESSAVG
ENERGY: 0 5.6170 4.4846 3.4793 0.0000 -10496.4963 1425.2011 0.0000 0.0000 1759.2402 -7298.4741 303.5453 -9057.7142 -7298.4741 303.5453 -43.5476 46.0219 30765.4883 -43.5476 46.0219
ENERGY: 300000 8.2794 6.3588 4.9395 0.0000 -10511.6297 1356.4458 0.0000 0.0000 1767.7397 -7367.8664 305.0119 -9135.6061 -7356.2743 299.4572 -523.7910 -510.2176 29656.3426 -268.5770 -198.7239
ENERGY: 600000 8.1982 5.0532 6.5140 0.0000 -10489.8355 1404.5051 0.0000 0.0000 1753.3185 -7312.2465 302.5236 -9065.5650 -7327.7930 300.1849 183.3474 178.3292 29653.3197 -240.4112 -189.2096
ENERGY: 900000 6.8117 6.0734 4.2968 0.0000 -10471.6747 1436.6832 0.0000 0.0000 1728.6649 -7289.1448 298.2698 -9017.8097 -7312.2558 299.2989 323.7809 305.4604 29802.6171 -299.7577 -253.2440
ENERGY: 1200000 7.0431 5.5011 4.6264 0.0000 -10562.7424 1421.0577 0.0000 0.0000 1677.4762 -7447.0379 289.4375 -9124.5141 -7325.5865 298.3475 -631.9230 -568.0978 30324.8975 -328.6270 -280.9936
ENERGY: 1500000 6.4410 2.2608 6.0864 0.0000 -10602.6243 1539.4995 0.0000 0.0000 1732.4534 -7315.8832 298.9234 -9048.3366 -7323.3622 299.3102 1058.7766 1092.5918 29679.5682 -250.5125 -204.3243
TCL: Running FEP window   6: Lambda1 0.7499999999999998 Lambda2 0.6999999999999997 [dLambda -0.050000000000000044]
TCL: Setting parameter firsttimestep to 0
TCL: Setting parameter alchLambda to 0.7499999999999998
Info: NONBONDED TABLE R-SQUARED SPACING: 0.0625
Info: NONBONDED TABLE SIZE: 705 POINTS
TCL: Setting parameter alchLambda2 to 0.6999999999999997
Info: NONBONDED TABLE R-SQUARED SPACING: 0.0625
Info: NONBONDED TABLE SIZE: 705 POINTS
TCL: Running for 1500000 steps
ETITLE: TS BOND ANGLE DIHED IMPRP ELECT VDW BOUNDARY MISC KINETIC TOTAL TEMP POTENTIAL TOTALAVG TEMPAVG PRESSURE GPRESSURE VOLUME PRESSAVG GPRESSAVG
ENERGY: 0 6.4410 2.2608 6.0864 0.0000 -10601.9506 1540.5204 0.0000 0.0000 1731.5916 -7315.0505 298.7747 -9046.6421 -7315.0505 298.7747 1000.1733 1085.8692 29679.5682 1000.1733 1085.8692
ENERGY: 300000 5.8032 6.5359 4.5752 0.0000 -10530.9783 1449.4615 0.0000 0.0000 1742.0974 -7322.5053 300.5874 -9064.6026 -7332.3976 297.1293 206.5197 316.4899 30095.0829 307.4490 387.4626
ENERGY: 600000 5.7802 3.7537 5.9523 0.0000 -10498.4777 1393.6597 0.0000 0.0000 1794.8790 -7294.4527 309.6946 -9089.3317 -7352.4435 298.2706 -579.0890 -518.8819 30598.7139 132.8330 213.7616
ENERGY: 900000 9.6794 4.1505 4.7151 0.0000 -10579.5229 1397.9663 0.0000 0.0000 1739.7036 -7423.3079 300.1744 -9163.0116 -7355.7850 299.3144 -192.2743 -140.3273 29823.5572 87.0256 162.6848
ENERGY: 1200000 7.7674 2.9184 5.8438 0.0000 -10526.7508 1401.8149 0.0000 0.0000 1742.9511 -7365.4552 300.7347 -9108.4063 -7346.1914 299.9463 -134.3742 15.7548 29906.8556 -10.7624 69.2437
ENERGY: 1500000 6.8089 5.9508 3.1781 0.0000 -10506.0730 1435.9475 0.0000 0.0000 1735.5219 -7318.6658 299.4529 -9054.1877 -7350.3236 299.7560 168.3378 239.9354 30075.3628 64.3918 140.3449
TCL: Running FEP window   7: Lambda1 0.6999999999999997 Lambda2 0.6499999999999997 [dLambda -0.050000000000000044]
TCL: Setting parameter firsttimestep to 0
TCL: Setting parameter alchLambda to 0.6999999999999997
Info: NONBONDED TABLE R-SQUARED SPACING: 0.0625
Info: NONBONDED TABLE SIZE: 705 POINTS
TCL: Setting parameter alchLambda2 to 0.6499999999999997
Info: NONBONDED TABLE R-SQUARED SPACING: 0.0625
Info: NONBONDED TABLE SIZE: 705 POINTS
TCL: Running for 1500000 steps
ETITLE: TS BOND ANGLE DIHED IMPRP ELECT VDW BOUNDARY MISC KINETIC TOTAL TEMP POTENTIAL TOTALAVG TEMPAVG PRESSURE GPRESSURE VOLUME PRESSAVG GPRESSAVG
ENERGY: 0 6.8088 5.9508 3.1781 0.0000 -10505.5189 1436.1595 0.0000 0.0000 1734.6326 -7318.7891 299.2995 -9053.4217 -7318.7891 299.2995 163.1721 220.5709 30075.3628 163.1721 220.5709
ENERGY: 300000 6.2700 2.7930 11.0568 0.0000 -10507.9345 1461.7575 0.0000 0.0000 1694.1582 -7331.8991 292.3159 -9026.0573 -7321.9077 300.3142 68.8786 182.5081 30488.0338 337.8828 373.6330
ENERGY: 600000 6.5328 3.2171 5.6334 0.0000 -10367.1736 1346.3678 0.0000 0.0000 1758.5364 -7246.8861 303.4239 -9005.4225 -7316.4484 300.0391 -537.9992 -451.8466 30185.9257 162.3707 215.7469
ENERGY: 900000 4.5121 6.2052 12.0854 0.0000 -10470.7273 1409.9691 0.0000 0.0000 1719.7365 -7318.2189 296.7292 -9037.9554 -7308.5596 300.8037 -144.6641 -35.5787 30100.3219 -3.1167 53.0101
ENERGY: 1200000 5.7342 4.8201 8.2619 0.0000 -10469.1049 1398.8460 0.0000 0.0000 1754.9344 -7296.5082 302.8024 -9051.4427 -7302.7997 301.8491 -42.4647 44.3681 30030.3249 4.0242 66.5420
ENERGY: 1500000 10.4582 6.5257 6.3637 0.0000 -10467.4933 1396.7681 0.0000 0.0000 1711.7299 -7335.6476 295.3477 -9047.3775 -7307.7368 301.2494 -529.8080 -486.8091 30189.0170 -103.4766 -36.1513
TCL: Running FEP window   8: Lambda1 0.6499999999999997 Lambda2 0.5999999999999996 [dLambda -0.050000000000000044]
TCL: Setting parameter firsttimestep to 0
TCL: Setting parameter alchLambda to 0.6499999999999997
Info: NONBONDED TABLE R-SQUARED SPACING: 0.0625
Info: NONBONDED TABLE SIZE: 705 POINTS
TCL: Setting parameter alchLambda2 to 0.5999999999999996
Info: NONBONDED TABLE R-SQUARED SPACING: 0.0625
Info: NONBONDED TABLE SIZE: 705 POINTS
TCL: Running for 1500000 steps
ETITLE: TS BOND ANGLE DIHED IMPRP ELECT VDW BOUNDARY MISC KINETIC TOTAL TEMP POTENTIAL TOTALAVG TEMPAVG PRESSURE GPRESSURE VOLUME PRESSAVG GPRESSAVG
ENERGY: 0 10.4582 6.5257 6.3637 0.0000 -10467.3372 1397.1827 0.0000 0.0000 1710.8983 -7335.9085 295.2042 -9046.8068 -7335.9085 295.2042 -559.4655 -494.5290 30189.0170 -559.4655 -494.5290
ENERGY: 300000 5.8261 4.4394 5.2749 0.0000 -10583.0784 1462.9577 0.0000 0.0000 1713.7184 -7390.8619 295.6908 -9104.5803 -7347.0048 297.3188 238.7162 290.8690 29866.5530 177.5717 233.9841
ENERGY: 600000 5.7925 4.1248 4.2744 0.0000 -10375.5794 1344.7719 0.0000 0.0000 1796.6364 -7219.9793 309.9978 -9016.6157 -7312.8855 300.0867 -343.3919 -261.6570 29803.7962 -32.0588 36.1851
ENERGY: 900000 6.5694 2.5722 6.0947 0.0000 -10449.4355 1378.2664 0.0000 0.0000 1803.6391 -7252.2936 311.2061 -9055.9327 -7314.1970 300.8290 -444.1281 -354.7080 30212.9600 -140.2385 -72.0151
ENERGY: 1200000 5.4555 5.7852 6.3486 0.0000 -10446.7382 1401.7740 0.0000 0.0000 1694.9959 -7332.3789 292.4604 -9027.3749 -7326.1527 299.9876 -113.1108 -13.7754 30040.2388 -28.8264 43.0721
ENERGY: 1500000 5.6705 4.1087 3.0863 0.0000 -10539.0276 1454.3371 0.0000 0.0000 1779.1559 -7292.6691 306.9816 -9071.8250 -7313.5983 301.7143 161.7848 163.7257 30308.5275 -66.1895 1.3975
TCL: Running FEP window   9: Lambda1 0.5999999999999996 Lambda2 0.5499999999999996 [dLambda -0.050000000000000044]
TCL: Setting parameter firsttimestep to 0
TCL: Setting parameter alchLambda to 0.5999999999999996
Info: NONBONDED TABLE R-SQUARED SPACING: 0.0625
Info: NONBONDED TABLE SIZE: 705 POINTS
TCL: Setting parameter alchLambda2 to 0.5499999999999996
Info: NONBONDED TABLE R-SQUARED SPACING: 0.0625
Info: NONBONDED TABLE SIZE: 705 POINTS
TCL: Running for 1500000 steps
ETITLE: TS BOND ANGLE DIHED IMPRP ELECT VDW BOUNDARY MISC KINETIC TOTAL TEMP POTENTIAL TOTALAVG TEMPAVG PRESSURE GPRESSURE VOLUME PRESSAVG GPRESSAVG
ENERGY: 0 5.6705 4.1087 3.0863 0.0000 -10538.8413 1454.7902 0.0000 0.0000 1778.2688 -7292.9168 306.8286 -9071.1856 -7292.9168 306.8286 77.0675 157.0948 30308.5275 77.0675 157.0948
ENERGY: 300000 2.1605 3.9243 9.2504 0.0000 -10576.9910 1451.2656 0.0000 0.0000 1753.5640 -7356.8263 302.5659 -9110.3902 -7302.1201 304.2653 416.0377 456.9080 29757.3036 -123.4619 -33.4995
ENERGY: 600000 6.6493 7.0100 7.3401 0.0000 -10566.0929 1439.2285 0.0000 0.0000 1666.7080 -7439.1569 287.5795 -9105.8649 -7321.3462 300.8615 -204.7019 -71.8859 29950.2852 -136.2273 -42.2940
ENERGY: 900000 7.4385 7.0245 6.8273 0.0000 -10461.0624 1358.9119 0.0000 0.0000 1723.6914 -7357.1688 297.4116 -9080.8602 -7313.9494 300.0848 -357.2372 -293.2869 29646.0641 -155.4555 -58.4966
ENERGY: 1200000 6.3056 4.4951 5.7256 0.0000 -10437.9185 1377.9725 0.0000 0.0000 1746.7031 -7296.7166 301.3821 -9043.4197 -7324.3982 299.1688 -507.0928 -439.5011 30367.7259 -136.2122 -45.3644
ENERGY: 1500000 6.7923 4.4207 4.9268 0.0000 -10513.7270 1504.4065 0.0000 0.0000 1688.2000 -7304.9806 291.2878 -8993.1806 -7323.2389 298.4182 798.6612 847.6814 30446.1694 -29.9163 53.4735
TCL: Running FEP window  10: Lambda1 0.5499999999999996 Lambda2 0.4999999999999996 [dLambda -0.04999999999999999]
TCL: Setting parameter firsttimestep to 0
TCL: Setting parameter alchLambda to 0.5499999999999996
Info: NONBONDED TABLE R-SQUARED SPACING: 0.0625
Info: NONBONDED TABLE SIZE: 705 POINTS
TCL: Setting parameter alchLambda2 to 0.4999999999999996
Info: NONBONDED TABLE R-SQUARED SPACING: 0.0625
Info: NONBONDED TABLE SIZE: 705 POINTS
TCL: Running for 1500000 steps
ETITLE: TS BOND ANGLE DIHED IMPRP ELECT VDW BOUNDARY MISC KINETIC TOTAL TEMP POTENTIAL TOTALAVG TEMPAVG PRESSURE GPRESSURE VOLUME PRESSAVG GPRESSAVG
ENERGY: 0 6.7923 4.4207 4.9268 0.0000 -10513.1676 1505.1740 0.0000 0.0000 1687.3357 -7304.5181 291.1387 -8991.8538 -7304.5181 291.1387 766.8895 845.8535 30446.1694 766.8895 845.8535
ENERGY: 300000 6.7286 8.1424 7.1576 0.0000 -10530.5253 1437.8765 0.0000 0.0000 1715.7464 -7354.8737 296.0408 -9070.6202 -7315.1003 295.6836 206.8149 299.0193 30160.6349 123.6891 196.1955
ENERGY: 600000 7.2689 3.2257 11.8186 0.0000 -10544.3401 1476.6361 0.0000 0.0000 1714.6815 -7330.7094 295.8570 -9045.3908 -7317.7179 296.2494 216.1058 333.8044 29955.8590 137.6865 215.8955
ENERGY: 900000 5.5581 5.2847 6.2045 0.0000 -10503.4951 1415.1483 0.0000 0.0000 1670.5313 -7400.7681 288.2392 -9071.2995 -7328.7155 296.3043 155.9033 200.1319 29733.6290 149.3168 215.8790
ENERGY: 1200000 7.4517 3.5767 2.9384 0.0000 -10548.1442 1497.9565 0.0000 0.0000 1694.7982 -7341.4227 292.4263 -9036.2209 -7323.6584 296.9708 775.8034 860.8526 29865.8942 125.4026 190.2650
ENERGY: 1500000 7.0427 3.9056 3.5762 0.0000 -10470.1716 1401.1180 0.0000 0.0000 1729.5868 -7324.9424 298.4288 -9054.5292 -7323.1028 297.7223 -48.5755 -29.4552 30036.4919 141.4537 198.9966
TCL: Running FEP window  11: Lambda1 0.4999999999999996 Lambda2 0.4499999999999996 [dLambda -0.04999999999999999]
TCL: Setting parameter firsttimestep to 0
TCL: Setting parameter alchLambda to 0.4999999999999996
Info: NONBONDED TABLE R-SQUARED SPACING: 0.0625
Info: NONBONDED TABLE SIZE: 705 POINTS
TCL: Setting parameter alchLambda2 to 0.4499999999999996
Info: NONBONDED TABLE R-SQUARED SPACING: 0.0625
Info: NONBONDED TABLE SIZE: 705 POINTS
TCL: Running for 1500000 steps
ETITLE: TS BOND ANGLE DIHED IMPRP ELECT VDW BOUNDARY MISC KINETIC TOTAL TEMP POTENTIAL TOTALAVG TEMPAVG PRESSURE GPRESSURE VOLUME PRESSAVG GPRESSAVG
ENERGY: 0 7.0427 3.9056 3.5762 0.0000 -10470.1881 1401.6637 0.0000 0.0000 1728.7409 -7325.2591 298.2829 -9054.0000 -7325.2591 298.2829 -114.6010 -36.6134 30036.4919 -114.6010 -36.6134
ENERGY: 300000 4.0888 5.3130 1.9530 0.0000 -10443.8768 1393.3931 0.0000 0.0000 1743.7736 -7295.3553 300.8767 -9039.1289 -7280.9860 304.4238 -84.1826 50.3441 29869.0647 343.9183 423.2575
ENERGY: 600000 7.3970 5.9192 4.6427 0.0000 -10545.1573 1444.8921 0.0000 0.0000 1766.6349 -7315.6714 304.8212 -9082.3063 -7304.4661 302.0674 247.9061 256.2605 29908.0292 514.9332 574.6547
ENERGY: 900000 8.4379 2.4993 5.3353 0.0000 -10386.6263 1329.7425 0.0000 0.0000 1706.4866 -7334.1247 294.4430 -9040.6113 -7323.1275 299.8518 -1208.8044 -1105.1466 30487.3147 174.4552 240.1767
ENERGY: 1200000 7.8050 7.0510 4.9067 0.0000 -10711.3080 1566.0144 0.0000 0.0000 1705.4999 -7420.0310 294.2728 -9125.5309 -7331.7434 299.1643 1048.8611 1136.7702 29601.1538 126.2848 191.5648
ENERGY: 1500000 5.7113 5.8180 5.4230 0.0000 -10583.1816 1462.4659 0.0000 0.0000 1805.1086 -7298.6548 311.4596 -9103.7633 -7322.5366 300.2877 638.2653 727.3134 29286.5167 75.3894 142.4758
TCL: Running FEP window  12: Lambda1 0.4499999999999996 Lambda2 0.39999999999999963 [dLambda -0.04999999999999999]
TCL: Setting parameter firsttimestep to 0
TCL: Setting parameter alchLambda to 0.4499999999999996
Info: NONBONDED TABLE R-SQUARED SPACING: 0.0625
Info: NONBONDED TABLE SIZE: 705 POINTS
TCL: Setting parameter alchLambda2 to 0.39999999999999963
Info: NONBONDED TABLE R-SQUARED SPACING: 0.0625
Info: NONBONDED TABLE SIZE: 705 POINTS
TCL: Running for 1500000 steps
ETITLE: TS BOND ANGLE DIHED IMPRP ELECT VDW BOUNDARY MISC KINETIC TOTAL TEMP POTENTIAL TOTALAVG TEMPAVG PRESSURE GPRESSURE VOLUME PRESSAVG GPRESSAVG
ENERGY: 0 5.7113 5.8180 5.4230 0.0000 -10583.1812 1462.9804 0.0000 0.0000 1804.2377 -7299.0109 311.3093 -9103.2486 -7299.0109 311.3093 636.7996 721.1406 29286.5167 636.7996 721.1406
ENERGY: 300000 4.1034 6.2334 4.9714 0.0000 -10444.3408 1382.2957 0.0000 0.0000 1730.5728 -7316.1640 298.5990 -9046.7368 -7337.5856 300.0049 -288.5662 -199.4501 30357.1866 -240.8981 -176.7730
ENERGY: 600000 8.3746 7.2470 6.5489 0.0000 -10536.6291 1440.5407 0.0000 0.0000 1752.2192 -7321.6987 302.3339 -9073.9179 -7333.6147 300.6049 -0.7675 82.7333 30133.8236 -147.0738 -82.7891
ENERGY: 900000 3.6413 6.0727 4.2906 0.0000 -10576.0922 1480.9136 0.0000 0.0000 1712.3466 -7368.8274 295.4541 -9081.1740 -7317.0503 301.7375 501.2831 594.1635 29601.6309 -23.2849 30.8254
ENERGY: 1200000 8.5594 4.2821 6.0941 0.0000 -10318.5203 1338.9841 0.0000 0.0000 1754.5415 -7206.0591 302.7346 -8960.6005 -7308.7103 301.4262 -642.1480 -631.4335 30479.5000 -122.3710 -64.7267
ENERGY: 1500000 5.8722 6.0971 8.9199 0.0000 -10461.1109 1408.6989 0.0000 0.0000 1754.6928 -7276.8300 302.7607 -9031.5228 -7302.3984 301.7448 -347.1082 -255.3611 30698.3338 -158.3916 -104.0621
TCL: Running FEP window  13: Lambda1 0.39999999999999963 Lambda2 0.34999999999999964 [dLambda -0.04999999999999999]
TCL: Setting parameter firsttimestep to 0
TCL: Setting parameter alchLambda to 0.39999999999999963
Info: NONBONDED TABLE R-SQUARED SPACING: 0.0625
Info: NONBONDED TABLE SIZE: 705 POINTS
TCL: Setting parameter alchLambda2 to 0.34999999999999964
Info: NONBONDED TABLE R-SQUARED SPACING: 0.0625
Info: NONBONDED TABLE SIZE: 705 POINTS
TCL: Running for 1500000 steps
ETITLE: TS BOND ANGLE DIHED IMPRP ELECT VDW BOUNDARY MISC KINETIC TOTAL TEMP POTENTIAL TOTALAVG TEMPAVG PRESSURE GPRESSURE VOLUME PRESSAVG GPRESSAVG
ENERGY: 0 5.8722 6.0971 8.9199 0.0000 -10461.1099 1409.3411 0.0000 0.0000 1753.8038 -7277.0758 302.6073 -9030.8797 -7277.0758 302.6073 -344.2064 -259.6267 30698.3338 -344.2064 -259.6267
ENERGY: 300000 6.0928 3.5879 4.7234 0.0000 -10504.7956 1441.4502 0.0000 0.0000 1796.4237 -7252.5176 309.9611 -9048.9413 -7287.7261 301.5234 451.3477 503.0132 29886.7017 -11.4637 44.4994
ENERGY: 600000 6.3356 4.7848 6.3638 0.0000 -10482.7230 1341.9217 0.0000 0.0000 1704.2487 -7419.0684 294.0569 -9123.3171 -7292.8443 301.3700 -274.0164 -251.3207 29414.5848 -23.0760 31.5862
ENERGY: 900000 5.9817 6.8107 4.7046 0.0000 -10358.9494 1317.0790 0.0000 0.0000 1759.7284 -7264.6450 303.6296 -9024.3734 -7300.8141 300.5250 -773.7337 -730.4767 29900.2738 -25.8974 27.2288
ENERGY: 1200000 8.0393 4.2416 6.2458 0.0000 -10433.3109 1319.4313 0.0000 0.0000 1739.0810 -7356.2718 300.0670 -9095.3528 -7311.1552 299.4652 -966.4173 -892.9644 29664.8349 -218.5723 -161.8963
ENERGY: 1500000 5.5925 3.6784 3.9604 0.0000 -10384.7121 1383.8244 0.0000 0.0000 1769.4622 -7218.1941 305.3091 -8987.6564 -7298.9733 299.9974 171.8020 188.0697 29543.0092 -152.1265 -98.2963
TCL: Running FEP window  14: Lambda1 0.34999999999999964 Lambda2 0.29999999999999966 [dLambda -0.04999999999999999]
TCL: Setting parameter firsttimestep to 0
TCL: Setting parameter alchLambda to 0.34999999999999964
Info: NONBONDED TABLE R-SQUARED SPACING: 0.0625
Info: NONBONDED TABLE SIZE: 705 POINTS
TCL: Setting parameter alchLambda2 to 0.29999999999999966
Info: NONBONDED TABLE R-SQUARED SPACING: 0.0625
Info: NONBONDED TABLE SIZE: 705 POINTS
TCL: Running for 1500000 steps
ETITLE: TS BOND ANGLE DIHED IMPRP ELECT VDW BOUNDARY MISC KINETIC TOTAL TEMP POTENTIAL TOTALAVG TEMPAVG PRESSURE GPRESSURE VOLUME PRESSAVG GPRESSAVG
ENERGY: 0 5.5926 3.6784 3.9604 0.0000 -10384.7136 1384.4434 0.0000 0.0000 1768.5249 -7218.5139 305.1473 -8987.0388 -7218.5139 305.1473 90.3265 183.9469 29543.0092 90.3265 183.9469
ENERGY: 300000 8.3352 8.4349 2.7421 0.0000 -10461.8414 1419.6370 0.0000 0.0000 1695.6101 -7327.0819 292.5664 -9022.6920 -7259.9862 300.5799 -247.1677 -164.0472 30284.6669 -318.0688 -246.7993
ENERGY: 600000 3.8316 4.2140 8.9170 0.0000 -10484.5443 1450.7665 0.0000 0.0000 1747.8791 -7268.9362 301.5850 -9016.8153 -7287.1371 300.6652 303.4522 393.0582 29946.1693 16.4273 86.5479
ENERGY: 900000 4.3043 4.8590 6.0818 0.0000 -10430.3291 1400.7777 0.0000 0.0000 1719.8150 -7294.4914 296.7428 -9014.3064 -7294.8965 299.5317 -381.1509 -312.8346 30313.3483 -106.4460 -41.0181
ENERGY: 1200000 7.5572 6.4420 4.3225 0.0000 -10597.5756 1436.0095 0.0000 0.0000 1709.0001 -7434.2443 294.8767 -9143.2445 -7306.6962 299.3771 -107.4681 -20.9358 29590.7607 -94.1489 -24.8076
ENERGY: 1500000 5.9172 6.0069 4.8840 0.0000 -10431.8135 1435.1912 0.0000 0.0000 1782.2398 -7197.5745 307.5138 -8979.8143 -7306.5313 299.4500 248.3508 299.8794 30045.0012 -73.2896 -7.9564
TCL: Running FEP window  15: Lambda1 0.29999999999999966 Lambda2 0.24999999999999967 [dLambda -0.04999999999999999]
TCL: Setting parameter firsttimestep to 0
TCL: Setting parameter alchLambda to 0.29999999999999966
Info: NONBONDED TABLE R-SQUARED SPACING: 0.0625
Info: NONBONDED TABLE SIZE: 705 POINTS
TCL: Setting parameter alchLambda2 to 0.24999999999999967
Info: NONBONDED TABLE R-SQUARED SPACING: 0.0625
Info: NONBONDED TABLE SIZE: 705 POINTS
TCL: Running for 1500000 steps
ETITLE: TS BOND ANGLE DIHED IMPRP ELECT VDW BOUNDARY MISC KINETIC TOTAL TEMP POTENTIAL TOTALAVG TEMPAVG PRESSURE GPRESSURE VOLUME PRESSAVG GPRESSAVG
ENERGY: 0 5.9172 6.0069 4.8840 0.0000 -10431.8146 1435.4175 0.0000 0.0000 1781.3624 -7198.2266 307.3624 -8979.5891 -7198.2266 307.3624 198.1135 294.2758 30045.0012 198.1135 294.2758
ENERGY: 300000 4.5834 4.1129 4.0369 0.0000 -10459.2457 1396.3486 0.0000 0.0000 1720.3516 -7329.8121 296.8354 -9050.1638 -7282.3412 302.2899 -266.2750 -118.0063 30116.0700 -46.2868 45.7711
ENERGY: 600000 5.5742 4.9596 6.0072 0.0000 -10645.2048 1473.5299 0.0000 0.0000 1728.2778 -7426.8561 298.2030 -9155.1339 -7312.6725 301.3296 47.4463 90.4166 29987.5699 171.7885 242.5415
ENERGY: 900000 4.5299 8.3877 6.4486 0.0000 -10376.0097 1326.0079 0.0000 0.0000 1711.5080 -7319.1276 295.3094 -9030.6356 -7319.2148 299.1833 -816.3912 -739.1932 30148.7249 -32.8555 41.4577
ENERGY: 1200000 4.3591 3.5374 7.1189 0.0000 -10557.3580 1446.7744 0.0000 0.0000 1777.5988 -7317.9694 306.7130 -9095.5682 -7323.6052 300.3568 352.5559 378.2429 29881.0850 52.3974 121.7529
ENERGY: 1500000 4.2903 3.3572 9.5987 0.0000 -10494.1078 1439.1003 0.0000 0.0000 1774.2906 -7263.4707 306.1422 -9037.7613 -7317.4322 301.0754 307.0492 343.8962 29899.8290 88.6177 153.1607
TCL: Running FEP window  16: Lambda1 0.24999999999999967 Lambda2 0.19999999999999968 [dLambda -0.04999999999999999]
TCL: Setting parameter firsttimestep to 0
TCL: Setting parameter alchLambda to 0.24999999999999967
Info: NONBONDED TABLE R-SQUARED SPACING: 0.0625
Info: NONBONDED TABLE SIZE: 705 POINTS
TCL: Setting parameter alchLambda2 to 0.19999999999999968
Info: NONBONDED TABLE R-SQUARED SPACING: 0.0625
Info: NONBONDED TABLE SIZE: 705 POINTS
TCL: Running for 1500000 steps
ETITLE: TS BOND ANGLE DIHED IMPRP ELECT VDW BOUNDARY MISC KINETIC TOTAL TEMP POTENTIAL TOTALAVG TEMPAVG PRESSURE GPRESSURE VOLUME PRESSAVG GPRESSAVG
ENERGY: 0 4.2903 3.3571 9.5987 0.0000 -10494.1070 1439.1230 0.0000 0.0000 1773.4438 -7264.2940 305.9961 -9037.7378 -7264.2940 305.9961 248.1277 335.6355 29899.8290 248.1277 335.6355
ENERGY: 300000 6.5762 6.4759 6.8906 0.0000 -10472.3058 1377.6507 0.0000 0.0000 1820.2429 -7254.4696 314.0709 -9074.7125 -7288.9809 303.4685 -290.6784 -280.0453 29643.9398 29.6463 79.4365
ENERGY: 600000 5.8411 2.7954 4.0979 0.0000 -10333.0617 1300.3264 0.0000 0.0000 1811.3193 -7208.6816 312.5312 -9020.0009 -7300.9049 302.4861 -471.2332 -383.3260 29728.5933 -207.1539 -159.4351
ENERGY: 900000 7.5466 5.1153 6.6211 0.0000 -10424.2685 1342.9356 0.0000 0.0000 1711.7346 -7350.3153 295.3485 -9062.0499 -7312.4246 301.6891 -810.4396 -743.1034 29834.2095 -312.6067 -256.7135
ENERGY: 1200000 3.6885 3.1948 5.7176 0.0000 -10468.6376 1420.9039 0.0000 0.0000 1769.2094 -7265.9234 305.2654 -9035.1328 -7299.5758 301.6010 -152.3460 -17.1907 30035.4623 -312.5173 -249.9451
ENERGY: 1500000 10.6646 5.6007 5.7659 0.0000 -10362.7151 1326.1838 0.0000 0.0000 1795.1603 -7219.3398 309.7431 -9014.5001 -7301.5257 301.6822 -769.0096 -726.0839 30293.9598 -271.3628 -214.8725
TCL: Running FEP window  17: Lambda1 0.19999999999999968 Lambda2 0.1499999999999997 [dLambda -0.04999999999999999]
TCL: Setting parameter firsttimestep to 0
TCL: Setting parameter alchLambda to 0.19999999999999968
Info: NONBONDED TABLE R-SQUARED SPACING: 0.0625
Info: NONBONDED TABLE SIZE: 705 POINTS
TCL: Setting parameter alchLambda2 to 0.1499999999999997
Info: NONBONDED TABLE R-SQUARED SPACING: 0.0625
Info: NONBONDED TABLE SIZE: 705 POINTS
TCL: Running for 1500000 steps
ETITLE: TS BOND ANGLE DIHED IMPRP ELECT VDW BOUNDARY MISC KINETIC TOTAL TEMP POTENTIAL TOTALAVG TEMPAVG PRESSURE GPRESSURE VOLUME PRESSAVG GPRESSAVG
ENERGY: 0 10.6646 5.6007 5.7659 0.0000 -10362.7157 1325.4887 0.0000 0.0000 1794.3101 -7220.8858 309.5964 -9015.1958 -7220.8858 309.5964 -817.4486 -736.7704 30293.9598 -817.4486 -736.7704
ENERGY: 300000 7.5025 3.9132 5.0855 0.0000 -10277.0683 1314.2618 0.0000 0.0000 1710.8009 -7235.5044 295.1874 -8946.3053 -7265.1064 299.6888 -613.0790 -542.5358 30286.8313 -490.7302 -441.0338
ENERGY: 600000 5.4498 8.7255 4.7549 0.0000 -10510.2577 1385.1945 0.0000 0.0000 1719.8223 -7386.3107 296.7440 -9106.1330 -7313.5402 297.6651 -348.4441 -227.0728 29405.2323 -265.5312 -199.0661
ENERGY: 900000 7.1476 3.2199 9.2635 0.0000 -10429.6770 1362.0402 0.0000 0.0000 1744.3146 -7303.6912 300.9700 -9048.0057 -7320.5456 297.9738 -540.9013 -475.0039 29763.9414 -341.6595 -278.7133
ENERGY: 1200000 7.9481 5.8904 6.5137 0.0000 -10394.9011 1400.9311 0.0000 0.0000 1728.0893 -7245.5285 298.1704 -8973.6178 -7312.5813 299.3402 203.4225 232.9937 29639.0989 -130.5513 -68.7152
ENERGY: 1500000 5.0870 4.8993 4.2102 0.0000 -10685.1744 1530.9146 0.0000 0.0000 1701.8762 -7438.1871 293.6475 -9140.0633 -7319.7797 299.1977 712.0177 762.0367 29445.5665 -8.5869 59.7727
TCL: Running FEP window  18: Lambda1 0.1499999999999997 Lambda2 0.09999999999999969 [dLambda -0.05 ]
TCL: Setting parameter firsttimestep to 0
TCL: Setting parameter alchLambda to 0.1499999999999997
Info: NONBONDED TABLE R-SQUARED SPACING: 0.0625
Info: NONBONDED TABLE SIZE: 705 POINTS
TCL: Setting parameter alchLambda2 to 0.09999999999999969
Info: NONBONDED TABLE R-SQUARED SPACING: 0.0625
Info: NONBONDED TABLE SIZE: 705 POINTS
TCL: Running for 1500000 steps
ETITLE: TS BOND ANGLE DIHED IMPRP ELECT VDW BOUNDARY MISC KINETIC TOTAL TEMP POTENTIAL TOTALAVG TEMPAVG PRESSURE GPRESSURE VOLUME PRESSAVG GPRESSAVG
ENERGY: 0 5.0870 4.8993 4.2102 0.0000 -10685.1727 1530.8030 0.0000 0.0000 1700.9913 -7439.1819 293.4949 -9140.1732 -7439.1819 293.4949 669.0414 755.0832 29445.5665 669.0414 755.0832
ENERGY: 300000 3.4372 7.6406 3.5709 0.0000 -10576.7355 1439.1111 0.0000 0.0000 1774.8657 -7348.1101 306.2414 -9122.9758 -7350.7412 303.1698 57.7506 79.6220 29698.3414 -2.6009 68.6405
ENERGY: 600000 3.5803 4.8913 5.2354 0.0000 -10697.2565 1517.6821 0.0000 0.0000 1740.6306 -7425.2369 300.3344 -9165.8674 -7353.1489 302.1993 464.9524 539.9793 29693.2885 158.5519 235.2351
ENERGY: 900000 6.0002 3.7183 4.4409 0.0000 -10597.7301 1527.2263 0.0000 0.0000 1737.8330 -7318.5114 299.8517 -9056.3444 -7338.8449 302.5919 384.8285 408.9369 30128.7597 72.1795 141.4469
ENERGY: 1200000 5.5569 7.6761 5.9771 0.0000 -10435.3452 1384.2892 0.0000 0.0000 1733.4404 -7298.4055 299.0937 -9031.8459 -7348.7189 301.1701 -202.3273 -184.7491 29758.4066 23.3268 93.0714
ENERGY: 1500000 4.9956 5.7024 4.0753 0.0000 -10394.3054 1395.0322 0.0000 0.0000 1685.9234 -7298.5765 290.8950 -8984.4999 -7340.2483 300.0927 -251.2459 -231.7258 30647.3040 -73.4324 -9.2584
TCL: Running FEP window  19: Lambda1 0.09999999999999969 Lambda2 0.049999999999999684 [dLambda -0.05 ]
TCL: Setting parameter firsttimestep to 0
TCL: Setting parameter alchLambda to 0.09999999999999969
Info: NONBONDED TABLE R-SQUARED SPACING: 0.0625
Info: NONBONDED TABLE SIZE: 705 POINTS
TCL: Setting parameter alchLambda2 to 0.049999999999999684
Info: NONBONDED TABLE R-SQUARED SPACING: 0.0625
Info: NONBONDED TABLE SIZE: 705 POINTS
TCL: Running for 1500000 steps
ETITLE: TS BOND ANGLE DIHED IMPRP ELECT VDW BOUNDARY MISC KINETIC TOTAL TEMP POTENTIAL TOTALAVG TEMPAVG PRESSURE GPRESSURE VOLUME PRESSAVG GPRESSAVG
ENERGY: 0 4.9956 5.7024 4.0753 0.0000 -10394.3052 1395.2743 0.0000 0.0000 1685.0700 -7299.1876 290.7477 -8984.2576 -7299.1876 290.7477 -317.3578 -234.4660 30647.3040 -317.3578 -234.4660
ENERGY: 300000 6.5075 3.6876 5.1925 0.0000 -10428.0702 1378.4023 0.0000 0.0000 1675.9170 -7358.3632 289.1685 -9034.2802 -7341.8669 293.8451 -636.5686 -546.5689 30137.9690 -300.2211 -207.2129
ENERGY: 600000 4.0580 5.2870 9.4508 0.0000 -10306.6767 1332.8417 0.0000 0.0000 1707.2569 -7247.7823 294.5760 -8955.0392 -7315.9896 296.0642 -667.0969 -622.2335 30429.3673 -285.1710 -203.6714
ENERGY: 900000 7.2819 7.2180 5.6948 0.0000 -10399.9824 1373.9436 0.0000 0.0000 1743.9094 -7261.9347 300.9001 -9005.8441 -7311.7341 296.4676 -406.6643 -392.9424 29908.6796 -274.3134 -210.1367
ENERGY: 1200000 5.3461 7.7584 3.8993 0.0000 -10433.8618 1362.6536 0.0000 0.0000 1750.0622 -7304.1423 301.9617 -9054.2044 -7314.7673 297.3355 -797.5615 -686.8914 30148.6499 -191.0086 -118.7419
ENERGY: 1500000 7.1161 3.4356 5.8369 0.0000 -10475.1820 1407.9886 0.0000 0.0000 1751.7415 -7299.0633 302.2515 -9050.8047 -7313.1006 297.9003 -52.6257 84.0178 29794.9138 -221.9669 -147.4627
TCL: Running FEP window  20: Lambda1 0.049999999999999684 Lambda2 0.0    [dLambda -0.049999999999999684]
TCL: Setting parameter firsttimestep to 0
TCL: Setting parameter alchLambda to 0.049999999999999684
Info: NONBONDED TABLE R-SQUARED SPACING: 0.0625
Info: NONBONDED TABLE SIZE: 705 POINTS
TCL: Setting parameter alchLambda2 to 0.0
Info: NONBONDED TABLE R-SQUARED SPACING: 0.0625
Info: NONBONDED TABLE SIZE: 705 POINTS
TCL: Running for 1500000 steps
ETITLE: TS BOND ANGLE DIHED IMPRP ELECT VDW BOUNDARY MISC KINETIC TOTAL TEMP POTENTIAL TOTALAVG TEMPAVG PRESSURE GPRESSURE VOLUME PRESSAVG GPRESSAVG
ENERGY: 0 7.1161 3.4356 5.8369 0.0000 -10475.1821 1405.0672 0.0000 0.0000 1750.8807 -7302.8457 302.1029 -9053.7264 -7302.8457 302.1029 -23.9100 71.1134 29794.9138 -23.9100 71.1134
ENERGY: 300000 7.0477 6.8021 3.4540 0.0000 -10516.9870 1415.6980 0.0000 0.0000 1711.3849 -7372.6002 295.2882 -9083.9851 -7364.7867 297.5307 -162.5529 -96.9667 29605.6228 158.6534 210.0863
ENERGY: 600000 4.2836 3.8430 5.3823 0.0000 -10362.3373 1330.2226 0.0000 0.0000 1763.3949 -7255.2110 304.2622 -9018.6059 -7326.0706 300.0222 -468.6532 -477.2178 29933.8588 172.4494 218.8475
ENERGY: 900000 9.2150 3.7506 7.2453 0.0000 -10585.6859 1469.4223 0.0000 0.0000 1650.5797 -7445.4729 284.7967 -9096.0526 -7340.3495 297.8596 215.2417 295.7577 29277.1730 224.2340 277.4552
ENERGY: 1200000 5.5672 8.2679 7.3512 0.0000 -10563.9945 1461.8340 0.0000 0.0000 1756.4920 -7324.4822 303.0711 -9080.9742 -7330.3102 298.6390 425.7137 487.4827 29317.5199 153.9345 210.3292
ENERGY: 1500000 7.1584 5.9307 7.3290 0.0000 -10490.8960 1439.6965 0.0000 0.0000 1826.5385 -7204.2428 315.1572 -9030.7813 -7321.1093 299.5535 56.1646 101.4407 30167.9430 112.9403 165.6144
TCL: Exiting due to exit command.
