Info: SIMULATION PARAMETERS:
Info: TIMESTEP               2
Info: NUMBER OF STEPS        0
Info: STEPS PER CYCLE        10
Info: PERIODIC CELL BASIS 1  31.5009 0 0
Info: PERIODIC CELL BASIS 2  0 30.0702 0
Info: PERIODIC CELL BASIS 3  0 0 31.3543
Info: PERIODIC CELL CENTER   0 0 0
Info: WRAPPING WATERS AROUND PERIODIC BOUNDARIES ON OUTPUT.
Info: WRAPPING ALL CLUSTERS AROUND PERIODIC BOUNDARIES ON OUTPUT.
Info: FIRST LDB TIMESTEP     50
Info: LAST LDB TIMESTEP     -1
Info: HOM BACKGROUND SCALING 1
Info: PME BACKGROUND SCALING 1
Info: MIN ATOMS PER PATCH    40
Info: EMPTY PATCH LOAD       40 ATOMS
Info: VELOCITY FILE          mobley_1520842_equil.vel
Info: CENTER OF MASS MOVING INITIALLY? NO
Info: DIELECTRIC             1
Info: EXCLUDE                SCALED ONE-FOUR
Info: 1-4 ELECTROSTATICS SCALED BY 0.833333
Info: MODIFIED 1-4 VDW PARAMETERS WILL BE USED
Info: DCD FILENAME           mobley_1520842_prod.dcd
Info: DCD FREQUENCY          100000
Info: DCD FIRST STEP         100000
Info: DCD FILE WILL CONTAIN UNIT CELL DATA
Info: XST FILENAME           mobley_1520842_prod.xst
Info: XST FREQUENCY          100000
Info: NO VELOCITY DCD OUTPUT
Info: NO FORCE DCD OUTPUT
Info: OUTPUT FILENAME        mobley_1520842_prod
Info: BINARY OUTPUT FILES WILL BE USED
Info: RESTART FILENAME       mobley_1520842_prod.restart
Info: RESTART FREQUENCY      100000
Info: BINARY RESTART FILES WILL BE USED
Info: CUTOFF                 9
Info: PAIRLIST DISTANCE      11
Info: PAIRLIST SHRINK RATE   0.01
Info: PAIRLIST GROW RATE     0.01
Info: PAIRLIST TRIGGER       0.3
Info: PAIRLISTS PER CYCLE    2
Info: PAIRLISTS ENABLED
Info: MARGIN                 2
Info: HYDROGEN GROUP CUTOFF  2.5
Info: PATCH DIMENSION        15.5
Info: ENERGY OUTPUT STEPS    100000
Info: ENERGY EVALUATION STEPS    100000
Info: OUTPUT ENERGY PRECISION 4
Info: CROSSTERM ENERGY INCLUDED IN DIHEDRAL
Info: TIMING OUTPUT STEPS    1000000
Info: PRESSURE OUTPUT STEPS  100000
Info: ALCHEMICAL FEP ON
Info: FEP CURRENT LAMBDA VALUE     0
Info: FEP COMPARISON LAMBDA VALUE  0.05
Info: FEP INTRA-ALCHEMICAL NON-BONDED INTERACTIONS WILL BE RETAINED
Info: FEP INTRA-ALCHEMICAL BONDED INTERACTIONS WILL BE RETAINED
Info: FEP VDW SHIFTING COEFFICIENT 5
Info: FEP ELEC. ACTIVE FOR ANNIHILATED PARTICLES BETWEEN LAMBDA = 0 AND LAMBDA = 0.5
Info: FEP ELEC. ACTIVE FOR EXNIHILATED PARTICLES BETWEEN LAMBDA = 0.5 AND LAMBDA = 1
Info: FEP VDW ACTIVE FOR ANNIHILATED PARTICLES BETWEEN LAMBDA = 0 AND LAMBDA = 1
Info: FEP VDW ACTIVE FOR EXNIHILATED PARTICLES BETWEEN LAMBDA = 0 AND LAMBDA = 1
Info: FEP BOND ACTIVE FOR ANNIHILATED PARTICLES BETWEEN LAMBDA = 1 AND LAMBDA = 1
Info: FEP BOND ACTIVE FOR EXNIHILATED PARTICLES BETWEEN LAMBDA = 0 AND LAMBDA = 0
Info: LANGEVIN DYNAMICS ACTIVE
Info: LANGEVIN TEMPERATURE   300
Info: LANGEVIN USING BBK INTEGRATOR
Info: LANGEVIN DAMPING COEFFICIENT IS 1 INVERSE PS
Info: LANGEVIN DYNAMICS APPLIED TO HYDROGENS
Info: LANGEVIN PISTON PRESSURE CONTROL ACTIVE
Info:        TARGET PRESSURE IS 1.01325 BAR
Info:     OSCILLATION PERIOD IS 50 FS
Info:             DECAY TIME IS 25 FS
Info:     PISTON TEMPERATURE IS 300 K
Info:       PRESSURE CONTROL IS GROUP-BASED
Info:    INITIAL STRAIN RATE IS 0.000107004 0.000107004 0.000107004
Info:       CELL FLUCTUATION IS ISOTROPIC
Info: PARTICLE MESH EWALD (PME) ACTIVE
Info: PME TOLERANCE               1e-06
Info: PME EWALD COEFFICIENT       0.348832
Info: PME INTERPOLATION ORDER     4
Info: PME GRID DIMENSIONS         32 32 32
Info: PME MAXIMUM GRID SPACING    1
Info: PME CALCULATION WILL BE PERFORMED ON GPU
Info: FULL ELECTROSTATIC EVALUATION FREQUENCY      2
Info: USING VERLET I (r-RESPA) MTS SCHEME.
Info: C1 SPLITTING OF LONG RANGE ELECTROSTATICS
Info: PLACING ATOMS IN PATCHES BY HYDROGEN GROUPS
Info: RIGID BONDS TO HYDROGEN : ALL
Info:         ERROR TOLERANCE : 1e-08
Info:          MAX ITERATIONS : 100
Info: RIGID WATER USING SETTLE ALGORITHM
Info: RANDOM NUMBER SEED     1743557754
Info: USE HYDROGEN BONDS?    NO
Info: Using AMBER format force field!
Info: AMBER PARM FILE        mobley_1520842.prmtop
Info: COORDINATE PDB         mobley_1520842.pdb
Info: Exclusions will be read from PARM file!
Info: SCNB (VDW SCALING)     2
Info: USING ARITHMETIC MEAN TO COMBINE L-J SIGMA PARAMETERS
Info: BINARY COORDINATES     mobley_1520842_equil.coor
Info: SUMMARY OF PARAMETERS:
Info: 8 BONDS
Info: 9 ANGLES
Info:   9 HARMONIC
Info:   0 COSINE-BASED
Info: 4 DIHEDRAL
Info: 0 IMPROPER
Info: 0 CROSSTERM
Info: 0 VDW
Info: 36 VDW_PAIRS
Info: 0 NBTHOLE_PAIRS
Info: To read alchdata from file: mobley_1520842.pdb
Info: To read alchflag data from column: 5
Info: STRUCTURE SUMMARY:
Info: 2927 ATOMS
Info: 2927 BONDS
Info: 22 ANGLES
Info: 31 DIHEDRALS
Info: 0 IMPROPERS
Info: 0 CROSSTERMS
Info: 2972 EXCLUSIONS
Info: 2920 RIGID BONDS
Info: ALCH: 0 ATOMS TO DISAPPEAR IN FINAL STATE
Info: ALCH: 14 ATOMS TO APPEAR IN FINAL STATE
Info: 5861 DEGREES OF FREEDOM
Info: 978 HYDROGEN GROUPS
Info: 4 ATOMS IN LARGEST HYDROGEN GROUP
Info: 978 MIGRATION GROUPS
Info: 4 ATOMS IN LARGEST MIGRATION GROUP
Info: TOTAL MASS = 17586.7 amu
Info: TOTAL CHARGE = 9.99868e-05 e
Info: MASS DENSITY = 0.983301 g/cm^3
Info: ATOM DENSITY = 0.0985522 atoms/A^3
Info: ADDED 0 IMPLICIT EXCLUSIONS
Info: NONBONDED TABLE R-SQUARED SPACING: 0.0625
Info: NONBONDED TABLE SIZE: 705 POINTS
Info: REMOVING COM VELOCITY 0.0805523 -0.0346638 -0.216729
Info: Use 3D box decompostion in PME FFT.
Info: Updated CUDA force table with 4096 elements.
Info: Updated CUDA LJ table with 8 x 8 elements.
Info: Found 15 unique exclusion lists needing 32 bytes
TCL: Running for 1500000 steps
ETITLE: TS BOND ANGLE DIHED IMPRP ELECT VDW BOUNDARY MISC KINETIC TOTAL TEMP POTENTIAL TOTALAVG TEMPAVG PRESSURE GPRESSURE VOLUME PRESSAVG GPRESSAVG
ENERGY: 0 2.1973 3.4636 0.4094 0.0000 -10827.6789 1538.2475 0.0000 0.0000 1726.6836 -7556.6776 296.5046 -9283.3611 -7556.6776 296.5046 775.6361 850.6062 29699.9935 775.6361 850.6062
ENERGY: 300000 2.1068 3.6258 2.6912 0.0000 -10672.9996 1463.7287 0.0000 0.0000 1767.5337 -7433.3134 303.5193 -9200.8471 -7468.6296 299.5964 120.0847 162.8502 30260.7083 227.5269 269.4385
ENERGY: 600000 1.4870 4.9582 1.4557 0.0000 -10560.5594 1403.4181 0.0000 0.0000 1717.1689 -7432.0715 294.8707 -9149.2403 -7446.5051 299.1960 -524.8849 -404.8208 30505.1234 -103.2352 -39.1386
ENERGY: 900000 0.9421 5.7831 4.0831 0.0000 -10569.2328 1388.3446 0.0000 0.0000 1717.8011 -7452.2787 294.9793 -9170.0798 -7441.9221 298.5277 -136.7295 -122.7359 29841.3805 -140.4904 -74.7890
ENERGY: 1200000 0.2955 3.8100 1.5927 0.0000 -10587.2231 1453.7926 0.0000 0.0000 1736.2684 -7391.4639 298.1505 -9127.7322 -7452.2139 297.8688 487.6644 599.2207 29836.7680 -48.2330 15.9704
ENERGY: 1500000 1.4910 4.0133 3.0207 0.0000 -10501.5930 1344.3060 0.0000 0.0000 1706.9973 -7441.7647 293.1241 -9148.7621 -7447.4715 298.3150 -298.7639 -227.2987 29461.7160 -151.4592 -83.2927
TCL: Running FEP window   2: Lambda1 0.05   Lambda2 0.1    [dLambda 0.05  ]
TCL: Setting parameter firsttimestep to 0
TCL: Setting parameter alchLambda to 0.05
Info: NONBONDED TABLE R-SQUARED SPACING: 0.0625
Info: NONBONDED TABLE SIZE: 705 POINTS
TCL: Setting parameter alchLambda2 to 0.1
Info: NONBONDED TABLE R-SQUARED SPACING: 0.0625
Info: NONBONDED TABLE SIZE: 705 POINTS
TCL: Running for 1500000 steps
ETITLE: TS BOND ANGLE DIHED IMPRP ELECT VDW BOUNDARY MISC KINETIC TOTAL TEMP POTENTIAL TOTALAVG TEMPAVG PRESSURE GPRESSURE VOLUME PRESSAVG GPRESSAVG
ENERGY: 0 1.4910 4.0133 3.0207 0.0000 -10501.5928 1346.8879 0.0000 0.0000 1706.1195 -7440.0605 292.9734 -9146.1800 -7440.0605 292.9734 -310.6499 -220.4128 29461.7160 -310.6499 -220.4128
ENERGY: 300000 0.9159 2.3766 1.5014 0.0000 -10405.8477 1317.2003 0.0000 0.0000 1802.3732 -7281.4802 309.5019 -9083.8534 -7416.5475 300.6169 -460.2357 -389.0773 30162.2712 -107.5138 -39.9190
ENERGY: 600000 3.1119 2.7338 2.1323 0.0000 -10699.4567 1479.8963 0.0000 0.0000 1715.8506 -7495.7318 294.6444 -9211.5824 -7441.0223 298.8382 128.3360 218.1134 29926.1333 25.6086 93.1518
ENERGY: 900000 4.1098 2.3576 0.9298 0.0000 -10562.4413 1427.8536 0.0000 0.0000 1746.3257 -7380.8649 299.8775 -9127.1906 -7432.8462 298.9867 -16.6797 53.8433 30183.3584 -28.5795 45.7452
ENERGY: 1200000 1.7263 5.0999 1.2490 0.0000 -10816.5736 1531.1122 0.0000 0.0000 1721.8060 -7555.5801 295.6670 -9277.3861 -7445.0920 299.4966 642.6497 640.8519 29734.6774 35.2720 97.2895
ENERGY: 1500000 4.0501 3.5426 0.8814 0.0000 -10599.9014 1423.1666 0.0000 0.0000 1746.1149 -7422.1458 299.8413 -9168.2607 -7446.3413 300.2251 -55.3802 26.4093 29976.6686 63.5951 128.0249
TCL: Running FEP window   3: Lambda1 0.1    Lambda2 0.15000000000000002 [dLambda 0.05000000000000002]
TCL: Setting parameter firsttimestep to 0
TCL: Setting parameter alchLambda to 0.1
Info: NONBONDED TABLE R-SQUARED SPACING: 0.0625
Info: NONBONDED TABLE SIZE: 705 POINTS
TCL: Setting parameter alchLambda2 to 0.15000000000000002
Info: NONBONDED TABLE R-SQUARED SPACING: 0.0625
Info: NONBONDED TABLE SIZE: 705 POINTS
TCL: Running for 1500000 steps
ETITLE: TS BOND ANGLE DIHED IMPRP ELECT VDW BOUNDARY MISC KINETIC TOTAL TEMP POTENTIAL TOTALAVG TEMPAVG PRESSURE GPRESSURE VOLUME PRESSAVG GPRESSAVG
ENERGY: 0 4.0501 3.5426 0.8814 0.0000 -10599.9010 1425.1037 0.0000 0.0000 1745.2313 -7421.0918 299.6896 -9166.3232 -7421.0918 299.6896 -45.0042 34.4354 29976.6686 -45.0042 34.4354
ENERGY: 300000 0.5594 5.6539 1.6471 0.0000 -10611.8118 1403.5452 0.0000 0.0000 1713.9057 -7486.5006 294.3104 -9200.4062 -7446.6502 298.6391 -278.5033 -257.0052 30277.8377 -125.9437 -73.0323
ENERGY: 600000 2.7093 5.3848 2.4156 0.0000 -10758.2020 1466.8627 0.0000 0.0000 1734.0611 -7546.7685 297.7715 -9280.8296 -7470.9401 299.0124 108.1300 182.1012 29948.1875 -122.9997 -53.8359
ENERGY: 900000 2.0340 6.2152 2.6345 0.0000 -10643.2477 1413.3786 0.0000 0.0000 1685.5535 -7533.4318 289.4418 -9218.9853 -7471.9901 297.6532 -472.5979 -412.7092 30232.9218 -72.7140 -5.9004
ENERGY: 1200000 0.4254 3.0652 3.9970 0.0000 -10532.0861 1328.5384 0.0000 0.0000 1734.4486 -7461.6115 297.8380 -9196.0601 -7459.7282 299.1877 -1024.2545 -884.9333 30154.3382 -29.7643 37.3311
ENERGY: 1500000 3.8483 1.5629 3.5170 0.0000 -10484.2252 1340.4127 0.0000 0.0000 1804.4430 -7330.4413 309.8574 -9134.8843 -7447.9225 299.5340 -847.5698 -746.6693 30336.5843 -54.0140 17.5819
TCL: Running FEP window   4: Lambda1 0.15000000000000002 Lambda2 0.2    [dLambda 0.04999999999999999]
TCL: Setting parameter firsttimestep to 0
TCL: Setting parameter alchLambda to 0.15000000000000002
Info: NONBONDED TABLE R-SQUARED SPACING: 0.0625
Info: NONBONDED TABLE SIZE: 705 POINTS
TCL: Setting parameter alchLambda2 to 0.2
Info: NONBONDED TABLE R-SQUARED SPACING: 0.0625
Info: NONBONDED TABLE SIZE: 705 POINTS
TCL: Running for 1500000 steps
ETITLE: TS BOND ANGLE DIHED IMPRP ELECT VDW BOUNDARY MISC KINETIC TOTAL TEMP POTENTIAL TOTALAVG TEMPAVG PRESSURE GPRESSURE VOLUME PRESSAVG GPRESSAVG
ENERGY: 0 3.8483 1.5629 3.5170 0.0000 -10484.2257 1340.0451 0.0000 0.0000 1803.5694 -7331.6830 309.7074 -9135.2524 -7331.6830 309.7074 -832.5213 -746.7334 30336.5843 -832.5213 -746.7334
ENERGY: 300000 1.4838 2.5130 3.3266 0.0000 -10754.7825 1514.7184 0.0000 0.0000 1715.1820 -7517.5587 294.5296 -9232.7407 -7429.6064 301.3039 542.0727 595.3561 29755.2901 246.1672 325.5557
ENERGY: 600000 2.4222 3.1635 4.7145 0.0000 -10692.3953 1496.7178 0.0000 0.0000 1749.5006 -7435.8768 300.4227 -9185.3774 -7418.9365 301.7868 481.0450 544.3868 29852.2981 114.9873 186.5428
ENERGY: 900000 5.3818 5.6167 1.9865 0.0000 -10645.6617 1503.7697 0.0000 0.0000 1734.3904 -7394.5165 297.8280 -9128.9070 -7417.0849 302.0527 585.3149 563.3148 30159.4658 91.0186 142.0084
ENERGY: 1200000 0.3720 7.0939 1.8784 0.0000 -10644.8948 1445.8086 0.0000 0.0000 1764.1310 -7425.6110 302.9350 -9189.7420 -7422.9214 301.7123 271.7513 367.0528 29685.5945 91.8184 145.0032
ENERGY: 1500000 0.7242 2.6144 1.9848 0.0000 -10703.6587 1440.8957 0.0000 0.0000 1751.5657 -7505.8740 300.7773 -9257.4397 -7425.4785 301.3212 -90.5883 -43.4656 29931.6076 22.2381 76.1399
TCL: Running FEP window   5: Lambda1 0.2    Lambda2 0.25   [dLambda 0.04999999999999999]
TCL: Setting parameter firsttimestep to 0
TCL: Setting parameter alchLambda to 0.2
Info: NONBONDED TABLE R-SQUARED SPACING: 0.0625
Info: NONBONDED TABLE SIZE: 705 POINTS
TCL: Setting parameter alchLambda2 to 0.25
Info: NONBONDED TABLE R-SQUARED SPACING: 0.0625
Info: NONBONDED TABLE SIZE: 705 POINTS
TCL: Running for 1500000 steps
ETITLE: TS BOND ANGLE DIHED IMPRP ELECT VDW BOUNDARY MISC KINETIC TOTAL TEMP POTENTIAL TOTALAVG TEMPAVG PRESSURE GPRESSURE VOLUME PRESSAVG GPRESSAVG
ENERGY: 0 0.7242 2.6144 1.9848 0.0000 -10703.6582 1440.8691 0.0000 0.0000 1750.7347 -7506.7310 300.6346 -9257.4657 -7506.7310 300.6346 -120.1321 -41.1111 29931.6076 -120.1321 -41.1111
ENERGY: 300000 2.7539 6.4028 1.9813 0.0000 -10635.1699 1403.0600 0.0000 0.0000 1727.9609 -7493.0111 296.7239 -9220.9719 -7430.0180 302.6238 -425.5709 -348.0281 29982.1720 -125.7817 -58.1377
ENERGY: 600000 1.1397 4.4760 2.8509 0.0000 -10626.5749 1396.6450 0.0000 0.0000 1773.5639 -7447.8995 304.5548 -9221.4633 -7428.1626 303.5256 -210.8482 -221.9642 29914.4380 -254.0895 -187.8738
ENERGY: 900000 2.7709 6.4046 2.7605 0.0000 -10574.9946 1416.1642 0.0000 0.0000 1769.7103 -7377.1840 303.8931 -9146.8944 -7407.0072 304.8631 -229.4055 -202.7984 30425.9187 -173.1276 -120.4482
ENERGY: 1200000 2.7181 3.6941 2.0518 0.0000 -10711.2000 1450.5421 0.0000 0.0000 1744.2423 -7507.9517 299.5198 -9252.1940 -7422.1872 303.4767 149.5040 229.2670 30192.6861 -20.0281 32.9758
ENERGY: 1500000 1.8021 3.0049 3.3501 0.0000 -10775.8368 1484.1813 0.0000 0.0000 1792.4799 -7491.0185 307.8031 -9283.4984 -7430.9470 303.9214 335.7051 351.0997 29828.7580 16.3685 63.3513
TCL: Running FEP window   6: Lambda1 0.25   Lambda2 0.3    [dLambda 0.04999999999999999]
TCL: Setting parameter firsttimestep to 0
TCL: Setting parameter alchLambda to 0.25
Info: NONBONDED TABLE R-SQUARED SPACING: 0.0625
Info: NONBONDED TABLE SIZE: 705 POINTS
TCL: Setting parameter alchLambda2 to 0.3
Info: NONBONDED TABLE R-SQUARED SPACING: 0.0625
Info: NONBONDED TABLE SIZE: 705 POINTS
TCL: Running for 1500000 steps
ETITLE: TS BOND ANGLE DIHED IMPRP ELECT VDW BOUNDARY MISC KINETIC TOTAL TEMP POTENTIAL TOTALAVG TEMPAVG PRESSURE GPRESSURE VOLUME PRESSAVG GPRESSAVG
ENERGY: 0 1.8021 3.0049 3.3501 0.0000 -10775.8373 1484.8213 0.0000 0.0000 1791.6280 -7491.2309 307.6568 -9282.8590 -7491.2309 307.6568 294.3052 363.0497 29828.7580 294.3052 363.0497
ENERGY: 300000 1.2036 2.7095 1.8364 0.0000 -10699.9505 1467.7822 0.0000 0.0000 1808.5995 -7417.8192 310.5711 -9226.4187 -7431.0804 305.1304 79.8579 158.0396 30146.4442 -31.6330 20.5904
ENERGY: 600000 0.5499 3.7883 5.9761 0.0000 -10531.9789 1369.1387 0.0000 0.0000 1774.8095 -7377.7164 304.7687 -9152.5259 -7435.9727 302.3496 -402.7878 -309.2732 30229.0589 -57.4488 23.2102
ENERGY: 900000 1.5959 5.8890 2.0980 0.0000 -10660.8411 1398.9098 0.0000 0.0000 1779.3814 -7472.9670 305.5538 -9252.3484 -7436.9621 303.5953 -348.6128 -251.5666 29800.4821 -80.3434 -0.6391
ENERGY: 1200000 3.2289 4.5815 1.5608 0.0000 -10556.0174 1346.4697 0.0000 0.0000 1728.0832 -7472.0933 296.7449 -9200.1765 -7453.5954 300.9989 -623.2475 -560.6093 29990.1046 -90.9566 -14.2947
ENERGY: 1500000 2.9217 2.3220 1.5988 0.0000 -10589.2438 1401.3770 0.0000 0.0000 1688.5085 -7492.5158 289.9492 -9181.0243 -7460.2923 300.4436 -190.2992 -95.2818 29818.9118 -60.2015 11.3135
TCL: Running FEP window   7: Lambda1 0.3    Lambda2 0.35   [dLambda 0.04999999999999999]
TCL: Setting parameter firsttimestep to 0
TCL: Setting parameter alchLambda to 0.3
Info: NONBONDED TABLE R-SQUARED SPACING: 0.0625
Info: NONBONDED TABLE SIZE: 705 POINTS
TCL: Setting parameter alchLambda2 to 0.35
Info: NONBONDED TABLE R-SQUARED SPACING: 0.0625
Info: NONBONDED TABLE SIZE: 705 POINTS
TCL: Running for 1500000 steps
ETITLE: TS BOND ANGLE DIHED IMPRP ELECT VDW BOUNDARY MISC KINETIC TOTAL TEMP POTENTIAL TOTALAVG TEMPAVG PRESSURE GPRESSURE VOLUME PRESSAVG GPRESSAVG
ENERGY: 0 2.9217 2.3220 1.5988 0.0000 -10589.2433 1401.6923 0.0000 0.0000 1687.6629 -7493.0456 289.8040 -9180.7085 -7493.0456 289.8040 -193.1450 -88.7698 29818.9118 -193.1450 -88.7698
ENERGY: 300000 1.2186 4.9824 1.3761 0.0000 -10685.3815 1423.2549 0.0000 0.0000 1756.8841 -7497.6654 301.6906 -9254.5495 -7475.8649 297.2938 -21.3537 -33.6183 29865.2256 -147.3463 -82.9744
ENERGY: 600000 2.6614 3.1479 1.2266 0.0000 -10716.1068 1507.4614 0.0000 0.0000 1693.9612 -7507.6484 290.8855 -9201.6095 -7490.2992 297.2156 533.6215 605.9282 29741.6629 -145.4334 -60.4452
ENERGY: 900000 0.6025 2.2935 0.8064 0.0000 -10771.1443 1558.5250 0.0000 0.0000 1732.7259 -7476.1910 297.5422 -9208.9168 -7475.2411 298.1579 1052.2704 1191.3357 29822.2165 -76.4598 4.8116
ENERGY: 1200000 4.9145 4.6788 4.7197 0.0000 -10670.5273 1429.5045 0.0000 0.0000 1716.8760 -7509.8339 294.8204 -9226.7098 -7483.0894 298.1010 -195.2806 -135.4697 30075.9441 15.8032 93.8696
ENERGY: 1500000 2.9289 4.0396 2.7676 0.0000 -10577.9686 1394.1931 0.0000 0.0000 1751.6581 -7422.3813 300.7932 -9174.0394 -7474.0613 299.1045 -231.9064 -127.5515 29792.7924 19.8607 95.6169
TCL: Running FEP window   8: Lambda1 0.35   Lambda2 0.39999999999999997 [dLambda 0.04999999999999999]
TCL: Setting parameter firsttimestep to 0
TCL: Setting parameter alchLambda to 0.35
Info: NONBONDED TABLE R-SQUARED SPACING: 0.0625
Info: NONBONDED TABLE SIZE: 705 POINTS
TCL: Setting parameter alchLambda2 to 0.39999999999999997
Info: NONBONDED TABLE R-SQUARED SPACING: 0.0625
Info: NONBONDED TABLE SIZE: 705 POINTS
TCL: Running for 1500000 steps
ETITLE: TS BOND ANGLE DIHED IMPRP ELECT VDW BOUNDARY MISC KINETIC TOTAL TEMP POTENTIAL TOTALAVG TEMPAVG PRESSURE GPRESSURE VOLUME PRESSAVG GPRESSAVG
ENERGY: 0 2.9289 4.0396 2.7676 0.0000 -10577.9696 1394.8971 0.0000 0.0000 1750.7502 -7422.5862 300.6373 -9173.3364 -7422.5862 300.6373 -201.7676 -118.1873 29792.7924 -201.7676 -118.1873
ENERGY: 300000 2.2866 3.3858 4.5137 0.0000 -10643.5207 1468.0739 0.0000 0.0000 1761.0961 -7404.1645 302.4139 -9165.2606 -7438.7964 299.6434 410.9526 455.7117 29961.0601 113.6266 186.5439
ENERGY: 600000 1.8970 5.6850 0.9207 0.0000 -10380.3368 1266.8766 0.0000 0.0000 1715.1731 -7389.7844 294.5280 -9104.9575 -7403.7374 302.6128 -1199.7335 -1195.8931 30320.8279 -157.7245 -104.3162
ENERGY: 900000 3.0147 2.9106 2.8750 0.0000 -10629.3652 1419.8155 0.0000 0.0000 1748.2614 -7452.4880 300.2099 -9200.7494 -7413.5114 302.7397 -116.1154 -13.0532 29762.3702 -66.1379 -5.7094
ENERGY: 1200000 1.5427 2.2413 2.6858 0.0000 -10612.4331 1416.1931 0.0000 0.0000 1765.6983 -7424.0718 303.2042 -9189.7701 -7411.7506 303.3671 -29.3020 8.6886 29918.9216 -79.0260 -23.0259
ENERGY: 1500000 3.6994 4.8152 0.7312 0.0000 -10683.1881 1453.7735 0.0000 0.0000 1761.1788 -7458.9900 302.4281 -9220.1688 -7423.9898 302.4527 394.8123 351.1618 29475.7815 -33.7164 12.2187
TCL: Running FEP window   9: Lambda1 0.39999999999999997 Lambda2 0.44999999999999996 [dLambda 0.04999999999999999]
TCL: Setting parameter firsttimestep to 0
TCL: Setting parameter alchLambda to 0.39999999999999997
Info: NONBONDED TABLE R-SQUARED SPACING: 0.0625
Info: NONBONDED TABLE SIZE: 705 POINTS
TCL: Setting parameter alchLambda2 to 0.44999999999999996
Info: NONBONDED TABLE R-SQUARED SPACING: 0.0625
Info: NONBONDED TABLE SIZE: 705 POINTS
TCL: Running for 1500000 steps
ETITLE: TS BOND ANGLE DIHED IMPRP ELECT VDW BOUNDARY MISC KINETIC TOTAL TEMP POTENTIAL TOTALAVG TEMPAVG PRESSURE GPRESSURE VOLUME PRESSAVG GPRESSAVG
ENERGY: 0 3.6994 4.8153 0.7312 0.0000 -10683.1891 1453.2203 0.0000 0.0000 1760.2951 -7460.4279 302.2763 -9220.7230 -7460.4279 302.2763 281.9647 350.0264 29475.7815 281.9647 350.0264
ENERGY: 300000 0.9288 3.5723 3.8812 0.0000 -10514.8595 1379.2603 0.0000 0.0000 1771.8444 -7355.3724 304.2596 -9127.2169 -7419.5191 304.2044 -355.7177 -280.9037 30209.5541 -310.1972 -248.6011
ENERGY: 600000 3.4204 3.4980 2.3565 0.0000 -10577.1247 1367.2609 0.0000 0.0000 1756.1224 -7444.4666 301.5598 -9200.5890 -7448.9202 302.7063 -735.5163 -737.7847 30232.3293 -158.0144 -87.6522
ENERGY: 900000 1.3580 4.6044 3.3444 0.0000 -10622.6244 1374.3992 0.0000 0.0000 1704.6631 -7534.2552 292.7233 -9238.9183 -7469.2566 300.1706 -441.7454 -351.1882 29954.2553 -66.2796 3.0024
ENERGY: 1200000 1.2703 3.3077 2.4778 0.0000 -10657.4943 1425.7207 0.0000 0.0000 1750.9356 -7473.7822 300.6691 -9224.7178 -7467.1273 299.5731 -77.7131 24.6490 30014.1986 -119.7916 -53.1669
ENERGY: 1500000 3.7080 3.5436 0.6218 0.0000 -10631.7530 1430.4272 0.0000 0.0000 1762.9622 -7430.4902 302.7343 -9193.4524 -7461.4686 299.9689 -122.0230 -92.7101 30149.4541 -137.7133 -71.1925
TCL: Running FEP window  10: Lambda1 0.44999999999999996 Lambda2 0.49999999999999994 [dLambda 0.04999999999999999]
TCL: Setting parameter firsttimestep to 0
TCL: Setting parameter alchLambda to 0.44999999999999996
Info: NONBONDED TABLE R-SQUARED SPACING: 0.0625
Info: NONBONDED TABLE SIZE: 705 POINTS
TCL: Setting parameter alchLambda2 to 0.49999999999999994
Info: NONBONDED TABLE R-SQUARED SPACING: 0.0625
Info: NONBONDED TABLE SIZE: 705 POINTS
TCL: Running for 1500000 steps
ETITLE: TS BOND ANGLE DIHED IMPRP ELECT VDW BOUNDARY MISC KINETIC TOTAL TEMP POTENTIAL TOTALAVG TEMPAVG PRESSURE GPRESSURE VOLUME PRESSAVG GPRESSAVG
ENERGY: 0 3.7080 3.5436 0.6218 0.0000 -10631.7533 1430.7655 0.0000 0.0000 1762.0916 -7431.0227 302.5848 -9193.1143 -7431.0227 302.5848 -151.4329 -81.3174 30149.4541 -151.4329 -81.3174
ENERGY: 300000 3.0418 2.5789 1.1849 0.0000 -10673.1748 1415.2181 0.0000 0.0000 1738.5480 -7512.6030 298.5419 -9251.1510 -7465.4093 303.0560 -51.6608 -64.5964 29795.8137 -281.8652 -247.8434
ENERGY: 600000 4.2288 4.5216 1.5568 0.0000 -10776.4244 1553.7127 0.0000 0.0000 1753.5051 -7458.8994 301.1104 -9212.4045 -7458.4013 303.4799 956.9325 1085.5461 29789.1277 20.4176 63.7803
ENERGY: 900000 4.3414 5.6402 0.4331 0.0000 -10633.5931 1414.0308 0.0000 0.0000 1779.5501 -7429.5975 305.5828 -9209.1476 -7469.7685 303.6997 -372.9784 -322.8814 30239.6608 -164.9767 -118.7123
ENERGY: 1200000 1.7624 4.2126 1.9780 0.0000 -10677.4319 1494.1047 0.0000 0.0000 1728.1516 -7447.2225 296.7567 -9175.3742 -7463.7012 301.2450 588.9699 650.8848 29970.5673 -53.5316 -9.9947
ENERGY: 1500000 1.6122 4.4896 2.8163 0.0000 -10742.7844 1507.0345 0.0000 0.0000 1746.0365 -7480.7952 299.8279 -9226.8318 -7453.1906 301.5417 587.4855 632.3447 30074.9859 -19.0683 26.3333
TCL: Running FEP window  11: Lambda1 0.49999999999999994 Lambda2 0.5499999999999999 [dLambda 0.04999999999999999]
TCL: Setting parameter firsttimestep to 0
TCL: Setting parameter alchLambda to 0.49999999999999994
Info: NONBONDED TABLE R-SQUARED SPACING: 0.0625
Info: NONBONDED TABLE SIZE: 705 POINTS
TCL: Setting parameter alchLambda2 to 0.5499999999999999
Info: NONBONDED TABLE R-SQUARED SPACING: 0.0625
Info: NONBONDED TABLE SIZE: 705 POINTS
TCL: Running for 1500000 steps
ETITLE: TS BOND ANGLE DIHED IMPRP ELECT VDW BOUNDARY MISC KINETIC TOTAL TEMP POTENTIAL TOTALAVG TEMPAVG PRESSURE GPRESSURE VOLUME PRESSAVG GPRESSAVG
ENERGY: 0 1.6122 4.4896 2.8163 0.0000 -10742.7853 1506.7987 0.0000 0.0000 1745.2135 -7481.8549 299.6865 -9227.0684 -7481.8549 299.6865 555.0762 635.3815 30074.9859 555.0762 635.3815
ENERGY: 300000 1.0674 4.3975 7.9028 0.0000 -10651.2171 1478.5255 0.0000 0.0000 1750.5982 -7408.7257 300.6112 -9159.3240 -7435.6793 300.2171 560.2146 600.7309 30044.9517 510.3996 556.8309
ENERGY: 600000 5.1313 3.2728 1.0848 0.0000 -10737.2127 1483.6666 0.0000 0.0000 1763.3722 -7480.6850 302.8047 -9244.0573 -7439.9002 300.8343 467.1029 539.2074 30226.3064 210.0752 257.4716
ENERGY: 900000 1.4483 4.7486 0.8148 0.0000 -10649.5851 1475.2258 0.0000 0.0000 1749.1115 -7418.2362 300.3559 -9167.3477 -7438.7453 300.0712 513.4190 549.7264 29856.1964 205.3901 256.6246
ENERGY: 1200000 2.1735 2.0908 0.7643 0.0000 -10647.7993 1388.8329 0.0000 0.0000 1766.6757 -7487.2620 303.3720 -9253.9377 -7440.7142 300.2418 -658.0303 -529.1521 30454.3903 43.1305 108.4462
ENERGY: 1500000 1.2759 2.4950 1.9639 0.0000 -10656.1755 1379.1174 0.0000 0.0000 1799.4194 -7471.9040 308.9947 -9271.3234 -7443.4756 300.6199 -610.1445 -527.7352 30166.0615 15.1305 77.0400
TCL: Running FEP window  12: Lambda1 0.5499999999999999 Lambda2 0.6    [dLambda 0.050000000000000044]
TCL: Setting parameter firsttimestep to 0
TCL: Setting parameter alchLambda to 0.5499999999999999
Info: NONBONDED TABLE R-SQUARED SPACING: 0.0625
Info: NONBONDED TABLE SIZE: 705 POINTS
TCL: Setting parameter alchLambda2 to 0.6
Info: NONBONDED TABLE R-SQUARED SPACING: 0.0625
Info: NONBONDED TABLE SIZE: 705 POINTS
TCL: Running for 1500000 steps
ETITLE: TS BOND ANGLE DIHED IMPRP ELECT VDW BOUNDARY MISC KINETIC TOTAL TEMP POTENTIAL TOTALAVG TEMPAVG PRESSURE GPRESSURE VOLUME PRESSAVG GPRESSAVG
ENERGY: 0 1.2759 2.4950 1.9639 0.0000 -10656.1714 1379.2646 0.0000 0.0000 1798.5888 -7472.5834 308.8521 -9271.1721 -7472.5834 308.8521 -600.1945 -519.2788 30166.0615 -600.1945 -519.2788
ENERGY: 300000 1.7889 4.0054 2.7003 0.0000 -10437.9010 1317.5197 0.0000 0.0000 1690.5406 -7421.3460 290.2982 -9111.8866 -7411.9855 300.9789 -781.3052 -706.6114 30150.1070 -294.3679 -209.1163
ENERGY: 600000 0.6156 2.9810 1.0867 0.0000 -10524.0598 1328.9905 0.0000 0.0000 1701.7042 -7488.6818 292.2152 -9190.3860 -7426.3844 299.1131 -931.0329 -846.0658 30456.6370 -435.1275 -361.9116
ENERGY: 900000 2.9776 4.2881 4.8925 0.0000 -10528.8554 1370.1970 0.0000 0.0000 1772.4784 -7374.0218 304.3684 -9146.5002 -7419.2819 300.8878 -325.5664 -372.9494 30411.3682 -494.5130 -425.4116
ENERGY: 1200000 1.0490 8.0542 1.8321 0.0000 -10481.2331 1334.4784 0.0000 0.0000 1749.3361 -7386.4833 300.3945 -9135.8194 -7413.1402 301.4746 -802.6047 -726.7437 30342.8468 -465.9388 -396.0387
ENERGY: 1500000 5.3262 7.6951 2.2229 0.0000 -10775.6454 1566.6585 0.0000 0.0000 1828.7652 -7364.9774 314.0340 -9193.7426 -7413.7128 302.4405 1280.5515 1236.9527 29522.2896 -365.2443 -301.8603
TCL: Running FEP window  13: Lambda1 0.6    Lambda2 0.65   [dLambda 0.050000000000000044]
TCL: Setting parameter firsttimestep to 0
TCL: Setting parameter alchLambda to 0.6
Info: NONBONDED TABLE R-SQUARED SPACING: 0.0625
Info: NONBONDED TABLE SIZE: 705 POINTS
TCL: Setting parameter alchLambda2 to 0.65
Info: NONBONDED TABLE R-SQUARED SPACING: 0.0625
Info: NONBONDED TABLE SIZE: 705 POINTS
TCL: Running for 1500000 steps
ETITLE: TS BOND ANGLE DIHED IMPRP ELECT VDW BOUNDARY MISC KINETIC TOTAL TEMP POTENTIAL TOTALAVG TEMPAVG PRESSURE GPRESSURE VOLUME PRESSAVG GPRESSAVG
ENERGY: 0 5.3262 7.6951 2.2229 0.0000 -10775.7883 1566.7034 0.0000 0.0000 1827.8570 -7365.9837 313.8780 -9193.8406 -7365.9837 313.8780 1168.4466 1244.5914 29522.2896 1168.4466 1244.5914
ENERGY: 300000 2.2902 5.8008 2.2370 0.0000 -10363.8771 1282.7374 0.0000 0.0000 1753.9563 -7316.8553 301.1878 -9070.8116 -7408.4152 301.6466 -836.8653 -817.5070 30262.0790 -20.0600 36.4840
ENERGY: 600000 3.0305 4.4768 2.0133 0.0000 -10600.6486 1412.7535 0.0000 0.0000 1777.8927 -7400.4819 305.2982 -9178.3746 -7422.1340 302.0618 -164.2473 -170.9145 30154.7274 -51.3624 -5.6593
ENERGY: 900000 1.4486 4.9585 1.8464 0.0000 -10754.1327 1512.6838 0.0000 0.0000 1733.8176 -7499.3778 297.7296 -9233.1953 -7424.2565 302.3431 503.0836 550.9502 30018.7835 -35.4583 14.9571
ENERGY: 1200000 4.2557 4.8000 2.5965 0.0000 -10495.6474 1417.2251 0.0000 0.0000 1740.5922 -7326.1779 298.8930 -9066.7701 -7424.1222 302.1638 114.6913 215.2968 30246.1202 -0.2950 61.1634
ENERGY: 1500000 1.8289 5.1486 1.1424 0.0000 -10617.8607 1398.9083 0.0000 0.0000 1685.1887 -7525.6438 289.3791 -9210.8324 -7437.0057 300.3274 -160.9083 -137.5742 29785.9054 -20.7293 33.6492
TCL: Running FEP window  14: Lambda1 0.65   Lambda2 0.7000000000000001 [dLambda 0.050000000000000044]
TCL: Setting parameter firsttimestep to 0
TCL: Setting parameter alchLambda to 0.65
Info: NONBONDED TABLE R-SQUARED SPACING: 0.0625
Info: NONBONDED TABLE SIZE: 705 POINTS
TCL: Setting parameter alchLambda2 to 0.7000000000000001
Info: NONBONDED TABLE R-SQUARED SPACING: 0.0625
Info: NONBONDED TABLE SIZE: 705 POINTS
TCL: Running for 1500000 steps
ETITLE: TS BOND ANGLE DIHED IMPRP ELECT VDW BOUNDARY MISC KINETIC TOTAL TEMP POTENTIAL TOTALAVG TEMPAVG PRESSURE GPRESSURE VOLUME PRESSAVG GPRESSAVG
ENERGY: 0 1.8289 5.1486 1.1424 0.0000 -10617.9733 1398.6730 0.0000 0.0000 1684.3290 -7526.8515 289.2315 -9211.1804 -7526.8515 289.2315 -206.7857 -131.7133 29785.9054 -206.7857 -131.7133
ENERGY: 300000 1.9986 2.4951 1.2064 0.0000 -10703.0694 1440.0217 0.0000 0.0000 1724.1804 -7533.1673 296.0748 -9257.3477 -7492.0435 295.3470 125.8344 172.4785 29745.4711 -109.8931 -61.0370
ENERGY: 600000 2.4247 4.5783 1.9301 0.0000 -10431.1550 1359.8058 0.0000 0.0000 1698.7321 -7363.6840 291.7048 -9062.4161 -7446.1822 296.4852 -647.1591 -540.4789 31107.1220 -207.7500 -158.5692
ENERGY: 900000 2.5372 4.5764 3.4765 0.0000 -10630.7921 1390.2220 0.0000 0.0000 1717.9029 -7512.0771 294.9968 -9229.9799 -7452.2769 297.2972 -703.6350 -695.2372 30349.3703 -175.4644 -136.2706
ENERGY: 1200000 2.9819 3.9399 1.4725 0.0000 -10584.5200 1369.3567 0.0000 0.0000 1738.5545 -7468.2146 298.5430 -9206.7690 -7454.9675 297.9715 -540.5670 -467.0061 29987.8936 -210.3811 -168.0015
ENERGY: 1500000 0.8744 3.4339 5.6058 0.0000 -10552.9976 1335.8189 0.0000 0.0000 1760.5255 -7446.7392 302.3159 -9207.2646 -7453.7361 297.9011 -538.2176 -539.9046 30218.5219 -194.2106 -152.5350
TCL: Running FEP window  15: Lambda1 0.7000000000000001 Lambda2 0.7500000000000001 [dLambda 0.050000000000000044]
TCL: Setting parameter firsttimestep to 0
TCL: Setting parameter alchLambda to 0.7000000000000001
Info: NONBONDED TABLE R-SQUARED SPACING: 0.0625
Info: NONBONDED TABLE SIZE: 705 POINTS
TCL: Setting parameter alchLambda2 to 0.7500000000000001
Info: NONBONDED TABLE R-SQUARED SPACING: 0.0625
Info: NONBONDED TABLE SIZE: 705 POINTS
TCL: Running for 1500000 steps
ETITLE: TS BOND ANGLE DIHED IMPRP ELECT VDW BOUNDARY MISC KINETIC TOTAL TEMP POTENTIAL TOTALAVG TEMPAVG PRESSURE GPRESSURE VOLUME PRESSAVG GPRESSAVG
ENERGY: 0 0.8744 3.4339 5.6058 0.0000 -10553.3149 1335.9482 0.0000 0.0000 1759.6515 -7447.8012 302.1658 -9207.4527 -7447.8012 302.1658 -611.0354 -535.2220 30218.5219 -611.0354 -535.2220
ENERGY: 300000 1.0979 1.6022 2.9072 0.0000 -10590.9923 1382.7052 0.0000 0.0000 1698.3896 -7504.2902 291.6460 -9202.6798 -7459.2252 300.9121 -412.0718 -336.2795 30200.6642 -356.2802 -290.3960
ENERGY: 600000 2.7400 1.9538 2.9726 0.0000 -10685.5922 1484.7490 0.0000 0.0000 1745.7177 -7447.4592 299.7731 -9193.1769 -7440.9249 301.5134 268.2332 320.6114 30288.6096 -101.0739 -46.3253
ENERGY: 900000 2.6333 4.0438 2.6291 0.0000 -10779.1274 1434.3576 0.0000 0.0000 1708.5193 -7626.9444 293.3854 -9335.4637 -7466.3354 300.7381 -277.2033 -213.3428 30006.8895 -37.7687 15.7887
ENERGY: 1200000 2.3673 5.1266 2.3097 0.0000 -10537.3024 1368.6877 0.0000 0.0000 1721.1621 -7437.6490 295.5565 -9158.8111 -7456.0746 300.1905 -523.2395 -508.0466 30491.8767 -94.7740 -40.8709
ENERGY: 1500000 1.1851 4.5115 2.3163 0.0000 -10753.4355 1491.2629 0.0000 0.0000 1715.3384 -7538.8212 294.5564 -9254.1596 -7459.3840 299.9113 326.8013 404.8693 30207.2293 -70.8900 -11.2745
TCL: Running FEP window  16: Lambda1 0.7500000000000001 Lambda2 0.8000000000000002 [dLambda 0.050000000000000044]
TCL: Setting parameter firsttimestep to 0
TCL: Setting parameter alchLambda to 0.7500000000000001
Info: NONBONDED TABLE R-SQUARED SPACING: 0.0625
Info: NONBONDED TABLE SIZE: 705 POINTS
TCL: Setting parameter alchLambda2 to 0.8000000000000002
Info: NONBONDED TABLE R-SQUARED SPACING: 0.0625
Info: NONBONDED TABLE SIZE: 705 POINTS
TCL: Running for 1500000 steps
ETITLE: TS BOND ANGLE DIHED IMPRP ELECT VDW BOUNDARY MISC KINETIC TOTAL TEMP POTENTIAL TOTALAVG TEMPAVG PRESSURE GPRESSURE VOLUME PRESSAVG GPRESSAVG
ENERGY: 0 1.1851 4.5115 2.3163 0.0000 -10753.9270 1491.0607 0.0000 0.0000 1714.4805 -7540.3728 294.4091 -9254.8533 -7540.3728 294.4091 321.3806 407.6592 30207.2293 321.3806 407.6592
ENERGY: 300000 2.1478 8.8215 1.1936 0.0000 -10666.8284 1447.9858 0.0000 0.0000 1787.1598 -7419.5200 306.8895 -9206.6798 -7447.0685 305.4663 40.7060 133.7216 30241.4496 511.7485 612.2137
ENERGY: 600000 1.2763 2.5826 3.7161 0.0000 -10618.3770 1403.1903 0.0000 0.0000 1739.7283 -7467.8835 298.7446 -9207.6118 -7448.4811 302.9798 -373.9411 -351.2264 30365.8832 139.2391 216.3133
ENERGY: 900000 1.5672 3.1643 2.0035 0.0000 -10637.4246 1442.1253 0.0000 0.0000 1754.5355 -7434.0288 301.2873 -9188.5643 -7453.9000 301.9019 138.3345 191.7373 30208.3446 37.5589 106.2712
ENERGY: 1200000 0.3215 2.6632 2.4391 0.0000 -10718.3296 1402.0695 0.0000 0.0000 1762.6730 -7548.1633 302.6847 -9310.8363 -7452.4967 301.7247 -636.3428 -563.6453 30074.1481 -89.0612 -22.7091
ENERGY: 1500000 1.0221 4.2851 2.5007 0.0000 -10660.7494 1411.7120 0.0000 0.0000 1714.7643 -7526.4651 294.4578 -9241.2295 -7462.5318 300.9369 -287.4110 -238.7414 30110.7619 -95.2761 -32.7249
TCL: Running FEP window  17: Lambda1 0.8000000000000002 Lambda2 0.8500000000000002 [dLambda 0.050000000000000044]
TCL: Setting parameter firsttimestep to 0
TCL: Setting parameter alchLambda to 0.8000000000000002
Info: NONBONDED TABLE R-SQUARED SPACING: 0.0625
Info: NONBONDED TABLE SIZE: 705 POINTS
TCL: Setting parameter alchLambda2 to 0.8500000000000002
Info: NONBONDED TABLE R-SQUARED SPACING: 0.0625
Info: NONBONDED TABLE SIZE: 705 POINTS
TCL: Running for 1500000 steps
ETITLE: TS BOND ANGLE DIHED IMPRP ELECT VDW BOUNDARY MISC KINETIC TOTAL TEMP POTENTIAL TOTALAVG TEMPAVG PRESSURE GPRESSURE VOLUME PRESSAVG GPRESSAVG
ENERGY: 0 1.0221 4.2851 2.5007 0.0000 -10661.4540 1411.5781 0.0000 0.0000 1713.8866 -7528.1815 294.3071 -9242.0681 -7528.1815 294.3071 -310.1764 -231.9783 30110.7619 -310.1764 -231.9783
ENERGY: 300000 2.4649 3.7603 2.7814 0.0000 -10714.6912 1441.5330 0.0000 0.0000 1723.3016 -7540.8500 295.9238 -9264.1516 -7499.6491 297.5354 -79.7806 -71.7525 30081.1702 -56.4564 5.2315
ENERGY: 600000 1.2700 4.0153 4.7556 0.0000 -10585.8483 1431.1794 0.0000 0.0000 1745.4549 -7399.1732 299.7280 -9144.6281 -7477.8448 299.0509 20.0000 61.4767 30381.5101 -57.4561 15.7088
ENERGY: 900000 2.1545 3.3084 2.0308 0.0000 -10587.6984 1305.8938 0.0000 0.0000 1756.8994 -7517.4114 301.6932 -9274.3108 -7478.2360 299.1637 -1224.3017 -1182.7362 30139.0842 -279.3100 -214.1484
ENERGY: 1200000 1.9461 4.1545 1.7462 0.0000 -10706.6273 1437.4018 0.0000 0.0000 1739.7152 -7521.6634 298.7424 -9261.3787 -7481.3936 299.4101 93.6803 161.7427 29558.8386 -182.9649 -116.7355
ENERGY: 1500000 3.3106 6.1163 3.7774 0.0000 -10534.2361 1369.0012 0.0000 0.0000 1713.8226 -7438.2080 294.2961 -9152.0306 -7476.9984 299.2070 -509.9890 -426.1760 30137.5313 -182.7318 -115.1949
TCL: Running FEP window  18: Lambda1 0.8500000000000002 Lambda2 0.9000000000000002 [dLambda 0.050000000000000044]
TCL: Setting parameter firsttimestep to 0
TCL: Setting parameter alchLambda to 0.8500000000000002
Info: NONBONDED TABLE R-SQUARED SPACING: 0.0625
Info: NONBONDED TABLE SIZE: 705 POINTS
TCL: Setting parameter alchLambda2 to 0.9000000000000002
Info: NONBONDED TABLE R-SQUARED SPACING: 0.0625
Info: NONBONDED TABLE SIZE: 705 POINTS
TCL: Running for 1500000 steps
ETITLE: TS BOND ANGLE DIHED IMPRP ELECT VDW BOUNDARY MISC KINETIC TOTAL TEMP POTENTIAL TOTALAVG TEMPAVG PRESSURE GPRESSURE VOLUME PRESSAVG GPRESSAVG
ENERGY: 0 3.3106 6.1163 3.7774 0.0000 -10534.7662 1369.7788 0.0000 0.0000 1712.9517 -7438.8314 294.1466 -9151.7831 -7438.8314 294.1466 -490.7517 -408.9682 30137.5313 -490.7517 -408.9682
ENERGY: 300000 0.7447 4.8225 3.5801 0.0000 -10752.9744 1466.1219 0.0000 0.0000 1731.8740 -7545.8313 297.3959 -9277.7053 -7471.3991 300.1819 278.1359 354.6300 29841.7717 -10.9806 48.5599
ENERGY: 600000 1.0650 5.0839 3.4517 0.0000 -10589.1864 1431.1675 0.0000 0.0000 1842.7046 -7305.7137 316.4276 -9148.4183 -7453.8472 302.3948 192.5223 230.8331 30252.7887 -59.7540 0.3858
ENERGY: 900000 2.3460 4.6764 2.2977 0.0000 -10627.5646 1450.8587 0.0000 0.0000 1761.4518 -7405.9340 302.4750 -9167.3858 -7444.8698 302.0972 411.6256 484.0258 29920.8253 24.1820 82.3936
ENERGY: 1200000 1.3443 3.1412 3.8806 0.0000 -10742.5317 1481.1089 0.0000 0.0000 1751.4494 -7501.6072 300.7574 -9253.0567 -7435.8343 301.9744 875.0937 937.8693 29321.2322 34.5942 95.9405
ENERGY: 1500000 3.1552 4.5085 1.9226 0.0000 -10700.3194 1434.3547 0.0000 0.0000 1802.6116 -7453.7668 309.5429 -9256.3784 -7441.7273 302.0867 118.4984 192.4493 29544.9939 12.8109 73.9393
TCL: Running FEP window  19: Lambda1 0.9000000000000002 Lambda2 0.9500000000000003 [dLambda 0.050000000000000044]
TCL: Setting parameter firsttimestep to 0
TCL: Setting parameter alchLambda to 0.9000000000000002
Info: NONBONDED TABLE R-SQUARED SPACING: 0.0625
Info: NONBONDED TABLE SIZE: 705 POINTS
TCL: Setting parameter alchLambda2 to 0.9500000000000003
Info: NONBONDED TABLE R-SQUARED SPACING: 0.0625
Info: NONBONDED TABLE SIZE: 705 POINTS
TCL: Running for 1500000 steps
ETITLE: TS BOND ANGLE DIHED IMPRP ELECT VDW BOUNDARY MISC KINETIC TOTAL TEMP POTENTIAL TOTALAVG TEMPAVG PRESSURE GPRESSURE VOLUME PRESSAVG GPRESSAVG
ENERGY: 0 3.1552 4.5085 1.9226 0.0000 -10701.0414 1434.1901 0.0000 0.0000 1801.7573 -7455.5078 309.3962 -9257.2651 -7455.5078 309.3962 124.9540 198.5966 29544.9939 124.9540 198.5966
ENERGY: 300000 0.8604 4.4113 1.4217 0.0000 -10659.1525 1400.5580 0.0000 0.0000 1722.9658 -7528.9353 295.8662 -9251.9011 -7490.3360 299.7924 -253.8415 -205.5471 30199.0657 -110.3963 -53.4082
ENERGY: 600000 0.6809 3.6863 1.8702 0.0000 -10617.1635 1392.8468 0.0000 0.0000 1755.5764 -7462.5030 301.4660 -9218.0794 -7463.2903 301.4385 -240.9857 -98.3506 29805.1481 -52.6401 24.0235
ENERGY: 900000 2.9295 3.9997 0.5017 0.0000 -10509.5371 1432.6971 0.0000 0.0000 1707.3625 -7362.0466 293.1868 -9069.4090 -7454.4618 300.9100 353.8350 406.6575 30173.7569 -45.6640 25.1737
ENERGY: 1200000 0.8328 7.0199 4.4472 0.0000 -10655.7889 1405.1320 0.0000 0.0000 1758.7110 -7479.6459 302.0043 -9238.3569 -7459.0136 301.1372 -171.8024 -149.3268 29964.8650 -112.7852 -45.7648
ENERGY: 1500000 1.2258 3.8590 3.3764 0.0000 -10756.0173 1479.0738 0.0000 0.0000 1705.0795 -7563.4028 292.7948 -9268.4823 -7470.6802 299.9143 166.8318 246.2847 30094.9593 -109.8800 -46.7454
TCL: Running FEP window  20: Lambda1 0.9500000000000003 Lambda2 1.0    [dLambda 0.04999999999999971]
TCL: Setting parameter firsttimestep to 0
TCL: Setting parameter alchLambda to 0.9500000000000003
Info: NONBONDED TABLE R-SQUARED SPACING: 0.0625
Info: NONBONDED TABLE SIZE: 705 POINTS
TCL: Setting parameter alchLambda2 to 1.0
Info: NONBONDED TABLE R-SQUARED SPACING: 0.0625
Info: NONBONDED TABLE SIZE: 705 POINTS
TCL: Running for 1500000 steps
ETITLE: TS BOND ANGLE DIHED IMPRP ELECT VDW BOUNDARY MISC KINETIC TOTAL TEMP POTENTIAL TOTALAVG TEMPAVG PRESSURE GPRESSURE VOLUME PRESSAVG GPRESSAVG
ENERGY: 0 1.2258 3.8590 3.3764 0.0000 -10757.2070 1479.2587 0.0000 0.0000 1704.2304 -7565.2568 292.6489 -9269.4872 -7565.2568 292.6489 171.7819 257.3960 30094.9593 171.7819 257.3960
ENERGY: 300000 1.6701 4.1546 3.2899 0.0000 -10767.7002 1528.9758 0.0000 0.0000 1726.1910 -7503.4189 296.4200 -9229.6099 -7475.2058 297.6271 729.6420 769.4700 30187.3582 253.8040 330.7579
ENERGY: 600000 1.7925 5.7222 1.5174 0.0000 -10590.5841 1390.4276 0.0000 0.0000 1763.3426 -7427.7818 302.7996 -9191.1244 -7457.3565 299.1514 -518.2684 -448.7351 30446.4331 97.2220 180.4004
ENERGY: 900000 0.7083 1.7183 3.5975 0.0000 -10520.2311 1329.3597 0.0000 0.0000 1762.2336 -7422.6137 302.6092 -9184.8472 -7446.9821 299.9616 -848.7468 -802.8624 30317.0189 -97.0581 -32.8131
ENERGY: 1200000 1.7838 3.2100 1.6786 0.0000 -10624.0805 1406.0229 0.0000 0.0000 1698.5264 -7512.8588 291.6695 -9211.3852 -7445.7530 300.0218 -350.5754 -279.4602 30221.0816 -151.0008 -82.9654
ENERGY: 1500000 3.1712 3.6098 2.1950 0.0000 -10618.1039 1468.3627 0.0000 0.0000 1703.0659 -7437.6993 292.4490 -9140.7652 -7436.9530 300.0322 353.4174 375.3268 30304.8093 -191.1678 -124.9005
TCL: Exiting due to exit command.
