Info: SIMULATION PARAMETERS:
Info: TIMESTEP               2
Info: NUMBER OF STEPS        0
Info: STEPS PER CYCLE        10
Info: PERIODIC CELL BASIS 1  29.9203 0 0
Info: PERIODIC CELL BASIS 2  0 32.8435 0
Info: PERIODIC CELL BASIS 3  0 0 30.5737
Info: PERIODIC CELL CENTER   0 0 0
Info: WRAPPING WATERS AROUND PERIODIC BOUNDARIES ON OUTPUT.
Info: WRAPPING ALL CLUSTERS AROUND PERIODIC BOUNDARIES ON OUTPUT.
Info: FIRST LDB TIMESTEP     50
Info: LAST LDB TIMESTEP     -1
Info: HOM BACKGROUND SCALING 1
Info: PME BACKGROUND SCALING 1
Info: MIN ATOMS PER PATCH    40
Info: EMPTY PATCH LOAD       40 ATOMS
Info: VELOCITY FILE          mobley_5094777_equil.vel
Info: CENTER OF MASS MOVING INITIALLY? NO
Info: DIELECTRIC             1
Info: EXCLUDE                SCALED ONE-FOUR
Info: 1-4 ELECTROSTATICS SCALED BY 0.833333
Info: MODIFIED 1-4 VDW PARAMETERS WILL BE USED
Info: DCD FILENAME           mobley_5094777_prod.dcd
Info: DCD FREQUENCY          100000
Info: DCD FIRST STEP         100000
Info: DCD FILE WILL CONTAIN UNIT CELL DATA
Info: XST FILENAME           mobley_5094777_prod.xst
Info: XST FREQUENCY          100000
Info: NO VELOCITY DCD OUTPUT
Info: NO FORCE DCD OUTPUT
Info: OUTPUT FILENAME        mobley_5094777_prod
Info: BINARY OUTPUT FILES WILL BE USED
Info: RESTART FILENAME       mobley_5094777_prod.restart
Info: RESTART FREQUENCY      100000
Info: BINARY RESTART FILES WILL BE USED
Info: CUTOFF                 9
Info: PAIRLIST DISTANCE      11
Info: PAIRLIST SHRINK RATE   0.01
Info: PAIRLIST GROW RATE     0.01
Info: PAIRLIST TRIGGER       0.3
Info: PAIRLISTS PER CYCLE    2
Info: PAIRLISTS ENABLED
Info: MARGIN                 2
Info: HYDROGEN GROUP CUTOFF  2.5
Info: PATCH DIMENSION        15.5
Info: ENERGY OUTPUT STEPS    100000
Info: ENERGY EVALUATION STEPS    100000
Info: OUTPUT ENERGY PRECISION 4
Info: CROSSTERM ENERGY INCLUDED IN DIHEDRAL
Info: TIMING OUTPUT STEPS    1000000
Info: PRESSURE OUTPUT STEPS  100000
Info: ALCHEMICAL FEP ON
Info: FEP CURRENT LAMBDA VALUE     1
Info: FEP COMPARISON LAMBDA VALUE  0.95
Info: FEP INTRA-ALCHEMICAL NON-BONDED INTERACTIONS WILL BE RETAINED
Info: FEP INTRA-ALCHEMICAL BONDED INTERACTIONS WILL BE RETAINED
Info: FEP VDW SHIFTING COEFFICIENT 5
Info: FEP ELEC. ACTIVE FOR ANNIHILATED PARTICLES BETWEEN LAMBDA = 0 AND LAMBDA = 0.5
Info: FEP ELEC. ACTIVE FOR EXNIHILATED PARTICLES BETWEEN LAMBDA = 0.5 AND LAMBDA = 1
Info: FEP VDW ACTIVE FOR ANNIHILATED PARTICLES BETWEEN LAMBDA = 0 AND LAMBDA = 1
Info: FEP VDW ACTIVE FOR EXNIHILATED PARTICLES BETWEEN LAMBDA = 0 AND LAMBDA = 1
Info: FEP BOND ACTIVE FOR ANNIHILATED PARTICLES BETWEEN LAMBDA = 1 AND LAMBDA = 1
Info: FEP BOND ACTIVE FOR EXNIHILATED PARTICLES BETWEEN LAMBDA = 0 AND LAMBDA = 0
Info: LANGEVIN DYNAMICS ACTIVE
Info: LANGEVIN TEMPERATURE   300
Info: LANGEVIN USING BBK INTEGRATOR
Info: LANGEVIN DAMPING COEFFICIENT IS 1 INVERSE PS
Info: LANGEVIN DYNAMICS APPLIED TO HYDROGENS
Info: LANGEVIN PISTON PRESSURE CONTROL ACTIVE
Info:        TARGET PRESSURE IS 1.01325 BAR
Info:     OSCILLATION PERIOD IS 50 FS
Info:             DECAY TIME IS 25 FS
Info:     PISTON TEMPERATURE IS 300 K
Info:       PRESSURE CONTROL IS GROUP-BASED
Info:    INITIAL STRAIN RATE IS -0.000360223 -0.000360223 -0.000360223
Info:       CELL FLUCTUATION IS ISOTROPIC
Info: PARTICLE MESH EWALD (PME) ACTIVE
Info: PME TOLERANCE               1e-06
Info: PME EWALD COEFFICIENT       0.348832
Info: PME INTERPOLATION ORDER     4
Info: PME GRID DIMENSIONS         32 36 32
Info: PME MAXIMUM GRID SPACING    1
Info: PME CALCULATION WILL BE PERFORMED ON GPU
Info: FULL ELECTROSTATIC EVALUATION FREQUENCY      2
Info: USING VERLET I (r-RESPA) MTS SCHEME.
Info: C1 SPLITTING OF LONG RANGE ELECTROSTATICS
Info: PLACING ATOMS IN PATCHES BY HYDROGEN GROUPS
Info: RIGID BONDS TO HYDROGEN : ALL
Info:         ERROR TOLERANCE : 1e-08
Info:          MAX ITERATIONS : 100
Info: RIGID WATER USING SETTLE ALGORITHM
Info: RANDOM NUMBER SEED     1743623861
Info: USE HYDROGEN BONDS?    NO
Info: Using AMBER format force field!
Info: AMBER PARM FILE        mobley_5094777.prmtop
Info: COORDINATE PDB         mobley_5094777.pdb
Info: Exclusions will be read from PARM file!
Info: SCNB (VDW SCALING)     2
Info: USING ARITHMETIC MEAN TO COMBINE L-J SIGMA PARAMETERS
Info: BINARY COORDINATES     mobley_5094777_equil.coor
Info: SUMMARY OF PARAMETERS:
Info: 7 BONDS
Info: 8 ANGLES
Info:   8 HARMONIC
Info:   0 COSINE-BASED
Info: 6 DIHEDRAL
Info: 0 IMPROPER
Info: 0 CROSSTERM
Info: 0 VDW
Info: 21 VDW_PAIRS
Info: 0 NBTHOLE_PAIRS
Info: To read alchdata from file: mobley_5094777.pdb
Info: To read alchflag data from column: 5
Info: STRUCTURE SUMMARY:
Info: 2932 ATOMS
Info: 2933 BONDS
Info: 36 ANGLES
Info: 60 DIHEDRALS
Info: 0 IMPROPERS
Info: 0 CROSSTERMS
Info: 3015 EXCLUSIONS
Info: 2923 RIGID BONDS
Info: ALCH: 0 ATOMS TO DISAPPEAR IN FINAL STATE
Info: ALCH: 19 ATOMS TO APPEAR IN FINAL STATE
Info: 5873 DEGREES OF FREEDOM
Info: 980 HYDROGEN GROUPS
Info: 3 ATOMS IN LARGEST HYDROGEN GROUP
Info: 980 MIGRATION GROUPS
Info: 3 ATOMS IN LARGEST MIGRATION GROUP
Info: TOTAL MASS = 17611.7 amu
Info: TOTAL CHARGE = 0.000100002 e
Info: MASS DENSITY = 0.97341 g/cm^3
Info: ATOM DENSITY = 0.0975886 atoms/A^3
Info: ADDED 0 IMPLICIT EXCLUSIONS
Info: NONBONDED TABLE R-SQUARED SPACING: 0.0625
Info: NONBONDED TABLE SIZE: 705 POINTS
Info: REMOVING COM VELOCITY 0.219561 -0.00674893 0.0318561
Info: Use 3D box decompostion in PME FFT.
Info: Updated CUDA force table with 4096 elements.
Info: Updated CUDA LJ table with 6 x 6 elements.
Info: Found 21 unique exclusion lists needing 52 bytes
TCL: Running for 1500000 steps
ETITLE: TS BOND ANGLE DIHED IMPRP ELECT VDW BOUNDARY MISC KINETIC TOTAL TEMP POTENTIAL TOTALAVG TEMPAVG PRESSURE GPRESSURE VOLUME PRESSAVG GPRESSAVG
ENERGY: 0 5.2635 14.4681 7.1432 0.0000 -10659.3482 1458.4088 0.0000 0.0000 1721.0598 -7453.0048 294.9350 -9174.0646 -7453.0048 294.9350 242.2885 327.4854 30044.4900 242.2885 327.4854
ENERGY: 300000 2.8358 14.9435 6.0626 0.0000 -10821.5908 1511.8399 0.0000 0.0000 1778.9522 -7506.9568 304.8559 -9285.9090 -7446.4475 301.5038 482.7780 576.5570 29993.4009 157.0684 229.3023
ENERGY: 600000 3.3606 14.8049 5.6342 0.0000 -10588.9261 1405.7563 0.0000 0.0000 1753.2170 -7406.1531 300.4457 -9159.3701 -7405.4840 301.1529 -180.7893 -81.7260 30184.9579 41.1275 114.8508
ENERGY: 900000 3.8628 17.4045 6.6677 0.0000 -10639.7757 1350.2458 0.0000 0.0000 1740.0969 -7521.4980 298.1974 -9261.5949 -7413.6731 301.7498 -705.1303 -682.9516 29973.3662 -36.3210 23.9856
ENERGY: 1200000 3.8311 13.5717 7.2793 0.0000 -10735.8440 1456.9148 0.0000 0.0000 1730.5514 -7523.6956 296.5616 -9254.2471 -7424.0863 300.4935 131.4255 202.1105 29868.6132 72.7821 127.2982
ENERGY: 1500000 1.0475 15.5126 6.0516 0.0000 -10666.9560 1484.8388 0.0000 0.0000 1769.9148 -7389.5908 303.3072 -9159.5056 -7411.4945 300.6802 471.4601 462.0068 30704.5899 141.5449 191.7297
TCL: Running FEP window   2: Lambda1 0.95   Lambda2 0.8999999999999999 [dLambda -0.050000000000000044]
TCL: Setting parameter firsttimestep to 0
TCL: Setting parameter alchLambda to 0.95
Info: NONBONDED TABLE R-SQUARED SPACING: 0.0625
Info: NONBONDED TABLE SIZE: 705 POINTS
TCL: Setting parameter alchLambda2 to 0.8999999999999999
Info: NONBONDED TABLE R-SQUARED SPACING: 0.0625
Info: NONBONDED TABLE SIZE: 705 POINTS
TCL: Running for 1500000 steps
ETITLE: TS BOND ANGLE DIHED IMPRP ELECT VDW BOUNDARY MISC KINETIC TOTAL TEMP POTENTIAL TOTALAVG TEMPAVG PRESSURE GPRESSURE VOLUME PRESSAVG GPRESSAVG
ENERGY: 0 1.0475 15.5126 6.0516 0.0000 -10666.1873 1485.1286 0.0000 0.0000 1769.0305 -7389.4166 303.1557 -9158.4471 -7389.4166 303.1557 372.0087 451.6727 30704.5899 372.0087 451.6727
ENERGY: 300000 2.5706 12.5913 8.6039 0.0000 -10531.5725 1416.1143 0.0000 0.0000 1804.3602 -7287.3323 309.2101 -9091.6925 -7361.4138 305.5979 306.7620 329.0580 30162.8850 36.2483 81.8498
ENERGY: 600000 3.4149 14.9952 4.4076 0.0000 -10651.4307 1410.2735 0.0000 0.0000 1722.1892 -7496.1503 295.1286 -9218.3395 -7401.9571 301.6938 -196.7706 -110.8190 29978.7500 -164.1571 -109.5905
ENERGY: 900000 2.5477 16.1391 8.0142 0.0000 -10549.2250 1385.3461 0.0000 0.0000 1790.8192 -7346.3587 306.8896 -9137.1779 -7403.6952 300.8510 -384.6827 -303.4748 30298.5675 -172.7553 -111.0651
ENERGY: 1200000 3.1229 16.2934 8.4219 0.0000 -10591.3519 1469.8281 0.0000 0.0000 1732.2106 -7361.4750 296.8459 -9093.6856 -7393.8232 301.6324 383.1567 481.5897 30392.3643 -170.3710 -106.5167
ENERGY: 1500000 6.4521 14.9280 10.1257 0.0000 -10634.9348 1363.7524 0.0000 0.0000 1711.6244 -7528.0523 293.3181 -9239.6767 -7417.7334 300.4250 -968.6249 -932.5050 30444.1515 -211.8728 -144.9319
TCL: Running FEP window   3: Lambda1 0.8999999999999999 Lambda2 0.8499999999999999 [dLambda -0.050000000000000044]
TCL: Setting parameter firsttimestep to 0
TCL: Setting parameter alchLambda to 0.8999999999999999
Info: NONBONDED TABLE R-SQUARED SPACING: 0.0625
Info: NONBONDED TABLE SIZE: 705 POINTS
TCL: Setting parameter alchLambda2 to 0.8499999999999999
Info: NONBONDED TABLE R-SQUARED SPACING: 0.0625
Info: NONBONDED TABLE SIZE: 705 POINTS
TCL: Running for 1500000 steps
ETITLE: TS BOND ANGLE DIHED IMPRP ELECT VDW BOUNDARY MISC KINETIC TOTAL TEMP POTENTIAL TOTALAVG TEMPAVG PRESSURE GPRESSURE VOLUME PRESSAVG GPRESSAVG
ENERGY: 0 6.4521 14.9280 10.1257 0.0000 -10634.5962 1363.3030 0.0000 0.0000 1710.7761 -7529.0114 293.1727 -9239.7875 -7529.0114 293.1727 -1023.0177 -953.9650 30444.1515 -1023.0177 -953.9650
ENERGY: 300000 2.5839 12.0411 7.7848 0.0000 -10749.4539 1521.6348 0.0000 0.0000 1805.0599 -7400.3494 309.3300 -9205.4093 -7411.9940 300.8374 640.2504 732.9207 30199.1340 -162.5038 -121.7269
ENERGY: 600000 2.5498 16.8868 9.7282 0.0000 -10559.8794 1417.9435 0.0000 0.0000 1761.2004 -7351.5707 301.8139 -9112.7712 -7382.9616 301.9201 25.9614 124.8646 30242.2770 -27.3434 16.2773
ENERGY: 900000 2.9143 15.2917 8.1321 0.0000 -10623.7782 1474.3568 0.0000 0.0000 1756.1753 -7366.9079 300.9527 -9123.0832 -7377.4229 301.9479 935.7702 991.0690 29802.7112 202.5273 255.8517
ENERGY: 1200000 1.6334 14.3700 8.3204 0.0000 -10525.5711 1346.6061 0.0000 0.0000 1757.2964 -7397.3449 301.1448 -9154.6413 -7385.7089 300.9024 -631.2410 -561.7454 30377.8880 34.6186 95.3698
ENERGY: 1500000 4.4011 17.7538 10.9209 0.0000 -10802.5355 1566.6770 0.0000 0.0000 1744.9001 -7457.8827 299.0205 -9202.7828 -7396.0088 299.8394 771.8786 902.8239 29974.5671 19.7014 87.7693
TCL: Running FEP window   4: Lambda1 0.8499999999999999 Lambda2 0.7999999999999998 [dLambda -0.050000000000000044]
TCL: Setting parameter firsttimestep to 0
TCL: Setting parameter alchLambda to 0.8499999999999999
Info: NONBONDED TABLE R-SQUARED SPACING: 0.0625
Info: NONBONDED TABLE SIZE: 705 POINTS
TCL: Setting parameter alchLambda2 to 0.7999999999999998
Info: NONBONDED TABLE R-SQUARED SPACING: 0.0625
Info: NONBONDED TABLE SIZE: 705 POINTS
TCL: Running for 1500000 steps
ETITLE: TS BOND ANGLE DIHED IMPRP ELECT VDW BOUNDARY MISC KINETIC TOTAL TEMP POTENTIAL TOTALAVG TEMPAVG PRESSURE GPRESSURE VOLUME PRESSAVG GPRESSAVG
ENERGY: 0 4.4011 17.7538 10.9209 0.0000 -10802.2021 1566.8522 0.0000 0.0000 1744.0421 -7458.2321 298.8735 -9202.2742 -7458.2321 298.8735 812.1139 894.2386 29974.5671 812.1139 894.2386
ENERGY: 300000 3.9413 13.4157 7.0206 0.0000 -10692.2846 1458.5770 0.0000 0.0000 1687.0119 -7522.3181 289.1003 -9209.3300 -7419.4025 297.8038 -118.1213 -48.3475 30367.4224 231.1595 289.2766
ENERGY: 600000 2.0543 18.3868 5.8472 0.0000 -10661.3010 1378.3676 0.0000 0.0000 1783.7000 -7472.9451 305.6696 -9256.6450 -7412.8226 299.2100 -554.8259 -455.4186 30152.9528 -26.4668 38.0679
ENERGY: 900000 3.2922 14.2934 7.4384 0.0000 -10560.9406 1405.5548 0.0000 0.0000 1779.8556 -7350.5063 305.0107 -9130.3618 -7406.9103 300.1105 -293.4617 -159.8175 30415.4163 -20.9900 54.9972
ENERGY: 1200000 5.4542 17.6065 6.0762 0.0000 -10570.0194 1378.3666 0.0000 0.0000 1744.6167 -7417.8991 298.9719 -9162.5158 -7405.0578 300.1615 -746.1433 -692.7188 30671.5784 -43.8741 25.1997
ENERGY: 1500000 3.6422 24.1201 2.8810 0.0000 -10685.6481 1493.2506 0.0000 0.0000 1693.5096 -7468.2446 290.2138 -9161.7542 -7407.5496 299.6670 842.0450 892.7879 29510.8032 87.0282 160.8218
TCL: Running FEP window   5: Lambda1 0.7999999999999998 Lambda2 0.7499999999999998 [dLambda -0.050000000000000044]
TCL: Setting parameter firsttimestep to 0
TCL: Setting parameter alchLambda to 0.7999999999999998
Info: NONBONDED TABLE R-SQUARED SPACING: 0.0625
Info: NONBONDED TABLE SIZE: 705 POINTS
TCL: Setting parameter alchLambda2 to 0.7499999999999998
Info: NONBONDED TABLE R-SQUARED SPACING: 0.0625
Info: NONBONDED TABLE SIZE: 705 POINTS
TCL: Running for 1500000 steps
ETITLE: TS BOND ANGLE DIHED IMPRP ELECT VDW BOUNDARY MISC KINETIC TOTAL TEMP POTENTIAL TOTALAVG TEMPAVG PRESSURE GPRESSURE VOLUME PRESSAVG GPRESSAVG
ENERGY: 0 3.6422 24.1201 2.8810 0.0000 -10685.0752 1493.4398 0.0000 0.0000 1692.6470 -7468.3451 290.0660 -9160.9921 -7468.3451 290.0660 803.1267 884.4977 29510.8032 803.1267 884.4977
ENERGY: 300000 3.8484 16.3839 5.5857 0.0000 -10655.4699 1488.2189 0.0000 0.0000 1851.1878 -7290.2452 317.2348 -9141.4330 -7405.1513 298.1810 383.3382 485.3846 30349.1977 152.5515 226.6637
ENERGY: 600000 3.1151 15.0137 8.4744 0.0000 -10466.8918 1368.0115 0.0000 0.0000 1746.8434 -7325.4337 299.3535 -9072.2770 -7410.4788 297.9054 -271.7612 -236.6529 30268.4797 -18.6879 49.9105
ENERGY: 900000 4.0642 14.7768 4.1930 0.0000 -10689.5109 1402.4488 0.0000 0.0000 1743.5988 -7520.4293 298.7975 -9264.0281 -7419.3785 296.9711 -469.3116 -398.2533 30245.7637 -163.6074 -88.0326
ENERGY: 1200000 3.0570 17.1087 4.1363 0.0000 -10573.3538 1406.1789 0.0000 0.0000 1744.7330 -7398.1399 298.9919 -9142.8729 -7420.5486 296.4780 -517.2710 -396.9424 30983.9645 -251.1701 -174.2396
ENERGY: 1500000 1.7210 16.3349 6.3964 0.0000 -10512.8332 1390.8241 0.0000 0.0000 1767.0768 -7330.4799 302.8209 -9097.5568 -7413.2649 297.0697 -255.0376 -143.4654 30226.7755 -181.2131 -101.7448
TCL: Running FEP window   6: Lambda1 0.7499999999999998 Lambda2 0.6999999999999997 [dLambda -0.050000000000000044]
TCL: Setting parameter firsttimestep to 0
TCL: Setting parameter alchLambda to 0.7499999999999998
Info: NONBONDED TABLE R-SQUARED SPACING: 0.0625
Info: NONBONDED TABLE SIZE: 705 POINTS
TCL: Setting parameter alchLambda2 to 0.6999999999999997
Info: NONBONDED TABLE R-SQUARED SPACING: 0.0625
Info: NONBONDED TABLE SIZE: 705 POINTS
TCL: Running for 1500000 steps
ETITLE: TS BOND ANGLE DIHED IMPRP ELECT VDW BOUNDARY MISC KINETIC TOTAL TEMP POTENTIAL TOTALAVG TEMPAVG PRESSURE GPRESSURE VOLUME PRESSAVG GPRESSAVG
ENERGY: 0 1.7210 16.3349 6.3964 0.0000 -10512.4735 1391.2902 0.0000 0.0000 1766.2206 -7330.5103 302.6741 -9096.7309 -7330.5103 302.6741 -245.6534 -145.5698 30226.7755 -245.6534 -145.5698
ENERGY: 300000 2.2516 17.2826 5.6101 0.0000 -10540.2676 1368.1036 0.0000 0.0000 1724.1184 -7422.9014 295.4592 -9147.0197 -7410.5438 298.5182 -509.7683 -395.5360 30070.5109 -234.7855 -147.8144
ENERGY: 600000 1.7297 15.2205 7.9772 0.0000 -10629.0213 1489.0976 0.0000 0.0000 1721.3694 -7393.6268 294.9881 -9114.9962 -7427.8056 299.0492 598.2324 666.5460 29996.1219 11.2274 74.3260
ENERGY: 900000 5.5316 16.7878 7.6221 0.0000 -10529.7149 1445.4849 0.0000 0.0000 1696.4048 -7357.8836 290.7099 -9054.2885 -7424.6096 297.1148 117.6810 187.5402 30555.6237 -62.0105 -5.3877
ENERGY: 1200000 3.1142 20.0165 4.9752 0.0000 -10577.0446 1405.4537 0.0000 0.0000 1729.9227 -7413.5623 296.4538 -9143.4850 -7429.7056 296.5281 -73.5247 -58.4120 30196.0225 -55.2320 -0.0439
ENERGY: 1500000 3.6040 15.5580 7.1854 0.0000 -10814.4340 1580.7891 0.0000 0.0000 1776.1764 -7431.1211 304.3803 -9207.2975 -7422.5148 297.5177 1293.7851 1273.9411 29971.9141 60.4400 103.9994
TCL: Running FEP window   7: Lambda1 0.6999999999999997 Lambda2 0.6499999999999997 [dLambda -0.050000000000000044]
TCL: Setting parameter firsttimestep to 0
TCL: Setting parameter alchLambda to 0.6999999999999997
Info: NONBONDED TABLE R-SQUARED SPACING: 0.0625
Info: NONBONDED TABLE SIZE: 705 POINTS
TCL: Setting parameter alchLambda2 to 0.6499999999999997
Info: NONBONDED TABLE R-SQUARED SPACING: 0.0625
Info: NONBONDED TABLE SIZE: 705 POINTS
TCL: Running for 1500000 steps
ETITLE: TS BOND ANGLE DIHED IMPRP ELECT VDW BOUNDARY MISC KINETIC TOTAL TEMP POTENTIAL TOTALAVG TEMPAVG PRESSURE GPRESSURE VOLUME PRESSAVG GPRESSAVG
ENERGY: 0 3.6040 15.5579 7.1854 0.0000 -10814.5259 1581.5210 0.0000 0.0000 1775.3084 -7431.3493 304.2315 -9206.6576 -7431.3493 304.2315 1188.7985 1272.6787 29971.9141 1188.7985 1272.6787
ENERGY: 300000 2.9589 14.4311 8.1636 0.0000 -10568.1258 1409.0737 0.0000 0.0000 1723.8806 -7409.6179 295.4184 -9133.4985 -7422.6987 297.7456 244.8804 240.1911 29601.9279 335.2676 406.7601
ENERGY: 600000 5.8166 13.8739 9.0391 0.0000 -10659.3358 1474.9647 0.0000 0.0000 1725.1690 -7430.4724 295.6392 -9155.6414 -7425.4771 297.7101 204.6857 213.1031 30795.1226 196.3986 255.3831
ENERGY: 900000 1.6750 14.9389 3.8935 0.0000 -10638.9457 1407.8597 0.0000 0.0000 1762.3956 -7448.1831 302.0187 -9210.5787 -7424.0625 298.5498 -223.9274 -145.4044 29857.8155 237.3222 291.7735
ENERGY: 1200000 4.8002 13.8129 7.9348 0.0000 -10505.4443 1307.2362 0.0000 0.0000 1705.3693 -7466.2910 292.2462 -9171.6602 -7424.4552 298.6014 -961.8803 -894.1817 29994.7955 94.9130 148.2804
ENERGY: 1500000 2.0500 12.3314 7.3697 0.0000 -10522.2563 1371.4353 0.0000 0.0000 1703.5560 -7425.5138 291.9354 -9129.0698 -7418.9819 297.9071 7.0985 38.5643 29653.4515 72.0720 126.7765
TCL: Running FEP window   8: Lambda1 0.6499999999999997 Lambda2 0.5999999999999996 [dLambda -0.050000000000000044]
TCL: Setting parameter firsttimestep to 0
TCL: Setting parameter alchLambda to 0.6499999999999997
Info: NONBONDED TABLE R-SQUARED SPACING: 0.0625
Info: NONBONDED TABLE SIZE: 705 POINTS
TCL: Setting parameter alchLambda2 to 0.5999999999999996
Info: NONBONDED TABLE R-SQUARED SPACING: 0.0625
Info: NONBONDED TABLE SIZE: 705 POINTS
TCL: Running for 1500000 steps
ETITLE: TS BOND ANGLE DIHED IMPRP ELECT VDW BOUNDARY MISC KINETIC TOTAL TEMP POTENTIAL TOTALAVG TEMPAVG PRESSURE GPRESSURE VOLUME PRESSAVG GPRESSAVG
ENERGY: 0 2.0500 12.3314 7.3697 0.0000 -10522.1185 1371.8865 0.0000 0.0000 1702.6545 -7425.8263 291.7809 -9128.4808 -7425.8263 291.7809 -56.2197 34.7504 29653.4515 -56.2197 34.7504
ENERGY: 300000 6.9381 16.4840 5.8936 0.0000 -10607.5732 1445.6254 0.0000 0.0000 1706.7178 -7425.9142 292.4773 -9132.6320 -7418.4211 296.3466 368.8782 395.7806 29801.1666 -257.6229 -190.3964
ENERGY: 600000 4.0307 15.0430 7.1065 0.0000 -10417.5915 1317.0166 0.0000 0.0000 1808.4047 -7265.9900 309.9032 -9074.3947 -7398.5615 298.2676 -481.6433 -467.1979 30068.2660 -233.6661 -175.0782
ENERGY: 900000 2.5865 15.9137 6.7497 0.0000 -10616.7150 1448.2978 0.0000 0.0000 1789.3921 -7353.7752 306.6450 -9143.1672 -7389.0715 299.2629 164.2903 246.8671 30230.4926 -218.5135 -160.4425
ENERGY: 1200000 3.8720 13.6040 8.1761 0.0000 -10548.6586 1397.4759 0.0000 0.0000 1740.5399 -7384.9906 298.2733 -9125.5305 -7391.5260 298.2522 -192.4116 -146.8778 30402.9587 -191.6584 -141.0942
ENERGY: 1500000 3.5692 13.6197 8.4792 0.0000 -10515.3626 1345.9395 0.0000 0.0000 1754.0331 -7389.7219 300.5856 -9143.7550 -7389.7220 298.9065 -516.2810 -419.9287 29995.5662 -178.9006 -122.1252
TCL: Running FEP window   9: Lambda1 0.5999999999999996 Lambda2 0.5499999999999996 [dLambda -0.050000000000000044]
TCL: Setting parameter firsttimestep to 0
TCL: Setting parameter alchLambda to 0.5999999999999996
Info: NONBONDED TABLE R-SQUARED SPACING: 0.0625
Info: NONBONDED TABLE SIZE: 705 POINTS
TCL: Setting parameter alchLambda2 to 0.5499999999999996
Info: NONBONDED TABLE R-SQUARED SPACING: 0.0625
Info: NONBONDED TABLE SIZE: 705 POINTS
TCL: Running for 1500000 steps
ETITLE: TS BOND ANGLE DIHED IMPRP ELECT VDW BOUNDARY MISC KINETIC TOTAL TEMP POTENTIAL TOTALAVG TEMPAVG PRESSURE GPRESSURE VOLUME PRESSAVG GPRESSAVG
ENERGY: 0 3.5692 13.6197 8.4792 0.0000 -10515.0320 1346.2648 0.0000 0.0000 1753.1686 -7389.9305 300.4375 -9143.0992 -7389.9305 300.4375 -502.2522 -425.3103 29995.5662 -502.2522 -425.3103
ENERGY: 300000 2.6712 14.2713 8.0532 0.0000 -10602.2416 1446.0232 0.0000 0.0000 1764.5608 -7366.6619 302.3897 -9131.2227 -7422.3516 300.1868 62.0859 97.4179 30457.5390 -34.9624 23.1142
ENERGY: 600000 2.7547 19.2528 4.0138 0.0000 -10544.6494 1399.0762 0.0000 0.0000 1734.3301 -7385.2218 297.2091 -9119.5519 -7397.3120 301.7343 -367.7393 -288.2625 30700.7734 87.6862 153.8365
ENERGY: 900000 2.6611 12.4074 8.7521 0.0000 -10621.6679 1430.0237 0.0000 0.0000 1760.0530 -7407.7706 301.6172 -9167.8236 -7391.4332 302.2253 -66.7257 14.1955 30151.7353 76.9541 142.5984
ENERGY: 1200000 3.3252 11.3192 8.0730 0.0000 -10559.9722 1462.5414 0.0000 0.0000 1776.2882 -7298.4254 304.3994 -9074.7136 -7382.6697 302.2823 737.1077 712.0285 29954.7561 218.7678 275.9703
ENERGY: 1500000 3.8710 12.4346 11.0324 0.0000 -10602.6521 1401.8592 0.0000 0.0000 1721.8593 -7451.5956 295.0720 -9173.4549 -7391.4922 301.5929 -273.1071 -156.5649 30081.7043 134.0244 195.9636
TCL: Running FEP window  10: Lambda1 0.5499999999999996 Lambda2 0.4999999999999996 [dLambda -0.04999999999999999]
TCL: Setting parameter firsttimestep to 0
TCL: Setting parameter alchLambda to 0.5499999999999996
Info: NONBONDED TABLE R-SQUARED SPACING: 0.0625
Info: NONBONDED TABLE SIZE: 705 POINTS
TCL: Setting parameter alchLambda2 to 0.4999999999999996
Info: NONBONDED TABLE R-SQUARED SPACING: 0.0625
Info: NONBONDED TABLE SIZE: 705 POINTS
TCL: Running for 1500000 steps
ETITLE: TS BOND ANGLE DIHED IMPRP ELECT VDW BOUNDARY MISC KINETIC TOTAL TEMP POTENTIAL TOTALAVG TEMPAVG PRESSURE GPRESSURE VOLUME PRESSAVG GPRESSAVG
ENERGY: 0 3.8710 12.4346 11.0324 0.0000 -10602.4663 1402.3689 0.0000 0.0000 1720.9764 -7451.7831 294.9207 -9172.7595 -7451.7831 294.9207 -242.1119 -158.6016 30081.7043 -242.1119 -158.6016
ENERGY: 300000 4.4633 15.9736 6.4640 0.0000 -10675.6177 1513.8136 0.0000 0.0000 1701.1811 -7433.7222 291.5284 -9134.9033 -7425.9374 296.2553 699.6554 817.8697 29864.4312 -191.5027 -114.2001
ENERGY: 600000 2.7337 14.1285 7.4731 0.0000 -10513.2719 1365.1478 0.0000 0.0000 1782.2983 -7341.4905 305.4294 -9123.7888 -7406.6579 298.5361 -676.6040 -611.2281 30860.9327 -111.4193 -39.7124
ENERGY: 900000 1.4865 14.5015 7.2657 0.0000 -10538.2732 1380.6609 0.0000 0.0000 1728.4499 -7405.9085 296.2015 -9134.3585 -7403.7339 297.9844 -228.0245 -188.1770 30017.5035 -148.2298 -75.0870
ENERGY: 1200000 4.2602 15.8334 8.3376 0.0000 -10617.5630 1421.2105 0.0000 0.0000 1743.2199 -7424.7013 298.7326 -9167.9212 -7403.3792 298.3840 -229.6978 -223.6489 30105.3274 -183.9584 -114.5233
ENERGY: 1500000 4.2168 12.0677 8.6440 0.0000 -10593.0556 1473.1134 0.0000 0.0000 1725.2206 -7369.7931 295.6480 -9095.0137 -7409.9702 298.7308 258.3155 286.0632 30669.2636 -162.2705 -89.1922
TCL: Running FEP window  11: Lambda1 0.4999999999999996 Lambda2 0.4499999999999996 [dLambda -0.04999999999999999]
TCL: Setting parameter firsttimestep to 0
TCL: Setting parameter alchLambda to 0.4999999999999996
Info: NONBONDED TABLE R-SQUARED SPACING: 0.0625
Info: NONBONDED TABLE SIZE: 705 POINTS
TCL: Setting parameter alchLambda2 to 0.4499999999999996
Info: NONBONDED TABLE R-SQUARED SPACING: 0.0625
Info: NONBONDED TABLE SIZE: 705 POINTS
TCL: Running for 1500000 steps
ETITLE: TS BOND ANGLE DIHED IMPRP ELECT VDW BOUNDARY MISC KINETIC TOTAL TEMP POTENTIAL TOTALAVG TEMPAVG PRESSURE GPRESSURE VOLUME PRESSAVG GPRESSAVG
ENERGY: 0 4.2168 12.0677 8.6440 0.0000 -10593.3255 1473.4477 0.0000 0.0000 1724.3421 -7370.6072 295.4975 -9094.9493 -7370.6072 295.4975 190.0102 277.7006 30669.2636 190.0102 277.7006
ENERGY: 300000 3.6070 15.5003 7.7599 0.0000 -10654.4179 1459.9361 0.0000 0.0000 1664.9727 -7502.6420 285.3235 -9167.6146 -7393.8335 298.1123 60.3235 62.5355 30177.5338 49.2692 109.7431
ENERGY: 600000 4.7498 15.6591 7.9443 0.0000 -10538.5092 1407.4604 0.0000 0.0000 1806.4524 -7296.2433 309.5686 -9102.6957 -7378.9359 301.6520 -42.8200 58.9530 29924.8972 82.6534 158.2806
ENERGY: 900000 3.5079 15.7178 7.1056 0.0000 -10462.0618 1358.6303 0.0000 0.0000 1769.8770 -7307.2232 303.3007 -9077.1002 -7382.9813 301.4110 -560.1681 -483.5429 30188.4220 166.5905 236.5002
ENERGY: 1200000 3.6090 20.7499 6.3446 0.0000 -10377.3692 1345.2247 0.0000 0.0000 1745.9159 -7255.5251 299.1946 -9001.4410 -7375.9638 301.5079 -524.8837 -504.5905 30643.6511 2.1429 60.5184
ENERGY: 1500000 1.7696 13.8089 7.5774 0.0000 -10678.0539 1436.1635 0.0000 0.0000 1760.6998 -7458.0348 301.7281 -9218.7347 -7382.3267 301.7841 139.3456 142.1095 29889.1049 70.1952 125.2034
TCL: Running FEP window  12: Lambda1 0.4499999999999996 Lambda2 0.39999999999999963 [dLambda -0.04999999999999999]
TCL: Setting parameter firsttimestep to 0
TCL: Setting parameter alchLambda to 0.4499999999999996
Info: NONBONDED TABLE R-SQUARED SPACING: 0.0625
Info: NONBONDED TABLE SIZE: 705 POINTS
TCL: Setting parameter alchLambda2 to 0.39999999999999963
Info: NONBONDED TABLE R-SQUARED SPACING: 0.0625
Info: NONBONDED TABLE SIZE: 705 POINTS
TCL: Running for 1500000 steps
ETITLE: TS BOND ANGLE DIHED IMPRP ELECT VDW BOUNDARY MISC KINETIC TOTAL TEMP POTENTIAL TOTALAVG TEMPAVG PRESSURE GPRESSURE VOLUME PRESSAVG GPRESSAVG
ENERGY: 0 1.7696 13.8089 7.5774 0.0000 -10678.0528 1436.5330 0.0000 0.0000 1759.8270 -7458.5370 301.5785 -9218.3640 -7458.5370 301.5785 49.8477 138.4254 29889.1049 49.8477 138.4254
ENERGY: 300000 4.4240 13.7801 7.0232 0.0000 -10666.4080 1432.0090 0.0000 0.0000 1773.9519 -7435.2197 303.9991 -9209.1717 -7400.7382 301.2651 132.4449 177.1075 29723.2961 244.9079 299.5817
ENERGY: 600000 1.8506 13.4298 7.9869 0.0000 -10717.3860 1510.8788 0.0000 0.0000 1799.2533 -7383.9867 308.3349 -9183.2400 -7404.7234 301.7296 843.9840 870.5231 29722.0402 205.9169 261.0893
ENERGY: 900000 1.3838 15.8096 8.2816 0.0000 -10627.6062 1431.3287 0.0000 0.0000 1791.0647 -7379.7378 306.9316 -9170.8025 -7401.7709 301.2335 35.1109 87.4204 30021.3696 71.0983 126.9014
ENERGY: 1200000 2.6800 12.3207 8.1016 0.0000 -10653.7879 1544.7798 0.0000 0.0000 1782.2687 -7303.6371 305.4243 -9085.9058 -7397.1520 301.9921 1255.6213 1278.8947 29947.2700 181.8956 238.9160
ENERGY: 1500000 2.2287 14.2820 9.0090 0.0000 -10803.6164 1523.4517 0.0000 0.0000 1811.6078 -7443.0373 310.4521 -9254.6451 -7402.9334 302.4691 675.0726 664.0013 29614.3645 226.1771 274.2671
TCL: Running FEP window  13: Lambda1 0.39999999999999963 Lambda2 0.34999999999999964 [dLambda -0.04999999999999999]
TCL: Setting parameter firsttimestep to 0
TCL: Setting parameter alchLambda to 0.39999999999999963
Info: NONBONDED TABLE R-SQUARED SPACING: 0.0625
Info: NONBONDED TABLE SIZE: 705 POINTS
TCL: Setting parameter alchLambda2 to 0.34999999999999964
Info: NONBONDED TABLE R-SQUARED SPACING: 0.0625
Info: NONBONDED TABLE SIZE: 705 POINTS
TCL: Running for 1500000 steps
ETITLE: TS BOND ANGLE DIHED IMPRP ELECT VDW BOUNDARY MISC KINETIC TOTAL TEMP POTENTIAL TOTALAVG TEMPAVG PRESSURE GPRESSURE VOLUME PRESSAVG GPRESSAVG
ENERGY: 0 2.2287 14.2820 9.0090 0.0000 -10803.6157 1523.3489 0.0000 0.0000 1810.7259 -7444.0213 310.3009 -9254.7472 -7444.0213 310.3009 575.7043 656.4526 29614.3645 575.7043 656.4526
ENERGY: 300000 1.6622 15.9081 5.7206 0.0000 -10483.5095 1376.4602 0.0000 0.0000 1791.7178 -7292.0406 307.0436 -9083.7584 -7359.6467 304.1474 -225.6439 -164.7864 30339.6611 -310.2569 -208.1064
ENERGY: 600000 4.2274 13.9924 6.7021 0.0000 -10526.5180 1393.9512 0.0000 0.0000 1722.2131 -7385.4320 295.1327 -9107.6450 -7365.9464 300.4125 -429.4962 -286.8436 30387.2768 -228.6433 -140.0563
ENERGY: 900000 3.0667 18.5825 10.4934 0.0000 -10562.9873 1380.9503 0.0000 0.0000 1705.6278 -7444.2666 292.2905 -9149.8944 -7402.6128 298.0345 -453.7558 -391.1330 29971.5466 -196.2499 -113.3400
ENERGY: 1200000 1.4319 16.0119 6.7504 0.0000 -10558.0851 1403.9020 0.0000 0.0000 1773.3910 -7356.5980 303.9029 -9129.9889 -7396.8757 299.1445 -295.0359 -246.7066 30794.3447 -88.4964 -10.3943
ENERGY: 1500000 4.6607 14.2496 6.6057 0.0000 -10625.7160 1445.6536 0.0000 0.0000 1799.8276 -7354.7188 308.4333 -9154.5463 -7397.9501 299.6606 218.4157 243.9472 30105.2591 -74.9472 -4.4893
TCL: Running FEP window  14: Lambda1 0.34999999999999964 Lambda2 0.29999999999999966 [dLambda -0.04999999999999999]
TCL: Setting parameter firsttimestep to 0
TCL: Setting parameter alchLambda to 0.34999999999999964
Info: NONBONDED TABLE R-SQUARED SPACING: 0.0625
Info: NONBONDED TABLE SIZE: 705 POINTS
TCL: Setting parameter alchLambda2 to 0.29999999999999966
Info: NONBONDED TABLE R-SQUARED SPACING: 0.0625
Info: NONBONDED TABLE SIZE: 705 POINTS
TCL: Running for 1500000 steps
ETITLE: TS BOND ANGLE DIHED IMPRP ELECT VDW BOUNDARY MISC KINETIC TOTAL TEMP POTENTIAL TOTALAVG TEMPAVG PRESSURE GPRESSURE VOLUME PRESSAVG GPRESSAVG
ENERGY: 0 4.6607 14.2496 6.6057 0.0000 -10625.7157 1445.3939 0.0000 0.0000 1798.9328 -7355.8731 308.2800 -9154.8058 -7355.8731 308.2800 157.8991 239.0418 30105.2591 157.8991 239.0418
ENERGY: 300000 3.7975 14.4627 7.8567 0.0000 -10645.2707 1475.6620 0.0000 0.0000 1784.9366 -7358.5553 305.8815 -9143.4919 -7412.3819 302.2701 518.0677 566.2869 29709.4178 340.7085 414.8076
ENERGY: 600000 1.3732 14.3591 7.6710 0.0000 -10670.0877 1481.5264 0.0000 0.0000 1789.7149 -7375.4431 306.7003 -9165.1580 -7409.4200 302.7830 469.5771 529.0824 29930.0228 245.9918 308.2698
ENERGY: 900000 2.4084 13.5510 6.2757 0.0000 -10599.9825 1486.1839 0.0000 0.0000 1717.3785 -7374.1849 294.3042 -9091.5634 -7406.3625 301.1864 735.0893 825.4147 29793.3986 183.6571 251.0840
ENERGY: 1200000 4.0525 12.6418 8.7723 0.0000 -10771.9658 1510.7967 0.0000 0.0000 1722.6438 -7513.0587 295.2065 -9235.7025 -7416.3905 300.1757 483.7490 545.7138 29706.3589 220.7922 283.8308
ENERGY: 1500000 2.2579 21.9714 4.7338 0.0000 -10654.1928 1519.4322 0.0000 0.0000 1760.7099 -7345.0877 301.7298 -9105.7976 -7407.7487 300.7195 880.8378 942.4207 30006.7424 296.1615 362.7265
TCL: Running FEP window  15: Lambda1 0.29999999999999966 Lambda2 0.24999999999999967 [dLambda -0.04999999999999999]
TCL: Setting parameter firsttimestep to 0
TCL: Setting parameter alchLambda to 0.29999999999999966
Info: NONBONDED TABLE R-SQUARED SPACING: 0.0625
Info: NONBONDED TABLE SIZE: 705 POINTS
TCL: Setting parameter alchLambda2 to 0.24999999999999967
Info: NONBONDED TABLE R-SQUARED SPACING: 0.0625
Info: NONBONDED TABLE SIZE: 705 POINTS
TCL: Running for 1500000 steps
ETITLE: TS BOND ANGLE DIHED IMPRP ELECT VDW BOUNDARY MISC KINETIC TOTAL TEMP POTENTIAL TOTALAVG TEMPAVG PRESSURE GPRESSURE VOLUME PRESSAVG GPRESSAVG
ENERGY: 0 2.2579 21.9714 4.7338 0.0000 -10654.1941 1519.2931 0.0000 0.0000 1759.7861 -7346.1519 301.5715 -9105.9379 -7346.1519 301.5715 865.3945 939.1838 30006.7424 865.3945 939.1838
ENERGY: 300000 2.3181 15.4851 8.3869 0.0000 -10650.7968 1424.0839 0.0000 0.0000 1757.0483 -7443.4745 301.1023 -9200.5227 -7377.2000 301.8938 -211.3333 -234.1190 30202.9785 214.7217 258.9943
ENERGY: 600000 3.0767 18.7839 6.5450 0.0000 -10536.0828 1396.8479 0.0000 0.0000 1722.3976 -7388.4317 295.1643 -9110.8293 -7399.2056 300.1700 -564.5947 -439.3809 30349.9879 -15.0840 56.5495
ENERGY: 900000 4.7022 14.3094 7.9647 0.0000 -10573.7135 1399.1567 0.0000 0.0000 1798.8217 -7348.7588 308.2609 -9147.5805 -7394.3052 300.6242 -289.9096 -214.8047 29937.6710 -72.6754 5.7759
ENERGY: 1200000 4.7273 11.7397 5.8575 0.0000 -10613.7821 1462.1768 0.0000 0.0000 1777.5233 -7351.7575 304.6111 -9129.2808 -7388.4557 300.6121 286.7545 394.8310 29858.6913 -70.4428 0.5361
ENERGY: 1500000 2.9291 16.7205 6.6649 0.0000 -10511.2500 1413.3116 0.0000 0.0000 1713.5437 -7358.0801 293.6470 -9071.6238 -7386.1398 300.3947 -221.3952 -146.1363 30481.4076 -76.7735 -3.1070
TCL: Running FEP window  16: Lambda1 0.24999999999999967 Lambda2 0.19999999999999968 [dLambda -0.04999999999999999]
TCL: Setting parameter firsttimestep to 0
TCL: Setting parameter alchLambda to 0.24999999999999967
Info: NONBONDED TABLE R-SQUARED SPACING: 0.0625
Info: NONBONDED TABLE SIZE: 705 POINTS
TCL: Setting parameter alchLambda2 to 0.19999999999999968
Info: NONBONDED TABLE R-SQUARED SPACING: 0.0625
Info: NONBONDED TABLE SIZE: 705 POINTS
TCL: Running for 1500000 steps
ETITLE: TS BOND ANGLE DIHED IMPRP ELECT VDW BOUNDARY MISC KINETIC TOTAL TEMP POTENTIAL TOTALAVG TEMPAVG PRESSURE GPRESSURE VOLUME PRESSAVG GPRESSAVG
ENERGY: 0 2.9291 16.7205 6.6649 0.0000 -10511.2506 1413.3402 0.0000 0.0000 1712.7112 -7358.8847 293.5043 -9071.5959 -7358.8847 293.5043 -233.6806 -149.7485 30481.4076 -233.6806 -149.7485
ENERGY: 300000 1.1206 15.2086 7.7181 0.0000 -10557.1788 1429.5543 0.0000 0.0000 1711.2919 -7392.2853 293.2611 -9103.5771 -7384.0685 296.6100 161.0080 231.5588 30000.7157 87.6183 155.9598
ENERGY: 600000 3.9013 15.0076 6.3427 0.0000 -10647.6055 1485.0333 0.0000 0.0000 1747.9469 -7389.3737 299.5426 -9137.3206 -7368.0163 298.3630 82.8742 121.5735 30762.5153 1.0473 73.7071
ENERGY: 900000 4.9484 19.8897 6.2206 0.0000 -10514.7161 1411.5848 0.0000 0.0000 1791.9359 -7280.1368 307.0809 -9072.0727 -7358.8680 300.5843 -200.4478 -176.0514 30654.9482 8.5959 63.3121
ENERGY: 1200000 3.2773 13.5832 7.7358 0.0000 -10494.8467 1404.3941 0.0000 0.0000 1808.1050 -7257.7513 309.8518 -9065.8563 -7354.8097 300.7694 -27.6145 85.6059 30213.5553 13.4152 80.1967
ENERGY: 1500000 1.0089 14.1964 9.2249 0.0000 -10591.6916 1413.1485 0.0000 0.0000 1756.1643 -7397.9485 300.9508 -9154.1128 -7366.4597 300.9794 -117.9936 -72.5043 30178.5160 -71.9257 -9.5960
TCL: Running FEP window  17: Lambda1 0.19999999999999968 Lambda2 0.1499999999999997 [dLambda -0.04999999999999999]
TCL: Setting parameter firsttimestep to 0
TCL: Setting parameter alchLambda to 0.19999999999999968
Info: NONBONDED TABLE R-SQUARED SPACING: 0.0625
Info: NONBONDED TABLE SIZE: 705 POINTS
TCL: Setting parameter alchLambda2 to 0.1499999999999997
Info: NONBONDED TABLE R-SQUARED SPACING: 0.0625
Info: NONBONDED TABLE SIZE: 705 POINTS
TCL: Running for 1500000 steps
ETITLE: TS BOND ANGLE DIHED IMPRP ELECT VDW BOUNDARY MISC KINETIC TOTAL TEMP POTENTIAL TOTALAVG TEMPAVG PRESSURE GPRESSURE VOLUME PRESSAVG GPRESSAVG
ENERGY: 0 1.0089 14.1964 9.2249 0.0000 -10591.6920 1413.4740 0.0000 0.0000 1755.2524 -7398.5354 300.7945 -9153.7878 -7398.5354 300.7945 -165.2061 -71.6246 30178.5160 -165.2061 -71.6246
ENERGY: 300000 1.2661 17.7250 6.6797 0.0000 -10683.8055 1457.6712 0.0000 0.0000 1746.8699 -7453.5936 299.3581 -9200.4635 -7403.4967 300.8243 80.1992 135.2759 29929.3488 72.1055 132.9449
ENERGY: 600000 3.4889 12.8137 7.8878 0.0000 -10633.2587 1466.1387 0.0000 0.0000 1716.6550 -7426.2746 294.1802 -9142.9296 -7417.0324 297.8531 121.2169 245.0201 30102.0741 111.0925 192.5503
ENERGY: 900000 2.2041 14.2889 7.2692 0.0000 -10558.2246 1362.8796 0.0000 0.0000 1741.7817 -7429.8012 298.4861 -9171.5829 -7413.9937 297.8895 -677.0676 -640.6975 30156.9315 46.6707 125.4984
ENERGY: 1200000 1.3774 16.8620 6.5142 0.0000 -10652.3874 1469.0486 0.0000 0.0000 1688.3790 -7470.2062 289.3346 -9158.5851 -7416.3755 297.2323 195.0919 277.3258 29764.9283 -63.1297 8.3560
ENERGY: 1500000 2.0291 18.9218 6.3940 0.0000 -10603.2679 1483.2605 0.0000 0.0000 1700.0383 -7392.6243 291.3326 -9092.6626 -7423.6970 296.2999 492.0907 563.6602 30049.2441 -81.4109 -14.4967
TCL: Running FEP window  18: Lambda1 0.1499999999999997 Lambda2 0.09999999999999969 [dLambda -0.05 ]
TCL: Setting parameter firsttimestep to 0
TCL: Setting parameter alchLambda to 0.1499999999999997
Info: NONBONDED TABLE R-SQUARED SPACING: 0.0625
Info: NONBONDED TABLE SIZE: 705 POINTS
TCL: Setting parameter alchLambda2 to 0.09999999999999969
Info: NONBONDED TABLE R-SQUARED SPACING: 0.0625
Info: NONBONDED TABLE SIZE: 705 POINTS
TCL: Running for 1500000 steps
ETITLE: TS BOND ANGLE DIHED IMPRP ELECT VDW BOUNDARY MISC KINETIC TOTAL TEMP POTENTIAL TOTALAVG TEMPAVG PRESSURE GPRESSURE VOLUME PRESSAVG GPRESSAVG
ENERGY: 0 2.0291 18.9218 6.3940 0.0000 -10603.2688 1483.2516 0.0000 0.0000 1699.1483 -7393.5240 291.1801 -9092.6723 -7393.5240 291.1801 461.9352 561.3648 30049.2441 461.9352 561.3648
ENERGY: 300000 6.1117 13.8894 6.1497 0.0000 -10626.9437 1464.5705 0.0000 0.0000 1698.7324 -7437.4900 291.1088 -9136.2224 -7392.3214 298.4826 142.8874 202.9435 30164.7220 48.7661 138.3241
ENERGY: 600000 2.6921 13.6033 7.4986 0.0000 -10613.5651 1441.0944 0.0000 0.0000 1688.8274 -7459.8493 289.4114 -9148.6766 -7407.0025 298.3166 -66.3307 75.3208 30042.1243 75.0853 163.8863
ENERGY: 900000 2.4841 11.4310 10.4223 0.0000 -10502.9890 1362.2396 0.0000 0.0000 1755.0862 -7361.3259 300.7661 -9116.4121 -7411.1742 297.9883 -589.2264 -586.6931 30357.3588 -21.4067 59.1938
ENERGY: 1200000 5.2133 15.5749 7.8264 0.0000 -10727.3362 1522.4947 0.0000 0.0000 1789.3109 -7386.9159 306.6311 -9176.2268 -7410.9621 299.2051 695.2900 810.4122 29753.3276 -13.1394 70.4940
ENERGY: 1500000 1.9013 13.7428 6.7924 0.0000 -10571.9365 1411.5402 0.0000 0.0000 1777.2762 -7360.6837 304.5687 -9137.9599 -7401.3404 300.1654 -120.1850 -77.4046 30144.3800 -48.0195 30.0122
TCL: Running FEP window  19: Lambda1 0.09999999999999969 Lambda2 0.049999999999999684 [dLambda -0.05 ]
TCL: Setting parameter firsttimestep to 0
TCL: Setting parameter alchLambda to 0.09999999999999969
Info: NONBONDED TABLE R-SQUARED SPACING: 0.0625
Info: NONBONDED TABLE SIZE: 705 POINTS
TCL: Setting parameter alchLambda2 to 0.049999999999999684
Info: NONBONDED TABLE R-SQUARED SPACING: 0.0625
Info: NONBONDED TABLE SIZE: 705 POINTS
TCL: Running for 1500000 steps
ETITLE: TS BOND ANGLE DIHED IMPRP ELECT VDW BOUNDARY MISC KINETIC TOTAL TEMP POTENTIAL TOTALAVG TEMPAVG PRESSURE GPRESSURE VOLUME PRESSAVG GPRESSAVG
ENERGY: 0 1.9013 13.7428 6.7924 0.0000 -10571.9358 1411.3716 0.0000 0.0000 1776.3416 -7361.7862 304.4086 -9138.1278 -7361.7862 304.4086 -154.0876 -83.8240 30144.3800 -154.0876 -83.8240
ENERGY: 300000 0.7757 14.5911 8.0376 0.0000 -10602.4870 1477.6816 0.0000 0.0000 1713.5547 -7387.8463 293.6489 -9101.4010 -7380.3009 299.0551 335.3132 401.4542 30192.2250 -129.6439 -79.1298
ENERGY: 600000 3.5534 13.5808 7.9763 0.0000 -10556.6368 1407.6535 0.0000 0.0000 1707.8575 -7416.0154 292.6726 -9123.8729 -7380.8542 298.5584 -67.9419 -22.5657 29736.2952 -68.1058 -4.9271
ENERGY: 900000 2.0683 18.2014 5.9408 0.0000 -10686.3183 1496.9650 0.0000 0.0000 1788.3237 -7374.8191 306.4619 -9163.1428 -7387.6523 300.0321 539.4528 604.2360 29725.6358 -44.2799 21.3997
ENERGY: 1200000 1.3992 12.8826 6.1942 0.0000 -10688.3629 1460.7991 0.0000 0.0000 1698.7927 -7508.2951 291.1191 -9207.0878 -7401.8552 299.4507 -194.5054 -142.1133 30255.2830 -42.9099 25.0339
ENERGY: 1500000 2.5070 13.3118 7.3464 0.0000 -10637.3928 1462.0482 0.0000 0.0000 1756.4169 -7395.7625 300.9941 -9152.1794 -7397.5674 299.6380 136.9317 221.3148 30055.0817 -56.5312 6.4075
TCL: Running FEP window  20: Lambda1 0.049999999999999684 Lambda2 0.0    [dLambda -0.049999999999999684]
TCL: Setting parameter firsttimestep to 0
TCL: Setting parameter alchLambda to 0.049999999999999684
Info: NONBONDED TABLE R-SQUARED SPACING: 0.0625
Info: NONBONDED TABLE SIZE: 705 POINTS
TCL: Setting parameter alchLambda2 to 0.0
Info: NONBONDED TABLE R-SQUARED SPACING: 0.0625
Info: NONBONDED TABLE SIZE: 705 POINTS
TCL: Running for 1500000 steps
ETITLE: TS BOND ANGLE DIHED IMPRP ELECT VDW BOUNDARY MISC KINETIC TOTAL TEMP POTENTIAL TOTALAVG TEMPAVG PRESSURE GPRESSURE VOLUME PRESSAVG GPRESSAVG
ENERGY: 0 2.5070 13.3118 7.3464 0.0000 -10637.3916 1461.8313 0.0000 0.0000 1755.5255 -7396.8696 300.8413 -9152.3951 -7396.8696 300.8413 139.6448 217.4612 30055.0817 139.6448 217.4612
ENERGY: 300000 1.8509 16.7228 6.4004 0.0000 -10715.7773 1529.3669 0.0000 0.0000 1786.6851 -7374.7511 306.1811 -9161.4362 -7400.2093 299.6462 879.0388 896.9777 29593.5934 130.5080 179.8600
ENERGY: 600000 4.0010 16.4879 5.6892 0.0000 -10569.0134 1360.8056 0.0000 0.0000 1727.6850 -7454.3446 296.0704 -9182.0296 -7431.1208 298.2781 -782.7505 -738.8981 30058.7531 -66.2701 -16.8660
ENERGY: 900000 6.6125 13.1729 6.0616 0.0000 -10582.1146 1427.0724 0.0000 0.0000 1758.0263 -7371.1690 301.2699 -9129.1953 -7415.9856 298.9480 -251.9541 -223.3826 30356.0569 -116.0394 -74.5076
ENERGY: 1200000 2.2732 16.5860 6.5223 0.0000 -10679.5070 1466.1701 0.0000 0.0000 1759.4350 -7428.5204 301.5113 -9187.9554 -7406.3294 300.2016 349.8452 405.7260 29766.0791 -35.9896 9.9532
ENERGY: 1500000 5.6325 14.5326 6.5462 0.0000 -10665.2229 1377.6255 0.0000 0.0000 1753.4294 -7507.4565 300.4821 -9260.8859 -7424.3150 299.3983 -562.5156 -568.4839 29570.1799 -125.0401 -79.9916
TCL: Exiting due to exit command.
