Info: SIMULATION PARAMETERS:
Info: TIMESTEP               2
Info: NUMBER OF STEPS        0
Info: STEPS PER CYCLE        10
Info: PERIODIC CELL BASIS 1  30.4768 0 0
Info: PERIODIC CELL BASIS 2  0 32.0733 0
Info: PERIODIC CELL BASIS 3  0 0 32.7941
Info: PERIODIC CELL CENTER   0 0 0
Info: WRAPPING WATERS AROUND PERIODIC BOUNDARIES ON OUTPUT.
Info: WRAPPING ALL CLUSTERS AROUND PERIODIC BOUNDARIES ON OUTPUT.
Info: FIRST LDB TIMESTEP     50
Info: LAST LDB TIMESTEP     -1
Info: HOM BACKGROUND SCALING 1
Info: PME BACKGROUND SCALING 1
Info: MIN ATOMS PER PATCH    40
Info: EMPTY PATCH LOAD       40 ATOMS
Info: VELOCITY FILE          mobley_6733657_equil.vel
Info: CENTER OF MASS MOVING INITIALLY? NO
Info: DIELECTRIC             1
Info: EXCLUDE                SCALED ONE-FOUR
Info: 1-4 ELECTROSTATICS SCALED BY 0.833333
Info: MODIFIED 1-4 VDW PARAMETERS WILL BE USED
Info: DCD FILENAME           mobley_6733657_prod.dcd
Info: DCD FREQUENCY          100000
Info: DCD FIRST STEP         100000
Info: DCD FILE WILL CONTAIN UNIT CELL DATA
Info: XST FILENAME           mobley_6733657_prod.xst
Info: XST FREQUENCY          100000
Info: NO VELOCITY DCD OUTPUT
Info: NO FORCE DCD OUTPUT
Info: OUTPUT FILENAME        mobley_6733657_prod
Info: BINARY OUTPUT FILES WILL BE USED
Info: RESTART FILENAME       mobley_6733657_prod.restart
Info: RESTART FREQUENCY      100000
Info: BINARY RESTART FILES WILL BE USED
Info: CUTOFF                 9
Info: PAIRLIST DISTANCE      11
Info: PAIRLIST SHRINK RATE   0.01
Info: PAIRLIST GROW RATE     0.01
Info: PAIRLIST TRIGGER       0.3
Info: PAIRLISTS PER CYCLE    2
Info: PAIRLISTS ENABLED
Info: MARGIN                 2
Info: HYDROGEN GROUP CUTOFF  2.5
Info: PATCH DIMENSION        15.5
Info: ENERGY OUTPUT STEPS    100000
Info: ENERGY EVALUATION STEPS    100000
Info: OUTPUT ENERGY PRECISION 4
Info: CROSSTERM ENERGY INCLUDED IN DIHEDRAL
Info: TIMING OUTPUT STEPS    1000000
Info: PRESSURE OUTPUT STEPS  100000
Info: ALCHEMICAL FEP ON
Info: FEP CURRENT LAMBDA VALUE     0
Info: FEP COMPARISON LAMBDA VALUE  0.05
Info: FEP INTRA-ALCHEMICAL NON-BONDED INTERACTIONS WILL BE RETAINED
Info: FEP INTRA-ALCHEMICAL BONDED INTERACTIONS WILL BE RETAINED
Info: FEP VDW SHIFTING COEFFICIENT 5
Info: FEP ELEC. ACTIVE FOR ANNIHILATED PARTICLES BETWEEN LAMBDA = 0 AND LAMBDA = 0.5
Info: FEP ELEC. ACTIVE FOR EXNIHILATED PARTICLES BETWEEN LAMBDA = 0.5 AND LAMBDA = 1
Info: FEP VDW ACTIVE FOR ANNIHILATED PARTICLES BETWEEN LAMBDA = 0 AND LAMBDA = 1
Info: FEP VDW ACTIVE FOR EXNIHILATED PARTICLES BETWEEN LAMBDA = 0 AND LAMBDA = 1
Info: FEP BOND ACTIVE FOR ANNIHILATED PARTICLES BETWEEN LAMBDA = 1 AND LAMBDA = 1
Info: FEP BOND ACTIVE FOR EXNIHILATED PARTICLES BETWEEN LAMBDA = 0 AND LAMBDA = 0
Info: LANGEVIN DYNAMICS ACTIVE
Info: LANGEVIN TEMPERATURE   300
Info: LANGEVIN USING BBK INTEGRATOR
Info: LANGEVIN DAMPING COEFFICIENT IS 1 INVERSE PS
Info: LANGEVIN DYNAMICS APPLIED TO HYDROGENS
Info: LANGEVIN PISTON PRESSURE CONTROL ACTIVE
Info:        TARGET PRESSURE IS 1.01325 BAR
Info:     OSCILLATION PERIOD IS 50 FS
Info:             DECAY TIME IS 25 FS
Info:     PISTON TEMPERATURE IS 300 K
Info:       PRESSURE CONTROL IS GROUP-BASED
Info:    INITIAL STRAIN RATE IS -7.97065e-07 -7.97065e-07 -7.97065e-07
Info:       CELL FLUCTUATION IS ISOTROPIC
Info: PARTICLE MESH EWALD (PME) ACTIVE
Info: PME TOLERANCE               1e-06
Info: PME EWALD COEFFICIENT       0.348832
Info: PME INTERPOLATION ORDER     4
Info: PME GRID DIMENSIONS         32 36 36
Info: PME MAXIMUM GRID SPACING    1
Info: PME CALCULATION WILL BE PERFORMED ON GPU
Info: FULL ELECTROSTATIC EVALUATION FREQUENCY      2
Info: USING VERLET I (r-RESPA) MTS SCHEME.
Info: C1 SPLITTING OF LONG RANGE ELECTROSTATICS
Info: PLACING ATOMS IN PATCHES BY HYDROGEN GROUPS
Info: RIGID BONDS TO HYDROGEN : ALL
Info:         ERROR TOLERANCE : 1e-08
Info:          MAX ITERATIONS : 100
Info: RIGID WATER USING SETTLE ALGORITHM
Info: RANDOM NUMBER SEED     1743647728
Info: USE HYDROGEN BONDS?    NO
Info: Using AMBER format force field!
Info: AMBER PARM FILE        mobley_6733657.prmtop
Info: COORDINATE PDB         mobley_6733657.pdb
Info: Exclusions will be read from PARM file!
Info: SCNB (VDW SCALING)     2
Info: USING ARITHMETIC MEAN TO COMBINE L-J SIGMA PARAMETERS
Info: BINARY COORDINATES     mobley_6733657_equil.coor
Info: SUMMARY OF PARAMETERS:
Info: 9 BONDS
Info: 12 ANGLES
Info:   12 HARMONIC
Info:   0 COSINE-BASED
Info: 13 DIHEDRAL
Info: 0 IMPROPER
Info: 0 CROSSTERM
Info: 0 VDW
Info: 28 VDW_PAIRS
Info: 0 NBTHOLE_PAIRS
Info: To read alchdata from file: mobley_6733657.pdb
Info: To read alchflag data from column: 5
Info: STRUCTURE SUMMARY:
Info: 2994 ATOMS
Info: 2996 BONDS
Info: 54 ANGLES
Info: 144 DIHEDRALS
Info: 0 IMPROPERS
Info: 0 CROSSTERMS
Info: 3130 EXCLUSIONS
Info: 2976 RIGID BONDS
Info: ALCH: 0 ATOMS TO DISAPPEAR IN FINAL STATE
Info: ALCH: 24 ATOMS TO APPEAR IN FINAL STATE
Info: 6006 DEGREES OF FREEDOM
Info: 1008 HYDROGEN GROUPS
Info: 3 ATOMS IN LARGEST HYDROGEN GROUP
Info: 1008 MIGRATION GROUPS
Info: 3 ATOMS IN LARGEST MIGRATION GROUP
Info: TOTAL MASS = 18245.6 amu
Info: TOTAL CHARGE = -2.09548e-08 e
Info: MASS DENSITY = 0.945167 g/cm^3
Info: ATOM DENSITY = 0.0933992 atoms/A^3
Info: ADDED 0 IMPLICIT EXCLUSIONS
Info: NONBONDED TABLE R-SQUARED SPACING: 0.0625
Info: NONBONDED TABLE SIZE: 705 POINTS
Info: REMOVING COM VELOCITY -0.100245 -0.040661 0.173966
Info: Use 3D box decompostion in PME FFT.
Info: Updated CUDA force table with 4096 elements.
Info: Updated CUDA LJ table with 7 x 7 elements.
Info: Found 27 unique exclusion lists needing 84 bytes
TCL: Running for 1500000 steps
ETITLE: TS BOND ANGLE DIHED IMPRP ELECT VDW BOUNDARY MISC KINETIC TOTAL TEMP POTENTIAL TOTALAVG TEMPAVG PRESSURE GPRESSURE VOLUME PRESSAVG GPRESSAVG
ENERGY: 0 4.4617 57.6533 20.1030 0.0000 -10677.0739 1472.6382 0.0000 0.0000 1796.5010 -7325.7167 301.0458 -9122.2177 -7325.7167 301.0458 -48.0985 34.3500 32055.9424 -48.0985 34.3500
ENERGY: 300000 10.6355 61.7097 23.7495 0.0000 -10839.0742 1463.9431 0.0000 0.0000 1761.3282 -7517.7081 295.1517 -9279.0363 -7450.1151 300.1449 -463.1465 -417.3858 30993.4728 -205.0081 -129.3321
ENERGY: 600000 9.8521 57.8832 20.4386 0.0000 -10807.8856 1553.1503 0.0000 0.0000 1735.4126 -7431.1488 290.8090 -9166.5614 -7443.6409 297.2931 627.2129 696.8726 30976.8441 -190.3526 -124.8171
ENERGY: 900000 8.7225 58.0257 20.3029 0.0000 -10765.0959 1427.0341 0.0000 0.0000 1737.7675 -7513.2432 291.2036 -9251.0107 -7439.7993 297.8509 -345.6305 -298.5265 30837.1357 -207.2029 -139.7917
ENERGY: 1200000 5.8885 61.7935 21.5814 0.0000 -10769.1132 1412.4698 0.0000 0.0000 1749.3984 -7517.9816 293.1526 -9267.3800 -7460.1317 297.5047 -160.1867 -113.7321 30290.0952 -298.7868 -234.6743
ENERGY: 1500000 8.1329 60.6171 21.3921 0.0000 -10849.3698 1441.2815 0.0000 0.0000 1789.4237 -7528.5226 299.8598 -9317.9462 -7461.6552 298.3628 -155.5664 -140.4940 30253.8113 -233.9446 -170.2024
TCL: Running FEP window   2: Lambda1 0.05   Lambda2 0.1    [dLambda 0.05  ]
TCL: Setting parameter firsttimestep to 0
TCL: Setting parameter alchLambda to 0.05
Info: NONBONDED TABLE R-SQUARED SPACING: 0.0625
Info: NONBONDED TABLE SIZE: 705 POINTS
TCL: Setting parameter alchLambda2 to 0.1
Info: NONBONDED TABLE R-SQUARED SPACING: 0.0625
Info: NONBONDED TABLE SIZE: 705 POINTS
TCL: Running for 1500000 steps
ETITLE: TS BOND ANGLE DIHED IMPRP ELECT VDW BOUNDARY MISC KINETIC TOTAL TEMP POTENTIAL TOTALAVG TEMPAVG PRESSURE GPRESSURE VOLUME PRESSAVG GPRESSAVG
ENERGY: 0 8.1328 60.6171 21.3921 0.0000 -10849.3708 1452.4934 0.0000 0.0000 1788.5463 -7518.1891 299.7128 -9306.7354 -7518.1891 299.7128 -202.2318 -114.0739 30253.8113 -202.2318 -114.0739
ENERGY: 300000 12.4710 60.8881 23.8219 0.0000 -10657.1308 1383.9750 0.0000 0.0000 1808.3941 -7367.5807 303.0387 -9175.9748 -7414.4952 300.7997 -570.1228 -528.1457 30983.2241 -36.1959 39.0003
ENERGY: 600000 7.3324 58.9169 21.3007 0.0000 -10828.4485 1512.5466 0.0000 0.0000 1819.2801 -7409.0719 304.8629 -9228.3519 -7414.8003 304.0680 409.9156 587.5960 30533.4604 47.2671 125.1197
ENERGY: 900000 8.2548 60.2488 20.2759 0.0000 -10694.6761 1348.8207 0.0000 0.0000 1790.4308 -7466.6452 300.0286 -9257.0760 -7445.1352 302.1613 -458.8653 -417.0719 30415.7140 -40.4499 42.2255
ENERGY: 1200000 7.7594 57.9716 20.8840 0.0000 -10718.6064 1367.7702 0.0000 0.0000 1847.4586 -7416.7626 309.5849 -9264.2212 -7448.6384 302.5657 -879.9475 -843.9684 30798.1399 -99.8860 -32.3799
ENERGY: 1500000 6.5597 63.7822 20.8221 0.0000 -10798.6064 1487.0988 0.0000 0.0000 1797.3167 -7423.0269 301.1824 -9220.3436 -7450.4786 302.0821 562.0208 605.2362 30275.2972 -24.1389 42.5889
TCL: Running FEP window   3: Lambda1 0.1    Lambda2 0.15000000000000002 [dLambda 0.05000000000000002]
TCL: Setting parameter firsttimestep to 0
TCL: Setting parameter alchLambda to 0.1
Info: NONBONDED TABLE R-SQUARED SPACING: 0.0625
Info: NONBONDED TABLE SIZE: 705 POINTS
TCL: Setting parameter alchLambda2 to 0.15000000000000002
Info: NONBONDED TABLE R-SQUARED SPACING: 0.0625
Info: NONBONDED TABLE SIZE: 705 POINTS
TCL: Running for 1500000 steps
ETITLE: TS BOND ANGLE DIHED IMPRP ELECT VDW BOUNDARY MISC KINETIC TOTAL TEMP POTENTIAL TOTALAVG TEMPAVG PRESSURE GPRESSURE VOLUME PRESSAVG GPRESSAVG
ENERGY: 0 6.5596 63.7822 20.8221 0.0000 -10798.6062 1490.7181 0.0000 0.0000 1796.4101 -7420.3141 301.0305 -9216.7242 -7420.3141 301.0305 547.7978 629.4322 30275.2972 547.7978 629.4322
ENERGY: 300000 11.1088 60.8616 21.7716 0.0000 -10689.6781 1465.7080 0.0000 0.0000 1773.2979 -7356.9302 297.1575 -9130.2281 -7442.7519 300.6113 148.5580 169.9920 31424.6635 -138.9329 -89.5249
ENERGY: 600000 8.0541 63.1686 20.3465 0.0000 -10822.5802 1480.6642 0.0000 0.0000 1809.5487 -7440.7981 303.2322 -9250.3467 -7432.6748 301.7837 398.2939 490.2995 30373.1747 -8.3637 46.3964
ENERGY: 900000 10.4040 60.3246 22.9364 0.0000 -10813.7136 1521.8909 0.0000 0.0000 1789.2308 -7408.9270 299.8275 -9198.1578 -7430.7360 301.4579 693.1633 745.2015 30698.7567 146.6836 197.7392
ENERGY: 1200000 5.6101 60.3127 21.9307 0.0000 -10802.0070 1457.4907 0.0000 0.0000 1799.7949 -7456.8679 301.5977 -9256.6628 -7432.1037 300.7219 124.9123 184.8441 30184.2584 -17.9886 34.3400
ENERGY: 1500000 5.6767 62.0396 20.3061 0.0000 -10813.8076 1461.6363 0.0000 0.0000 1786.2799 -7477.8689 299.3330 -9264.1488 -7431.6515 300.5287 -183.7596 -115.4649 30831.4180 30.5199 90.1458
TCL: Running FEP window   4: Lambda1 0.15000000000000002 Lambda2 0.2    [dLambda 0.04999999999999999]
TCL: Setting parameter firsttimestep to 0
TCL: Setting parameter alchLambda to 0.15000000000000002
Info: NONBONDED TABLE R-SQUARED SPACING: 0.0625
Info: NONBONDED TABLE SIZE: 705 POINTS
TCL: Setting parameter alchLambda2 to 0.2
Info: NONBONDED TABLE R-SQUARED SPACING: 0.0625
Info: NONBONDED TABLE SIZE: 705 POINTS
TCL: Running for 1500000 steps
ETITLE: TS BOND ANGLE DIHED IMPRP ELECT VDW BOUNDARY MISC KINETIC TOTAL TEMP POTENTIAL TOTALAVG TEMPAVG PRESSURE GPRESSURE VOLUME PRESSAVG GPRESSAVG
ENERGY: 0 5.6768 62.0396 20.3061 0.0000 -10813.8076 1464.0540 0.0000 0.0000 1785.4265 -7476.3046 299.1900 -9261.7311 -7476.3046 299.1900 -176.3529 -98.1697 30831.4180 -176.3529 -98.1697
ENERGY: 300000 5.6516 62.5807 22.4891 0.0000 -10828.6735 1402.3338 0.0000 0.0000 1745.3952 -7590.2232 292.4818 -9335.6183 -7484.2055 296.7891 -667.5773 -607.5360 30667.6902 -355.8980 -297.6806
ENERGY: 600000 3.4467 59.5407 23.0983 0.0000 -10791.6170 1451.8731 0.0000 0.0000 1769.2266 -7484.4316 296.4753 -9253.6582 -7459.0111 296.0217 -388.1834 -340.5664 31262.6065 -346.3626 -292.1934
ENERGY: 900000 6.0750 68.1798 20.2911 0.0000 -10875.7924 1483.0455 0.0000 0.0000 1793.0501 -7505.1510 300.4675 -9298.2011 -7455.3315 297.5488 94.1749 119.9472 30604.3408 -162.1393 -118.2741
ENERGY: 1200000 7.6676 58.7094 20.0927 0.0000 -10726.2643 1423.7040 0.0000 0.0000 1785.4881 -7430.6024 299.2003 -9216.0905 -7450.3943 297.7279 -175.8031 -76.4220 30568.4348 -181.3240 -138.8550
ENERGY: 1500000 8.2029 68.4300 20.2578 0.0000 -10911.1705 1535.3026 0.0000 0.0000 1798.0412 -7480.9359 301.3039 -9278.9771 -7456.5537 297.4590 420.9046 531.7183 30929.5999 -108.1853 -64.2407
TCL: Running FEP window   5: Lambda1 0.2    Lambda2 0.25   [dLambda 0.04999999999999999]
TCL: Setting parameter firsttimestep to 0
TCL: Setting parameter alchLambda to 0.2
Info: NONBONDED TABLE R-SQUARED SPACING: 0.0625
Info: NONBONDED TABLE SIZE: 705 POINTS
TCL: Setting parameter alchLambda2 to 0.25
Info: NONBONDED TABLE R-SQUARED SPACING: 0.0625
Info: NONBONDED TABLE SIZE: 705 POINTS
TCL: Running for 1500000 steps
ETITLE: TS BOND ANGLE DIHED IMPRP ELECT VDW BOUNDARY MISC KINETIC TOTAL TEMP POTENTIAL TOTALAVG TEMPAVG PRESSURE GPRESSURE VOLUME PRESSAVG GPRESSAVG
ENERGY: 0 8.2029 68.4300 20.2578 0.0000 -10911.1696 1535.9496 0.0000 0.0000 1797.1452 -7481.1841 301.1537 -9278.3293 -7481.1841 301.1537 465.5858 542.4818 30929.5999 465.5858 542.4818
ENERGY: 300000 6.4412 70.4012 18.5339 0.0000 -10729.3578 1396.3492 0.0000 0.0000 1782.9293 -7454.7031 298.7715 -9237.6323 -7453.9950 299.0369 -464.8197 -405.9404 30833.0850 42.2963 100.8555
ENERGY: 600000 8.9644 58.1646 22.9624 0.0000 -10819.9260 1481.7618 0.0000 0.0000 1793.5178 -7454.5549 300.5459 -9248.0727 -7450.5328 299.4064 -120.8837 -80.1508 30977.6362 -18.2809 38.9848
ENERGY: 900000 8.2036 54.1889 21.7095 0.0000 -10961.3209 1584.5597 0.0000 0.0000 1747.8601 -7544.7991 292.8948 -9292.6591 -7472.5099 297.3664 626.6499 748.3001 30378.9057 108.6531 180.7747
ENERGY: 1200000 8.4764 63.0263 21.8146 0.0000 -10929.7164 1532.2879 0.0000 0.0000 1838.3781 -7465.7331 308.0633 -9304.1112 -7485.9374 296.9398 242.3922 202.8001 31219.7867 58.3050 121.6096
ENERGY: 1500000 8.6946 63.7113 20.0660 0.0000 -10779.7526 1510.1626 0.0000 0.0000 1733.4247 -7443.6934 290.4759 -9177.1182 -7478.0906 296.6899 672.5748 717.5608 30629.5574 107.6245 169.9143
TCL: Running FEP window   6: Lambda1 0.25   Lambda2 0.3    [dLambda 0.04999999999999999]
TCL: Setting parameter firsttimestep to 0
TCL: Setting parameter alchLambda to 0.25
Info: NONBONDED TABLE R-SQUARED SPACING: 0.0625
Info: NONBONDED TABLE SIZE: 705 POINTS
TCL: Setting parameter alchLambda2 to 0.3
Info: NONBONDED TABLE R-SQUARED SPACING: 0.0625
Info: NONBONDED TABLE SIZE: 705 POINTS
TCL: Running for 1500000 steps
ETITLE: TS BOND ANGLE DIHED IMPRP ELECT VDW BOUNDARY MISC KINETIC TOTAL TEMP POTENTIAL TOTALAVG TEMPAVG PRESSURE GPRESSURE VOLUME PRESSAVG GPRESSAVG
ENERGY: 0 8.6946 63.7113 20.0660 0.0000 -10779.7518 1509.2929 0.0000 0.0000 1732.5546 -7445.4324 290.3301 -9177.9870 -7445.4324 290.3301 628.7158 719.2042 30629.5574 628.7158 719.2042
ENERGY: 300000 7.4566 60.3756 20.8761 0.0000 -10698.7903 1396.9756 0.0000 0.0000 1763.8560 -7449.2504 295.5753 -9213.1064 -7470.5574 298.9617 -540.8804 -513.7444 31239.2382 -39.4998 13.7373
ENERGY: 600000 6.9015 57.9194 22.1233 0.0000 -10709.0456 1413.4603 0.0000 0.0000 1823.3204 -7385.3208 305.5400 -9208.6412 -7449.9599 300.0638 -276.3355 -153.2978 30819.2649 -63.8327 -3.0137
ENERGY: 900000 7.5406 61.6600 21.8388 0.0000 -10785.4187 1411.5926 0.0000 0.0000 1822.1254 -7460.6612 305.3397 -9282.7867 -7451.5689 299.9799 45.2468 79.3565 30272.5656 24.4213 80.8379
ENERGY: 1200000 5.9701 56.6153 26.0350 0.0000 -10837.1801 1396.6487 0.0000 0.0000 1804.1230 -7547.7881 302.3230 -9351.9111 -7463.1258 299.9478 -502.3812 -399.9713 30393.2904 -39.1652 14.7471
ENERGY: 1500000 5.2543 63.1367 21.6104 0.0000 -10749.0728 1418.1149 0.0000 0.0000 1756.5705 -7484.3860 294.3545 -9240.9565 -7465.0302 299.6850 -218.1381 -231.9493 31139.7062 -2.5644 44.0851
TCL: Running FEP window   7: Lambda1 0.3    Lambda2 0.35   [dLambda 0.04999999999999999]
TCL: Setting parameter firsttimestep to 0
TCL: Setting parameter alchLambda to 0.3
Info: NONBONDED TABLE R-SQUARED SPACING: 0.0625
Info: NONBONDED TABLE SIZE: 705 POINTS
TCL: Setting parameter alchLambda2 to 0.35
Info: NONBONDED TABLE R-SQUARED SPACING: 0.0625
Info: NONBONDED TABLE SIZE: 705 POINTS
TCL: Running for 1500000 steps
ETITLE: TS BOND ANGLE DIHED IMPRP ELECT VDW BOUNDARY MISC KINETIC TOTAL TEMP POTENTIAL TOTALAVG TEMPAVG PRESSURE GPRESSURE VOLUME PRESSAVG GPRESSAVG
ENERGY: 0 5.2543 63.1367 21.6104 0.0000 -10749.0722 1417.2462 0.0000 0.0000 1755.6567 -7486.1679 294.2013 -9241.8246 -7486.1679 294.2013 -310.0214 -230.5590 31139.7062 -310.0214 -230.5590
ENERGY: 300000 5.9282 62.7234 20.9070 0.0000 -10715.0105 1375.4667 0.0000 0.0000 1750.9838 -7499.0014 293.4183 -9249.9852 -7476.1749 298.1093 -672.6142 -611.1261 30908.5716 -444.4947 -387.5268
ENERGY: 600000 9.1320 55.8111 22.0110 0.0000 -10872.1500 1470.7868 0.0000 0.0000 1773.1998 -7541.2094 297.1411 -9314.4092 -7484.8913 298.3629 127.5534 149.0942 30591.6888 -155.2607 -88.4552
ENERGY: 900000 11.0211 58.4533 22.9890 0.0000 -10770.8578 1377.6495 0.0000 0.0000 1804.3831 -7496.3617 302.3666 -9300.7449 -7484.1781 298.9563 -797.8833 -728.3519 30650.7791 -223.8384 -162.6039
ENERGY: 1200000 7.9783 55.8956 20.9662 0.0000 -10788.7959 1491.3873 0.0000 0.0000 1780.7506 -7431.8178 298.4064 -9212.5685 -7468.0318 299.7916 175.3769 225.2226 31106.6195 -157.8937 -101.8929
ENERGY: 1500000 6.8183 54.8162 21.1639 0.0000 -10752.9786 1453.9235 0.0000 0.0000 1792.5532 -7423.7036 300.3842 -9216.2568 -7462.9487 300.1190 213.0934 241.2075 30370.2215 -1.3939 49.9974
TCL: Running FEP window   8: Lambda1 0.35   Lambda2 0.39999999999999997 [dLambda 0.04999999999999999]
TCL: Setting parameter firsttimestep to 0
TCL: Setting parameter alchLambda to 0.35
Info: NONBONDED TABLE R-SQUARED SPACING: 0.0625
Info: NONBONDED TABLE SIZE: 705 POINTS
TCL: Setting parameter alchLambda2 to 0.39999999999999997
Info: NONBONDED TABLE R-SQUARED SPACING: 0.0625
Info: NONBONDED TABLE SIZE: 705 POINTS
TCL: Running for 1500000 steps
ETITLE: TS BOND ANGLE DIHED IMPRP ELECT VDW BOUNDARY MISC KINETIC TOTAL TEMP POTENTIAL TOTALAVG TEMPAVG PRESSURE GPRESSURE VOLUME PRESSAVG GPRESSAVG
ENERGY: 0 6.8183 54.8162 21.1639 0.0000 -10752.9796 1454.8498 0.0000 0.0000 1791.6317 -7423.6998 300.2298 -9215.3315 -7423.6998 300.2298 173.5760 255.6989 30370.2215 173.5760 255.6989
ENERGY: 300000 14.2707 53.6769 22.5309 0.0000 -10869.0652 1452.6236 0.0000 0.0000 1785.5453 -7540.4178 299.2099 -9325.9631 -7464.4348 301.6218 -437.3238 -354.3251 30515.6869 -21.5455 45.1412
ENERGY: 600000 9.3731 60.9444 21.3659 0.0000 -10813.2850 1457.8185 0.0000 0.0000 1777.7596 -7486.0235 297.9052 -9263.7832 -7456.7034 302.6670 -415.6387 -315.4244 31385.0507 81.7266 150.8212
ENERGY: 900000 9.0783 59.1517 23.6985 0.0000 -10781.5644 1435.1846 0.0000 0.0000 1755.7695 -7498.6816 294.2202 -9254.4511 -7465.9562 301.5140 -172.2823 -94.9050 30677.2606 32.3987 95.9347
ENERGY: 1200000 7.7950 65.6393 19.9977 0.0000 -10786.0637 1480.6198 0.0000 0.0000 1763.3290 -7448.6829 295.4870 -9212.0119 -7466.0105 299.7295 146.0692 230.1489 31066.5276 54.8212 115.5091
ENERGY: 1500000 11.4642 60.5768 21.4123 0.0000 -10749.4897 1485.9648 0.0000 0.0000 1836.4285 -7333.6431 307.7365 -9170.0715 -7450.1521 300.8218 169.4162 256.8256 30953.3829 28.6916 95.4930
TCL: Running FEP window   9: Lambda1 0.39999999999999997 Lambda2 0.44999999999999996 [dLambda 0.04999999999999999]
TCL: Setting parameter firsttimestep to 0
TCL: Setting parameter alchLambda to 0.39999999999999997
Info: NONBONDED TABLE R-SQUARED SPACING: 0.0625
Info: NONBONDED TABLE SIZE: 705 POINTS
TCL: Setting parameter alchLambda2 to 0.44999999999999996
Info: NONBONDED TABLE R-SQUARED SPACING: 0.0625
Info: NONBONDED TABLE SIZE: 705 POINTS
TCL: Running for 1500000 steps
ETITLE: TS BOND ANGLE DIHED IMPRP ELECT VDW BOUNDARY MISC KINETIC TOTAL TEMP POTENTIAL TOTALAVG TEMPAVG PRESSURE GPRESSURE VOLUME PRESSAVG GPRESSAVG
ENERGY: 0 11.4642 60.5768 21.4123 0.0000 -10749.4895 1486.0572 0.0000 0.0000 1835.5459 -7334.4331 307.5886 -9169.9790 -7334.4331 307.5886 169.9672 267.9070 30953.3829 169.9672 267.9070
ENERGY: 300000 9.0707 60.0162 22.4448 0.0000 -10808.9956 1443.1396 0.0000 0.0000 1799.3712 -7474.9531 301.5267 -9274.3243 -7401.4503 304.2288 -120.7536 -30.2971 30683.7994 96.2164 181.4027
ENERGY: 600000 8.7454 61.4671 21.4556 0.0000 -10657.6209 1397.1024 0.0000 0.0000 1773.0301 -7395.8204 297.1127 -9168.8504 -7405.6601 302.6933 -516.2501 -427.5335 31075.0993 -7.7490 66.4286
ENERGY: 900000 7.0129 58.3265 21.6929 0.0000 -10865.3144 1487.3587 0.0000 0.0000 1779.9335 -7510.9898 298.2695 -9290.9233 -7428.4123 302.9265 225.6917 327.8286 30475.6792 -19.6238 54.6320
ENERGY: 1200000 7.4272 61.6394 22.5025 0.0000 -10824.5724 1473.7241 0.0000 0.0000 1755.0391 -7504.2401 294.0978 -9259.2791 -7437.5519 301.7417 85.3690 125.9464 30864.8152 119.8283 179.4631
ENERGY: 1500000 13.9049 59.0601 20.4206 0.0000 -10687.7186 1395.4723 0.0000 0.0000 1782.6625 -7416.1981 298.7268 -9198.8606 -7437.0754 301.1224 18.6911 94.0951 30424.5459 144.4166 200.8782
TCL: Running FEP window  10: Lambda1 0.44999999999999996 Lambda2 0.49999999999999994 [dLambda 0.04999999999999999]
TCL: Setting parameter firsttimestep to 0
TCL: Setting parameter alchLambda to 0.44999999999999996
Info: NONBONDED TABLE R-SQUARED SPACING: 0.0625
Info: NONBONDED TABLE SIZE: 705 POINTS
TCL: Setting parameter alchLambda2 to 0.49999999999999994
Info: NONBONDED TABLE R-SQUARED SPACING: 0.0625
Info: NONBONDED TABLE SIZE: 705 POINTS
TCL: Running for 1500000 steps
ETITLE: TS BOND ANGLE DIHED IMPRP ELECT VDW BOUNDARY MISC KINETIC TOTAL TEMP POTENTIAL TOTALAVG TEMPAVG PRESSURE GPRESSURE VOLUME PRESSAVG GPRESSAVG
ENERGY: 0 13.9049 59.0601 20.4206 0.0000 -10687.7187 1394.7308 0.0000 0.0000 1781.7960 -7417.8061 298.5816 -9199.6022 -7417.8061 298.5816 28.6357 98.6486 30424.5459 28.6357 98.6486
ENERGY: 300000 6.1758 56.2813 21.1975 0.0000 -10724.4611 1368.5568 0.0000 0.0000 1760.8996 -7511.3500 295.0799 -9272.2496 -7463.1221 299.0073 -448.2370 -390.7781 30581.0636 -227.0593 -160.2679
ENERGY: 600000 8.8865 60.5797 24.1478 0.0000 -10746.6388 1406.6610 0.0000 0.0000 1799.3040 -7447.0599 301.5155 -9246.3639 -7474.4102 300.4032 -259.1703 -210.6886 30594.9607 -135.3902 -80.8865
ENERGY: 900000 8.3588 58.7547 22.6274 0.0000 -10799.1393 1447.9991 0.0000 0.0000 1761.4780 -7499.9213 295.1768 -9261.3993 -7463.8867 301.1097 -302.8129 -250.8594 31168.0109 -68.0138 -23.4823
ENERGY: 1200000 13.1909 57.4219 22.8640 0.0000 -10958.6380 1560.4708 0.0000 0.0000 1775.0618 -7529.6285 297.4531 -9304.6904 -7479.1500 300.3900 914.8542 947.8106 30243.3029 -7.2266 44.4393
ENERGY: 1500000 7.0198 65.7372 22.1926 0.0000 -10871.2191 1519.1182 0.0000 0.0000 1796.4132 -7460.7381 301.0311 -9257.1514 -7481.3280 300.4030 353.5035 407.5902 30992.2876 9.7963 62.9628
TCL: Running FEP window  11: Lambda1 0.49999999999999994 Lambda2 0.5499999999999999 [dLambda 0.04999999999999999]
TCL: Setting parameter firsttimestep to 0
TCL: Setting parameter alchLambda to 0.49999999999999994
Info: NONBONDED TABLE R-SQUARED SPACING: 0.0625
Info: NONBONDED TABLE SIZE: 705 POINTS
TCL: Setting parameter alchLambda2 to 0.5499999999999999
Info: NONBONDED TABLE R-SQUARED SPACING: 0.0625
Info: NONBONDED TABLE SIZE: 705 POINTS
TCL: Running for 1500000 steps
ETITLE: TS BOND ANGLE DIHED IMPRP ELECT VDW BOUNDARY MISC KINETIC TOTAL TEMP POTENTIAL TOTALAVG TEMPAVG PRESSURE GPRESSURE VOLUME PRESSAVG GPRESSAVG
ENERGY: 0 7.0198 65.7372 22.1926 0.0000 -10871.2189 1519.6349 0.0000 0.0000 1795.5511 -7461.0833 300.8866 -9256.6345 -7461.0833 300.8866 329.8188 422.6937 30992.2876 329.8188 422.6937
ENERGY: 300000 10.7519 61.4704 21.3476 0.0000 -10941.7943 1559.2581 0.0000 0.0000 1787.6308 -7501.3356 299.5594 -9288.9664 -7446.6708 298.2597 765.5965 833.6117 30928.9679 181.1819 238.9049
ENERGY: 600000 9.0531 56.6105 22.3064 0.0000 -10857.2367 1421.4220 0.0000 0.0000 1763.5296 -7584.3151 295.5206 -9347.8447 -7466.1509 298.6455 -458.6409 -428.1466 30872.4721 75.4238 115.6185
ENERGY: 900000 6.2145 60.5893 22.9320 0.0000 -10913.0959 1530.4342 0.0000 0.0000 1820.1129 -7472.8130 305.0025 -9292.9259 -7484.3030 298.1689 931.8431 984.0350 30305.1234 -79.5087 -34.3829
ENERGY: 1200000 7.8658 63.4350 21.1527 0.0000 -10703.7765 1419.2180 0.0000 0.0000 1815.6597 -7376.4453 304.2563 -9192.1050 -7477.9174 299.8306 -35.1962 29.2625 30850.1917 -97.1724 -45.4270
ENERGY: 1500000 5.4935 66.8884 20.7266 0.0000 -10945.5876 1524.8892 0.0000 0.0000 1782.8884 -7544.7016 298.7646 -9327.5899 -7479.2781 299.9426 530.9606 591.9173 31106.6389 -59.6195 -6.2695
TCL: Running FEP window  12: Lambda1 0.5499999999999999 Lambda2 0.6    [dLambda 0.050000000000000044]
TCL: Setting parameter firsttimestep to 0
TCL: Setting parameter alchLambda to 0.5499999999999999
Info: NONBONDED TABLE R-SQUARED SPACING: 0.0625
Info: NONBONDED TABLE SIZE: 705 POINTS
TCL: Setting parameter alchLambda2 to 0.6
Info: NONBONDED TABLE R-SQUARED SPACING: 0.0625
Info: NONBONDED TABLE SIZE: 705 POINTS
TCL: Running for 1500000 steps
ETITLE: TS BOND ANGLE DIHED IMPRP ELECT VDW BOUNDARY MISC KINETIC TOTAL TEMP POTENTIAL TOTALAVG TEMPAVG PRESSURE GPRESSURE VOLUME PRESSAVG GPRESSAVG
ENERGY: 0 5.4935 66.8883 20.7266 0.0000 -10945.4757 1523.9315 0.0000 0.0000 1782.0344 -7546.4013 298.6215 -9328.4357 -7546.4013 298.6215 525.6120 592.3043 31106.6389 525.6120 592.3043
ENERGY: 300000 6.0366 59.7180 22.3144 0.0000 -10849.9674 1474.7577 0.0000 0.0000 1816.2382 -7470.9026 304.3532 -9287.1408 -7487.2462 303.8539 -2.2787 83.3138 31026.6321 352.1991 404.6760
ENERGY: 600000 6.0690 56.4817 20.7358 0.0000 -10841.2521 1475.5547 0.0000 0.0000 1785.5921 -7496.8188 299.2177 -9282.4109 -7499.2570 299.8944 267.7137 345.9108 30849.3910 250.8789 309.2422
ENERGY: 900000 9.5301 52.4618 22.6455 0.0000 -10730.9259 1435.5036 0.0000 0.0000 1810.9594 -7399.8254 303.4686 -9210.7849 -7482.9728 299.9356 -170.3167 -159.1096 31089.4965 88.2334 132.3585
ENERGY: 1200000 8.5477 60.6557 22.3933 0.0000 -10815.4240 1416.3279 0.0000 0.0000 1813.4626 -7494.0369 303.8881 -9307.4995 -7465.8846 301.2123 -302.6620 -208.0703 30701.0712 57.2344 111.7031
ENERGY: 1500000 7.0710 60.9953 21.4304 0.0000 -10658.9364 1409.7129 0.0000 0.0000 1743.7742 -7415.9526 292.2101 -9159.7267 -7471.8361 300.0883 -90.7204 -24.2790 31226.1617 75.3580 125.9987
TCL: Running FEP window  13: Lambda1 0.6    Lambda2 0.65   [dLambda 0.050000000000000044]
TCL: Setting parameter firsttimestep to 0
TCL: Setting parameter alchLambda to 0.6
Info: NONBONDED TABLE R-SQUARED SPACING: 0.0625
Info: NONBONDED TABLE SIZE: 705 POINTS
TCL: Setting parameter alchLambda2 to 0.65
Info: NONBONDED TABLE R-SQUARED SPACING: 0.0625
Info: NONBONDED TABLE SIZE: 705 POINTS
TCL: Running for 1500000 steps
ETITLE: TS BOND ANGLE DIHED IMPRP ELECT VDW BOUNDARY MISC KINETIC TOTAL TEMP POTENTIAL TOTALAVG TEMPAVG PRESSURE GPRESSURE VOLUME PRESSAVG GPRESSAVG
ENERGY: 0 7.0710 60.9953 21.4304 0.0000 -10658.8634 1411.1588 0.0000 0.0000 1742.8880 -7415.3199 292.0617 -9158.2079 -7415.3199 292.0617 -81.2477 -0.0507 31226.1617 -81.2477 -0.0507
ENERGY: 300000 11.0221 61.0256 21.2582 0.0000 -10840.9400 1372.1165 0.0000 0.0000 1804.1759 -7571.3417 302.3319 -9375.5176 -7450.4418 300.5816 -939.3345 -825.9253 30609.4210 -267.3799 -185.1999
ENERGY: 600000 9.3343 61.7363 23.2021 0.0000 -10841.3009 1464.2699 0.0000 0.0000 1781.7664 -7500.9919 298.5766 -9282.7583 -7463.5587 300.6084 174.2246 207.3667 30272.7457 -145.8113 -71.1604
ENERGY: 900000 9.5868 57.7925 21.6254 0.0000 -10682.5511 1395.3330 0.0000 0.0000 1900.4776 -7297.7358 318.4695 -9198.2135 -7450.9761 300.5926 -375.3161 -317.7137 31416.1940 -162.8313 -93.8704
ENERGY: 1200000 5.9518 58.8694 21.4569 0.0000 -10830.6943 1499.4079 0.0000 0.0000 1796.1837 -7448.8247 300.9926 -9245.0083 -7443.7972 300.1341 624.3442 648.5734 30579.9573 -93.1263 -30.0368
ENERGY: 1500000 6.8124 60.1562 21.3674 0.0000 -10897.4846 1559.8956 0.0000 0.0000 1798.8447 -7450.4082 301.4385 -9249.2529 -7451.8238 300.2821 663.7296 726.1523 31378.8595 -47.1297 17.5279
TCL: Running FEP window  14: Lambda1 0.65   Lambda2 0.7000000000000001 [dLambda 0.050000000000000044]
TCL: Setting parameter firsttimestep to 0
TCL: Setting parameter alchLambda to 0.65
Info: NONBONDED TABLE R-SQUARED SPACING: 0.0625
Info: NONBONDED TABLE SIZE: 705 POINTS
TCL: Setting parameter alchLambda2 to 0.7000000000000001
Info: NONBONDED TABLE R-SQUARED SPACING: 0.0625
Info: NONBONDED TABLE SIZE: 705 POINTS
TCL: Running for 1500000 steps
ETITLE: TS BOND ANGLE DIHED IMPRP ELECT VDW BOUNDARY MISC KINETIC TOTAL TEMP POTENTIAL TOTALAVG TEMPAVG PRESSURE GPRESSURE VOLUME PRESSAVG GPRESSAVG
ENERGY: 0 6.8124 60.1562 21.3674 0.0000 -10897.4133 1558.8769 0.0000 0.0000 1797.9506 -7452.2498 301.2887 -9250.2004 -7452.2498 301.2887 652.0983 730.2906 31378.8595 652.0983 730.2906
ENERGY: 300000 11.4531 59.8316 21.1394 0.0000 -10847.4903 1507.8098 0.0000 0.0000 1786.6422 -7460.6142 299.3937 -9247.2564 -7432.8379 301.8508 317.6472 422.0064 31072.8148 -119.4851 -40.2843
ENERGY: 600000 9.8953 57.6380 23.0794 0.0000 -10773.6186 1439.6834 0.0000 0.0000 1759.0189 -7484.3037 294.7648 -9243.3226 -7462.1715 299.1788 -436.2784 -330.9543 31173.0707 -253.0137 -182.7164
ENERGY: 900000 8.1443 58.4979 22.9556 0.0000 -10799.7662 1490.5877 0.0000 0.0000 1709.9033 -7509.6775 286.5343 -9219.5808 -7467.7134 297.5100 -35.8348 19.8557 31115.7143 -70.2612 2.0465
ENERGY: 1200000 7.8400 63.4607 21.9116 0.0000 -10754.6543 1410.3466 0.0000 0.0000 1797.8653 -7453.2301 301.2744 -9251.0954 -7468.8104 297.3893 -507.2174 -441.1239 31291.1564 -102.5786 -34.9305
ENERGY: 1500000 6.8233 67.5675 22.0689 0.0000 -10757.0769 1384.7535 0.0000 0.0000 1816.8516 -7459.0120 304.4560 -9275.8637 -7470.5383 297.5098 -840.0672 -777.8399 31344.4213 -179.0861 -109.5070
TCL: Running FEP window  15: Lambda1 0.7000000000000001 Lambda2 0.7500000000000001 [dLambda 0.050000000000000044]
TCL: Setting parameter firsttimestep to 0
TCL: Setting parameter alchLambda to 0.7000000000000001
Info: NONBONDED TABLE R-SQUARED SPACING: 0.0625
Info: NONBONDED TABLE SIZE: 705 POINTS
TCL: Setting parameter alchLambda2 to 0.7500000000000001
Info: NONBONDED TABLE R-SQUARED SPACING: 0.0625
Info: NONBONDED TABLE SIZE: 705 POINTS
TCL: Running for 1500000 steps
ETITLE: TS BOND ANGLE DIHED IMPRP ELECT VDW BOUNDARY MISC KINETIC TOTAL TEMP POTENTIAL TOTALAVG TEMPAVG PRESSURE GPRESSURE VOLUME PRESSAVG GPRESSAVG
ENERGY: 0 6.8233 67.5676 22.0689 0.0000 -10757.8436 1384.8288 0.0000 0.0000 1815.9721 -7460.5829 304.3086 -9276.5550 -7460.5829 304.3086 -841.6188 -759.4575 31344.4213 -841.6188 -759.4575
ENERGY: 300000 6.8651 65.1239 21.1814 0.0000 -10728.2028 1406.2732 0.0000 0.0000 1782.9431 -7445.8162 298.7738 -9228.7593 -7436.8913 303.1786 -377.1933 -321.7231 31006.1991 -107.3927 -63.2269
ENERGY: 600000 6.6214 62.3829 20.4494 0.0000 -10920.6053 1467.8042 0.0000 0.0000 1839.7449 -7523.6026 308.2923 -9363.3475 -7446.5465 303.0029 42.5826 171.7501 30440.7266 -54.3791 1.9946
ENERGY: 900000 8.5351 61.8831 21.5065 0.0000 -10813.4468 1441.8289 0.0000 0.0000 1794.4772 -7485.2161 300.7066 -9279.6932 -7455.2377 303.1763 -116.8312 -111.4453 30791.9853 -35.5430 16.6913
ENERGY: 1200000 8.8611 56.9478 21.8265 0.0000 -10784.3089 1478.1344 0.0000 0.0000 1726.7444 -7491.7948 289.3564 -9218.5392 -7450.9282 302.5369 328.0800 344.5756 31221.5333 -8.5858 37.2119
ENERGY: 1500000 5.0463 61.8264 20.9748 0.0000 -10801.1569 1414.3791 0.0000 0.0000 1832.8246 -7466.1057 307.1326 -9298.9303 -7450.0170 302.6676 -609.4888 -528.6786 31513.8045 -127.3431 -74.0635
TCL: Running FEP window  16: Lambda1 0.7500000000000001 Lambda2 0.8000000000000002 [dLambda 0.050000000000000044]
TCL: Setting parameter firsttimestep to 0
TCL: Setting parameter alchLambda to 0.7500000000000001
Info: NONBONDED TABLE R-SQUARED SPACING: 0.0625
Info: NONBONDED TABLE SIZE: 705 POINTS
TCL: Setting parameter alchLambda2 to 0.8000000000000002
Info: NONBONDED TABLE R-SQUARED SPACING: 0.0625
Info: NONBONDED TABLE SIZE: 705 POINTS
TCL: Running for 1500000 steps
ETITLE: TS BOND ANGLE DIHED IMPRP ELECT VDW BOUNDARY MISC KINETIC TOTAL TEMP POTENTIAL TOTALAVG TEMPAVG PRESSURE GPRESSURE VOLUME PRESSAVG GPRESSAVG
ENERGY: 0 5.0463 61.8264 20.9748 0.0000 -10801.8162 1413.7393 0.0000 0.0000 1831.9345 -7468.2950 306.9835 -9300.2295 -7468.2950 306.9835 -596.4505 -520.7214 31513.8045 -596.4505 -520.7214
ENERGY: 300000 10.6687 67.6389 20.5894 0.0000 -10814.5404 1401.9335 0.0000 0.0000 1825.5583 -7488.1516 305.9150 -9313.7099 -7490.4284 302.5213 -549.8378 -437.5539 30482.9302 -252.2971 -161.1547
ENERGY: 600000 5.1269 57.4774 20.6277 0.0000 -10855.4645 1486.8065 0.0000 0.0000 1817.9009 -7467.5250 304.6318 -9285.4260 -7480.0751 302.1491 439.9184 483.7753 30700.6401 -267.3221 -189.1658
ENERGY: 900000 8.3175 56.2893 22.6349 0.0000 -10769.9903 1416.7937 0.0000 0.0000 1755.3280 -7510.6269 294.1463 -9265.9549 -7483.0345 300.6070 -368.9799 -254.2942 31052.8082 -365.3694 -288.5228
ENERGY: 1200000 9.4975 57.1024 22.6450 0.0000 -10717.3768 1410.9246 0.0000 0.0000 1813.1627 -7404.0445 303.8378 -9217.2073 -7467.7690 301.4910 -240.4229 -281.7409 30992.1755 -324.3659 -256.3407
ENERGY: 1500000 6.9658 59.5458 22.7917 0.0000 -10723.0986 1389.4472 0.0000 0.0000 1816.7038 -7427.6443 304.4312 -9244.3481 -7468.2068 301.6520 -166.5067 -116.2419 30390.7128 -308.0227 -238.3049
TCL: Running FEP window  17: Lambda1 0.8000000000000002 Lambda2 0.8500000000000002 [dLambda 0.050000000000000044]
TCL: Setting parameter firsttimestep to 0
TCL: Setting parameter alchLambda to 0.8000000000000002
Info: NONBONDED TABLE R-SQUARED SPACING: 0.0625
Info: NONBONDED TABLE SIZE: 705 POINTS
TCL: Setting parameter alchLambda2 to 0.8500000000000002
Info: NONBONDED TABLE R-SQUARED SPACING: 0.0625
Info: NONBONDED TABLE SIZE: 705 POINTS
TCL: Running for 1500000 steps
ETITLE: TS BOND ANGLE DIHED IMPRP ELECT VDW BOUNDARY MISC KINETIC TOTAL TEMP POTENTIAL TOTALAVG TEMPAVG PRESSURE GPRESSURE VOLUME PRESSAVG GPRESSAVG
ENERGY: 0 6.9658 59.5458 22.7917 0.0000 -10723.2134 1389.7114 0.0000 0.0000 1815.8142 -7428.3844 304.2821 -9244.1986 -7428.3844 304.2821 -184.8097 -101.2766 30390.7128 -184.8097 -101.2766
ENERGY: 300000 13.3832 59.3613 22.0331 0.0000 -10781.2124 1449.8306 0.0000 0.0000 1726.3581 -7510.2462 289.2917 -9236.6043 -7484.0623 298.6394 399.3161 493.3684 30529.2164 127.7679 220.3000
ENERGY: 600000 8.5149 63.3566 21.7379 0.0000 -10739.2222 1441.6302 0.0000 0.0000 1787.1030 -7416.8795 299.4709 -9203.9825 -7484.9976 298.7490 -77.4064 34.9356 31307.2463 -16.6627 66.2555
ENERGY: 900000 3.8264 60.8385 22.5153 0.0000 -10755.9978 1416.2916 0.0000 0.0000 1854.8968 -7397.6292 310.8313 -9252.5260 -7477.8815 300.0930 50.4523 51.2741 30684.9083 -23.1466 46.6902
ENERGY: 1200000 6.2165 55.2605 23.5451 0.0000 -10944.3103 1522.1475 0.0000 0.0000 1781.2222 -7555.9185 298.4854 -9337.1407 -7483.6369 300.4520 613.5674 654.3102 30590.1594 51.3564 107.4007
ENERGY: 1500000 4.5372 58.4212 21.5154 0.0000 -10847.8050 1491.9854 0.0000 0.0000 1760.6317 -7510.7142 295.0350 -9271.3459 -7483.8384 300.2909 443.9274 507.8222 31034.1988 53.5579 116.0114
TCL: Running FEP window  18: Lambda1 0.8500000000000002 Lambda2 0.9000000000000002 [dLambda 0.050000000000000044]
TCL: Setting parameter firsttimestep to 0
TCL: Setting parameter alchLambda to 0.8500000000000002
Info: NONBONDED TABLE R-SQUARED SPACING: 0.0625
Info: NONBONDED TABLE SIZE: 705 POINTS
TCL: Setting parameter alchLambda2 to 0.9000000000000002
Info: NONBONDED TABLE R-SQUARED SPACING: 0.0625
Info: NONBONDED TABLE SIZE: 705 POINTS
TCL: Running for 1500000 steps
ETITLE: TS BOND ANGLE DIHED IMPRP ELECT VDW BOUNDARY MISC KINETIC TOTAL TEMP POTENTIAL TOTALAVG TEMPAVG PRESSURE GPRESSURE VOLUME PRESSAVG GPRESSAVG
ENERGY: 0 4.5372 58.4212 21.5154 0.0000 -10848.3824 1491.6504 0.0000 0.0000 1759.7479 -7512.5103 294.8869 -9272.2583 -7512.5103 294.8869 432.6607 520.6281 31034.1988 432.6607 520.6281
ENERGY: 300000 10.3174 64.1454 20.3569 0.0000 -10851.4034 1515.5423 0.0000 0.0000 1762.8456 -7478.1959 295.4060 -9241.0415 -7450.0887 298.4259 694.6581 765.2109 30799.3257 403.3559 472.6396
ENERGY: 600000 6.5596 60.3518 22.2509 0.0000 -10653.4662 1381.7735 0.0000 0.0000 1873.6305 -7308.9000 313.9706 -9182.5304 -7444.2965 300.3953 -244.9083 -218.2501 30764.2925 259.6823 328.8858
ENERGY: 900000 8.2077 56.5427 23.0859 0.0000 -10985.0985 1589.1288 0.0000 0.0000 1753.8038 -7554.3295 293.8909 -9308.1333 -7467.3106 299.8417 925.7508 976.2758 30683.4163 214.5775 286.9809
ENERGY: 1200000 6.9768 61.8404 21.0383 0.0000 -10693.9839 1342.4859 0.0000 0.0000 1781.1569 -7480.4856 298.4745 -9261.6426 -7458.0180 299.9066 -942.1802 -899.3180 31671.2886 83.8753 148.7543
ENERGY: 1500000 5.5881 62.1455 20.7910 0.0000 -10777.6568 1413.0940 0.0000 0.0000 1882.8204 -7393.2178 315.5106 -9276.0382 -7460.6902 300.8965 -209.7511 -161.0566 31057.0556 41.5687 105.8796
TCL: Running FEP window  19: Lambda1 0.9000000000000002 Lambda2 0.9500000000000003 [dLambda 0.050000000000000044]
TCL: Setting parameter firsttimestep to 0
TCL: Setting parameter alchLambda to 0.9000000000000002
Info: NONBONDED TABLE R-SQUARED SPACING: 0.0625
Info: NONBONDED TABLE SIZE: 705 POINTS
TCL: Setting parameter alchLambda2 to 0.9500000000000003
Info: NONBONDED TABLE R-SQUARED SPACING: 0.0625
Info: NONBONDED TABLE SIZE: 705 POINTS
TCL: Running for 1500000 steps
ETITLE: TS BOND ANGLE DIHED IMPRP ELECT VDW BOUNDARY MISC KINETIC TOTAL TEMP POTENTIAL TOTALAVG TEMPAVG PRESSURE GPRESSURE VOLUME PRESSAVG GPRESSAVG
ENERGY: 0 5.5881 62.1455 20.7910 0.0000 -10777.9051 1411.7999 0.0000 0.0000 1881.8991 -7395.6815 315.3562 -9277.5806 -7395.6815 315.3562 -240.7549 -157.8256 31057.0556 -240.7549 -157.8256
ENERGY: 300000 8.7965 64.1408 22.6987 0.0000 -10870.0285 1465.4370 0.0000 0.0000 1809.2180 -7499.7374 303.1768 -9308.9555 -7450.9955 305.1970 101.8849 214.3956 30640.2490 -209.3948 -123.1913
ENERGY: 600000 7.9970 54.5515 22.2499 0.0000 -10749.8304 1389.4103 0.0000 0.0000 1784.9851 -7490.6365 299.1160 -9275.6216 -7457.7054 303.0699 -110.7790 -10.2208 30598.7954 -157.8890 -76.9628
ENERGY: 900000 8.3886 54.3958 20.3212 0.0000 -10855.8665 1430.1245 0.0000 0.0000 1840.1315 -7502.5049 308.3571 -9342.6363 -7457.7897 302.7983 -260.0073 -166.1850 30687.1371 -120.1397 -39.6900
ENERGY: 1200000 7.4058 58.3788 22.6843 0.0000 -10829.9616 1450.5746 0.0000 0.0000 1807.6298 -7483.2883 302.9107 -9290.9181 -7463.3731 302.1072 -454.6179 -344.5151 31522.1295 -237.8582 -151.2816
ENERGY: 1500000 6.3189 61.6257 23.0797 0.0000 -10910.6193 1474.3978 0.0000 0.0000 1815.1981 -7529.9991 304.1789 -9345.1973 -7473.9430 302.2309 -35.7089 27.0895 31168.4805 -203.8628 -120.6887
TCL: Running FEP window  20: Lambda1 0.9500000000000003 Lambda2 1.0    [dLambda 0.04999999999999971]
TCL: Setting parameter firsttimestep to 0
TCL: Setting parameter alchLambda to 0.9500000000000003
Info: NONBONDED TABLE R-SQUARED SPACING: 0.0625
Info: NONBONDED TABLE SIZE: 705 POINTS
TCL: Setting parameter alchLambda2 to 1.0
Info: NONBONDED TABLE R-SQUARED SPACING: 0.0625
Info: NONBONDED TABLE SIZE: 705 POINTS
TCL: Running for 1500000 steps
ETITLE: TS BOND ANGLE DIHED IMPRP ELECT VDW BOUNDARY MISC KINETIC TOTAL TEMP POTENTIAL TOTALAVG TEMPAVG PRESSURE GPRESSURE VOLUME PRESSAVG GPRESSAVG
ENERGY: 0 6.3189 61.6257 23.0797 0.0000 -10911.1029 1474.2734 0.0000 0.0000 1814.3032 -7531.5020 304.0289 -9345.8052 -7531.5020 304.0289 -44.7001 40.3038 31168.4805 -44.7001 40.3038
ENERGY: 300000 12.0284 66.5538 21.1429 0.0000 -10806.4888 1405.6607 0.0000 0.0000 1778.4633 -7522.6397 298.0231 -9301.1031 -7524.7154 298.8503 -420.6824 -349.6147 30993.8181 33.4687 97.0299
ENERGY: 600000 11.8442 60.1731 21.0186 0.0000 -10792.7331 1423.3420 0.0000 0.0000 1863.2329 -7413.1223 312.2283 -9276.3552 -7506.4826 302.3886 -257.6392 -204.0513 30900.3047 -163.4159 -100.3820
ENERGY: 900000 6.1421 62.8812 21.2066 0.0000 -10795.4772 1393.6306 0.0000 0.0000 1775.4058 -7536.2109 297.5108 -9311.6167 -7492.3028 302.3438 -275.3059 -262.3999 30959.7369 -308.1535 -250.8130
ENERGY: 1200000 6.5031 63.0759 23.1637 0.0000 -10804.5208 1496.2140 0.0000 0.0000 1841.4382 -7374.1259 308.5760 -9215.5641 -7473.2917 302.7651 670.0150 733.9219 30923.9402 -190.7445 -120.9342
ENERGY: 1500000 6.9747 62.1933 23.2992 0.0000 -10798.2330 1447.9015 0.0000 0.0000 1802.0385 -7455.8258 301.9737 -9257.8642 -7480.0350 301.8816 185.4469 200.0585 30735.8648 -140.9782 -75.7133
TCL: Exiting due to exit command.
