Info: SIMULATION PARAMETERS:
Info: TIMESTEP               2
Info: NUMBER OF STEPS        0
Info: STEPS PER CYCLE        10
Info: PERIODIC CELL BASIS 1  31.1246 0 0
Info: PERIODIC CELL BASIS 2  0 31.3531 0
Info: PERIODIC CELL BASIS 3  0 0 31.7585
Info: PERIODIC CELL CENTER   0 0 0
Info: WRAPPING WATERS AROUND PERIODIC BOUNDARIES ON OUTPUT.
Info: WRAPPING ALL CLUSTERS AROUND PERIODIC BOUNDARIES ON OUTPUT.
Info: FIRST LDB TIMESTEP     50
Info: LAST LDB TIMESTEP     -1
Info: HOM BACKGROUND SCALING 1
Info: PME BACKGROUND SCALING 1
Info: MIN ATOMS PER PATCH    40
Info: EMPTY PATCH LOAD       40 ATOMS
Info: VELOCITY FILE          mobley_2068538_equil.vel
Info: CENTER OF MASS MOVING INITIALLY? NO
Info: DIELECTRIC             1
Info: EXCLUDE                SCALED ONE-FOUR
Info: 1-4 ELECTROSTATICS SCALED BY 0.833333
Info: MODIFIED 1-4 VDW PARAMETERS WILL BE USED
Info: DCD FILENAME           mobley_2068538_prod.dcd
Info: DCD FREQUENCY          100000
Info: DCD FIRST STEP         100000
Info: DCD FILE WILL CONTAIN UNIT CELL DATA
Info: XST FILENAME           mobley_2068538_prod.xst
Info: XST FREQUENCY          100000
Info: NO VELOCITY DCD OUTPUT
Info: NO FORCE DCD OUTPUT
Info: OUTPUT FILENAME        mobley_2068538_prod
Info: BINARY OUTPUT FILES WILL BE USED
Info: RESTART FILENAME       mobley_2068538_prod.restart
Info: RESTART FREQUENCY      100000
Info: BINARY RESTART FILES WILL BE USED
Info: CUTOFF                 9
Info: PAIRLIST DISTANCE      11
Info: PAIRLIST SHRINK RATE   0.01
Info: PAIRLIST GROW RATE     0.01
Info: PAIRLIST TRIGGER       0.3
Info: PAIRLISTS PER CYCLE    2
Info: PAIRLISTS ENABLED
Info: MARGIN                 2
Info: HYDROGEN GROUP CUTOFF  2.5
Info: PATCH DIMENSION        15.5
Info: ENERGY OUTPUT STEPS    100000
Info: ENERGY EVALUATION STEPS    100000
Info: OUTPUT ENERGY PRECISION 4
Info: CROSSTERM ENERGY INCLUDED IN DIHEDRAL
Info: TIMING OUTPUT STEPS    1000000
Info: PRESSURE OUTPUT STEPS  100000
Info: ALCHEMICAL FEP ON
Info: FEP CURRENT LAMBDA VALUE     1
Info: FEP COMPARISON LAMBDA VALUE  0.95
Info: FEP INTRA-ALCHEMICAL NON-BONDED INTERACTIONS WILL BE RETAINED
Info: FEP INTRA-ALCHEMICAL BONDED INTERACTIONS WILL BE RETAINED
Info: FEP VDW SHIFTING COEFFICIENT 5
Info: FEP ELEC. ACTIVE FOR ANNIHILATED PARTICLES BETWEEN LAMBDA = 0 AND LAMBDA = 0.5
Info: FEP ELEC. ACTIVE FOR EXNIHILATED PARTICLES BETWEEN LAMBDA = 0.5 AND LAMBDA = 1
Info: FEP VDW ACTIVE FOR ANNIHILATED PARTICLES BETWEEN LAMBDA = 0 AND LAMBDA = 1
Info: FEP VDW ACTIVE FOR EXNIHILATED PARTICLES BETWEEN LAMBDA = 0 AND LAMBDA = 1
Info: FEP BOND ACTIVE FOR ANNIHILATED PARTICLES BETWEEN LAMBDA = 1 AND LAMBDA = 1
Info: FEP BOND ACTIVE FOR EXNIHILATED PARTICLES BETWEEN LAMBDA = 0 AND LAMBDA = 0
Info: LANGEVIN DYNAMICS ACTIVE
Info: LANGEVIN TEMPERATURE   300
Info: LANGEVIN USING BBK INTEGRATOR
Info: LANGEVIN DAMPING COEFFICIENT IS 1 INVERSE PS
Info: LANGEVIN DYNAMICS APPLIED TO HYDROGENS
Info: LANGEVIN PISTON PRESSURE CONTROL ACTIVE
Info:        TARGET PRESSURE IS 1.01325 BAR
Info:     OSCILLATION PERIOD IS 50 FS
Info:             DECAY TIME IS 25 FS
Info:     PISTON TEMPERATURE IS 300 K
Info:       PRESSURE CONTROL IS GROUP-BASED
Info:    INITIAL STRAIN RATE IS -0.000374619 -0.000374619 -0.000374619
Info:       CELL FLUCTUATION IS ISOTROPIC
Info: PARTICLE MESH EWALD (PME) ACTIVE
Info: PME TOLERANCE               1e-06
Info: PME EWALD COEFFICIENT       0.348832
Info: PME INTERPOLATION ORDER     4
Info: PME GRID DIMENSIONS         32 32 32
Info: PME MAXIMUM GRID SPACING    1
Info: PME CALCULATION WILL BE PERFORMED ON GPU
Info: FULL ELECTROSTATIC EVALUATION FREQUENCY      2
Info: USING VERLET I (r-RESPA) MTS SCHEME.
Info: C1 SPLITTING OF LONG RANGE ELECTROSTATICS
Info: PLACING ATOMS IN PATCHES BY HYDROGEN GROUPS
Info: RIGID BONDS TO HYDROGEN : ALL
Info:         ERROR TOLERANCE : 1e-08
Info:          MAX ITERATIONS : 100
Info: RIGID WATER USING SETTLE ALGORITHM
Info: RANDOM NUMBER SEED     1743525817
Info: USE HYDROGEN BONDS?    NO
Info: Using AMBER format force field!
Info: AMBER PARM FILE        mobley_2068538.prmtop
Info: COORDINATE PDB         mobley_2068538.pdb
Info: Exclusions will be read from PARM file!
Info: SCNB (VDW SCALING)     2
Info: USING ARITHMETIC MEAN TO COMBINE L-J SIGMA PARAMETERS
Info: BINARY COORDINATES     mobley_2068538_equil.coor
Info: SUMMARY OF PARAMETERS:
Info: 4 BONDS
Info: 3 ANGLES
Info:   3 HARMONIC
Info:   0 COSINE-BASED
Info: 2 DIHEDRAL
Info: 0 IMPROPER
Info: 0 CROSSTERM
Info: 0 VDW
Info: 10 VDW_PAIRS
Info: 0 NBTHOLE_PAIRS
Info: To read alchdata from file: mobley_2068538.pdb
Info: To read alchflag data from column: 5
Info: STRUCTURE SUMMARY:
Info: 2981 ATOMS
Info: 2980 BONDS
Info: 18 ANGLES
Info: 18 DIHEDRALS
Info: 0 IMPROPERS
Info: 0 CROSSTERMS
Info: 3016 EXCLUSIONS
Info: 2978 RIGID BONDS
Info: ALCH: 0 ATOMS TO DISAPPEAR IN FINAL STATE
Info: ALCH: 11 ATOMS TO APPEAR IN FINAL STATE
Info: 5965 DEGREES OF FREEDOM
Info: 993 HYDROGEN GROUPS
Info: 4 ATOMS IN LARGEST HYDROGEN GROUP
Info: 993 MIGRATION GROUPS
Info: 4 ATOMS IN LARGEST MIGRATION GROUP
Info: TOTAL MASS = 17879.9 amu
Info: TOTAL CHARGE = 0.000200011 e
Info: MASS DENSITY = 0.958037 g/cm^3
Info: ATOM DENSITY = 0.0961876 atoms/A^3
Info: ADDED 0 IMPLICIT EXCLUSIONS
Info: NONBONDED TABLE R-SQUARED SPACING: 0.0625
Info: NONBONDED TABLE SIZE: 705 POINTS
Info: REDUCING NUMBER OF PATCHES TO IMPROVE LOAD BALANCE
Info: REMOVING COM VELOCITY -0.227629 0.00648809 0.0944072
Info: Use 3D box decompostion in PME FFT.
Info: Updated CUDA force table with 4096 elements.
Info: Updated CUDA LJ table with 4 x 4 elements.
Info: Found 14 unique exclusion lists needing 24 bytes
TCL: Running for 1500000 steps
ETITLE: TS BOND ANGLE DIHED IMPRP ELECT VDW BOUNDARY MISC KINETIC TOTAL TEMP POTENTIAL TOTALAVG TEMPAVG PRESSURE GPRESSURE VOLUME PRESSAVG GPRESSAVG
ENERGY: 0 0.4052 4.6421 0.6008 0.0000 -10757.5943 1445.1693 0.0000 0.0000 1763.1473 -7543.6297 297.4874 -9306.7770 -7543.6297 297.4874 -138.0705 -60.7880 30991.5096 -138.0705 -60.7880
ENERGY: 300000 0.4578 4.8795 0.8574 0.0000 -10881.9819 1469.7730 0.0000 0.0000 1783.3572 -7622.6570 300.8973 -9406.0142 -7566.9659 301.3410 -184.9038 -97.2682 30978.8309 21.5275 77.4977
ENERGY: 600000 0.0232 7.0669 0.2247 0.0000 -10795.8325 1396.5651 0.0000 0.0000 1829.2847 -7562.6678 308.6464 -9391.9526 -7560.6353 302.7906 -377.5571 -355.6714 30653.1031 -122.7663 -77.4193
ENERGY: 900000 0.4872 4.2592 0.4992 0.0000 -10802.0282 1446.2481 0.0000 0.0000 1743.6370 -7606.8975 294.1955 -9350.5345 -7574.7331 300.7125 -252.7191 -207.6508 31019.4408 -217.0730 -178.2186
ENERGY: 1200000 0.4679 5.2858 0.3012 0.0000 -10765.3669 1377.6194 0.0000 0.0000 1710.5809 -7671.1117 288.6181 -9381.6926 -7582.5214 299.9300 -702.6328 -665.9317 30675.1372 -339.1314 -295.0583
ENERGY: 1500000 0.4098 3.9263 0.2642 0.0000 -10755.2862 1468.8453 0.0000 0.0000 1790.7498 -7491.0907 302.1446 -9281.8405 -7569.8683 300.3952 170.4887 241.1375 30879.2876 -329.4388 -281.7744
TCL: Running FEP window   2: Lambda1 0.95   Lambda2 0.8999999999999999 [dLambda -0.050000000000000044]
TCL: Setting parameter firsttimestep to 0
TCL: Setting parameter alchLambda to 0.95
Info: NONBONDED TABLE R-SQUARED SPACING: 0.0625
Info: NONBONDED TABLE SIZE: 705 POINTS
TCL: Setting parameter alchLambda2 to 0.8999999999999999
Info: NONBONDED TABLE R-SQUARED SPACING: 0.0625
Info: NONBONDED TABLE SIZE: 705 POINTS
TCL: Running for 1500000 steps
ETITLE: TS BOND ANGLE DIHED IMPRP ELECT VDW BOUNDARY MISC KINETIC TOTAL TEMP POTENTIAL TOTALAVG TEMPAVG PRESSURE GPRESSURE VOLUME PRESSAVG GPRESSAVG
ENERGY: 0 0.4098 3.9263 0.2642 0.0000 -10755.2766 1469.3122 0.0000 0.0000 1789.8670 -7491.4971 301.9957 -9281.3641 -7491.4971 301.9957 156.1142 241.7673 30879.2876 156.1142 241.7673
ENERGY: 300000 0.0808 3.5839 0.0510 0.0000 -10818.8425 1506.8904 0.0000 0.0000 1727.1746 -7581.0618 291.4179 -9308.2364 -7564.4383 298.6799 737.7842 799.1116 30244.7345 336.5918 396.7220
ENERGY: 600000 0.2361 5.6456 0.2678 0.0000 -10769.9953 1410.7381 0.0000 0.0000 1787.5435 -7565.5641 301.6036 -9353.1076 -7559.2111 300.1220 -370.2577 -318.2876 30767.6964 176.2381 246.6535
ENERGY: 900000 0.1126 3.7561 0.9598 0.0000 -10800.6063 1406.3481 0.0000 0.0000 1763.4534 -7625.9764 297.5390 -9389.4298 -7569.9869 300.9607 -287.7371 -225.8419 30397.3859 68.4660 129.3689
ENERGY: 1200000 0.0471 4.9664 0.4783 0.0000 -10936.8211 1518.6212 0.0000 0.0000 1789.1794 -7623.5287 301.8796 -9412.7081 -7583.7281 299.8911 378.5955 498.4682 30402.3193 108.0912 173.4893
ENERGY: 1500000 0.4053 3.5784 0.1783 0.0000 -10960.9274 1569.5213 0.0000 0.0000 1734.2703 -7652.9740 292.6151 -9387.2442 -7590.3475 299.2279 881.2145 981.0192 30408.0932 151.4480 219.2485
TCL: Running FEP window   3: Lambda1 0.8999999999999999 Lambda2 0.8499999999999999 [dLambda -0.050000000000000044]
TCL: Setting parameter firsttimestep to 0
TCL: Setting parameter alchLambda to 0.8999999999999999
Info: NONBONDED TABLE R-SQUARED SPACING: 0.0625
Info: NONBONDED TABLE SIZE: 705 POINTS
TCL: Setting parameter alchLambda2 to 0.8499999999999999
Info: NONBONDED TABLE R-SQUARED SPACING: 0.0625
Info: NONBONDED TABLE SIZE: 705 POINTS
TCL: Running for 1500000 steps
ETITLE: TS BOND ANGLE DIHED IMPRP ELECT VDW BOUNDARY MISC KINETIC TOTAL TEMP POTENTIAL TOTALAVG TEMPAVG PRESSURE GPRESSURE VOLUME PRESSAVG GPRESSAVG
ENERGY: 0 0.4053 3.5784 0.1783 0.0000 -10960.9501 1569.6094 0.0000 0.0000 1733.3936 -7653.7853 292.4672 -9387.1788 -7653.7853 292.4672 894.9540 974.5566 30408.0932 894.9540 974.5566
ENERGY: 300000 1.4534 2.0687 1.7669 0.0000 -10835.2576 1474.6619 0.0000 0.0000 1731.4048 -7623.9018 292.1316 -9355.3066 -7606.0906 297.2571 96.2992 143.0154 30555.5986 160.6815 250.2139
ENERGY: 600000 0.6610 4.3822 0.1481 0.0000 -10781.1158 1419.5082 0.0000 0.0000 1792.7561 -7563.6603 302.4831 -9356.4164 -7604.0014 299.5950 -278.1382 -183.4149 30724.5024 -126.8191 -39.1234
ENERGY: 900000 0.0034 3.4033 0.4517 0.0000 -10981.6544 1557.5751 0.0000 0.0000 1837.6327 -7582.5883 310.0549 -9420.2209 -7594.9589 301.1093 974.0508 1115.1618 29793.9086 14.5679 106.6633
ENERGY: 1200000 0.3021 3.7346 1.1303 0.0000 -10735.5163 1422.3051 0.0000 0.0000 1781.7605 -7526.2835 300.6279 -9308.0440 -7588.7084 299.8841 26.0121 17.0022 30675.4676 10.9488 94.1639
ENERGY: 1500000 0.7327 4.3396 1.2442 0.0000 -10861.7956 1480.3970 0.0000 0.0000 1850.5445 -7524.5377 312.2335 -9375.0821 -7574.9140 301.2588 256.7415 266.8564 30680.8317 53.3553 125.2229
TCL: Running FEP window   4: Lambda1 0.8499999999999999 Lambda2 0.7999999999999998 [dLambda -0.050000000000000044]
TCL: Setting parameter firsttimestep to 0
TCL: Setting parameter alchLambda to 0.8499999999999999
Info: NONBONDED TABLE R-SQUARED SPACING: 0.0625
Info: NONBONDED TABLE SIZE: 705 POINTS
TCL: Setting parameter alchLambda2 to 0.7999999999999998
Info: NONBONDED TABLE R-SQUARED SPACING: 0.0625
Info: NONBONDED TABLE SIZE: 705 POINTS
TCL: Running for 1500000 steps
ETITLE: TS BOND ANGLE DIHED IMPRP ELECT VDW BOUNDARY MISC KINETIC TOTAL TEMP POTENTIAL TOTALAVG TEMPAVG PRESSURE GPRESSURE VOLUME PRESSAVG GPRESSAVG
ENERGY: 0 0.7327 4.3396 1.2442 0.0000 -10861.7722 1480.1119 0.0000 0.0000 1849.6860 -7525.6577 312.0886 -9375.3437 -7525.6577 312.0886 164.7700 254.3969 30680.8317 164.7700 254.3969
ENERGY: 300000 0.1645 5.5429 0.1628 0.0000 -10986.8385 1511.5002 0.0000 0.0000 1803.5874 -7665.8806 304.3106 -9469.4681 -7578.9982 304.6632 265.9701 361.7096 30328.7490 -190.8930 -95.3530
ENERGY: 600000 0.2400 2.3966 0.2342 0.0000 -10771.2117 1394.6622 0.0000 0.0000 1815.2822 -7558.3964 306.2838 -9373.6786 -7563.0216 304.7149 -216.5959 -150.1542 30200.5973 -357.1814 -258.2658
ENERGY: 900000 0.1137 7.2942 1.8285 0.0000 -10771.7499 1422.9905 0.0000 0.0000 1786.5111 -7553.0118 301.4294 -9339.5229 -7555.5598 303.4323 -358.0380 -321.6240 30951.4307 -236.9765 -152.7100
ENERGY: 1200000 0.2694 1.3874 0.6191 0.0000 -10825.8989 1469.3372 0.0000 0.0000 1733.5508 -7620.7349 292.4937 -9354.2857 -7569.9836 301.3559 259.3472 247.1109 30517.8270 -188.3341 -121.4296
ENERGY: 1500000 0.0255 3.8027 0.5963 0.0000 -10779.7476 1471.4515 0.0000 0.0000 1784.1942 -7519.6773 301.0385 -9303.8715 -7569.5333 301.4834 258.9135 292.3506 30755.5101 -163.5932 -98.8688
TCL: Running FEP window   5: Lambda1 0.7999999999999998 Lambda2 0.7499999999999998 [dLambda -0.050000000000000044]
TCL: Setting parameter firsttimestep to 0
TCL: Setting parameter alchLambda to 0.7999999999999998
Info: NONBONDED TABLE R-SQUARED SPACING: 0.0625
Info: NONBONDED TABLE SIZE: 705 POINTS
TCL: Setting parameter alchLambda2 to 0.7499999999999998
Info: NONBONDED TABLE R-SQUARED SPACING: 0.0625
Info: NONBONDED TABLE SIZE: 705 POINTS
TCL: Running for 1500000 steps
ETITLE: TS BOND ANGLE DIHED IMPRP ELECT VDW BOUNDARY MISC KINETIC TOTAL TEMP POTENTIAL TOTALAVG TEMPAVG PRESSURE GPRESSURE VOLUME PRESSAVG GPRESSAVG
ENERGY: 0 0.0255 3.8027 0.5963 0.0000 -10779.7343 1471.6032 0.0000 0.0000 1783.2991 -7520.4075 300.8875 -9303.7065 -7520.4075 300.8875 201.8909 284.9938 30755.5101 201.8909 284.9938
ENERGY: 300000 0.9025 6.3233 0.5651 0.0000 -10811.4539 1459.9086 0.0000 0.0000 1744.0808 -7599.6737 294.2704 -9343.7545 -7583.3862 296.0784 31.0503 81.2514 30684.8235 -107.3548 -27.9993
ENERGY: 600000 0.0211 7.0870 0.1677 0.0000 -10867.5075 1460.2229 0.0000 0.0000 1729.1579 -7670.8510 291.7525 -9400.0089 -7616.6848 295.0911 -55.1764 -7.3700 30610.0978 -208.3701 -135.3699
ENERGY: 900000 0.1365 4.7460 0.6442 0.0000 -10702.1209 1354.6493 0.0000 0.0000 1778.0234 -7563.9216 299.9973 -9341.9450 -7612.0657 295.9473 -793.7946 -645.2399 30722.6511 -244.7672 -161.0691
ENERGY: 1200000 0.2466 6.9035 1.6312 0.0000 -10707.8861 1366.0122 0.0000 0.0000 1720.6056 -7612.4870 290.3095 -9333.0926 -7598.8076 297.1012 -629.3195 -486.0334 30475.1000 -198.1033 -114.7224
ENERGY: 1500000 0.7859 5.1218 1.4724 0.0000 -10794.3031 1471.0589 0.0000 0.0000 1722.4925 -7593.3716 290.6279 -9315.8641 -7594.9079 297.3134 251.1002 281.1191 30322.3092 -150.1447 -70.9263
TCL: Running FEP window   6: Lambda1 0.7499999999999998 Lambda2 0.6999999999999997 [dLambda -0.050000000000000044]
TCL: Setting parameter firsttimestep to 0
TCL: Setting parameter alchLambda to 0.7499999999999998
Info: NONBONDED TABLE R-SQUARED SPACING: 0.0625
Info: NONBONDED TABLE SIZE: 705 POINTS
TCL: Setting parameter alchLambda2 to 0.6999999999999997
Info: NONBONDED TABLE R-SQUARED SPACING: 0.0625
Info: NONBONDED TABLE SIZE: 705 POINTS
TCL: Running for 1500000 steps
ETITLE: TS BOND ANGLE DIHED IMPRP ELECT VDW BOUNDARY MISC KINETIC TOTAL TEMP POTENTIAL TOTALAVG TEMPAVG PRESSURE GPRESSURE VOLUME PRESSAVG GPRESSAVG
ENERGY: 0 0.7859 5.1218 1.4724 0.0000 -10794.2987 1471.2295 0.0000 0.0000 1721.5841 -7594.1050 290.4746 -9315.6892 -7594.1050 290.4746 174.3991 273.9640 30322.3092 174.3991 273.9640
ENERGY: 300000 0.5659 6.4466 0.8857 0.0000 -10990.5672 1564.6482 0.0000 0.0000 1744.6948 -7673.3260 294.3740 -9418.0208 -7596.1696 298.6821 608.2263 712.3702 30240.6090 20.7241 96.1628
ENERGY: 600000 1.3268 3.7283 0.1435 0.0000 -10672.3906 1385.4829 0.0000 0.0000 1793.1087 -7488.6004 302.5426 -9281.7092 -7557.5805 300.2658 -477.9211 -408.7715 30983.7514 -33.6026 37.1474
ENERGY: 900000 0.8609 5.0722 0.1031 0.0000 -10876.9798 1509.6809 0.0000 0.0000 1803.7814 -7557.4811 304.3434 -9361.2626 -7567.0967 300.2813 433.2220 496.4056 30567.5974 -50.3172 10.1201
ENERGY: 1200000 0.4520 6.5411 0.2766 0.0000 -10899.0465 1540.9760 0.0000 0.0000 1741.6291 -7609.1717 293.8567 -9350.8008 -7576.0799 299.2917 679.0788 793.1569 30468.0178 -26.8441 42.2704
ENERGY: 1500000 0.1590 5.0369 2.7104 0.0000 -10658.1457 1345.1710 0.0000 0.0000 1746.5682 -7558.5001 294.6901 -9305.0683 -7587.4673 297.8454 -927.1898 -853.0152 30960.2495 -66.8504 -3.6056
TCL: Running FEP window   7: Lambda1 0.6999999999999997 Lambda2 0.6499999999999997 [dLambda -0.050000000000000044]
TCL: Setting parameter firsttimestep to 0
TCL: Setting parameter alchLambda to 0.6999999999999997
Info: NONBONDED TABLE R-SQUARED SPACING: 0.0625
Info: NONBONDED TABLE SIZE: 705 POINTS
TCL: Setting parameter alchLambda2 to 0.6499999999999997
Info: NONBONDED TABLE R-SQUARED SPACING: 0.0625
Info: NONBONDED TABLE SIZE: 705 POINTS
TCL: Running for 1500000 steps
ETITLE: TS BOND ANGLE DIHED IMPRP ELECT VDW BOUNDARY MISC KINETIC TOTAL TEMP POTENTIAL TOTALAVG TEMPAVG PRESSURE GPRESSURE VOLUME PRESSAVG GPRESSAVG
ENERGY: 0 0.1590 5.0369 2.7104 0.0000 -10658.1802 1344.9439 0.0000 0.0000 1745.7107 -7559.6192 294.5454 -9305.3300 -7559.6192 294.5454 -932.2206 -859.6070 30960.2495 -932.2206 -859.6070
ENERGY: 300000 1.4457 4.1470 0.6360 0.0000 -10618.0741 1294.4166 0.0000 0.0000 1756.7900 -7560.6388 296.4147 -9317.4288 -7582.0746 300.2696 -1384.1599 -1338.8231 31095.5155 -583.2607 -533.9799
ENERGY: 600000 2.3687 7.1316 0.4791 0.0000 -10842.8095 1487.8981 0.0000 0.0000 1760.9780 -7583.9540 297.1214 -9344.9320 -7566.4518 300.4274 51.3477 170.2198 30772.8965 -433.5902 -379.6896
ENERGY: 900000 0.0385 4.5721 0.9054 0.0000 -10884.8843 1548.7118 0.0000 0.0000 1756.8340 -7573.8225 296.4222 -9330.6565 -7574.3019 299.8989 790.6663 916.0159 30433.5571 -180.7673 -111.4893
ENERGY: 1200000 0.3852 6.2847 0.8219 0.0000 -10836.0940 1488.0227 0.0000 0.0000 1770.6299 -7569.9497 298.7499 -9340.5796 -7576.6185 298.3154 287.6315 319.4878 30847.3042 -168.0837 -100.1163
ENERGY: 1500000 0.2778 6.2520 0.7010 0.0000 -10814.5179 1446.3350 0.0000 0.0000 1764.8931 -7596.0590 297.7819 -9360.9521 -7579.3135 298.6710 221.6217 245.7271 30133.4591 -80.0469 -15.7610
TCL: Running FEP window   8: Lambda1 0.6499999999999997 Lambda2 0.5999999999999996 [dLambda -0.050000000000000044]
TCL: Setting parameter firsttimestep to 0
TCL: Setting parameter alchLambda to 0.6499999999999997
Info: NONBONDED TABLE R-SQUARED SPACING: 0.0625
Info: NONBONDED TABLE SIZE: 705 POINTS
TCL: Setting parameter alchLambda2 to 0.5999999999999996
Info: NONBONDED TABLE R-SQUARED SPACING: 0.0625
Info: NONBONDED TABLE SIZE: 705 POINTS
TCL: Running for 1500000 steps
ETITLE: TS BOND ANGLE DIHED IMPRP ELECT VDW BOUNDARY MISC KINETIC TOTAL TEMP POTENTIAL TOTALAVG TEMPAVG PRESSURE GPRESSURE VOLUME PRESSAVG GPRESSAVG
ENERGY: 0 0.2778 6.2520 0.7010 0.0000 -10814.5209 1446.5028 0.0000 0.0000 1764.0150 -7596.7723 297.6338 -9360.7873 -7596.7723 297.6338 151.4015 242.1082 30133.4591 151.4015 242.1082
ENERGY: 300000 0.0089 5.6306 0.4828 0.0000 -10823.8582 1482.7682 0.0000 0.0000 1829.1286 -7505.8391 308.6201 -9334.9677 -7548.4702 304.8026 283.3881 351.1863 30913.6888 -229.2624 -142.6985
ENERGY: 600000 0.1910 2.7413 0.6025 0.0000 -10857.7845 1482.4067 0.0000 0.0000 1817.1636 -7554.6793 306.6013 -9371.8429 -7578.1967 302.1066 312.7844 378.1694 30521.8689 -179.1104 -91.8426
ENERGY: 900000 3.1012 3.0600 0.1607 0.0000 -10769.4363 1462.8476 0.0000 0.0000 1775.1344 -7525.1324 299.5099 -9300.2668 -7555.2515 302.7177 138.2685 138.7452 30775.2887 -71.2849 0.7575
ENERGY: 1200000 0.1615 5.6735 0.4289 0.0000 -10946.8745 1523.7685 0.0000 0.0000 1807.5015 -7609.3405 304.9710 -9416.8420 -7558.0745 303.2242 370.8530 469.4702 30469.8469 -131.2246 -62.7676
ENERGY: 1500000 0.5854 3.4436 0.2924 0.0000 -10740.7315 1404.5451 0.0000 0.0000 1760.3120 -7571.5530 297.0090 -9331.8650 -7561.2563 302.6286 -587.5961 -504.4735 30793.3585 -220.0931 -151.4119
TCL: Running FEP window   9: Lambda1 0.5999999999999996 Lambda2 0.5499999999999996 [dLambda -0.050000000000000044]
TCL: Setting parameter firsttimestep to 0
TCL: Setting parameter alchLambda to 0.5999999999999996
Info: NONBONDED TABLE R-SQUARED SPACING: 0.0625
Info: NONBONDED TABLE SIZE: 705 POINTS
TCL: Setting parameter alchLambda2 to 0.5499999999999996
Info: NONBONDED TABLE R-SQUARED SPACING: 0.0625
Info: NONBONDED TABLE SIZE: 705 POINTS
TCL: Running for 1500000 steps
ETITLE: TS BOND ANGLE DIHED IMPRP ELECT VDW BOUNDARY MISC KINETIC TOTAL TEMP POTENTIAL TOTALAVG TEMPAVG PRESSURE GPRESSURE VOLUME PRESSAVG GPRESSAVG
ENERGY: 0 0.5854 3.4436 0.2924 0.0000 -10740.7129 1404.7003 0.0000 0.0000 1759.4819 -7572.2093 296.8689 -9331.6912 -7572.2093 296.8689 -581.5317 -506.3477 30793.3585 -581.5317 -506.3477
ENERGY: 300000 0.8394 3.8322 0.1917 0.0000 -10816.2564 1443.4905 0.0000 0.0000 1752.1376 -7615.7650 295.6298 -9367.9026 -7581.9662 296.4905 100.5965 123.8154 30077.8529 -170.6838 -117.6367
ENERGY: 600000 0.3020 5.1916 0.2273 0.0000 -10755.9518 1456.9718 0.0000 0.0000 1800.1618 -7493.0972 303.7327 -9293.2591 -7564.5206 300.6480 -5.9317 99.6529 30869.1528 -49.6620 25.6883
ENERGY: 900000 0.2774 4.4374 0.1599 0.0000 -10942.8892 1557.0147 0.0000 0.0000 1762.8076 -7618.1923 297.4300 -9380.9999 -7576.7678 300.7981 773.4713 774.1900 30616.0371 6.6646 65.7109
ENERGY: 1200000 0.0270 6.2044 0.5351 0.0000 -10896.0461 1521.8598 0.0000 0.0000 1790.0804 -7577.3394 302.0317 -9367.4198 -7572.4727 300.5203 312.1869 380.7776 30859.5566 -54.6713 6.9489
ENERGY: 1500000 0.2677 3.1821 0.3551 0.0000 -10856.4331 1481.0763 0.0000 0.0000 1712.4958 -7659.0562 288.9412 -9371.5520 -7577.2598 300.3309 -0.3506 59.0968 30644.7929 -103.7943 -44.0996
TCL: Running FEP window  10: Lambda1 0.5499999999999996 Lambda2 0.4999999999999996 [dLambda -0.04999999999999999]
TCL: Setting parameter firsttimestep to 0
TCL: Setting parameter alchLambda to 0.5499999999999996
Info: NONBONDED TABLE R-SQUARED SPACING: 0.0625
Info: NONBONDED TABLE SIZE: 705 POINTS
TCL: Setting parameter alchLambda2 to 0.4999999999999996
Info: NONBONDED TABLE R-SQUARED SPACING: 0.0625
Info: NONBONDED TABLE SIZE: 705 POINTS
TCL: Running for 1500000 steps
ETITLE: TS BOND ANGLE DIHED IMPRP ELECT VDW BOUNDARY MISC KINETIC TOTAL TEMP POTENTIAL TOTALAVG TEMPAVG PRESSURE GPRESSURE VOLUME PRESSAVG GPRESSAVG
ENERGY: 0 0.2677 3.1821 0.3551 0.0000 -10856.4402 1481.2378 0.0000 0.0000 1711.6318 -7659.7656 288.7954 -9371.3975 -7659.7656 288.7954 -21.9304 55.8431 30644.7929 -21.9304 55.8431
ENERGY: 300000 2.4287 2.7105 0.3491 0.0000 -10727.3022 1425.9071 0.0000 0.0000 1785.3808 -7510.5260 301.2387 -9295.9069 -7561.9634 299.2334 -257.4626 -91.1839 30474.3209 -273.8372 -204.4047
ENERGY: 600000 0.3570 5.8610 0.3228 0.0000 -10723.3591 1352.5715 0.0000 0.0000 1748.2632 -7615.9836 294.9760 -9364.2467 -7565.7432 299.3940 -889.0867 -839.2344 30861.0223 -349.6971 -277.9255
ENERGY: 900000 0.6805 3.7260 0.3573 0.0000 -10919.1699 1509.9926 0.0000 0.0000 1818.8894 -7585.5240 306.8925 -9404.4135 -7580.5490 300.8933 284.0353 354.1804 30502.7872 -129.8605 -56.9764
ENERGY: 1200000 0.9457 5.3862 0.9028 0.0000 -10787.2395 1438.5598 0.0000 0.0000 1748.9188 -7592.5261 295.0867 -9341.4450 -7582.8556 300.5213 -54.9888 -8.8663 30450.4187 -143.4398 -76.2686
ENERGY: 1500000 1.6345 7.0722 0.3413 0.0000 -10857.0219 1471.0602 0.0000 0.0000 1788.2751 -7588.6387 301.7271 -9376.9138 -7582.3944 300.2850 -187.9348 -151.6836 30840.2512 -126.0464 -61.0882
TCL: Running FEP window  11: Lambda1 0.4999999999999996 Lambda2 0.4499999999999996 [dLambda -0.04999999999999999]
TCL: Setting parameter firsttimestep to 0
TCL: Setting parameter alchLambda to 0.4999999999999996
Info: NONBONDED TABLE R-SQUARED SPACING: 0.0625
Info: NONBONDED TABLE SIZE: 705 POINTS
TCL: Setting parameter alchLambda2 to 0.4499999999999996
Info: NONBONDED TABLE R-SQUARED SPACING: 0.0625
Info: NONBONDED TABLE SIZE: 705 POINTS
TCL: Running for 1500000 steps
ETITLE: TS BOND ANGLE DIHED IMPRP ELECT VDW BOUNDARY MISC KINETIC TOTAL TEMP POTENTIAL TOTALAVG TEMPAVG PRESSURE GPRESSURE VOLUME PRESSAVG GPRESSAVG
ENERGY: 0 1.6345 7.0722 0.3413 0.0000 -10856.9934 1469.9983 0.0000 0.0000 1787.3956 -7590.5515 301.5787 -9377.9472 -7590.5515 301.5787 -231.6780 -165.6717 30840.2512 -231.6780 -165.6717
ENERGY: 300000 0.3723 1.9822 1.0815 0.0000 -10821.9838 1488.5012 0.0000 0.0000 1814.1482 -7515.8985 306.0925 -9330.0467 -7563.7184 299.5289 213.4449 332.8172 30906.5242 -132.7057 -67.2251
ENERGY: 600000 1.8838 4.4385 0.6275 0.0000 -10823.6655 1488.9705 0.0000 0.0000 1806.6181 -7521.1271 304.8220 -9327.7452 -7544.7843 300.8582 609.9090 605.3428 30372.5042 -158.4507 -115.1904
ENERGY: 900000 0.2328 8.0900 0.3552 0.0000 -10670.2012 1405.8618 0.0000 0.0000 1758.7422 -7496.9191 296.7441 -9255.6613 -7540.6161 301.5899 -275.4758 -269.6973 30881.1153 -207.5015 -167.8652
ENERGY: 1200000 0.1117 4.7581 0.5056 0.0000 -10853.8636 1563.7010 0.0000 0.0000 1809.1963 -7475.5909 305.2570 -9284.7872 -7525.6243 302.0449 803.4933 820.6314 31072.6240 -135.4460 -95.7903
ENERGY: 1500000 0.5668 4.0085 0.4013 0.0000 -10861.0408 1498.6304 0.0000 0.0000 1833.6300 -7523.8038 309.3796 -9357.4338 -7527.9666 302.0530 304.0275 430.2373 30652.1403 -88.1207 -44.4138
TCL: Running FEP window  12: Lambda1 0.4499999999999996 Lambda2 0.39999999999999963 [dLambda -0.04999999999999999]
TCL: Setting parameter firsttimestep to 0
TCL: Setting parameter alchLambda to 0.4499999999999996
Info: NONBONDED TABLE R-SQUARED SPACING: 0.0625
Info: NONBONDED TABLE SIZE: 705 POINTS
TCL: Setting parameter alchLambda2 to 0.39999999999999963
Info: NONBONDED TABLE R-SQUARED SPACING: 0.0625
Info: NONBONDED TABLE SIZE: 705 POINTS
TCL: Running for 1500000 steps
ETITLE: TS BOND ANGLE DIHED IMPRP ELECT VDW BOUNDARY MISC KINETIC TOTAL TEMP POTENTIAL TOTALAVG TEMPAVG PRESSURE GPRESSURE VOLUME PRESSAVG GPRESSAVG
ENERGY: 0 0.5668 4.0085 0.4013 0.0000 -10861.0423 1496.9758 0.0000 0.0000 1832.7273 -7526.3626 309.2273 -9359.0899 -7526.3626 309.2273 337.2978 413.7145 30652.1403 337.2978 413.7145
ENERGY: 300000 1.0754 5.8180 0.5630 0.0000 -10831.9547 1452.2338 0.0000 0.0000 1755.9512 -7616.3132 296.2732 -9372.2645 -7595.9860 295.8155 155.2386 174.3374 30314.6884 59.2157 101.0246
ENERGY: 600000 1.2822 3.9099 0.4847 0.0000 -10744.2357 1404.5772 0.0000 0.0000 1780.3399 -7553.6418 300.3882 -9333.9818 -7586.3094 297.6106 -43.5348 -1.2473 30399.3880 -69.7371 -8.7658
ENERGY: 900000 0.0780 2.3423 0.8222 0.0000 -10869.4051 1462.0363 0.0000 0.0000 1733.6680 -7670.4582 292.5135 -9404.1262 -7584.2348 297.4364 -34.5604 20.0176 30399.1304 -104.4917 -47.0459
ENERGY: 1200000 0.1918 2.0856 0.3873 0.0000 -10858.4838 1482.8675 0.0000 0.0000 1734.0546 -7638.8971 292.5787 -9372.9517 -7579.2444 297.9038 144.2337 218.5940 30497.5903 -69.9389 -11.3004
ENERGY: 1500000 0.6592 2.8319 1.6317 0.0000 -10694.2031 1342.7812 0.0000 0.0000 1767.3076 -7578.9914 298.1893 -9346.2991 -7574.1907 298.7247 -693.1281 -685.6465 30339.0008 -77.3608 -23.5354
TCL: Running FEP window  13: Lambda1 0.39999999999999963 Lambda2 0.34999999999999964 [dLambda -0.04999999999999999]
TCL: Setting parameter firsttimestep to 0
TCL: Setting parameter alchLambda to 0.39999999999999963
Info: NONBONDED TABLE R-SQUARED SPACING: 0.0625
Info: NONBONDED TABLE SIZE: 705 POINTS
TCL: Setting parameter alchLambda2 to 0.34999999999999964
Info: NONBONDED TABLE R-SQUARED SPACING: 0.0625
Info: NONBONDED TABLE SIZE: 705 POINTS
TCL: Running for 1500000 steps
ETITLE: TS BOND ANGLE DIHED IMPRP ELECT VDW BOUNDARY MISC KINETIC TOTAL TEMP POTENTIAL TOTALAVG TEMPAVG PRESSURE GPRESSURE VOLUME PRESSAVG GPRESSAVG
ENERGY: 0 0.6592 2.8319 1.6317 0.0000 -10694.2034 1341.9422 0.0000 0.0000 1766.3870 -7580.7514 298.0340 -9347.1384 -7580.7514 298.0340 -773.5368 -694.3851 30339.0008 -773.5368 -694.3851
ENERGY: 300000 0.0549 4.7162 0.3199 0.0000 -10804.4178 1482.7384 0.0000 0.0000 1831.7717 -7484.8167 309.0660 -9316.5884 -7522.1065 303.6570 139.7206 126.6510 31214.7152 -285.9081 -242.7081
ENERGY: 600000 2.1839 2.3821 0.1499 0.0000 -10933.8643 1528.2080 0.0000 0.0000 1781.5022 -7619.4382 300.5843 -9400.9404 -7556.1952 302.2807 295.8292 358.8673 30473.5607 -111.4770 -58.4329
ENERGY: 900000 0.4974 12.5563 0.2727 0.0000 -10806.8397 1446.4672 0.0000 0.0000 1749.6405 -7597.4056 295.2084 -9347.0461 -7566.3478 301.8544 -174.1506 -15.6612 30571.3987 -80.5079 -21.0428
ENERGY: 1200000 0.0106 5.6421 0.2197 0.0000 -10999.9031 1588.1753 0.0000 0.0000 1766.7284 -7639.1270 298.0916 -9405.8554 -7571.2781 300.2516 791.9455 806.9063 30794.4402 -18.0850 41.0768
ENERGY: 1500000 0.4083 5.0012 0.7744 0.0000 -10838.2738 1464.5385 0.0000 0.0000 1788.5990 -7578.9523 301.7817 -9367.5514 -7565.5260 300.4205 159.1012 196.2153 30506.1589 -33.1010 25.8519
TCL: Running FEP window  14: Lambda1 0.34999999999999964 Lambda2 0.29999999999999966 [dLambda -0.04999999999999999]
TCL: Setting parameter firsttimestep to 0
TCL: Setting parameter alchLambda to 0.34999999999999964
Info: NONBONDED TABLE R-SQUARED SPACING: 0.0625
Info: NONBONDED TABLE SIZE: 705 POINTS
TCL: Setting parameter alchLambda2 to 0.29999999999999966
Info: NONBONDED TABLE R-SQUARED SPACING: 0.0625
Info: NONBONDED TABLE SIZE: 705 POINTS
TCL: Running for 1500000 steps
ETITLE: TS BOND ANGLE DIHED IMPRP ELECT VDW BOUNDARY MISC KINETIC TOTAL TEMP POTENTIAL TOTALAVG TEMPAVG PRESSURE GPRESSURE VOLUME PRESSAVG GPRESSAVG
ENERGY: 0 0.4083 5.0012 0.7744 0.0000 -10838.2746 1464.2439 0.0000 0.0000 1787.7201 -7580.1266 301.6334 -9367.8468 -7580.1266 301.6334 105.8527 191.8641 30506.1589 105.8527 191.8641
ENERGY: 300000 1.4454 3.4663 0.0765 0.0000 -10706.5147 1406.4503 0.0000 0.0000 1833.7205 -7461.3557 309.3948 -9295.0762 -7500.7467 304.4543 -84.4405 1.9634 30591.9718 -80.0235 -27.6197
ENERGY: 600000 0.4499 3.7233 1.2275 0.0000 -10960.6242 1607.2418 0.0000 0.0000 1817.2636 -7530.7181 306.6182 -9347.9816 -7518.7954 302.5805 1207.1029 1293.2496 30479.3011 232.0283 296.9290
ENERGY: 900000 0.4350 6.8226 0.7886 0.0000 -10857.8879 1491.3823 0.0000 0.0000 1804.3677 -7554.0917 304.4423 -9358.4594 -7540.2120 302.5973 216.1873 333.0872 30407.9885 270.6193 342.2377
ENERGY: 1200000 1.6596 10.1930 0.4246 0.0000 -10871.7265 1474.6349 0.0000 0.0000 1838.7991 -7546.0152 310.2517 -9384.8143 -7547.0171 302.9528 -61.5199 25.2265 30779.1430 183.6408 259.0133
ENERGY: 1500000 1.1106 4.6085 0.1759 0.0000 -10874.2330 1494.0310 0.0000 0.0000 1777.1427 -7597.1644 299.8487 -9374.3070 -7547.3689 303.1386 408.3950 466.8098 30381.5553 162.2068 240.1342
TCL: Running FEP window  15: Lambda1 0.29999999999999966 Lambda2 0.24999999999999967 [dLambda -0.04999999999999999]
TCL: Setting parameter firsttimestep to 0
TCL: Setting parameter alchLambda to 0.29999999999999966
Info: NONBONDED TABLE R-SQUARED SPACING: 0.0625
Info: NONBONDED TABLE SIZE: 705 POINTS
TCL: Setting parameter alchLambda2 to 0.24999999999999967
Info: NONBONDED TABLE R-SQUARED SPACING: 0.0625
Info: NONBONDED TABLE SIZE: 705 POINTS
TCL: Running for 1500000 steps
ETITLE: TS BOND ANGLE DIHED IMPRP ELECT VDW BOUNDARY MISC KINETIC TOTAL TEMP POTENTIAL TOTALAVG TEMPAVG PRESSURE GPRESSURE VOLUME PRESSAVG GPRESSAVG
ENERGY: 0 1.1106 4.6085 0.1759 0.0000 -10874.2325 1494.1933 0.0000 0.0000 1776.2717 -7597.8725 299.7018 -9374.1442 -7597.8725 299.7018 375.8994 462.4188 30381.5553 375.8994 462.4188
ENERGY: 300000 0.2843 5.5383 0.4911 0.0000 -10852.5526 1474.5805 0.0000 0.0000 1748.1633 -7623.4952 294.9592 -9371.6584 -7561.2804 299.0388 50.3492 103.3560 30562.9106 -20.8274 67.1024
ENERGY: 600000 1.8133 2.3476 0.4472 0.0000 -10841.9515 1485.1985 0.0000 0.0000 1773.7230 -7578.4218 299.2718 -9352.1448 -7589.7573 299.1700 336.2584 394.3707 30370.9918 231.5562 308.4947
ENERGY: 900000 0.1633 5.9349 0.2625 0.0000 -10740.7846 1406.0723 0.0000 0.0000 1739.1411 -7589.2105 293.4369 -9328.3516 -7578.2146 298.7259 -391.9343 -318.7399 30785.8569 62.9949 129.5815
ENERGY: 1200000 0.1201 2.9003 0.1729 0.0000 -10921.8744 1526.8299 0.0000 0.0000 1731.2527 -7660.5986 292.1059 -9391.8513 -7586.1773 298.6867 475.8790 535.7271 30403.8274 51.8493 115.0642
ENERGY: 1500000 3.0426 2.5653 0.7488 0.0000 -10919.7482 1519.2486 0.0000 0.0000 1785.2530 -7608.8899 301.2172 -9394.1429 -7583.6632 298.7262 604.7132 675.1773 30313.1356 94.9109 158.8809
TCL: Running FEP window  16: Lambda1 0.24999999999999967 Lambda2 0.19999999999999968 [dLambda -0.04999999999999999]
TCL: Setting parameter firsttimestep to 0
TCL: Setting parameter alchLambda to 0.24999999999999967
Info: NONBONDED TABLE R-SQUARED SPACING: 0.0625
Info: NONBONDED TABLE SIZE: 705 POINTS
TCL: Setting parameter alchLambda2 to 0.19999999999999968
Info: NONBONDED TABLE R-SQUARED SPACING: 0.0625
Info: NONBONDED TABLE SIZE: 705 POINTS
TCL: Running for 1500000 steps
ETITLE: TS BOND ANGLE DIHED IMPRP ELECT VDW BOUNDARY MISC KINETIC TOTAL TEMP POTENTIAL TOTALAVG TEMPAVG PRESSURE GPRESSURE VOLUME PRESSAVG GPRESSAVG
ENERGY: 0 3.0426 2.5653 0.7488 0.0000 -10919.7498 1519.5373 0.0000 0.0000 1784.3308 -7609.5249 301.0616 -9393.8557 -7609.5249 301.0616 584.3576 675.6027 30313.1356 584.3576 675.6027
ENERGY: 300000 3.5947 2.2014 0.2814 0.0000 -10658.0617 1405.0833 0.0000 0.0000 1822.5080 -7424.3928 307.5030 -9246.9009 -7527.3566 303.7481 -388.2017 -352.0105 31120.1918 67.9069 122.2067
ENERGY: 600000 0.6255 3.4752 0.7826 0.0000 -10603.8827 1349.3549 0.0000 0.0000 1774.8180 -7474.8265 299.4565 -9249.6445 -7514.1975 303.8594 -609.0705 -513.3298 30755.5217 -23.3905 37.0610
ENERGY: 900000 0.1591 4.6327 0.5491 0.0000 -10849.2054 1493.9384 0.0000 0.0000 1806.8360 -7543.0901 304.8587 -9349.9261 -7526.9555 303.0888 259.0795 305.7998 30596.0510 -2.3324 52.9124
ENERGY: 1200000 0.8222 6.3387 2.0927 0.0000 -10812.1899 1455.2281 0.0000 0.0000 1811.0692 -7536.6390 305.5730 -9347.7083 -7532.1669 302.8626 -189.0929 -127.8003 30770.7815 -43.8863 7.2951
ENERGY: 1500000 0.5105 6.1002 1.6206 0.0000 -10792.8370 1455.8080 0.0000 0.0000 1808.3730 -7520.4247 305.1181 -9328.7977 -7533.8246 302.7843 177.3233 287.0143 30305.0475 29.1042 79.8242
TCL: Running FEP window  17: Lambda1 0.19999999999999968 Lambda2 0.1499999999999997 [dLambda -0.04999999999999999]
TCL: Setting parameter firsttimestep to 0
TCL: Setting parameter alchLambda to 0.19999999999999968
Info: NONBONDED TABLE R-SQUARED SPACING: 0.0625
Info: NONBONDED TABLE SIZE: 705 POINTS
TCL: Setting parameter alchLambda2 to 0.1499999999999997
Info: NONBONDED TABLE R-SQUARED SPACING: 0.0625
Info: NONBONDED TABLE SIZE: 705 POINTS
TCL: Running for 1500000 steps
ETITLE: TS BOND ANGLE DIHED IMPRP ELECT VDW BOUNDARY MISC KINETIC TOTAL TEMP POTENTIAL TOTALAVG TEMPAVG PRESSURE GPRESSURE VOLUME PRESSAVG GPRESSAVG
ENERGY: 0 0.5105 6.1002 1.6206 0.0000 -10792.8362 1456.2237 0.0000 0.0000 1807.4567 -7520.9245 304.9635 -9328.3812 -7520.9245 304.9635 195.0039 284.4242 30305.0475 195.0039 284.4242
ENERGY: 300000 1.7186 3.4582 0.2575 0.0000 -10675.1746 1405.7353 0.0000 0.0000 1747.5236 -7516.4815 294.8513 -9264.0051 -7536.0778 300.2393 -461.1525 -351.9197 30866.5539 -210.9836 -119.4355
ENERGY: 600000 0.0690 4.9412 0.4351 0.0000 -10800.6983 1508.6469 0.0000 0.0000 1815.8753 -7470.7309 306.3839 -9286.6062 -7520.2524 302.2471 616.4228 595.4552 30614.1250 -65.4741 -1.4627
ENERGY: 900000 2.4172 4.8483 0.7811 0.0000 -10670.4185 1384.7123 0.0000 0.0000 1776.3838 -7501.2759 299.7207 -9277.6597 -7541.6744 301.1324 -293.0031 -257.2093 30539.9523 31.4465 86.8099
ENERGY: 1200000 0.0751 7.3205 0.6870 0.0000 -10642.3654 1363.9751 0.0000 0.0000 1807.6105 -7462.6972 304.9894 -9270.3076 -7538.3869 301.2556 -504.7175 -488.3921 30855.1035 -14.9166 42.6973
ENERGY: 1500000 0.1985 4.0339 0.3777 0.0000 -10806.8624 1427.1819 0.0000 0.0000 1777.2969 -7597.7736 299.8748 -9375.0704 -7554.0369 300.8501 -113.5704 -65.4938 30380.4393 -89.5489 -35.7190
TCL: Running FEP window  18: Lambda1 0.1499999999999997 Lambda2 0.09999999999999969 [dLambda -0.05 ]
TCL: Setting parameter firsttimestep to 0
TCL: Setting parameter alchLambda to 0.1499999999999997
Info: NONBONDED TABLE R-SQUARED SPACING: 0.0625
Info: NONBONDED TABLE SIZE: 705 POINTS
TCL: Setting parameter alchLambda2 to 0.09999999999999969
Info: NONBONDED TABLE R-SQUARED SPACING: 0.0625
Info: NONBONDED TABLE SIZE: 705 POINTS
TCL: Running for 1500000 steps
ETITLE: TS BOND ANGLE DIHED IMPRP ELECT VDW BOUNDARY MISC KINETIC TOTAL TEMP POTENTIAL TOTALAVG TEMPAVG PRESSURE GPRESSURE VOLUME PRESSAVG GPRESSAVG
ENERGY: 0 0.1985 4.0339 0.3777 0.0000 -10806.8606 1426.7962 0.0000 0.0000 1776.3817 -7599.0727 299.7203 -9375.4544 -7599.0727 299.7203 -143.9532 -69.4715 30380.4393 -143.9532 -69.4715
ENERGY: 300000 0.0202 3.7702 0.5154 0.0000 -10806.9429 1443.1190 0.0000 0.0000 1776.7099 -7582.8082 299.7757 -9359.5181 -7586.9102 303.5852 -138.0663 -135.7050 30707.5990 225.4135 269.6163
ENERGY: 600000 0.2459 4.6582 0.1772 0.0000 -11014.9466 1571.9975 0.0000 0.0000 1763.6454 -7674.2223 297.5714 -9437.8678 -7590.9502 302.6000 845.7444 861.2658 30315.7085 79.5783 128.6467
ENERGY: 900000 0.3799 6.8872 0.5634 0.0000 -10829.2295 1462.0935 0.0000 0.0000 1746.9986 -7612.3068 294.7627 -9359.3055 -7587.4832 301.3742 94.8172 130.1477 30669.1482 -18.1511 28.3559
ENERGY: 1200000 1.0668 6.4768 0.3520 0.0000 -10789.5725 1427.8921 0.0000 0.0000 1833.9478 -7519.8370 309.4332 -9353.7848 -7586.6716 301.3785 -305.8620 -242.5589 30902.3179 -38.4068 11.7551
ENERGY: 1500000 0.1046 4.4927 0.7616 0.0000 -10655.1189 1384.8151 0.0000 0.0000 1808.1808 -7456.7641 305.0857 -9264.9450 -7578.9515 300.9960 -385.1128 -333.3643 30934.4406 -3.4235 52.5394
TCL: Running FEP window  19: Lambda1 0.09999999999999969 Lambda2 0.049999999999999684 [dLambda -0.05 ]
TCL: Setting parameter firsttimestep to 0
TCL: Setting parameter alchLambda to 0.09999999999999969
Info: NONBONDED TABLE R-SQUARED SPACING: 0.0625
Info: NONBONDED TABLE SIZE: 705 POINTS
TCL: Setting parameter alchLambda2 to 0.049999999999999684
Info: NONBONDED TABLE R-SQUARED SPACING: 0.0625
Info: NONBONDED TABLE SIZE: 705 POINTS
TCL: Running for 1500000 steps
ETITLE: TS BOND ANGLE DIHED IMPRP ELECT VDW BOUNDARY MISC KINETIC TOTAL TEMP POTENTIAL TOTALAVG TEMPAVG PRESSURE GPRESSURE VOLUME PRESSAVG GPRESSAVG
ENERGY: 0 0.1046 4.4927 0.7616 0.0000 -10655.1186 1384.9342 0.0000 0.0000 1807.2981 -7457.5274 304.9367 -9264.8256 -7457.5274 304.9367 -425.2330 -333.3111 30934.4406 -425.2330 -333.3111
ENERGY: 300000 1.3123 6.4918 0.6757 0.0000 -10757.3463 1428.0891 0.0000 0.0000 1761.5774 -7559.2000 297.2225 -9320.7774 -7536.9228 300.6884 -144.8586 -146.3046 30752.5799 -362.7923 -301.9879
ENERGY: 600000 0.1227 2.6670 0.8859 0.0000 -10812.3944 1517.9599 0.0000 0.0000 1794.1431 -7496.6159 302.7171 -9290.7590 -7527.0184 300.6602 902.5744 948.5835 30201.8748 -297.8800 -239.3382
ENERGY: 900000 0.7723 6.3395 0.2084 0.0000 -10803.1427 1419.9432 0.0000 0.0000 1822.9839 -7552.8953 307.5833 -9375.8793 -7528.6896 302.0104 -243.8246 -175.9537 30229.1412 -162.6975 -110.6084
ENERGY: 1200000 0.1994 2.7463 0.4636 0.0000 -10827.9942 1490.5498 0.0000 0.0000 1719.7585 -7614.2766 290.1666 -9334.0350 -7546.5656 300.9397 374.5145 410.7060 30426.2717 -146.7869 -95.3784
ENERGY: 1500000 2.6511 3.8528 0.6829 0.0000 -10703.8439 1373.6462 0.0000 0.0000 1814.3269 -7508.6840 306.1227 -9323.0109 -7545.5575 302.3327 -692.8988 -663.1575 30793.3053 -120.3607 -65.8380
TCL: Running FEP window  20: Lambda1 0.049999999999999684 Lambda2 0.0    [dLambda -0.049999999999999684]
TCL: Setting parameter firsttimestep to 0
TCL: Setting parameter alchLambda to 0.049999999999999684
Info: NONBONDED TABLE R-SQUARED SPACING: 0.0625
Info: NONBONDED TABLE SIZE: 705 POINTS
TCL: Setting parameter alchLambda2 to 0.0
Info: NONBONDED TABLE R-SQUARED SPACING: 0.0625
Info: NONBONDED TABLE SIZE: 705 POINTS
TCL: Running for 1500000 steps
ETITLE: TS BOND ANGLE DIHED IMPRP ELECT VDW BOUNDARY MISC KINETIC TOTAL TEMP POTENTIAL TOTALAVG TEMPAVG PRESSURE GPRESSURE VOLUME PRESSAVG GPRESSAVG
ENERGY: 0 2.6511 3.8528 0.6829 0.0000 -10703.8441 1373.3532 0.0000 0.0000 1813.4351 -7509.8690 305.9722 -9323.3041 -7509.8690 305.9722 -743.9811 -666.7917 30793.3053 -743.9811 -666.7917
ENERGY: 300000 0.1448 5.0097 0.4010 0.0000 -10552.4118 1265.4759 0.0000 0.0000 1765.4886 -7515.8918 297.8824 -9281.3804 -7517.4345 301.5404 -1249.4491 -1179.2055 30605.8351 -464.4999 -389.0947
ENERGY: 600000 0.2316 3.8360 0.3157 0.0000 -10851.2114 1526.1718 0.0000 0.0000 1759.4454 -7561.2110 296.8628 -9320.6563 -7520.5317 301.7846 684.6817 706.2830 30608.0919 -251.5596 -193.3964
ENERGY: 900000 0.3666 7.8420 0.1816 0.0000 -10858.4368 1536.6163 0.0000 0.0000 1772.9818 -7540.4485 299.1467 -9313.4303 -7544.5551 301.8654 596.4956 690.8222 30724.5877 -159.8569 -104.1375
ENERGY: 1200000 0.0061 4.1312 0.0826 0.0000 -10805.8560 1488.0569 0.0000 0.0000 1749.1255 -7564.4537 295.1215 -9313.5793 -7542.1082 302.6522 389.7352 484.6069 30344.3791 -156.5030 -95.4161
ENERGY: 1500000 0.1753 6.4545 0.1985 0.0000 -10848.4023 1444.2875 0.0000 0.0000 1733.6204 -7663.6661 292.5054 -9397.2865 -7541.2579 302.9895 -55.8698 14.9063 30130.3714 -143.6909 -83.3020
TCL: Exiting due to exit command.
