Info: SIMULATION PARAMETERS:
Info: TIMESTEP               2
Info: NUMBER OF STEPS        0
Info: STEPS PER CYCLE        10
Info: PERIODIC CELL BASIS 1  31.9475 0 0
Info: PERIODIC CELL BASIS 2  0 31.1815 0
Info: PERIODIC CELL BASIS 3  0 0 30.3537
Info: PERIODIC CELL CENTER   0 0 0
Info: WRAPPING WATERS AROUND PERIODIC BOUNDARIES ON OUTPUT.
Info: WRAPPING ALL CLUSTERS AROUND PERIODIC BOUNDARIES ON OUTPUT.
Info: FIRST LDB TIMESTEP     50
Info: LAST LDB TIMESTEP     -1
Info: HOM BACKGROUND SCALING 1
Info: PME BACKGROUND SCALING 1
Info: MIN ATOMS PER PATCH    40
Info: EMPTY PATCH LOAD       40 ATOMS
Info: VELOCITY FILE          mobley_5499659_equil.vel
Info: CENTER OF MASS MOVING INITIALLY? NO
Info: DIELECTRIC             1
Info: EXCLUDE                SCALED ONE-FOUR
Info: 1-4 ELECTROSTATICS SCALED BY 0.833333
Info: MODIFIED 1-4 VDW PARAMETERS WILL BE USED
Info: DCD FILENAME           mobley_5499659_prod.dcd
Info: DCD FREQUENCY          100000
Info: DCD FIRST STEP         100000
Info: DCD FILE WILL CONTAIN UNIT CELL DATA
Info: XST FILENAME           mobley_5499659_prod.xst
Info: XST FREQUENCY          100000
Info: NO VELOCITY DCD OUTPUT
Info: NO FORCE DCD OUTPUT
Info: OUTPUT FILENAME        mobley_5499659_prod
Info: BINARY OUTPUT FILES WILL BE USED
Info: RESTART FILENAME       mobley_5499659_prod.restart
Info: RESTART FREQUENCY      100000
Info: BINARY RESTART FILES WILL BE USED
Info: CUTOFF                 9
Info: PAIRLIST DISTANCE      11
Info: PAIRLIST SHRINK RATE   0.01
Info: PAIRLIST GROW RATE     0.01
Info: PAIRLIST TRIGGER       0.3
Info: PAIRLISTS PER CYCLE    2
Info: PAIRLISTS ENABLED
Info: MARGIN                 2
Info: HYDROGEN GROUP CUTOFF  2.5
Info: PATCH DIMENSION        15.5
Info: ENERGY OUTPUT STEPS    100000
Info: ENERGY EVALUATION STEPS    100000
Info: OUTPUT ENERGY PRECISION 4
Info: CROSSTERM ENERGY INCLUDED IN DIHEDRAL
Info: TIMING OUTPUT STEPS    1000000
Info: PRESSURE OUTPUT STEPS  100000
Info: ALCHEMICAL FEP ON
Info: FEP CURRENT LAMBDA VALUE     1
Info: FEP COMPARISON LAMBDA VALUE  0.95
Info: FEP INTRA-ALCHEMICAL NON-BONDED INTERACTIONS WILL BE RETAINED
Info: FEP INTRA-ALCHEMICAL BONDED INTERACTIONS WILL BE RETAINED
Info: FEP VDW SHIFTING COEFFICIENT 5
Info: FEP ELEC. ACTIVE FOR ANNIHILATED PARTICLES BETWEEN LAMBDA = 0 AND LAMBDA = 0.5
Info: FEP ELEC. ACTIVE FOR EXNIHILATED PARTICLES BETWEEN LAMBDA = 0.5 AND LAMBDA = 1
Info: FEP VDW ACTIVE FOR ANNIHILATED PARTICLES BETWEEN LAMBDA = 0 AND LAMBDA = 1
Info: FEP VDW ACTIVE FOR EXNIHILATED PARTICLES BETWEEN LAMBDA = 0 AND LAMBDA = 1
Info: FEP BOND ACTIVE FOR ANNIHILATED PARTICLES BETWEEN LAMBDA = 1 AND LAMBDA = 1
Info: FEP BOND ACTIVE FOR EXNIHILATED PARTICLES BETWEEN LAMBDA = 0 AND LAMBDA = 0
Info: LANGEVIN DYNAMICS ACTIVE
Info: LANGEVIN TEMPERATURE   300
Info: LANGEVIN USING BBK INTEGRATOR
Info: LANGEVIN DAMPING COEFFICIENT IS 1 INVERSE PS
Info: LANGEVIN DYNAMICS APPLIED TO HYDROGENS
Info: LANGEVIN PISTON PRESSURE CONTROL ACTIVE
Info:        TARGET PRESSURE IS 1.01325 BAR
Info:     OSCILLATION PERIOD IS 50 FS
Info:             DECAY TIME IS 25 FS
Info:     PISTON TEMPERATURE IS 300 K
Info:       PRESSURE CONTROL IS GROUP-BASED
Info:    INITIAL STRAIN RATE IS 0.000203912 0.000203912 0.000203912
Info:       CELL FLUCTUATION IS ISOTROPIC
Info: PARTICLE MESH EWALD (PME) ACTIVE
Info: PME TOLERANCE               1e-06
Info: PME EWALD COEFFICIENT       0.348832
Info: PME INTERPOLATION ORDER     4
Info: PME GRID DIMENSIONS         32 32 32
Info: PME MAXIMUM GRID SPACING    1
Info: PME CALCULATION WILL BE PERFORMED ON GPU
Info: FULL ELECTROSTATIC EVALUATION FREQUENCY      2
Info: USING VERLET I (r-RESPA) MTS SCHEME.
Info: C1 SPLITTING OF LONG RANGE ELECTROSTATICS
Info: PLACING ATOMS IN PATCHES BY HYDROGEN GROUPS
Info: RIGID BONDS TO HYDROGEN : ALL
Info:         ERROR TOLERANCE : 1e-08
Info:          MAX ITERATIONS : 100
Info: RIGID WATER USING SETTLE ALGORITHM
Info: RANDOM NUMBER SEED     1743548512
Info: USE HYDROGEN BONDS?    NO
Info: Using AMBER format force field!
Info: AMBER PARM FILE        mobley_5499659.prmtop
Info: COORDINATE PDB         mobley_5499659.pdb
Info: Exclusions will be read from PARM file!
Info: SCNB (VDW SCALING)     2
Info: USING ARITHMETIC MEAN TO COMBINE L-J SIGMA PARAMETERS
Info: BINARY COORDINATES     mobley_5499659_equil.coor
Info: SUMMARY OF PARAMETERS:
Info: 11 BONDS
Info: 14 ANGLES
Info:   14 HARMONIC
Info:   0 COSINE-BASED
Info: 5 DIHEDRAL
Info: 0 IMPROPER
Info: 0 CROSSTERM
Info: 0 VDW
Info: 36 VDW_PAIRS
Info: 0 NBTHOLE_PAIRS
Info: To read alchdata from file: mobley_5499659.pdb
Info: To read alchflag data from column: 5
Info: STRUCTURE SUMMARY:
Info: 2916 ATOMS
Info: 2916 BONDS
Info: 19 ANGLES
Info: 26 DIHEDRALS
Info: 0 IMPROPERS
Info: 0 CROSSTERMS
Info: 2952 EXCLUSIONS
Info: 2910 RIGID BONDS
Info: ALCH: 0 ATOMS TO DISAPPEAR IN FINAL STATE
Info: ALCH: 12 ATOMS TO APPEAR IN FINAL STATE
Info: 5838 DEGREES OF FREEDOM
Info: 974 HYDROGEN GROUPS
Info: 4 ATOMS IN LARGEST HYDROGEN GROUP
Info: 974 MIGRATION GROUPS
Info: 4 ATOMS IN LARGEST MIGRATION GROUP
Info: TOTAL MASS = 17521.6 amu
Info: TOTAL CHARGE = 0.000100017 e
Info: MASS DENSITY = 0.962248 g/cm^3
Info: ATOM DENSITY = 0.0964365 atoms/A^3
Info: ADDED 0 IMPLICIT EXCLUSIONS
Info: NONBONDED TABLE R-SQUARED SPACING: 0.0625
Info: NONBONDED TABLE SIZE: 705 POINTS
Info: REDUCING NUMBER OF PATCHES TO IMPROVE LOAD BALANCE
Info: REMOVING COM VELOCITY -0.117865 0.0918326 0.0158339
Info: Use 3D box decompostion in PME FFT.
Info: Updated CUDA force table with 4096 elements.
Info: Updated CUDA LJ table with 8 x 8 elements.
Info: Found 14 unique exclusion lists needing 28 bytes
TCL: Running for 1500000 steps
ETITLE: TS BOND ANGLE DIHED IMPRP ELECT VDW BOUNDARY MISC KINETIC TOTAL TEMP POTENTIAL TOTALAVG TEMPAVG PRESSURE GPRESSURE VOLUME PRESSAVG GPRESSAVG
ENERGY: 0 2.1038 6.8821 3.5135 0.0000 -10531.2063 1393.0300 0.0000 0.0000 1715.1734 -7410.5034 295.6884 -9125.6768 -7410.5034 295.6884 -232.6251 -141.3522 30237.5080 -232.6251 -141.3522
ENERGY: 300000 2.8605 2.2244 2.4198 0.0000 -10589.3220 1349.1021 0.0000 0.0000 1718.7184 -7513.9969 296.2996 -9232.7153 -7421.3287 298.7622 -463.6471 -480.3528 29676.2374 -279.9270 -227.3405
ENERGY: 600000 3.5546 3.3542 0.1913 0.0000 -10649.5694 1491.8545 0.0000 0.0000 1727.5649 -7423.0500 297.8247 -9150.6148 -7419.4271 298.0009 738.1987 768.9715 29642.3441 114.0055 167.2637
ENERGY: 900000 0.7781 3.1210 0.5078 0.0000 -10638.5055 1475.5018 0.0000 0.0000 1708.8854 -7449.7115 294.6044 -9158.5969 -7419.1342 299.0624 272.9743 363.8153 30334.4491 19.8177 79.3511
ENERGY: 1200000 2.9294 2.3783 1.2838 0.0000 -10617.3284 1415.3962 0.0000 0.0000 1826.3854 -7368.9552 314.8609 -9195.3406 -7405.9409 301.3596 -13.4177 64.7650 29972.1172 58.2517 113.4019
ENERGY: 1500000 1.3963 1.9471 1.4287 0.0000 -10731.0161 1537.4548 0.0000 0.0000 1771.0308 -7417.7584 305.3180 -9188.7892 -7411.4583 301.1706 565.2538 626.2380 30245.1297 15.8072 74.9644
TCL: Running FEP window   2: Lambda1 0.95   Lambda2 0.8999999999999999 [dLambda -0.050000000000000044]
TCL: Setting parameter firsttimestep to 0
TCL: Setting parameter alchLambda to 0.95
Info: NONBONDED TABLE R-SQUARED SPACING: 0.0625
Info: NONBONDED TABLE SIZE: 705 POINTS
TCL: Setting parameter alchLambda2 to 0.8999999999999999
Info: NONBONDED TABLE R-SQUARED SPACING: 0.0625
Info: NONBONDED TABLE SIZE: 705 POINTS
TCL: Running for 1500000 steps
ETITLE: TS BOND ANGLE DIHED IMPRP ELECT VDW BOUNDARY MISC KINETIC TOTAL TEMP POTENTIAL TOTALAVG TEMPAVG PRESSURE GPRESSURE VOLUME PRESSAVG GPRESSAVG
ENERGY: 0 1.3963 1.9471 1.4287 0.0000 -10729.5159 1537.7669 0.0000 0.0000 1770.1651 -7416.8117 305.1688 -9186.9768 -7416.8117 305.1688 536.5122 623.8745 30245.1297 536.5122 623.8745
ENERGY: 300000 0.7667 3.1558 1.8105 0.0000 -10594.6811 1383.3682 0.0000 0.0000 1767.0541 -7438.5259 304.6324 -9205.5799 -7464.0548 299.1885 -363.0913 -269.2018 29658.0291 23.6290 91.7643
ENERGY: 600000 3.4990 3.3795 1.5595 0.0000 -10517.6295 1379.7008 0.0000 0.0000 1711.2214 -7418.2693 295.0071 -9129.4908 -7449.6915 299.9763 -244.1409 -120.8106 29909.2583 145.8237 233.3595
ENERGY: 900000 1.2995 3.3684 1.8980 0.0000 -10701.5064 1557.0794 0.0000 0.0000 1718.3234 -7419.5376 296.2315 -9137.8611 -7445.3303 299.6407 1134.7233 1218.5854 29938.5652 115.1929 194.7578
ENERGY: 1200000 1.9035 6.8620 1.0567 0.0000 -10542.9720 1346.8547 0.0000 0.0000 1746.3461 -7439.9491 301.0625 -9186.2952 -7441.6911 299.3878 -514.7561 -515.0772 29958.0224 142.6901 214.1668
ENERGY: 1500000 3.4294 8.5153 3.2804 0.0000 -10529.1898 1365.8735 0.0000 0.0000 1747.4084 -7400.6828 301.2456 -9148.0912 -7433.7417 299.1223 -338.8908 -245.0839 29912.5501 148.2134 220.5235
TCL: Running FEP window   3: Lambda1 0.8999999999999999 Lambda2 0.8499999999999999 [dLambda -0.050000000000000044]
TCL: Setting parameter firsttimestep to 0
TCL: Setting parameter alchLambda to 0.8999999999999999
Info: NONBONDED TABLE R-SQUARED SPACING: 0.0625
Info: NONBONDED TABLE SIZE: 705 POINTS
TCL: Setting parameter alchLambda2 to 0.8499999999999999
Info: NONBONDED TABLE R-SQUARED SPACING: 0.0625
Info: NONBONDED TABLE SIZE: 705 POINTS
TCL: Running for 1500000 steps
ETITLE: TS BOND ANGLE DIHED IMPRP ELECT VDW BOUNDARY MISC KINETIC TOTAL TEMP POTENTIAL TOTALAVG TEMPAVG PRESSURE GPRESSURE VOLUME PRESSAVG GPRESSAVG
ENERGY: 0 3.4294 8.5153 3.2804 0.0000 -10528.0290 1366.1560 0.0000 0.0000 1746.5729 -7400.0751 301.1016 -9146.6480 -7400.0751 301.1016 -323.9155 -251.1920 29912.5501 -323.9155 -251.1920
ENERGY: 300000 0.8005 3.3101 2.4654 0.0000 -10705.8017 1444.8083 0.0000 0.0000 1727.3526 -7527.0648 297.7881 -9254.4175 -7441.9226 296.0011 24.7860 122.2709 29859.0977 -215.5895 -151.4924
ENERGY: 600000 3.0409 2.8476 1.7946 0.0000 -10544.9197 1416.2107 0.0000 0.0000 1716.1868 -7404.8391 295.8631 -9121.0259 -7405.9932 298.1275 -17.6072 -0.4867 30043.3350 -374.8846 -315.8503
ENERGY: 900000 3.0257 2.2548 1.9192 0.0000 -10630.6452 1386.7157 0.0000 0.0000 1763.0584 -7473.6713 303.9436 -9236.7297 -7416.9947 299.0281 -365.6979 -279.5886 29465.5633 -290.2366 -230.6161
ENERGY: 1200000 0.6564 3.1056 2.0552 0.0000 -10563.9160 1383.7337 0.0000 0.0000 1768.9686 -7405.3964 304.9625 -9174.3651 -7412.7724 299.7667 -319.5232 -271.9067 29983.3180 -199.3071 -141.3476
ENERGY: 1500000 0.8162 4.0821 1.4589 0.0000 -10539.8706 1327.4816 0.0000 0.0000 1745.6319 -7460.4000 300.9393 -9206.0319 -7399.1540 299.9976 -984.2622 -883.5194 30226.5187 -195.1572 -128.6718
TCL: Running FEP window   4: Lambda1 0.8499999999999999 Lambda2 0.7999999999999998 [dLambda -0.050000000000000044]
TCL: Setting parameter firsttimestep to 0
TCL: Setting parameter alchLambda to 0.8499999999999999
Info: NONBONDED TABLE R-SQUARED SPACING: 0.0625
Info: NONBONDED TABLE SIZE: 705 POINTS
TCL: Setting parameter alchLambda2 to 0.7999999999999998
Info: NONBONDED TABLE R-SQUARED SPACING: 0.0625
Info: NONBONDED TABLE SIZE: 705 POINTS
TCL: Running for 1500000 steps
ETITLE: TS BOND ANGLE DIHED IMPRP ELECT VDW BOUNDARY MISC KINETIC TOTAL TEMP POTENTIAL TOTALAVG TEMPAVG PRESSURE GPRESSURE VOLUME PRESSAVG GPRESSAVG
ENERGY: 0 0.8162 4.0820 1.4589 0.0000 -10538.3080 1327.3141 0.0000 0.0000 1744.7646 -7459.8722 300.7898 -9204.6368 -7459.8722 300.7898 -992.1143 -890.5620 30226.5187 -992.1143 -890.5620
ENERGY: 300000 3.5142 3.1941 0.8773 0.0000 -10678.7580 1388.7607 0.0000 0.0000 1705.5546 -7576.8571 294.0302 -9282.4117 -7453.7108 299.8581 -860.0986 -731.4679 30121.9901 -303.8581 -216.5684
ENERGY: 600000 2.3536 6.9546 2.3164 0.0000 -10500.5139 1364.1619 0.0000 0.0000 1757.2516 -7367.4757 302.9425 -9124.7274 -7407.9452 301.5734 -401.2327 -347.3613 29876.9835 -357.4401 -277.1266
ENERGY: 900000 2.1553 4.6496 2.4593 0.0000 -10458.7369 1349.4739 0.0000 0.0000 1764.1920 -7335.8068 304.1390 -9099.9989 -7393.2477 300.8820 -479.7864 -381.1892 30220.5826 -359.5933 -278.3410
ENERGY: 1200000 0.6618 2.3759 2.3972 0.0000 -10520.1729 1407.6292 0.0000 0.0000 1700.3540 -7406.7548 293.1336 -9107.1088 -7401.9817 298.6243 213.6931 230.6477 29811.9267 -280.1796 -208.6302
ENERGY: 1500000 1.8349 5.3966 1.5079 0.0000 -10727.7386 1564.8076 0.0000 0.0000 1777.7188 -7376.4729 306.4710 -9154.1916 -7403.9210 299.7442 1323.0275 1380.7968 29839.9568 -231.8500 -155.9790
TCL: Running FEP window   5: Lambda1 0.7999999999999998 Lambda2 0.7499999999999998 [dLambda -0.050000000000000044]
TCL: Setting parameter firsttimestep to 0
TCL: Setting parameter alchLambda to 0.7999999999999998
Info: NONBONDED TABLE R-SQUARED SPACING: 0.0625
Info: NONBONDED TABLE SIZE: 705 POINTS
TCL: Setting parameter alchLambda2 to 0.7499999999999998
Info: NONBONDED TABLE R-SQUARED SPACING: 0.0625
Info: NONBONDED TABLE SIZE: 705 POINTS
TCL: Running for 1500000 steps
ETITLE: TS BOND ANGLE DIHED IMPRP ELECT VDW BOUNDARY MISC KINETIC TOTAL TEMP POTENTIAL TOTALAVG TEMPAVG PRESSURE GPRESSURE VOLUME PRESSAVG GPRESSAVG
ENERGY: 0 1.8349 5.3966 1.5079 0.0000 -10726.4316 1564.9198 0.0000 0.0000 1776.9058 -7375.8666 306.3308 -9152.7724 -7375.8666 306.3308 1284.4017 1372.3723 29839.9568 1284.4017 1372.3723
ENERGY: 300000 1.1595 3.6168 1.6085 0.0000 -10630.4834 1440.9453 0.0000 0.0000 1770.4857 -7412.6675 305.2240 -9183.1532 -7397.7247 302.8232 120.4333 139.3079 29835.8455 458.7914 498.9779
ENERGY: 600000 2.5888 5.5563 0.4995 0.0000 -10445.1444 1332.5066 0.0000 0.0000 1779.3219 -7324.6714 306.7473 -9103.9932 -7393.7407 303.3376 -546.4686 -514.5652 30233.6107 231.6452 271.3727
ENERGY: 900000 1.3734 4.1111 0.7685 0.0000 -10559.8180 1408.2591 0.0000 0.0000 1817.5107 -7327.7952 313.3309 -9145.3059 -7379.5837 304.5433 -26.5049 16.4786 29846.5036 219.4381 265.4242
ENERGY: 1200000 1.3263 3.4528 3.3631 0.0000 -10568.6982 1420.8670 0.0000 0.0000 1719.6488 -7420.0403 296.4600 -9139.6890 -7382.0654 304.0841 72.8364 143.6471 29701.5664 235.6250 293.6994
ENERGY: 1500000 0.8628 5.3632 4.3488 0.0000 -10622.0944 1439.3597 0.0000 0.0000 1738.4471 -7433.7128 299.7007 -9172.1599 -7385.8562 302.7254 -35.7749 24.3527 30173.4664 169.0390 229.8025
TCL: Running FEP window   6: Lambda1 0.7499999999999998 Lambda2 0.6999999999999997 [dLambda -0.050000000000000044]
TCL: Setting parameter firsttimestep to 0
TCL: Setting parameter alchLambda to 0.7499999999999998
Info: NONBONDED TABLE R-SQUARED SPACING: 0.0625
Info: NONBONDED TABLE SIZE: 705 POINTS
TCL: Setting parameter alchLambda2 to 0.6999999999999997
Info: NONBONDED TABLE R-SQUARED SPACING: 0.0625
Info: NONBONDED TABLE SIZE: 705 POINTS
TCL: Running for 1500000 steps
ETITLE: TS BOND ANGLE DIHED IMPRP ELECT VDW BOUNDARY MISC KINETIC TOTAL TEMP POTENTIAL TOTALAVG TEMPAVG PRESSURE GPRESSURE VOLUME PRESSAVG GPRESSAVG
ENERGY: 0 0.8628 5.3632 4.3488 0.0000 -10620.8304 1439.4338 0.0000 0.0000 1737.5929 -7433.2288 299.5535 -9170.8218 -7433.2288 299.5535 -72.1844 19.3194 30173.4664 -72.1844 19.3194
ENERGY: 300000 0.9854 1.8280 0.9589 0.0000 -10622.5180 1412.9460 0.0000 0.0000 1694.1747 -7511.6248 292.0683 -9205.7996 -7460.4536 297.1196 -236.0969 -193.9290 29819.3677 18.3621 84.4298
ENERGY: 600000 1.9304 6.9011 2.1045 0.0000 -10500.1722 1418.2848 0.0000 0.0000 1705.2497 -7365.7017 293.9776 -9070.9514 -7431.4869 297.3189 85.6125 136.6232 30020.5530 111.0912 172.4389
ENERGY: 900000 4.3410 1.8877 1.1556 0.0000 -10630.5291 1422.5624 0.0000 0.0000 1803.0287 -7397.5537 310.8343 -9200.5824 -7412.3200 300.8337 153.5580 214.8549 29497.4558 59.4643 121.0313
ENERGY: 1200000 1.1687 8.3904 1.7797 0.0000 -10626.4195 1439.4914 0.0000 0.0000 1739.7210 -7435.8684 299.9203 -9175.5894 -7412.6702 300.7506 105.8455 154.5593 30064.6635 -9.1689 47.8216
ENERGY: 1500000 0.6645 1.9731 0.6738 0.0000 -10759.9623 1506.1912 0.0000 0.0000 1806.7212 -7443.7385 311.4709 -9250.4597 -7411.6413 301.5377 288.1798 388.2103 29901.1531 -36.7711 23.2583
TCL: Running FEP window   7: Lambda1 0.6999999999999997 Lambda2 0.6499999999999997 [dLambda -0.050000000000000044]
TCL: Setting parameter firsttimestep to 0
TCL: Setting parameter alchLambda to 0.6999999999999997
Info: NONBONDED TABLE R-SQUARED SPACING: 0.0625
Info: NONBONDED TABLE SIZE: 705 POINTS
TCL: Setting parameter alchLambda2 to 0.6499999999999997
Info: NONBONDED TABLE R-SQUARED SPACING: 0.0625
Info: NONBONDED TABLE SIZE: 705 POINTS
TCL: Running for 1500000 steps
ETITLE: TS BOND ANGLE DIHED IMPRP ELECT VDW BOUNDARY MISC KINETIC TOTAL TEMP POTENTIAL TOTALAVG TEMPAVG PRESSURE GPRESSURE VOLUME PRESSAVG GPRESSAVG
ENERGY: 0 0.6645 1.9731 0.6738 0.0000 -10758.7924 1506.5903 0.0000 0.0000 1805.8543 -7443.0365 311.3214 -9248.8907 -7443.0365 311.3214 295.0362 386.7112 29901.1531 295.0362 386.7112
ENERGY: 300000 1.6511 4.0478 1.6609 0.0000 -10496.4244 1361.3284 0.0000 0.0000 1769.3055 -7358.4306 305.0206 -9127.7362 -7405.3341 303.8302 -709.2136 -634.3957 30691.8563 -71.2194 10.5223
ENERGY: 600000 2.3968 2.0755 1.7619 0.0000 -10333.6664 1311.2954 0.0000 0.0000 1799.9254 -7216.2114 310.2993 -9016.1368 -7374.3078 304.0204 -788.5263 -814.3011 30773.3336 -171.3607 -108.1227
ENERGY: 900000 1.0007 5.6399 1.0791 0.0000 -10556.2411 1368.4243 0.0000 0.0000 1778.6506 -7401.4465 306.6316 -9180.0971 -7378.2960 303.3447 -317.9634 -255.3483 30042.0234 -201.3894 -141.4441
ENERGY: 1200000 1.6426 4.5353 2.8531 0.0000 -10600.4345 1487.4043 0.0000 0.0000 1806.0369 -7297.9623 311.3529 -9103.9992 -7371.2694 304.2033 835.0924 914.1509 29657.3100 -78.0589 -17.2020
ENERGY: 1500000 2.3030 4.4309 2.3353 0.0000 -10445.4290 1331.5362 0.0000 0.0000 1715.0539 -7389.7698 295.6678 -9104.8237 -7377.8791 303.0309 -727.6834 -651.4391 30551.7025 -102.1904 -43.0104
TCL: Running FEP window   8: Lambda1 0.6499999999999997 Lambda2 0.5999999999999996 [dLambda -0.050000000000000044]
TCL: Setting parameter firsttimestep to 0
TCL: Setting parameter alchLambda to 0.6499999999999997
Info: NONBONDED TABLE R-SQUARED SPACING: 0.0625
Info: NONBONDED TABLE SIZE: 705 POINTS
TCL: Setting parameter alchLambda2 to 0.5999999999999996
Info: NONBONDED TABLE R-SQUARED SPACING: 0.0625
Info: NONBONDED TABLE SIZE: 705 POINTS
TCL: Running for 1500000 steps
ETITLE: TS BOND ANGLE DIHED IMPRP ELECT VDW BOUNDARY MISC KINETIC TOTAL TEMP POTENTIAL TOTALAVG TEMPAVG PRESSURE GPRESSURE VOLUME PRESSAVG GPRESSAVG
ENERGY: 0 2.3030 4.4309 2.3353 0.0000 -10443.5596 1330.3923 0.0000 0.0000 1714.2346 -7389.8635 295.5266 -9104.0981 -7389.8635 295.5266 -752.6930 -666.3822 30551.7025 -752.6930 -666.3822
ENERGY: 300000 1.1173 3.3625 1.8330 0.0000 -10686.5883 1462.5303 0.0000 0.0000 1765.6831 -7452.0621 304.3961 -9217.7452 -7435.4145 296.6824 433.2143 469.7731 29501.8536 304.6183 382.5821
ENERGY: 600000 0.8966 6.1808 0.4680 0.0000 -10444.1176 1317.2837 0.0000 0.0000 1704.4879 -7414.8005 293.8463 -9119.2884 -7419.3123 296.8612 -728.3339 -658.4824 29865.9390 91.3909 164.5975
ENERGY: 900000 2.0385 5.5606 2.9745 0.0000 -10617.5939 1462.8079 0.0000 0.0000 1780.7758 -7363.4366 306.9980 -9144.2124 -7409.9351 297.7211 198.2737 330.9918 29905.1270 32.3475 100.9075
ENERGY: 1200000 0.8797 2.5748 1.6757 0.0000 -10511.9495 1424.4663 0.0000 0.0000 1770.2537 -7312.0994 305.1840 -9082.3531 -7410.2094 297.9149 -27.9701 -9.6572 30643.9862 -6.4543 55.5611
ENERGY: 1500000 1.7175 5.2929 4.1486 0.0000 -10467.9565 1396.5387 0.0000 0.0000 1672.1668 -7388.0920 288.2743 -9060.2588 -7404.6150 297.1385 -96.2166 56.5551 29887.3862 -40.8273 21.6155
TCL: Running FEP window   9: Lambda1 0.5999999999999996 Lambda2 0.5499999999999996 [dLambda -0.050000000000000044]
TCL: Setting parameter firsttimestep to 0
TCL: Setting parameter alchLambda to 0.5999999999999996
Info: NONBONDED TABLE R-SQUARED SPACING: 0.0625
Info: NONBONDED TABLE SIZE: 705 POINTS
TCL: Setting parameter alchLambda2 to 0.5499999999999996
Info: NONBONDED TABLE R-SQUARED SPACING: 0.0625
Info: NONBONDED TABLE SIZE: 705 POINTS
TCL: Running for 1500000 steps
ETITLE: TS BOND ANGLE DIHED IMPRP ELECT VDW BOUNDARY MISC KINETIC TOTAL TEMP POTENTIAL TOTALAVG TEMPAVG PRESSURE GPRESSURE VOLUME PRESSAVG GPRESSAVG
ENERGY: 0 1.7175 5.2929 4.1486 0.0000 -10467.7840 1397.0021 0.0000 0.0000 1671.3027 -7388.3202 288.1253 -9059.6230 -7388.3202 288.1253 -31.2077 54.3276 29887.3862 -31.2077 54.3276
ENERGY: 300000 0.9833 6.5892 1.7532 0.0000 -10475.4315 1369.8342 0.0000 0.0000 1742.5123 -7353.7593 300.4015 -9096.2716 -7389.6147 295.0761 -308.8028 -219.6385 29978.1181 14.1783 92.7423
ENERGY: 600000 1.4280 3.5584 2.4392 0.0000 -10494.1011 1389.8208 0.0000 0.0000 1756.9190 -7339.9357 302.8852 -9096.8547 -7392.9916 298.4415 -234.9164 -104.2813 30138.3528 114.4916 181.9099
ENERGY: 900000 1.8329 2.3184 2.0172 0.0000 -10426.9066 1319.4363 0.0000 0.0000 1706.0890 -7395.2128 294.1223 -9101.3018 -7397.4768 297.6100 -787.9853 -781.4706 30375.1573 -108.6847 -48.8576
ENERGY: 1200000 0.9152 9.0971 4.0511 0.0000 -10473.7787 1374.3050 0.0000 0.0000 1734.4742 -7350.9361 299.0158 -9085.4103 -7399.7427 297.8658 -100.9652 -87.0966 29662.6380 -181.0124 -116.9395
ENERGY: 1500000 2.8355 4.8264 2.2264 0.0000 -10580.5145 1475.5083 0.0000 0.0000 1726.5043 -7368.6136 297.6418 -9095.1179 -7400.0545 298.3472 85.6378 220.0729 30220.2342 -100.3506 -28.7653
TCL: Running FEP window  10: Lambda1 0.5499999999999996 Lambda2 0.4999999999999996 [dLambda -0.04999999999999999]
TCL: Setting parameter firsttimestep to 0
TCL: Setting parameter alchLambda to 0.5499999999999996
Info: NONBONDED TABLE R-SQUARED SPACING: 0.0625
Info: NONBONDED TABLE SIZE: 705 POINTS
TCL: Setting parameter alchLambda2 to 0.4999999999999996
Info: NONBONDED TABLE R-SQUARED SPACING: 0.0625
Info: NONBONDED TABLE SIZE: 705 POINTS
TCL: Running for 1500000 steps
ETITLE: TS BOND ANGLE DIHED IMPRP ELECT VDW BOUNDARY MISC KINETIC TOTAL TEMP POTENTIAL TOTALAVG TEMPAVG PRESSURE GPRESSURE VOLUME PRESSAVG GPRESSAVG
ENERGY: 0 2.8355 4.8264 2.2264 0.0000 -10579.9622 1475.9799 0.0000 0.0000 1725.6347 -7368.4592 297.4919 -9094.0940 -7368.4592 297.4919 125.0180 219.6924 30220.2342 125.0180 219.6924
ENERGY: 300000 3.2933 3.1282 1.7812 0.0000 -10465.4066 1318.0045 0.0000 0.0000 1761.7825 -7377.4170 303.7236 -9139.1994 -7374.7973 299.9534 -928.0601 -851.3395 30158.9728 -394.8380 -314.1375
ENERGY: 600000 2.1370 5.2446 2.5854 0.0000 -10568.0802 1428.2054 0.0000 0.0000 1753.5073 -7376.4005 302.2970 -9129.9079 -7388.8441 299.9526 74.0958 138.2345 30005.8716 -163.4041 -102.4647
ENERGY: 900000 1.9239 3.6905 1.3270 0.0000 -10562.1196 1412.4118 0.0000 0.0000 1749.3592 -7393.4071 301.5819 -9142.7664 -7392.6946 300.3648 -368.1130 -248.1571 30424.5093 -110.1032 -44.6254
ENERGY: 1200000 1.7827 4.3259 0.7941 0.0000 -10710.5825 1499.5422 0.0000 0.0000 1782.4409 -7421.6966 307.2850 -9204.1375 -7402.5379 301.2665 480.0137 517.5134 30096.9425 83.9710 145.3319
ENERGY: 1500000 1.9806 2.2651 0.6247 0.0000 -10543.1561 1370.4449 0.0000 0.0000 1718.3003 -7449.5405 296.2275 -9167.8408 -7407.3686 300.5184 -613.7360 -543.4392 30167.1495 -1.6117 58.5435
TCL: Running FEP window  11: Lambda1 0.4999999999999996 Lambda2 0.4499999999999996 [dLambda -0.04999999999999999]
TCL: Setting parameter firsttimestep to 0
TCL: Setting parameter alchLambda to 0.4999999999999996
Info: NONBONDED TABLE R-SQUARED SPACING: 0.0625
Info: NONBONDED TABLE SIZE: 705 POINTS
TCL: Setting parameter alchLambda2 to 0.4499999999999996
Info: NONBONDED TABLE R-SQUARED SPACING: 0.0625
Info: NONBONDED TABLE SIZE: 705 POINTS
TCL: Running for 1500000 steps
ETITLE: TS BOND ANGLE DIHED IMPRP ELECT VDW BOUNDARY MISC KINETIC TOTAL TEMP POTENTIAL TOTALAVG TEMPAVG PRESSURE GPRESSURE VOLUME PRESSAVG GPRESSAVG
ENERGY: 0 1.9806 2.2651 0.6247 0.0000 -10542.4173 1370.2518 0.0000 0.0000 1717.4270 -7449.8680 296.0769 -9167.2950 -7449.8680 296.0769 -642.4870 -551.4394 30167.1495 -642.4870 -551.4394
ENERGY: 300000 1.6573 5.8131 0.6059 0.0000 -10565.4922 1419.4516 0.0000 0.0000 1740.0161 -7397.9482 299.9712 -9137.9643 -7409.8120 297.7812 -14.0245 35.8401 30352.3880 -278.0145 -225.3762
ENERGY: 600000 0.9750 2.6765 3.7904 0.0000 -10409.9962 1229.3409 0.0000 0.0000 1756.1846 -7417.0288 302.7586 -9173.2134 -7411.6947 299.8247 -1715.9439 -1641.2888 29840.8139 -340.0985 -291.2436
ENERGY: 900000 2.9965 4.1520 2.1243 0.0000 -10442.2923 1287.4587 0.0000 0.0000 1759.6447 -7385.9161 303.3551 -9145.5609 -7391.9714 300.8095 -838.7889 -808.4137 29700.6832 -287.7353 -239.1650
ENERGY: 1200000 0.8569 2.8666 1.7364 0.0000 -10469.2471 1313.0595 0.0000 0.0000 1702.5911 -7448.1367 293.5193 -9150.7278 -7394.6919 301.0629 -1002.5238 -953.7396 30343.3357 -264.2513 -209.9655
ENERGY: 1500000 0.9020 4.2202 0.7039 0.0000 -10564.2824 1442.5197 0.0000 0.0000 1742.4712 -7373.4653 300.3945 -9115.9365 -7389.0863 300.8985 241.9076 331.1184 30144.1921 -216.0250 -154.9305
TCL: Running FEP window  12: Lambda1 0.4499999999999996 Lambda2 0.39999999999999963 [dLambda -0.04999999999999999]
TCL: Setting parameter firsttimestep to 0
TCL: Setting parameter alchLambda to 0.4499999999999996
Info: NONBONDED TABLE R-SQUARED SPACING: 0.0625
Info: NONBONDED TABLE SIZE: 705 POINTS
TCL: Setting parameter alchLambda2 to 0.39999999999999963
Info: NONBONDED TABLE R-SQUARED SPACING: 0.0625
Info: NONBONDED TABLE SIZE: 705 POINTS
TCL: Running for 1500000 steps
ETITLE: TS BOND ANGLE DIHED IMPRP ELECT VDW BOUNDARY MISC KINETIC TOTAL TEMP POTENTIAL TOTALAVG TEMPAVG PRESSURE GPRESSURE VOLUME PRESSAVG GPRESSAVG
ENERGY: 0 0.9020 4.2202 0.7039 0.0000 -10564.2821 1442.8705 0.0000 0.0000 1741.5941 -7373.9913 300.2432 -9115.5855 -7373.9913 300.2432 251.9729 329.9465 30144.1921 251.9729 329.9465
ENERGY: 300000 1.1884 2.6564 1.7939 0.0000 -10454.0544 1347.3677 0.0000 0.0000 1717.1729 -7383.8751 296.0331 -9101.0480 -7370.6197 301.1540 -307.4940 -265.5051 29832.4388 -47.1701 7.8544
ENERGY: 600000 6.6616 4.0287 1.5910 0.0000 -10670.4319 1494.4059 0.0000 0.0000 1734.8369 -7428.9077 299.0783 -9163.7446 -7385.5373 301.7872 689.7321 770.9829 29719.1118 -62.2464 -7.3930
ENERGY: 900000 0.9043 3.3690 2.0283 0.0000 -10546.9293 1452.2219 0.0000 0.0000 1720.4875 -7367.9183 296.6046 -9088.4057 -7379.5028 302.7812 176.0759 211.3813 30074.4899 0.5500 46.5122
ENERGY: 1200000 3.3261 4.6703 1.9481 0.0000 -10616.1688 1422.3438 0.0000 0.0000 1710.0094 -7473.8712 294.7982 -9183.8806 -7401.8537 300.4110 -249.1906 -185.9370 29829.2141 11.6975 58.4721
ENERGY: 1500000 1.6074 4.1588 0.6697 0.0000 -10396.7092 1305.4625 0.0000 0.0000 1731.3700 -7353.4408 298.4806 -9084.8107 -7400.1416 300.0632 -822.6456 -762.5926 29904.7282 1.0247 51.1997
TCL: Running FEP window  13: Lambda1 0.39999999999999963 Lambda2 0.34999999999999964 [dLambda -0.04999999999999999]
TCL: Setting parameter firsttimestep to 0
TCL: Setting parameter alchLambda to 0.39999999999999963
Info: NONBONDED TABLE R-SQUARED SPACING: 0.0625
Info: NONBONDED TABLE SIZE: 705 POINTS
TCL: Setting parameter alchLambda2 to 0.34999999999999964
Info: NONBONDED TABLE R-SQUARED SPACING: 0.0625
Info: NONBONDED TABLE SIZE: 705 POINTS
TCL: Running for 1500000 steps
ETITLE: TS BOND ANGLE DIHED IMPRP ELECT VDW BOUNDARY MISC KINETIC TOTAL TEMP POTENTIAL TOTALAVG TEMPAVG PRESSURE GPRESSURE VOLUME PRESSAVG GPRESSAVG
ENERGY: 0 1.6074 4.1588 0.6697 0.0000 -10396.7103 1305.6274 0.0000 0.0000 1730.4417 -7354.2053 298.3206 -9084.6470 -7354.2053 298.3206 -861.8006 -768.3185 29904.7282 -861.8006 -768.3185
ENERGY: 300000 0.4092 3.1507 1.1961 0.0000 -10587.2455 1437.8626 0.0000 0.0000 1694.9459 -7449.6810 292.2013 -9144.6270 -7406.7058 297.2753 51.9983 37.5907 30087.8122 -0.0611 57.2149
ENERGY: 600000 1.0299 4.1201 1.1994 0.0000 -10501.6222 1427.1518 0.0000 0.0000 1720.8053 -7347.3157 296.6593 -9068.1210 -7384.7413 298.3154 224.8006 289.8307 30103.1373 116.5309 163.9645
ENERGY: 900000 3.8152 2.6797 0.7098 0.0000 -10711.6268 1590.2456 0.0000 0.0000 1709.5387 -7404.6376 294.7170 -9114.1764 -7396.6219 298.2698 1186.4919 1242.2714 30343.9072 194.7373 255.9157
ENERGY: 1200000 3.8140 4.3443 2.8864 0.0000 -10391.2348 1294.1325 0.0000 0.0000 1704.4458 -7381.6119 293.8390 -9086.0576 -7388.8847 298.5348 -655.4438 -586.2943 30203.7501 95.2694 149.8911
ENERGY: 1500000 0.1435 2.3698 2.2113 0.0000 -10480.9494 1410.5884 0.0000 0.0000 1706.1516 -7359.4848 294.1331 -9065.6364 -7386.8600 298.5584 117.2381 160.6871 29991.0689 26.0742 79.6819
TCL: Running FEP window  14: Lambda1 0.34999999999999964 Lambda2 0.29999999999999966 [dLambda -0.04999999999999999]
TCL: Setting parameter firsttimestep to 0
TCL: Setting parameter alchLambda to 0.34999999999999964
Info: NONBONDED TABLE R-SQUARED SPACING: 0.0625
Info: NONBONDED TABLE SIZE: 705 POINTS
TCL: Setting parameter alchLambda2 to 0.29999999999999966
Info: NONBONDED TABLE R-SQUARED SPACING: 0.0625
Info: NONBONDED TABLE SIZE: 705 POINTS
TCL: Running for 1500000 steps
ETITLE: TS BOND ANGLE DIHED IMPRP ELECT VDW BOUNDARY MISC KINETIC TOTAL TEMP POTENTIAL TOTALAVG TEMPAVG PRESSURE GPRESSURE VOLUME PRESSAVG GPRESSAVG
ENERGY: 0 0.1435 2.3698 2.2113 0.0000 -10480.9493 1410.6297 0.0000 0.0000 1705.2789 -7360.3162 293.9827 -9065.5951 -7360.3162 293.9827 82.7469 158.8053 29991.0689 82.7469 158.8053
ENERGY: 300000 0.8062 3.7285 3.5185 0.0000 -10575.1637 1406.0428 0.0000 0.0000 1719.1881 -7441.8796 296.3806 -9161.0677 -7431.1239 296.2559 -211.2156 -84.5171 29934.5417 -76.7395 5.4998
ENERGY: 600000 3.7728 4.2054 1.9610 0.0000 -10584.8007 1416.2348 0.0000 0.0000 1745.5288 -7413.0979 300.9216 -9158.6267 -7434.9603 296.1374 -113.7667 -50.5446 29975.2616 -104.6476 -41.7449
ENERGY: 900000 2.5345 4.3753 1.6030 0.0000 -10460.5504 1412.6860 0.0000 0.0000 1703.8535 -7335.4981 293.7369 -9039.3515 -7409.2279 297.1656 124.4656 169.6177 30169.0238 66.6275 124.2265
ENERGY: 1200000 1.4759 2.2482 1.3813 0.0000 -10578.8127 1376.8397 0.0000 0.0000 1764.1050 -7432.7626 304.1240 -9196.8675 -7413.6179 297.2597 -508.4988 -384.8484 30033.5678 38.3705 107.4692
ENERGY: 1500000 1.5442 2.7969 1.5509 0.0000 -10603.1811 1399.3805 0.0000 0.0000 1693.7089 -7504.1997 291.9880 -9197.9086 -7424.0991 296.8527 -412.0611 -302.1862 29944.5013 0.2727 66.1415
TCL: Running FEP window  15: Lambda1 0.29999999999999966 Lambda2 0.24999999999999967 [dLambda -0.04999999999999999]
TCL: Setting parameter firsttimestep to 0
TCL: Setting parameter alchLambda to 0.29999999999999966
Info: NONBONDED TABLE R-SQUARED SPACING: 0.0625
Info: NONBONDED TABLE SIZE: 705 POINTS
TCL: Setting parameter alchLambda2 to 0.24999999999999967
Info: NONBONDED TABLE R-SQUARED SPACING: 0.0625
Info: NONBONDED TABLE SIZE: 705 POINTS
TCL: Running for 1500000 steps
ETITLE: TS BOND ANGLE DIHED IMPRP ELECT VDW BOUNDARY MISC KINETIC TOTAL TEMP POTENTIAL TOTALAVG TEMPAVG PRESSURE GPRESSURE VOLUME PRESSAVG GPRESSAVG
ENERGY: 0 1.5442 2.7969 1.5509 0.0000 -10603.1802 1399.5767 0.0000 0.0000 1692.8438 -7504.8676 291.8389 -9197.7114 -7504.8676 291.8389 -387.6391 -305.4706 29944.5013 -387.6391 -305.4706
ENERGY: 300000 0.5648 6.3819 2.0233 0.0000 -10598.0563 1416.6933 0.0000 0.0000 1771.9579 -7400.4352 305.4778 -9172.3931 -7405.4635 300.3239 147.2620 146.7846 29521.6947 -96.4132 -32.7875
ENERGY: 600000 2.3949 3.7305 1.0066 0.0000 -10546.5828 1390.7741 0.0000 0.0000 1735.6287 -7413.0480 299.2148 -9148.6766 -7405.7452 299.2816 -140.3002 -39.7406 29751.3758 -229.7986 -163.4353
ENERGY: 900000 2.5255 5.5174 1.9254 0.0000 -10698.6163 1454.3680 0.0000 0.0000 1786.6027 -7447.6774 308.0025 -9234.2801 -7403.1798 301.2486 172.9135 175.9290 29533.3041 -156.0419 -89.4538
ENERGY: 1200000 2.5742 4.8022 4.1060 0.0000 -10652.2748 1463.2828 0.0000 0.0000 1733.9175 -7443.5921 298.9198 -9177.5095 -7395.2445 301.0232 219.6872 313.5088 29828.3999 -169.0954 -102.0018
ENERGY: 1500000 1.7356 4.5792 1.6042 0.0000 -10666.4640 1495.6824 0.0000 0.0000 1766.4123 -7396.4503 304.5218 -9162.8626 -7395.9509 301.2503 623.2876 676.9994 29767.5299 -80.1245 -10.2169
TCL: Running FEP window  16: Lambda1 0.24999999999999967 Lambda2 0.19999999999999968 [dLambda -0.04999999999999999]
TCL: Setting parameter firsttimestep to 0
TCL: Setting parameter alchLambda to 0.24999999999999967
Info: NONBONDED TABLE R-SQUARED SPACING: 0.0625
Info: NONBONDED TABLE SIZE: 705 POINTS
TCL: Setting parameter alchLambda2 to 0.19999999999999968
Info: NONBONDED TABLE R-SQUARED SPACING: 0.0625
Info: NONBONDED TABLE SIZE: 705 POINTS
TCL: Running for 1500000 steps
ETITLE: TS BOND ANGLE DIHED IMPRP ELECT VDW BOUNDARY MISC KINETIC TOTAL TEMP POTENTIAL TOTALAVG TEMPAVG PRESSURE GPRESSURE VOLUME PRESSAVG GPRESSAVG
ENERGY: 0 1.7356 4.5792 1.6042 0.0000 -10666.4643 1495.8192 0.0000 0.0000 1765.5473 -7397.1788 304.3727 -9162.7261 -7397.1788 304.3727 594.6718 674.8420 29767.5299 594.6718 674.8420
ENERGY: 300000 3.6757 5.3460 0.8317 0.0000 -10533.1935 1397.3102 0.0000 0.0000 1818.8732 -7307.1567 313.5658 -9126.0299 -7413.1338 303.0688 -505.2542 -470.7637 30421.7238 421.8014 485.2080
ENERGY: 600000 3.9992 5.7378 1.5585 0.0000 -10567.6110 1426.1533 0.0000 0.0000 1723.6740 -7406.4883 297.1539 -9130.1623 -7414.8598 302.6752 -220.4527 -123.4654 30337.2148 223.5348 295.5688
ENERGY: 900000 2.9565 5.5289 2.1626 0.0000 -10416.4118 1332.7527 0.0000 0.0000 1789.5776 -7283.4336 308.5154 -9073.0112 -7397.0027 303.5571 -373.0687 -312.4538 29810.4915 8.1775 72.5881
ENERGY: 1200000 1.0709 2.2565 1.2071 0.0000 -10543.4072 1383.4305 0.0000 0.0000 1737.3437 -7418.0985 299.5105 -9155.4423 -7398.4797 302.9502 -419.5254 -372.4549 30206.2421 -1.1679 56.7026
ENERGY: 1500000 1.9409 5.0601 0.6717 0.0000 -10588.2145 1403.5346 0.0000 0.0000 1795.1872 -7381.8199 309.4825 -9177.0071 -7391.1346 303.2146 110.6298 118.0826 29374.8223 24.7269 77.7189
TCL: Running FEP window  17: Lambda1 0.19999999999999968 Lambda2 0.1499999999999997 [dLambda -0.04999999999999999]
TCL: Setting parameter firsttimestep to 0
TCL: Setting parameter alchLambda to 0.19999999999999968
Info: NONBONDED TABLE R-SQUARED SPACING: 0.0625
Info: NONBONDED TABLE SIZE: 705 POINTS
TCL: Setting parameter alchLambda2 to 0.1499999999999997
Info: NONBONDED TABLE R-SQUARED SPACING: 0.0625
Info: NONBONDED TABLE SIZE: 705 POINTS
TCL: Running for 1500000 steps
ETITLE: TS BOND ANGLE DIHED IMPRP ELECT VDW BOUNDARY MISC KINETIC TOTAL TEMP POTENTIAL TOTALAVG TEMPAVG PRESSURE GPRESSURE VOLUME PRESSAVG GPRESSAVG
ENERGY: 0 1.9409 5.0601 0.6717 0.0000 -10588.2140 1403.3607 0.0000 0.0000 1794.3052 -7382.8754 309.3304 -9177.1806 -7382.8754 309.3304 41.7687 116.4813 29374.8223 41.7687 116.4813
ENERGY: 300000 1.8968 4.0300 1.3161 0.0000 -10483.9675 1352.6832 0.0000 0.0000 1790.7910 -7333.2505 308.7246 -9124.0414 -7366.4501 305.0962 -684.2734 -558.9342 30162.0811 -382.3540 -291.9126
ENERGY: 600000 1.0676 2.1159 1.7038 0.0000 -10562.2201 1447.2587 0.0000 0.0000 1768.8766 -7341.1976 304.9466 -9110.0742 -7370.6463 303.8050 171.5957 170.7722 30119.2889 51.7799 115.1580
ENERGY: 900000 2.2968 5.5551 2.1088 0.0000 -10485.9016 1348.0993 0.0000 0.0000 1723.0303 -7404.8112 297.0429 -9127.8415 -7379.6961 302.3192 -638.0150 -584.5710 30078.2504 -109.4826 -43.9200
ENERGY: 1200000 2.7939 3.6019 1.5934 0.0000 -10612.1008 1461.1163 0.0000 0.0000 1719.5775 -7423.4178 296.4477 -9142.9953 -7389.5353 300.8475 242.4852 330.0039 29598.0728 -55.9552 13.8475
ENERGY: 1500000 1.0523 3.0445 2.1654 0.0000 -10592.0714 1466.4195 0.0000 0.0000 1723.5539 -7395.8357 297.1332 -9119.3896 -7383.1076 301.4964 397.7729 492.0344 29931.7633 33.7483 99.7312
TCL: Running FEP window  18: Lambda1 0.1499999999999997 Lambda2 0.09999999999999969 [dLambda -0.05 ]
TCL: Setting parameter firsttimestep to 0
TCL: Setting parameter alchLambda to 0.1499999999999997
Info: NONBONDED TABLE R-SQUARED SPACING: 0.0625
Info: NONBONDED TABLE SIZE: 705 POINTS
TCL: Setting parameter alchLambda2 to 0.09999999999999969
Info: NONBONDED TABLE R-SQUARED SPACING: 0.0625
Info: NONBONDED TABLE SIZE: 705 POINTS
TCL: Running for 1500000 steps
ETITLE: TS BOND ANGLE DIHED IMPRP ELECT VDW BOUNDARY MISC KINETIC TOTAL TEMP POTENTIAL TOTALAVG TEMPAVG PRESSURE GPRESSURE VOLUME PRESSAVG GPRESSAVG
ENERGY: 0 1.0523 3.0445 2.1654 0.0000 -10592.0718 1466.3769 0.0000 0.0000 1722.6939 -7396.7388 296.9849 -9119.4327 -7396.7388 296.9849 388.0150 490.3113 29931.7633 388.0150 490.3113
ENERGY: 300000 2.0901 8.2015 0.7950 0.0000 -10624.7937 1378.7623 0.0000 0.0000 1782.3711 -7452.5738 307.2730 -9234.9448 -7428.1616 300.7694 -380.8221 -282.6255 29492.3336 21.6623 62.7261
ENERGY: 600000 1.9075 3.0048 1.7486 0.0000 -10534.4260 1365.2155 0.0000 0.0000 1740.6587 -7421.8908 300.0820 -9162.5495 -7424.7490 301.3547 -752.7949 -678.4294 30253.1147 15.0081 44.7860
ENERGY: 900000 1.4471 6.8050 1.0858 0.0000 -10327.3646 1313.2729 0.0000 0.0000 1780.5419 -7224.2120 306.9577 -9004.7539 -7415.4510 300.3416 -608.7043 -580.2889 30324.3187 -185.4209 -154.2527
ENERGY: 1200000 1.0810 2.5222 0.2829 0.0000 -10493.1761 1366.4372 0.0000 0.0000 1756.8787 -7365.9741 302.8782 -9122.8528 -7408.0465 300.3328 -448.3314 -389.9510 29881.3117 -124.5074 -83.5603
ENERGY: 1500000 3.8332 5.2837 2.6375 0.0000 -10525.8945 1413.0593 0.0000 0.0000 1740.3547 -7360.7261 300.0296 -9101.0808 -7407.2112 299.6960 -59.9622 22.8013 29695.1753 -150.4217 -101.7720
TCL: Running FEP window  19: Lambda1 0.09999999999999969 Lambda2 0.049999999999999684 [dLambda -0.05 ]
TCL: Setting parameter firsttimestep to 0
TCL: Setting parameter alchLambda to 0.09999999999999969
Info: NONBONDED TABLE R-SQUARED SPACING: 0.0625
Info: NONBONDED TABLE SIZE: 705 POINTS
TCL: Setting parameter alchLambda2 to 0.049999999999999684
Info: NONBONDED TABLE R-SQUARED SPACING: 0.0625
Info: NONBONDED TABLE SIZE: 705 POINTS
TCL: Running for 1500000 steps
ETITLE: TS BOND ANGLE DIHED IMPRP ELECT VDW BOUNDARY MISC KINETIC TOTAL TEMP POTENTIAL TOTALAVG TEMPAVG PRESSURE GPRESSURE VOLUME PRESSAVG GPRESSAVG
ENERGY: 0 3.8332 5.2837 2.6375 0.0000 -10525.8917 1413.0624 0.0000 0.0000 1739.4788 -7361.5962 299.8786 -9101.0749 -7361.5962 299.8786 -67.3284 18.5535 29695.1753 -67.3284 18.5535
ENERGY: 300000 0.4687 2.1377 2.7370 0.0000 -10574.3606 1366.5335 0.0000 0.0000 1731.7613 -7470.7224 298.5481 -9202.4837 -7367.6785 299.9793 -426.8960 -364.6056 29430.9117 31.3240 108.3117
ENERGY: 600000 3.7454 1.9564 0.5457 0.0000 -10595.5796 1454.6461 0.0000 0.0000 1713.0088 -7421.6771 295.3153 -9134.6860 -7389.5114 299.2550 298.2078 298.7919 30015.9713 7.9336 70.3283
ENERGY: 900000 1.2094 3.8002 2.3828 0.0000 -10677.6598 1481.3764 0.0000 0.0000 1676.7575 -7512.1335 289.0657 -9188.8910 -7410.0711 297.4182 379.0466 391.9976 29782.5173 -20.8821 35.4412
ENERGY: 1200000 0.6924 4.6425 3.0567 0.0000 -10521.1572 1348.1460 0.0000 0.0000 1762.7429 -7401.8767 303.8892 -9164.6196 -7397.0090 298.5625 -494.1774 -424.1912 29681.7215 -40.9837 15.6010
ENERGY: 1500000 1.8114 6.1123 1.1886 0.0000 -10509.4573 1364.3090 0.0000 0.0000 1720.0450 -7415.9910 296.5283 -9136.0360 -7407.1834 297.7990 -213.0072 -202.7483 29733.0529 -47.3053 5.3236
TCL: Running FEP window  20: Lambda1 0.049999999999999684 Lambda2 0.0    [dLambda -0.049999999999999684]
TCL: Setting parameter firsttimestep to 0
TCL: Setting parameter alchLambda to 0.049999999999999684
Info: NONBONDED TABLE R-SQUARED SPACING: 0.0625
Info: NONBONDED TABLE SIZE: 705 POINTS
TCL: Setting parameter alchLambda2 to 0.0
Info: NONBONDED TABLE R-SQUARED SPACING: 0.0625
Info: NONBONDED TABLE SIZE: 705 POINTS
TCL: Running for 1500000 steps
ETITLE: TS BOND ANGLE DIHED IMPRP ELECT VDW BOUNDARY MISC KINETIC TOTAL TEMP POTENTIAL TOTALAVG TEMPAVG PRESSURE GPRESSURE VOLUME PRESSAVG GPRESSAVG
ENERGY: 0 1.8114 6.1123 1.1886 0.0000 -10509.4568 1363.9929 0.0000 0.0000 1719.2141 -7417.1375 296.3850 -9136.3516 -7417.1375 296.3850 -289.3595 -202.8943 29733.0529 -289.3595 -202.8943
ENERGY: 300000 1.5886 2.4358 1.0734 0.0000 -10632.9428 1364.4276 0.0000 0.0000 1796.1846 -7467.2328 309.6544 -9263.4174 -7449.9418 298.0766 -963.0925 -950.3796 30238.8562 -310.7241 -261.7690
ENERGY: 600000 4.6522 2.9948 3.0959 0.0000 -10644.3213 1469.3052 0.0000 0.0000 1748.7677 -7415.5055 301.4799 -9164.2732 -7441.2452 298.8202 253.4031 360.1389 29772.6691 -174.4852 -117.0170
ENERGY: 900000 1.9066 9.3019 0.8678 0.0000 -10777.5636 1574.7954 0.0000 0.0000 1717.9946 -7472.6974 296.1748 -9190.6920 -7418.6747 300.5471 1076.4237 1171.2593 29952.6022 78.0636 133.1987
ENERGY: 1200000 1.3572 4.9181 1.5201 0.0000 -10406.0928 1316.3031 0.0000 0.0000 1752.5966 -7329.3977 302.1400 -9081.9942 -7406.1838 300.6461 -793.8169 -697.4581 30320.3359 3.4155 61.6400
ENERGY: 1500000 3.7129 6.1967 2.4266 0.0000 -10396.8455 1285.7831 0.0000 0.0000 1750.5593 -7348.1670 301.7888 -9098.7262 -7397.6757 301.4763 -1065.1771 -984.0411 30019.4842 -60.8821 3.0271
TCL: Exiting due to exit command.
