Info: SIMULATION PARAMETERS:
Info: TIMESTEP               2
Info: NUMBER OF STEPS        0
Info: STEPS PER CYCLE        10
Info: PERIODIC CELL BASIS 1  32.2922 0 0
Info: PERIODIC CELL BASIS 2  0 30.619 0
Info: PERIODIC CELL BASIS 3  0 0 30.8467
Info: PERIODIC CELL CENTER   0 0 0
Info: WRAPPING WATERS AROUND PERIODIC BOUNDARIES ON OUTPUT.
Info: WRAPPING ALL CLUSTERS AROUND PERIODIC BOUNDARIES ON OUTPUT.
Info: FIRST LDB TIMESTEP     50
Info: LAST LDB TIMESTEP     -1
Info: HOM BACKGROUND SCALING 1
Info: PME BACKGROUND SCALING 1
Info: MIN ATOMS PER PATCH    40
Info: EMPTY PATCH LOAD       40 ATOMS
Info: VELOCITY FILE          mobley_4678740_equil.vel
Info: CENTER OF MASS MOVING INITIALLY? NO
Info: DIELECTRIC             1
Info: EXCLUDE                SCALED ONE-FOUR
Info: 1-4 ELECTROSTATICS SCALED BY 0.833333
Info: MODIFIED 1-4 VDW PARAMETERS WILL BE USED
Info: DCD FILENAME           mobley_4678740_prod.dcd
Info: DCD FREQUENCY          100000
Info: DCD FIRST STEP         100000
Info: DCD FILE WILL CONTAIN UNIT CELL DATA
Info: XST FILENAME           mobley_4678740_prod.xst
Info: XST FREQUENCY          100000
Info: NO VELOCITY DCD OUTPUT
Info: NO FORCE DCD OUTPUT
Info: OUTPUT FILENAME        mobley_4678740_prod
Info: BINARY OUTPUT FILES WILL BE USED
Info: RESTART FILENAME       mobley_4678740_prod.restart
Info: RESTART FREQUENCY      100000
Info: BINARY RESTART FILES WILL BE USED
Info: CUTOFF                 9
Info: PAIRLIST DISTANCE      11
Info: PAIRLIST SHRINK RATE   0.01
Info: PAIRLIST GROW RATE     0.01
Info: PAIRLIST TRIGGER       0.3
Info: PAIRLISTS PER CYCLE    2
Info: PAIRLISTS ENABLED
Info: MARGIN                 2
Info: HYDROGEN GROUP CUTOFF  2.5
Info: PATCH DIMENSION        15.5
Info: ENERGY OUTPUT STEPS    100000
Info: ENERGY EVALUATION STEPS    100000
Info: OUTPUT ENERGY PRECISION 4
Info: CROSSTERM ENERGY INCLUDED IN DIHEDRAL
Info: TIMING OUTPUT STEPS    1000000
Info: PRESSURE OUTPUT STEPS  100000
Info: ALCHEMICAL FEP ON
Info: FEP CURRENT LAMBDA VALUE     1
Info: FEP COMPARISON LAMBDA VALUE  0.95
Info: FEP INTRA-ALCHEMICAL NON-BONDED INTERACTIONS WILL BE RETAINED
Info: FEP INTRA-ALCHEMICAL BONDED INTERACTIONS WILL BE RETAINED
Info: FEP VDW SHIFTING COEFFICIENT 5
Info: FEP ELEC. ACTIVE FOR ANNIHILATED PARTICLES BETWEEN LAMBDA = 0 AND LAMBDA = 0.5
Info: FEP ELEC. ACTIVE FOR EXNIHILATED PARTICLES BETWEEN LAMBDA = 0.5 AND LAMBDA = 1
Info: FEP VDW ACTIVE FOR ANNIHILATED PARTICLES BETWEEN LAMBDA = 0 AND LAMBDA = 1
Info: FEP VDW ACTIVE FOR EXNIHILATED PARTICLES BETWEEN LAMBDA = 0 AND LAMBDA = 1
Info: FEP BOND ACTIVE FOR ANNIHILATED PARTICLES BETWEEN LAMBDA = 1 AND LAMBDA = 1
Info: FEP BOND ACTIVE FOR EXNIHILATED PARTICLES BETWEEN LAMBDA = 0 AND LAMBDA = 0
Info: LANGEVIN DYNAMICS ACTIVE
Info: LANGEVIN TEMPERATURE   300
Info: LANGEVIN USING BBK INTEGRATOR
Info: LANGEVIN DAMPING COEFFICIENT IS 1 INVERSE PS
Info: LANGEVIN DYNAMICS APPLIED TO HYDROGENS
Info: LANGEVIN PISTON PRESSURE CONTROL ACTIVE
Info:        TARGET PRESSURE IS 1.01325 BAR
Info:     OSCILLATION PERIOD IS 50 FS
Info:             DECAY TIME IS 25 FS
Info:     PISTON TEMPERATURE IS 300 K
Info:       PRESSURE CONTROL IS GROUP-BASED
Info:    INITIAL STRAIN RATE IS -9.86514e-06 -9.86514e-06 -9.86514e-06
Info:       CELL FLUCTUATION IS ISOTROPIC
Info: PARTICLE MESH EWALD (PME) ACTIVE
Info: PME TOLERANCE               1e-06
Info: PME EWALD COEFFICIENT       0.348832
Info: PME INTERPOLATION ORDER     4
Info: PME GRID DIMENSIONS         36 32 32
Info: PME MAXIMUM GRID SPACING    1
Info: PME CALCULATION WILL BE PERFORMED ON GPU
Info: FULL ELECTROSTATIC EVALUATION FREQUENCY      2
Info: USING VERLET I (r-RESPA) MTS SCHEME.
Info: C1 SPLITTING OF LONG RANGE ELECTROSTATICS
Info: PLACING ATOMS IN PATCHES BY HYDROGEN GROUPS
Info: RIGID BONDS TO HYDROGEN : ALL
Info:         ERROR TOLERANCE : 1e-08
Info:          MAX ITERATIONS : 100
Info: RIGID WATER USING SETTLE ALGORITHM
Info: RANDOM NUMBER SEED     1743613651
Info: USE HYDROGEN BONDS?    NO
Info: Using AMBER format force field!
Info: AMBER PARM FILE        mobley_4678740.prmtop
Info: COORDINATE PDB         mobley_4678740.pdb
Info: Exclusions will be read from PARM file!
Info: SCNB (VDW SCALING)     2
Info: USING ARITHMETIC MEAN TO COMBINE L-J SIGMA PARAMETERS
Info: BINARY COORDINATES     mobley_4678740_equil.coor
Info: SUMMARY OF PARAMETERS:
Info: 6 BONDS
Info: 5 ANGLES
Info:   5 HARMONIC
Info:   0 COSINE-BASED
Info: 3 DIHEDRAL
Info: 0 IMPROPER
Info: 0 CROSSTERM
Info: 0 VDW
Info: 21 VDW_PAIRS
Info: 0 NBTHOLE_PAIRS
Info: To read alchdata from file: mobley_4678740.pdb
Info: To read alchflag data from column: 5
Info: STRUCTURE SUMMARY:
Info: 2949 ATOMS
Info: 2949 BONDS
Info: 30 ANGLES
Info: 42 DIHEDRALS
Info: 0 IMPROPERS
Info: 0 CROSSTERMS
Info: 3012 EXCLUSIONS
Info: 2935 RIGID BONDS
Info: ALCH: 0 ATOMS TO DISAPPEAR IN FINAL STATE
Info: ALCH: 18 ATOMS TO APPEAR IN FINAL STATE
Info: 5912 DEGREES OF FREEDOM
Info: 991 HYDROGEN GROUPS
Info: 3 ATOMS IN LARGEST HYDROGEN GROUP
Info: 991 MIGRATION GROUPS
Info: 3 ATOMS IN LARGEST MIGRATION GROUP
Info: TOTAL MASS = 17815.7 amu
Info: TOTAL CHARGE = 0.000200085 e
Info: MASS DENSITY = 0.969985 g/cm^3
Info: ATOM DENSITY = 0.0966889 atoms/A^3
Info: ADDED 0 IMPLICIT EXCLUSIONS
Info: NONBONDED TABLE R-SQUARED SPACING: 0.0625
Info: NONBONDED TABLE SIZE: 705 POINTS
Info: REMOVING COM VELOCITY -0.0862449 -0.0560269 0.00295724
Info: Use 3D box decompostion in PME FFT.
Info: Updated CUDA force table with 4096 elements.
Info: Updated CUDA LJ table with 6 x 6 elements.
Info: Found 21 unique exclusion lists needing 56 bytes
TCL: Running for 1500000 steps
ETITLE: TS BOND ANGLE DIHED IMPRP ELECT VDW BOUNDARY MISC KINETIC TOTAL TEMP POTENTIAL TOTALAVG TEMPAVG PRESSURE GPRESSURE VOLUME PRESSAVG GPRESSAVG
ENERGY: 0 3.4927 7.3429 3.5878 0.0000 -10677.4204 1452.9790 0.0000 0.0000 1761.3447 -7448.6733 299.8474 -9210.0180 -7448.6733 299.8474 3.7810 77.2142 30499.8772 3.7810 77.2142
ENERGY: 300000 5.8875 7.0840 2.1484 0.0000 -10662.9820 1476.7249 0.0000 0.0000 1739.3395 -7431.7977 296.1013 -9171.1372 -7395.1131 301.6162 843.4275 977.8818 29884.8734 94.9948 154.9558
ENERGY: 600000 7.1006 7.4699 3.0246 0.0000 -10617.6135 1398.7915 0.0000 0.0000 1806.7832 -7394.4438 307.5828 -9201.2270 -7417.6461 303.8439 -245.0522 -152.7262 30660.8387 39.9425 95.8457
ENERGY: 900000 4.0740 6.0929 2.4837 0.0000 -10720.2019 1487.0491 0.0000 0.0000 1733.2944 -7487.2078 295.0722 -9220.5022 -7416.3922 302.1478 340.8096 441.3537 30294.1878 137.9610 204.4401
ENERGY: 1200000 5.1327 6.6627 2.4346 0.0000 -10730.7582 1445.6011 0.0000 0.0000 1731.8581 -7539.0689 294.8277 -9270.9270 -7437.4912 300.1936 -25.5585 54.3688 30417.5776 101.3223 173.4939
ENERGY: 1500000 2.0610 6.2559 2.2708 0.0000 -10727.0693 1518.6427 0.0000 0.0000 1755.1284 -7442.7105 298.7892 -9197.8389 -7437.4183 299.9854 668.2027 758.4403 30254.3155 67.5898 148.0727
TCL: Running FEP window   2: Lambda1 0.95   Lambda2 0.8999999999999999 [dLambda -0.050000000000000044]
TCL: Setting parameter firsttimestep to 0
TCL: Setting parameter alchLambda to 0.95
Info: NONBONDED TABLE R-SQUARED SPACING: 0.0625
Info: NONBONDED TABLE SIZE: 705 POINTS
TCL: Setting parameter alchLambda2 to 0.8999999999999999
Info: NONBONDED TABLE R-SQUARED SPACING: 0.0625
Info: NONBONDED TABLE SIZE: 705 POINTS
TCL: Running for 1500000 steps
ETITLE: TS BOND ANGLE DIHED IMPRP ELECT VDW BOUNDARY MISC KINETIC TOTAL TEMP POTENTIAL TOTALAVG TEMPAVG PRESSURE GPRESSURE VOLUME PRESSAVG GPRESSAVG
ENERGY: 0 2.0610 6.2559 2.2708 0.0000 -10726.6334 1518.2576 0.0000 0.0000 1754.2702 -7443.5180 298.6431 -9197.7882 -7443.5180 298.6431 637.0845 742.8450 30254.3155 637.0845 742.8450
ENERGY: 300000 4.4308 6.9014 2.2565 0.0000 -10660.0172 1441.2794 0.0000 0.0000 1753.3639 -7451.7853 298.4888 -9205.1491 -7434.5822 299.8057 -12.0580 118.7587 30629.4487 399.3143 503.3674
ENERGY: 600000 6.9538 3.7707 1.9401 0.0000 -10636.0708 1412.9180 0.0000 0.0000 1759.4129 -7451.0753 299.5186 -9210.4882 -7437.6602 299.4844 -302.1671 -209.1659 30658.8746 -53.0985 39.4811
ENERGY: 900000 4.5777 4.6234 3.4169 0.0000 -10705.5510 1468.4916 0.0000 0.0000 1773.0598 -7451.3816 301.8418 -9224.4414 -7449.6625 298.8385 215.1555 251.7749 30443.8145 100.6843 184.0425
ENERGY: 1200000 5.4984 2.7512 4.8290 0.0000 -10573.6659 1378.3545 0.0000 0.0000 1752.6394 -7429.5932 298.3655 -9182.2327 -7448.3030 299.7046 -656.4858 -602.2028 30909.1440 63.5011 140.8920
ENERGY: 1500000 2.7761 4.4591 3.0869 0.0000 -10682.9942 1460.9894 0.0000 0.0000 1767.6708 -7444.0119 300.9244 -9211.6827 -7448.0831 300.7247 278.0863 267.7954 30364.0300 0.4746 69.2036
TCL: Running FEP window   3: Lambda1 0.8999999999999999 Lambda2 0.8499999999999999 [dLambda -0.050000000000000044]
TCL: Setting parameter firsttimestep to 0
TCL: Setting parameter alchLambda to 0.8999999999999999
Info: NONBONDED TABLE R-SQUARED SPACING: 0.0625
Info: NONBONDED TABLE SIZE: 705 POINTS
TCL: Setting parameter alchLambda2 to 0.8499999999999999
Info: NONBONDED TABLE R-SQUARED SPACING: 0.0625
Info: NONBONDED TABLE SIZE: 705 POINTS
TCL: Running for 1500000 steps
ETITLE: TS BOND ANGLE DIHED IMPRP ELECT VDW BOUNDARY MISC KINETIC TOTAL TEMP POTENTIAL TOTALAVG TEMPAVG PRESSURE GPRESSURE VOLUME PRESSAVG GPRESSAVG
ENERGY: 0 2.7761 4.4591 3.0869 0.0000 -10682.4229 1461.7500 0.0000 0.0000 1766.8250 -7443.5259 300.7804 -9210.3509 -7443.5259 300.7804 187.3700 266.5182 30364.0300 187.3700 266.5182
ENERGY: 300000 5.9754 5.0357 0.7385 0.0000 -10595.7748 1375.9897 0.0000 0.0000 1802.2566 -7405.7788 306.8122 -9208.0355 -7425.2545 304.2070 -582.7023 -502.2846 30751.7095 -91.1495 -29.0227
ENERGY: 600000 3.8195 5.5085 1.7272 0.0000 -10802.4310 1494.3385 0.0000 0.0000 1756.2215 -7540.8158 298.9753 -9297.0373 -7437.0783 305.1594 263.3295 329.9833 30569.6930 5.8769 69.6800
ENERGY: 900000 2.7615 8.9368 2.4313 0.0000 -10723.4699 1514.3005 0.0000 0.0000 1797.1532 -7397.8865 305.9434 -9195.0398 -7431.3257 303.8009 840.6467 849.0923 30478.4977 51.7567 114.1891
ENERGY: 1200000 6.3432 5.9386 1.0587 0.0000 -10487.3173 1329.2209 0.0000 0.0000 1791.4100 -7353.3459 304.9657 -9144.7559 -7419.5833 304.9342 -974.0058 -874.2557 30786.4026 -120.2722 -50.0868
ENERGY: 1500000 4.6211 3.2484 2.8188 0.0000 -10569.2661 1390.8105 0.0000 0.0000 1760.4462 -7407.3212 299.6945 -9167.7674 -7418.5675 304.2761 -339.8249 -278.9505 30809.4176 -117.0313 -48.8736
TCL: Running FEP window   4: Lambda1 0.8499999999999999 Lambda2 0.7999999999999998 [dLambda -0.050000000000000044]
TCL: Setting parameter firsttimestep to 0
TCL: Setting parameter alchLambda to 0.8499999999999999
Info: NONBONDED TABLE R-SQUARED SPACING: 0.0625
Info: NONBONDED TABLE SIZE: 705 POINTS
TCL: Setting parameter alchLambda2 to 0.7999999999999998
Info: NONBONDED TABLE R-SQUARED SPACING: 0.0625
Info: NONBONDED TABLE SIZE: 705 POINTS
TCL: Running for 1500000 steps
ETITLE: TS BOND ANGLE DIHED IMPRP ELECT VDW BOUNDARY MISC KINETIC TOTAL TEMP POTENTIAL TOTALAVG TEMPAVG PRESSURE GPRESSURE VOLUME PRESSAVG GPRESSAVG
ENERGY: 0 4.6211 3.2484 2.8188 0.0000 -10568.8143 1391.1572 0.0000 0.0000 1759.5414 -7407.4274 299.5404 -9166.9689 -7407.4274 299.5404 -364.1655 -285.9631 30809.4176 -364.1655 -285.9631
ENERGY: 300000 6.3696 5.0181 4.3320 0.0000 -10665.6046 1473.6463 0.0000 0.0000 1688.6504 -7487.5882 287.4721 -9176.2386 -7411.8047 298.4379 291.3544 372.3720 30430.5747 141.4712 200.9612
ENERGY: 600000 9.1091 5.6506 3.7588 0.0000 -10794.9348 1436.2771 0.0000 0.0000 1722.3551 -7617.7842 293.2099 -9340.1393 -7458.9507 298.1967 -329.2134 -218.6818 29953.9488 7.3621 83.3779
ENERGY: 900000 8.5865 8.3436 2.3967 0.0000 -10639.7427 1374.8242 0.0000 0.0000 1731.5000 -7514.0917 294.7667 -9245.5917 -7458.0121 299.1361 -535.1823 -463.0423 30630.9233 -48.4443 19.5034
ENERGY: 1200000 3.7576 4.6754 1.7997 0.0000 -10637.2740 1448.9758 0.0000 0.0000 1745.2838 -7432.7817 297.1132 -9178.0655 -7464.1283 298.2836 11.9502 108.2813 30767.2055 -61.3535 11.4835
ENERGY: 1500000 3.4750 6.0517 2.2736 0.0000 -10643.3197 1442.2235 0.0000 0.0000 1740.0125 -7449.2833 296.2159 -9189.2958 -7473.8120 298.4397 -4.3800 97.2138 30444.0004 -19.1052 48.3264
TCL: Running FEP window   5: Lambda1 0.7999999999999998 Lambda2 0.7499999999999998 [dLambda -0.050000000000000044]
TCL: Setting parameter firsttimestep to 0
TCL: Setting parameter alchLambda to 0.7999999999999998
Info: NONBONDED TABLE R-SQUARED SPACING: 0.0625
Info: NONBONDED TABLE SIZE: 705 POINTS
TCL: Setting parameter alchLambda2 to 0.7499999999999998
Info: NONBONDED TABLE R-SQUARED SPACING: 0.0625
Info: NONBONDED TABLE SIZE: 705 POINTS
TCL: Running for 1500000 steps
ETITLE: TS BOND ANGLE DIHED IMPRP ELECT VDW BOUNDARY MISC KINETIC TOTAL TEMP POTENTIAL TOTALAVG TEMPAVG PRESSURE GPRESSURE VOLUME PRESSAVG GPRESSAVG
ENERGY: 0 3.4750 6.0517 2.2736 0.0000 -10642.6334 1442.4814 0.0000 0.0000 1739.1736 -7449.1780 296.0731 -9188.3516 -7449.1780 296.0731 -13.1235 90.2975 30444.0004 -13.1235 90.2975
ENERGY: 300000 6.7559 7.2110 1.2949 0.0000 -10635.0463 1388.3905 0.0000 0.0000 1713.4685 -7517.9254 291.6971 -9231.3939 -7473.8852 296.6140 -550.0814 -510.2101 30271.1626 -155.2857 -96.3307
ENERGY: 600000 2.8078 4.5645 2.0971 0.0000 -10545.4335 1336.6895 0.0000 0.0000 1770.4940 -7428.7805 301.4050 -9199.2746 -7440.4061 299.9027 -716.5217 -625.7588 30275.4836 -151.4165 -91.0389
ENERGY: 900000 5.6028 10.4367 4.0821 0.0000 -10636.4894 1428.4412 0.0000 0.0000 1786.5190 -7401.4076 304.1330 -9187.9265 -7436.6676 299.4670 160.1257 188.1768 30146.3616 -193.1327 -133.4994
ENERGY: 1200000 7.4207 7.9822 3.9969 0.0000 -10643.1864 1416.4482 0.0000 0.0000 1705.8928 -7501.4455 290.4074 -9207.3384 -7447.0206 298.9517 -59.6831 12.5870 29984.5257 -203.1425 -140.3606
ENERGY: 1500000 4.6048 3.6992 2.3003 0.0000 -10521.9821 1372.1428 0.0000 0.0000 1762.0441 -7377.1909 299.9665 -9139.2350 -7437.6932 299.8866 -348.5798 -255.9396 30627.3468 -123.3765 -60.6986
TCL: Running FEP window   6: Lambda1 0.7499999999999998 Lambda2 0.6999999999999997 [dLambda -0.050000000000000044]
TCL: Setting parameter firsttimestep to 0
TCL: Setting parameter alchLambda to 0.7499999999999998
Info: NONBONDED TABLE R-SQUARED SPACING: 0.0625
Info: NONBONDED TABLE SIZE: 705 POINTS
TCL: Setting parameter alchLambda2 to 0.6999999999999997
Info: NONBONDED TABLE R-SQUARED SPACING: 0.0625
Info: NONBONDED TABLE SIZE: 705 POINTS
TCL: Running for 1500000 steps
ETITLE: TS BOND ANGLE DIHED IMPRP ELECT VDW BOUNDARY MISC KINETIC TOTAL TEMP POTENTIAL TOTALAVG TEMPAVG PRESSURE GPRESSURE VOLUME PRESSAVG GPRESSAVG
ENERGY: 0 4.6048 3.6992 2.3003 0.0000 -10521.3100 1372.4285 0.0000 0.0000 1761.1747 -7377.1025 299.8185 -9138.2772 -7377.1025 299.8185 -351.4454 -261.1942 30627.3468 -351.4454 -261.1942
ENERGY: 300000 5.9585 4.5628 1.5763 0.0000 -10518.6124 1366.4799 0.0000 0.0000 1828.8671 -7311.1678 311.3423 -9140.0348 -7373.8016 303.8410 -595.6502 -537.3256 30843.2576 -148.0703 -87.0148
ENERGY: 600000 4.8161 5.0497 3.1453 0.0000 -10666.6862 1423.9202 0.0000 0.0000 1752.4117 -7477.3433 298.3267 -9229.7549 -7408.9767 302.0706 -77.5490 -12.2666 30162.7721 -141.3180 -66.3520
ENERGY: 900000 3.6342 8.3365 3.1775 0.0000 -10641.3361 1422.2649 0.0000 0.0000 1760.7024 -7443.2207 299.7381 -9203.9231 -7420.3330 301.3336 58.0408 147.4242 30214.7841 -40.0845 32.7253
ENERGY: 1200000 4.6587 7.0417 2.7348 0.0000 -10607.8100 1424.5913 0.0000 0.0000 1775.9478 -7392.8357 302.3334 -9168.7835 -7422.4216 301.5070 98.3674 153.0005 30255.1731 -82.2644 -15.8608
ENERGY: 1500000 5.3393 5.6140 2.5080 0.0000 -10634.2713 1455.5966 0.0000 0.0000 1765.8951 -7399.3183 300.6221 -9165.2134 -7417.6471 301.5261 506.5850 489.0211 30205.1455 24.8962 87.4391
TCL: Running FEP window   7: Lambda1 0.6999999999999997 Lambda2 0.6499999999999997 [dLambda -0.050000000000000044]
TCL: Setting parameter firsttimestep to 0
TCL: Setting parameter alchLambda to 0.6999999999999997
Info: NONBONDED TABLE R-SQUARED SPACING: 0.0625
Info: NONBONDED TABLE SIZE: 705 POINTS
TCL: Setting parameter alchLambda2 to 0.6499999999999997
Info: NONBONDED TABLE R-SQUARED SPACING: 0.0625
Info: NONBONDED TABLE SIZE: 705 POINTS
TCL: Running for 1500000 steps
ETITLE: TS BOND ANGLE DIHED IMPRP ELECT VDW BOUNDARY MISC KINETIC TOTAL TEMP POTENTIAL TOTALAVG TEMPAVG PRESSURE GPRESSURE VOLUME PRESSAVG GPRESSAVG
ENERGY: 0 5.3393 5.6140 2.5080 0.0000 -10633.2297 1455.5160 0.0000 0.0000 1765.0264 -7399.2259 300.4742 -9164.2523 -7399.2259 300.4742 393.6317 481.6700 30205.1455 393.6317 481.6700
ENERGY: 300000 3.3610 5.4039 1.1088 0.0000 -10707.8265 1497.2607 0.0000 0.0000 1726.9757 -7473.7164 293.9965 -9200.6921 -7423.1842 297.3714 482.0976 527.8348 30341.7718 119.8388 166.6289
ENERGY: 600000 3.8128 4.3287 4.7414 0.0000 -10693.9790 1441.0517 0.0000 0.0000 1777.4090 -7462.6355 302.5822 -9240.0445 -7412.2261 301.3037 180.1391 225.8713 30213.9990 140.4484 194.1493
ENERGY: 900000 8.6887 5.7801 2.3905 0.0000 -10580.0445 1417.2059 0.0000 0.0000 1778.2017 -7367.7776 302.7171 -9145.9793 -7405.2812 300.9517 67.3421 185.5427 30041.0834 71.1791 125.6827
ENERGY: 1200000 7.2408 9.1179 3.5282 0.0000 -10610.5537 1385.1721 0.0000 0.0000 1796.8641 -7408.6307 305.8942 -9205.4948 -7413.8807 301.2926 -138.3644 -116.0762 30107.2950 26.0483 78.9154
ENERGY: 1500000 5.2503 2.7965 0.7281 0.0000 -10763.6478 1529.4663 0.0000 0.0000 1768.1140 -7457.2926 300.9998 -9225.4066 -7419.2607 301.1324 885.5097 957.6887 30024.0138 170.8684 225.3256
TCL: Running FEP window   8: Lambda1 0.6499999999999997 Lambda2 0.5999999999999996 [dLambda -0.050000000000000044]
TCL: Setting parameter firsttimestep to 0
TCL: Setting parameter alchLambda to 0.6499999999999997
Info: NONBONDED TABLE R-SQUARED SPACING: 0.0625
Info: NONBONDED TABLE SIZE: 705 POINTS
TCL: Setting parameter alchLambda2 to 0.5999999999999996
Info: NONBONDED TABLE R-SQUARED SPACING: 0.0625
Info: NONBONDED TABLE SIZE: 705 POINTS
TCL: Running for 1500000 steps
ETITLE: TS BOND ANGLE DIHED IMPRP ELECT VDW BOUNDARY MISC KINETIC TOTAL TEMP POTENTIAL TOTALAVG TEMPAVG PRESSURE GPRESSURE VOLUME PRESSAVG GPRESSAVG
ENERGY: 0 5.2503 2.7965 0.7281 0.0000 -10763.6890 1529.8069 0.0000 0.0000 1767.2379 -7457.8695 300.8507 -9225.1073 -7457.8695 300.8507 869.8285 955.4931 30024.0138 869.8285 955.4931
ENERGY: 300000 4.0679 6.0597 1.6098 0.0000 -10731.0224 1521.2757 0.0000 0.0000 1711.9940 -7486.0153 291.4461 -9198.0093 -7455.6576 300.2737 373.8341 426.6523 30932.0657 47.4224 126.3407
ENERGY: 600000 5.3020 8.6689 4.5428 0.0000 -10705.3428 1484.0343 0.0000 0.0000 1785.6190 -7417.1758 303.9798 -9202.7948 -7451.6065 299.5836 109.5792 182.7412 30744.2706 161.3736 225.1003
ENERGY: 900000 5.0207 7.6690 3.5897 0.0000 -10625.0371 1421.6942 0.0000 0.0000 1751.9672 -7435.0963 298.2510 -9187.0635 -7456.4637 299.4194 165.5420 169.6623 30350.4066 76.7817 141.2857
ENERGY: 1200000 4.4814 5.5518 4.2110 0.0000 -10708.1637 1432.2069 0.0000 0.0000 1741.1017 -7520.6109 296.4013 -9261.7127 -7470.7427 297.7924 -289.4924 -282.2452 30457.7481 27.4304 83.0250
ENERGY: 1500000 6.3519 6.7634 0.6001 0.0000 -10515.2433 1341.3045 0.0000 0.0000 1814.4664 -7345.7571 308.8907 -9160.2234 -7451.2097 298.9872 -771.4908 -715.4790 30730.4015 -40.3562 13.8027
TCL: Running FEP window   9: Lambda1 0.5999999999999996 Lambda2 0.5499999999999996 [dLambda -0.050000000000000044]
TCL: Setting parameter firsttimestep to 0
TCL: Setting parameter alchLambda to 0.5999999999999996
Info: NONBONDED TABLE R-SQUARED SPACING: 0.0625
Info: NONBONDED TABLE SIZE: 705 POINTS
TCL: Setting parameter alchLambda2 to 0.5499999999999996
Info: NONBONDED TABLE R-SQUARED SPACING: 0.0625
Info: NONBONDED TABLE SIZE: 705 POINTS
TCL: Running for 1500000 steps
ETITLE: TS BOND ANGLE DIHED IMPRP ELECT VDW BOUNDARY MISC KINETIC TOTAL TEMP POTENTIAL TOTALAVG TEMPAVG PRESSURE GPRESSURE VOLUME PRESSAVG GPRESSAVG
ENERGY: 0 6.3519 6.7634 0.6001 0.0000 -10515.0678 1340.8768 0.0000 0.0000 1813.5961 -7346.8794 308.7426 -9160.4756 -7346.8794 308.7426 -800.1837 -727.4002 30730.4015 -800.1837 -727.4002
ENERGY: 300000 5.5122 6.2746 2.9348 0.0000 -10765.1278 1474.3096 0.0000 0.0000 1759.6721 -7516.4244 299.5627 -9276.0965 -7450.3902 302.3560 187.6410 230.0300 29923.0343 -86.8012 -20.5534
ENERGY: 600000 5.1238 3.9527 2.0185 0.0000 -10582.0247 1393.2047 0.0000 0.0000 1767.3504 -7410.3746 300.8698 -9177.7250 -7439.2223 299.9730 -416.0767 -353.6430 30882.7618 106.6714 163.9321
ENERGY: 900000 6.6734 6.6885 2.1374 0.0000 -10701.8453 1457.7947 0.0000 0.0000 1749.3363 -7479.2150 297.8031 -9228.5513 -7445.9336 299.3526 -254.3259 -187.4434 30415.8979 1.2295 68.7217
ENERGY: 1200000 6.7104 6.4608 1.4588 0.0000 -10559.0563 1376.5640 0.0000 0.0000 1715.0896 -7452.7727 291.9730 -9167.8623 -7445.5287 299.3378 -577.6546 -543.4132 30876.9377 -126.3076 -60.2770
ENERGY: 1500000 4.9523 5.9460 1.2585 0.0000 -10739.8853 1452.0875 0.0000 0.0000 1747.2712 -7528.3698 297.4516 -9275.6410 -7448.2222 299.2634 -73.6218 50.9445 30154.2257 -110.8001 -40.7591
TCL: Running FEP window  10: Lambda1 0.5499999999999996 Lambda2 0.4999999999999996 [dLambda -0.04999999999999999]
TCL: Setting parameter firsttimestep to 0
TCL: Setting parameter alchLambda to 0.5499999999999996
Info: NONBONDED TABLE R-SQUARED SPACING: 0.0625
Info: NONBONDED TABLE SIZE: 705 POINTS
TCL: Setting parameter alchLambda2 to 0.4999999999999996
Info: NONBONDED TABLE R-SQUARED SPACING: 0.0625
Info: NONBONDED TABLE SIZE: 705 POINTS
TCL: Running for 1500000 steps
ETITLE: TS BOND ANGLE DIHED IMPRP ELECT VDW BOUNDARY MISC KINETIC TOTAL TEMP POTENTIAL TOTALAVG TEMPAVG PRESSURE GPRESSURE VOLUME PRESSAVG GPRESSAVG
ENERGY: 0 4.9523 5.9460 1.2585 0.0000 -10739.5738 1451.5175 0.0000 0.0000 1746.3789 -7529.5207 297.2997 -9275.8996 -7529.5207 297.2997 -61.5949 38.0419 30154.2257 -61.5949 38.0419
ENERGY: 300000 3.0195 5.8501 0.5971 0.0000 -10673.4277 1422.4021 0.0000 0.0000 1759.3994 -7482.1595 299.5163 -9241.5589 -7479.4110 299.6123 -533.8429 -417.0786 30538.4526 -384.8462 -304.6103
ENERGY: 600000 8.2296 4.2374 1.6442 0.0000 -10806.8079 1502.6308 0.0000 0.0000 1751.2797 -7538.7862 298.1340 -9290.0659 -7495.1614 299.4683 486.9551 465.8641 29969.0493 -256.5699 -195.8544
ENERGY: 900000 3.2885 6.5666 2.7819 0.0000 -10724.7889 1467.2999 0.0000 0.0000 1767.2914 -7477.5606 300.8598 -9244.8520 -7492.7816 299.8067 120.3870 170.4435 30441.4440 -127.9814 -72.3384
ENERGY: 1200000 3.8352 6.7553 2.1007 0.0000 -10511.9772 1337.1586 0.0000 0.0000 1756.5817 -7405.5457 299.0366 -9162.1274 -7473.0148 300.6282 -550.6064 -440.5596 30168.2883 -79.6051 -19.2813
ENERGY: 1500000 6.2337 6.6084 1.6606 0.0000 -10740.2813 1470.7824 0.0000 0.0000 1743.7410 -7511.2552 296.8506 -9254.9962 -7468.3224 300.0638 78.2683 170.6742 30017.2508 -21.1707 43.2637
TCL: Running FEP window  11: Lambda1 0.4999999999999996 Lambda2 0.4499999999999996 [dLambda -0.04999999999999999]
TCL: Setting parameter firsttimestep to 0
TCL: Setting parameter alchLambda to 0.4999999999999996
Info: NONBONDED TABLE R-SQUARED SPACING: 0.0625
Info: NONBONDED TABLE SIZE: 705 POINTS
TCL: Setting parameter alchLambda2 to 0.4499999999999996
Info: NONBONDED TABLE R-SQUARED SPACING: 0.0625
Info: NONBONDED TABLE SIZE: 705 POINTS
TCL: Running for 1500000 steps
ETITLE: TS BOND ANGLE DIHED IMPRP ELECT VDW BOUNDARY MISC KINETIC TOTAL TEMP POTENTIAL TOTALAVG TEMPAVG PRESSURE GPRESSURE VOLUME PRESSAVG GPRESSAVG
ENERGY: 0 6.2337 6.6084 1.6606 0.0000 -10740.1868 1470.7627 0.0000 0.0000 1742.8850 -7512.0364 296.7049 -9254.9213 -7512.0364 296.7049 69.5939 161.8823 30017.2508 69.5939 161.8823
ENERGY: 300000 6.9399 4.0886 4.4269 0.0000 -10652.6353 1407.8599 0.0000 0.0000 1798.3912 -7430.9288 306.1541 -9229.3200 -7478.8785 299.0589 -133.6702 -100.1078 29813.7002 251.0980 292.6441
ENERGY: 600000 3.5003 6.9748 0.8861 0.0000 -10879.9159 1582.5787 0.0000 0.0000 1750.3593 -7535.6167 297.9773 -9285.9760 -7464.1400 299.3768 721.4540 782.4830 30306.6758 220.3166 260.4686
ENERGY: 900000 4.5655 5.3605 1.9024 0.0000 -10706.0918 1444.3120 0.0000 0.0000 1789.6487 -7460.3027 304.6658 -9249.9514 -7456.6096 300.6669 -168.0122 -108.6748 30488.2055 119.6306 163.0128
ENERGY: 1200000 4.8933 5.4019 1.4151 0.0000 -10629.5428 1366.2301 0.0000 0.0000 1738.1148 -7513.4876 295.8928 -9251.6024 -7456.5469 299.6341 -766.4346 -724.1932 30460.2027 68.7223 112.2712
ENERGY: 1500000 5.3699 5.7831 4.5581 0.0000 -10599.9889 1433.9095 0.0000 0.0000 1766.8107 -7383.5576 300.7779 -9150.3683 -7439.5798 299.9088 -164.3016 -69.2547 30818.9086 158.6351 210.0778
TCL: Running FEP window  12: Lambda1 0.4499999999999996 Lambda2 0.39999999999999963 [dLambda -0.04999999999999999]
TCL: Setting parameter firsttimestep to 0
TCL: Setting parameter alchLambda to 0.4499999999999996
Info: NONBONDED TABLE R-SQUARED SPACING: 0.0625
Info: NONBONDED TABLE SIZE: 705 POINTS
TCL: Setting parameter alchLambda2 to 0.39999999999999963
Info: NONBONDED TABLE R-SQUARED SPACING: 0.0625
Info: NONBONDED TABLE SIZE: 705 POINTS
TCL: Running for 1500000 steps
ETITLE: TS BOND ANGLE DIHED IMPRP ELECT VDW BOUNDARY MISC KINETIC TOTAL TEMP POTENTIAL TOTALAVG TEMPAVG PRESSURE GPRESSURE VOLUME PRESSAVG GPRESSAVG
ENERGY: 0 5.3699 5.7831 4.5581 0.0000 -10599.9882 1434.3128 0.0000 0.0000 1765.9278 -7384.0364 300.6276 -9149.9643 -7384.0364 300.6276 -166.0789 -75.1649 30818.9086 -166.0789 -75.1649
ENERGY: 300000 2.1077 3.2691 2.3862 0.0000 -10647.7600 1424.8641 0.0000 0.0000 1713.2690 -7501.8638 291.6631 -9215.1329 -7442.3343 294.9722 -101.9436 -90.3641 30369.1600 -200.4936 -142.0691
ENERGY: 600000 6.8090 6.9773 1.7009 0.0000 -10669.1821 1440.5681 0.0000 0.0000 1792.5437 -7420.5832 305.1587 -9213.1269 -7455.1942 296.2533 -48.8158 28.5823 30148.2024 -98.9089 -47.3212
ENERGY: 900000 7.6187 5.9860 0.4591 0.0000 -10700.5862 1400.6713 0.0000 0.0000 1754.1580 -7531.6930 298.6240 -9285.8511 -7471.9481 295.9506 -915.5425 -801.7340 30454.8604 -83.3360 -13.1645
ENERGY: 1200000 2.9363 4.7439 1.0778 0.0000 -10617.4352 1446.9956 0.0000 0.0000 1710.4730 -7451.2086 291.1871 -9161.6816 -7469.4868 296.2417 164.0945 189.0386 30467.7710 -39.6929 27.6545
ENERGY: 1500000 3.6514 5.9137 2.1655 0.0000 -10710.4842 1556.4643 0.0000 0.0000 1809.7431 -7332.5461 308.0867 -9142.2893 -7461.9639 297.6953 1097.8985 1142.4047 30344.9593 92.3117 154.4789
TCL: Running FEP window  13: Lambda1 0.39999999999999963 Lambda2 0.34999999999999964 [dLambda -0.04999999999999999]
TCL: Setting parameter firsttimestep to 0
TCL: Setting parameter alchLambda to 0.39999999999999963
Info: NONBONDED TABLE R-SQUARED SPACING: 0.0625
Info: NONBONDED TABLE SIZE: 705 POINTS
TCL: Setting parameter alchLambda2 to 0.34999999999999964
Info: NONBONDED TABLE R-SQUARED SPACING: 0.0625
Info: NONBONDED TABLE SIZE: 705 POINTS
TCL: Running for 1500000 steps
ETITLE: TS BOND ANGLE DIHED IMPRP ELECT VDW BOUNDARY MISC KINETIC TOTAL TEMP POTENTIAL TOTALAVG TEMPAVG PRESSURE GPRESSURE VOLUME PRESSAVG GPRESSAVG
ENERGY: 0 3.6514 5.9137 2.1655 0.0000 -10710.4831 1556.1289 0.0000 0.0000 1808.8894 -7333.7342 307.9413 -9142.6237 -7333.7342 307.9413 1052.1551 1131.0504 30344.9593 1052.1551 1131.0504
ENERGY: 300000 4.3043 8.1571 6.0338 0.0000 -10715.6468 1486.5050 0.0000 0.0000 1782.7260 -7427.9207 303.4873 -9210.6466 -7418.2106 303.8224 608.3531 681.3290 29678.3967 84.8386 180.6825
ENERGY: 600000 4.0856 4.2989 5.6752 0.0000 -10725.6527 1499.8214 0.0000 0.0000 1781.7781 -7429.9935 303.3260 -9211.7716 -7433.1313 303.4009 417.8723 452.2873 30224.5952 155.6718 231.5194
ENERGY: 900000 4.1150 7.1102 4.8266 0.0000 -10640.0586 1468.1955 0.0000 0.0000 1767.4955 -7388.3158 300.8945 -9155.8112 -7431.9163 301.4295 808.1019 860.1055 29916.8057 163.4778 234.6432
ENERGY: 1200000 3.6718 1.6043 2.0099 0.0000 -10548.1814 1401.7540 0.0000 0.0000 1707.2505 -7431.8908 290.6385 -9139.1414 -7435.1755 299.3856 26.7124 109.5343 29995.6388 82.2515 147.8354
ENERGY: 1500000 3.7026 5.0792 0.5602 0.0000 -10676.3237 1471.5380 0.0000 0.0000 1773.9591 -7421.4845 301.9949 -9195.4436 -7435.9719 299.4777 316.1449 369.0801 30296.3437 83.4048 141.8754
TCL: Running FEP window  14: Lambda1 0.34999999999999964 Lambda2 0.29999999999999966 [dLambda -0.04999999999999999]
TCL: Setting parameter firsttimestep to 0
TCL: Setting parameter alchLambda to 0.34999999999999964
Info: NONBONDED TABLE R-SQUARED SPACING: 0.0625
Info: NONBONDED TABLE SIZE: 705 POINTS
TCL: Setting parameter alchLambda2 to 0.29999999999999966
Info: NONBONDED TABLE R-SQUARED SPACING: 0.0625
Info: NONBONDED TABLE SIZE: 705 POINTS
TCL: Running for 1500000 steps
ETITLE: TS BOND ANGLE DIHED IMPRP ELECT VDW BOUNDARY MISC KINETIC TOTAL TEMP POTENTIAL TOTALAVG TEMPAVG PRESSURE GPRESSURE VOLUME PRESSAVG GPRESSAVG
ENERGY: 0 3.7026 5.0792 0.5602 0.0000 -10676.3239 1471.8480 0.0000 0.0000 1773.0757 -7422.0581 301.8445 -9195.1338 -7422.0581 301.8445 283.2258 364.6738 30296.3437 283.2258 364.6738
ENERGY: 300000 4.0968 4.2910 1.0469 0.0000 -10672.6454 1461.8988 0.0000 0.0000 1809.5815 -7391.7303 308.0591 -9201.3119 -7423.2072 305.2801 311.1186 361.9304 30191.4987 130.3636 205.1985
ENERGY: 600000 2.8526 7.3902 1.3990 0.0000 -10613.9949 1460.9000 0.0000 0.0000 1801.4398 -7340.0133 306.6731 -9141.4531 -7420.2466 303.5973 329.5502 411.1600 30440.4469 91.1578 162.4552
ENERGY: 900000 5.5160 5.0197 1.2341 0.0000 -10766.0197 1519.2056 0.0000 0.0000 1793.9910 -7441.0533 305.4050 -9235.0442 -7443.2852 301.5902 536.9686 584.1995 30190.3569 129.0639 197.6729
ENERGY: 1200000 4.5660 5.5166 2.4495 0.0000 -10630.6578 1474.9612 0.0000 0.0000 1735.2086 -7407.9560 295.3981 -9143.1646 -7441.6152 300.7904 216.5065 284.7552 30717.2618 113.6124 180.1456
ENERGY: 1500000 5.6804 5.2927 2.2338 0.0000 -10595.1934 1421.0375 0.0000 0.0000 1759.3952 -7401.5539 299.5155 -9160.9492 -7450.5773 300.8676 -78.0858 -33.0315 30710.4743 122.6095 185.2895
TCL: Running FEP window  15: Lambda1 0.29999999999999966 Lambda2 0.24999999999999967 [dLambda -0.04999999999999999]
TCL: Setting parameter firsttimestep to 0
TCL: Setting parameter alchLambda to 0.29999999999999966
Info: NONBONDED TABLE R-SQUARED SPACING: 0.0625
Info: NONBONDED TABLE SIZE: 705 POINTS
TCL: Setting parameter alchLambda2 to 0.24999999999999967
Info: NONBONDED TABLE R-SQUARED SPACING: 0.0625
Info: NONBONDED TABLE SIZE: 705 POINTS
TCL: Running for 1500000 steps
ETITLE: TS BOND ANGLE DIHED IMPRP ELECT VDW BOUNDARY MISC KINETIC TOTAL TEMP POTENTIAL TOTALAVG TEMPAVG PRESSURE GPRESSURE VOLUME PRESSAVG GPRESSAVG
ENERGY: 0 5.6804 5.2927 2.2338 0.0000 -10595.1926 1420.8055 0.0000 0.0000 1758.5219 -7402.6584 299.3669 -9161.1803 -7402.6584 299.3669 -114.0431 -37.2274 30710.4743 -114.0431 -37.2274
ENERGY: 300000 5.3989 3.5783 2.2533 0.0000 -10551.6570 1435.4765 0.0000 0.0000 1811.7158 -7293.2342 308.4225 -9104.9500 -7368.8401 304.8903 163.3044 267.6766 30842.8278 -27.8452 41.6747
ENERGY: 600000 3.3013 5.2957 2.5498 0.0000 -10703.3058 1519.1560 0.0000 0.0000 1736.7602 -7436.2428 295.6622 -9173.0030 -7404.1954 300.8145 724.5407 784.1703 30308.5985 77.9655 151.3785
ENERGY: 900000 5.5601 4.6463 3.6776 0.0000 -10658.6264 1436.0315 0.0000 0.0000 1748.0334 -7460.6775 297.5813 -9208.7108 -7421.6529 299.9695 -140.8476 -68.3993 30313.5815 66.2825 128.4100
ENERGY: 1200000 11.4238 5.3820 5.5084 0.0000 -10690.8516 1495.9274 0.0000 0.0000 1782.6164 -7389.9936 303.4687 -9172.6100 -7429.6264 299.8641 598.5626 645.9126 29581.6006 27.1918 79.4444
ENERGY: 1500000 5.6348 8.0795 3.6912 0.0000 -10679.6934 1433.0336 0.0000 0.0000 1745.9932 -7483.2611 297.2340 -9229.2543 -7421.0331 300.4923 6.1289 17.2335 30085.7649 -80.1996 -32.3373
TCL: Running FEP window  16: Lambda1 0.24999999999999967 Lambda2 0.19999999999999968 [dLambda -0.04999999999999999]
TCL: Setting parameter firsttimestep to 0
TCL: Setting parameter alchLambda to 0.24999999999999967
Info: NONBONDED TABLE R-SQUARED SPACING: 0.0625
Info: NONBONDED TABLE SIZE: 705 POINTS
TCL: Setting parameter alchLambda2 to 0.19999999999999968
Info: NONBONDED TABLE R-SQUARED SPACING: 0.0625
Info: NONBONDED TABLE SIZE: 705 POINTS
TCL: Running for 1500000 steps
ETITLE: TS BOND ANGLE DIHED IMPRP ELECT VDW BOUNDARY MISC KINETIC TOTAL TEMP POTENTIAL TOTALAVG TEMPAVG PRESSURE GPRESSURE VOLUME PRESSAVG GPRESSAVG
ENERGY: 0 5.6347 8.0795 3.6912 0.0000 -10679.6928 1433.5327 0.0000 0.0000 1745.1328 -7483.6220 297.0875 -9228.7548 -7483.6220 297.0875 -67.5823 18.1632 30085.7649 -67.5823 18.1632
ENERGY: 300000 5.6565 8.4091 3.6690 0.0000 -10725.0455 1447.9525 0.0000 0.0000 1742.5329 -7516.8255 296.6449 -9259.3584 -7450.3236 294.8107 -267.2864 -169.3807 30230.3473 -221.2050 -133.0879
ENERGY: 600000 1.4658 3.1611 2.8387 0.0000 -10707.8363 1469.6141 0.0000 0.0000 1770.5024 -7460.2541 301.4064 -9230.7565 -7433.9163 297.0044 165.5544 227.8718 30299.5790 -139.2696 -64.3105
ENERGY: 900000 4.3987 4.7009 1.7004 0.0000 -10682.4698 1422.6478 0.0000 0.0000 1766.7439 -7482.2782 300.7666 -9249.0221 -7427.2030 297.9874 54.4429 153.7670 29430.9440 -308.2166 -234.0496
ENERGY: 1200000 3.4719 10.1008 4.8301 0.0000 -10643.9313 1413.6331 0.0000 0.0000 1740.1471 -7471.7482 296.2388 -9211.8954 -7430.7818 298.9714 -53.2363 -65.8871 29922.2347 -232.8744 -161.7962
ENERGY: 1500000 5.4893 7.1775 2.5547 0.0000 -10620.8530 1397.6650 0.0000 0.0000 1734.9530 -7473.0136 295.3545 -9207.9666 -7430.4271 299.2595 -570.1385 -446.8667 30704.7744 -143.9147 -74.9689
TCL: Running FEP window  17: Lambda1 0.19999999999999968 Lambda2 0.1499999999999997 [dLambda -0.04999999999999999]
TCL: Setting parameter firsttimestep to 0
TCL: Setting parameter alchLambda to 0.19999999999999968
Info: NONBONDED TABLE R-SQUARED SPACING: 0.0625
Info: NONBONDED TABLE SIZE: 705 POINTS
TCL: Setting parameter alchLambda2 to 0.1499999999999997
Info: NONBONDED TABLE R-SQUARED SPACING: 0.0625
Info: NONBONDED TABLE SIZE: 705 POINTS
TCL: Running for 1500000 steps
ETITLE: TS BOND ANGLE DIHED IMPRP ELECT VDW BOUNDARY MISC KINETIC TOTAL TEMP POTENTIAL TOTALAVG TEMPAVG PRESSURE GPRESSURE VOLUME PRESSAVG GPRESSAVG
ENERGY: 0 5.4893 7.1775 2.5547 0.0000 -10620.8531 1397.8123 0.0000 0.0000 1734.0457 -7473.7737 295.2001 -9207.8194 -7473.7737 295.2001 -539.9960 -451.3205 30704.7744 -539.9960 -451.3205
ENERGY: 300000 3.1543 4.1461 1.6112 0.0000 -10788.1083 1522.3995 0.0000 0.0000 1747.9050 -7508.8923 297.5595 -9256.7973 -7484.2544 296.6236 591.7769 631.0531 29947.9172 256.8323 317.8977
ENERGY: 600000 2.3432 7.8454 3.5621 0.0000 -10691.6863 1403.1590 0.0000 0.0000 1751.3097 -7523.4669 298.1391 -9274.7766 -7468.2247 297.2598 -734.4203 -552.6505 30346.5152 92.9179 178.6397
ENERGY: 900000 6.2018 6.9863 2.4625 0.0000 -10601.2138 1445.8968 0.0000 0.0000 1765.0448 -7374.6216 300.4773 -9139.6664 -7444.5349 298.6602 92.3800 128.4133 30622.7023 50.8783 119.8065
ENERGY: 1200000 7.2441 6.6871 1.6815 0.0000 -10610.1047 1422.2407 0.0000 0.0000 1747.3374 -7424.9138 297.4629 -9172.2512 -7442.6900 299.1449 -436.3595 -356.6253 30767.5379 13.1629 85.0572
ENERGY: 1500000 2.9841 5.2372 3.1708 0.0000 -10701.7120 1416.9880 0.0000 0.0000 1701.1833 -7572.1487 289.6057 -9273.3320 -7456.0280 298.7185 -429.0227 -315.0433 30258.0293 11.2885 87.8014
TCL: Running FEP window  18: Lambda1 0.1499999999999997 Lambda2 0.09999999999999969 [dLambda -0.05 ]
TCL: Setting parameter firsttimestep to 0
TCL: Setting parameter alchLambda to 0.1499999999999997
Info: NONBONDED TABLE R-SQUARED SPACING: 0.0625
Info: NONBONDED TABLE SIZE: 705 POINTS
TCL: Setting parameter alchLambda2 to 0.09999999999999969
Info: NONBONDED TABLE R-SQUARED SPACING: 0.0625
Info: NONBONDED TABLE SIZE: 705 POINTS
TCL: Running for 1500000 steps
ETITLE: TS BOND ANGLE DIHED IMPRP ELECT VDW BOUNDARY MISC KINETIC TOTAL TEMP POTENTIAL TOTALAVG TEMPAVG PRESSURE GPRESSURE VOLUME PRESSAVG GPRESSAVG
ENERGY: 0 2.9841 5.2372 3.1708 0.0000 -10701.7130 1417.1964 0.0000 0.0000 1700.2830 -7572.8415 289.4524 -9273.1245 -7572.8415 289.4524 -401.2481 -318.0898 30258.0293 -401.2481 -318.0898
ENERGY: 300000 5.1808 7.2401 1.6914 0.0000 -10696.1477 1470.5400 0.0000 0.0000 1807.4677 -7404.0277 307.6993 -9211.4954 -7456.5444 298.5756 260.3178 307.6680 30263.3058 102.9331 161.5822
ENERGY: 600000 4.6280 7.5162 2.8336 0.0000 -10550.3203 1402.2131 0.0000 0.0000 1738.9754 -7394.1539 296.0393 -9133.1293 -7442.9586 299.1958 -419.8468 -312.9150 30614.4294 114.9883 181.1712
ENERGY: 900000 5.6247 5.6607 1.8761 0.0000 -10610.5512 1425.4301 0.0000 0.0000 1799.4082 -7372.5513 306.3273 -9171.9595 -7441.1699 299.6434 -31.5028 48.0385 30257.4871 87.5376 152.8068
ENERGY: 1200000 2.7558 4.5167 3.7268 0.0000 -10556.8145 1374.1999 0.0000 0.0000 1807.7107 -7363.9045 307.7407 -9171.6152 -7418.2475 301.7424 -324.6061 -184.9579 30241.4633 51.7337 116.0509
ENERGY: 1500000 3.6730 5.0403 1.4432 0.0000 -10616.0897 1441.9194 0.0000 0.0000 1705.9628 -7458.0510 290.4193 -9164.0139 -7428.1426 299.4706 305.5515 398.9895 30316.1895 3.5416 63.2507
TCL: Running FEP window  19: Lambda1 0.09999999999999969 Lambda2 0.049999999999999684 [dLambda -0.05 ]
TCL: Setting parameter firsttimestep to 0
TCL: Setting parameter alchLambda to 0.09999999999999969
Info: NONBONDED TABLE R-SQUARED SPACING: 0.0625
Info: NONBONDED TABLE SIZE: 705 POINTS
TCL: Setting parameter alchLambda2 to 0.049999999999999684
Info: NONBONDED TABLE R-SQUARED SPACING: 0.0625
Info: NONBONDED TABLE SIZE: 705 POINTS
TCL: Running for 1500000 steps
ETITLE: TS BOND ANGLE DIHED IMPRP ELECT VDW BOUNDARY MISC KINETIC TOTAL TEMP POTENTIAL TOTALAVG TEMPAVG PRESSURE GPRESSURE VOLUME PRESSAVG GPRESSAVG
ENERGY: 0 3.6729 5.0403 1.4432 0.0000 -10616.0888 1441.8897 0.0000 0.0000 1705.0486 -7458.9940 290.2637 -9164.0426 -7458.9940 290.2637 294.1088 395.6293 30316.1895 294.1088 395.6293
ENERGY: 300000 2.5193 5.2974 5.0571 0.0000 -10642.0912 1458.9491 0.0000 0.0000 1817.4162 -7352.8521 309.3929 -9170.2683 -7385.7351 304.4711 201.1395 207.7735 30316.3794 -66.2557 -6.8155
ENERGY: 600000 8.2366 6.9075 3.5520 0.0000 -10565.5289 1391.1683 0.0000 0.0000 1760.6658 -7394.9988 299.7318 -9155.6646 -7395.3847 301.9252 -264.4621 -234.4148 30041.0483 -107.4210 -44.0395
ENERGY: 900000 7.5812 5.1179 5.3270 0.0000 -10535.0082 1337.1528 0.0000 0.0000 1764.9096 -7414.9197 300.4543 -9179.8293 -7393.4433 301.8542 -1017.2516 -969.7082 30863.2240 -154.5623 -91.3120
ENERGY: 1200000 6.3432 2.9120 3.0552 0.0000 -10742.5493 1443.1813 0.0000 0.0000 1747.7818 -7539.2758 297.5385 -9287.0576 -7414.4863 300.7562 -384.9017 -334.4415 30127.1695 -199.9745 -141.1165
ENERGY: 1500000 4.9206 1.7865 5.6453 0.0000 -10627.8667 1398.1533 0.0000 0.0000 1750.0116 -7467.3495 297.9181 -9217.3611 -7425.1486 300.1342 -547.5833 -536.9369 30398.6861 -216.3488 -165.4749
TCL: Running FEP window  20: Lambda1 0.049999999999999684 Lambda2 0.0    [dLambda -0.049999999999999684]
TCL: Setting parameter firsttimestep to 0
TCL: Setting parameter alchLambda to 0.049999999999999684
Info: NONBONDED TABLE R-SQUARED SPACING: 0.0625
Info: NONBONDED TABLE SIZE: 705 POINTS
TCL: Setting parameter alchLambda2 to 0.0
Info: NONBONDED TABLE R-SQUARED SPACING: 0.0625
Info: NONBONDED TABLE SIZE: 705 POINTS
TCL: Running for 1500000 steps
ETITLE: TS BOND ANGLE DIHED IMPRP ELECT VDW BOUNDARY MISC KINETIC TOTAL TEMP POTENTIAL TOTALAVG TEMPAVG PRESSURE GPRESSURE VOLUME PRESSAVG GPRESSAVG
ENERGY: 0 4.9206 1.7865 5.6453 0.0000 -10627.8662 1397.5483 0.0000 0.0000 1749.0600 -7468.9056 297.7561 -9217.9656 -7468.9056 297.7561 -635.5685 -541.4556 30398.6861 -635.5685 -541.4556
ENERGY: 300000 4.6896 6.0998 3.0499 0.0000 -10504.5837 1319.0640 0.0000 0.0000 1840.5029 -7331.1775 313.3231 -9171.6804 -7390.6558 302.3585 -948.8817 -881.8258 30631.0395 -732.4110 -640.3616
ENERGY: 600000 3.4822 6.9003 1.4138 0.0000 -10610.1272 1374.9590 0.0000 0.0000 1772.7061 -7450.6656 301.7816 -9223.3717 -7425.5175 299.8244 -795.9648 -721.9770 30738.5837 -445.8203 -371.0046
ENERGY: 900000 2.8108 6.4131 2.1806 0.0000 -10631.2182 1330.3639 0.0000 0.0000 1780.2693 -7509.1806 303.0691 -9289.4499 -7436.0111 300.0500 -1128.2379 -1020.9777 30033.9769 -477.3724 -403.6681
ENERGY: 1200000 3.2673 8.3465 0.6016 0.0000 -10659.7016 1406.8779 0.0000 0.0000 1759.8203 -7480.7880 299.5879 -9240.6083 -7433.5050 300.9507 -369.1132 -366.7679 30267.2801 -448.9696 -383.5395
ENERGY: 1500000 5.4090 5.4346 1.8678 0.0000 -10774.8321 1522.9191 0.0000 0.0000 1725.1942 -7514.0074 293.6932 -9239.2016 -7435.1905 300.9112 600.7735 723.0811 29678.7496 -371.5871 -308.6376
TCL: Exiting due to exit command.
