Info: SIMULATION PARAMETERS:
Info: TIMESTEP               2
Info: NUMBER OF STEPS        0
Info: STEPS PER CYCLE        10
Info: PERIODIC CELL BASIS 1  33.0748 0 0
Info: PERIODIC CELL BASIS 2  0 30.3142 0
Info: PERIODIC CELL BASIS 3  0 0 30.2867
Info: PERIODIC CELL CENTER   0 0 0
Info: WRAPPING WATERS AROUND PERIODIC BOUNDARIES ON OUTPUT.
Info: WRAPPING ALL CLUSTERS AROUND PERIODIC BOUNDARIES ON OUTPUT.
Info: FIRST LDB TIMESTEP     50
Info: LAST LDB TIMESTEP     -1
Info: HOM BACKGROUND SCALING 1
Info: PME BACKGROUND SCALING 1
Info: MIN ATOMS PER PATCH    40
Info: EMPTY PATCH LOAD       40 ATOMS
Info: VELOCITY FILE          mobley_4371692_equil.vel
Info: CENTER OF MASS MOVING INITIALLY? NO
Info: DIELECTRIC             1
Info: EXCLUDE                SCALED ONE-FOUR
Info: 1-4 ELECTROSTATICS SCALED BY 0.833333
Info: MODIFIED 1-4 VDW PARAMETERS WILL BE USED
Info: DCD FILENAME           mobley_4371692_prod.dcd
Info: DCD FREQUENCY          100000
Info: DCD FIRST STEP         100000
Info: DCD FILE WILL CONTAIN UNIT CELL DATA
Info: XST FILENAME           mobley_4371692_prod.xst
Info: XST FREQUENCY          100000
Info: NO VELOCITY DCD OUTPUT
Info: NO FORCE DCD OUTPUT
Info: OUTPUT FILENAME        mobley_4371692_prod
Info: BINARY OUTPUT FILES WILL BE USED
Info: RESTART FILENAME       mobley_4371692_prod.restart
Info: RESTART FREQUENCY      100000
Info: BINARY RESTART FILES WILL BE USED
Info: CUTOFF                 9
Info: PAIRLIST DISTANCE      11
Info: PAIRLIST SHRINK RATE   0.01
Info: PAIRLIST GROW RATE     0.01
Info: PAIRLIST TRIGGER       0.3
Info: PAIRLISTS PER CYCLE    2
Info: PAIRLISTS ENABLED
Info: MARGIN                 2
Info: HYDROGEN GROUP CUTOFF  2.5
Info: PATCH DIMENSION        15.5
Info: ENERGY OUTPUT STEPS    100000
Info: ENERGY EVALUATION STEPS    100000
Info: OUTPUT ENERGY PRECISION 4
Info: CROSSTERM ENERGY INCLUDED IN DIHEDRAL
Info: TIMING OUTPUT STEPS    1000000
Info: PRESSURE OUTPUT STEPS  100000
Info: ALCHEMICAL FEP ON
Info: FEP CURRENT LAMBDA VALUE     1
Info: FEP COMPARISON LAMBDA VALUE  0.95
Info: FEP INTRA-ALCHEMICAL NON-BONDED INTERACTIONS WILL BE RETAINED
Info: FEP INTRA-ALCHEMICAL BONDED INTERACTIONS WILL BE RETAINED
Info: FEP VDW SHIFTING COEFFICIENT 5
Info: FEP ELEC. ACTIVE FOR ANNIHILATED PARTICLES BETWEEN LAMBDA = 0 AND LAMBDA = 0.5
Info: FEP ELEC. ACTIVE FOR EXNIHILATED PARTICLES BETWEEN LAMBDA = 0.5 AND LAMBDA = 1
Info: FEP VDW ACTIVE FOR ANNIHILATED PARTICLES BETWEEN LAMBDA = 0 AND LAMBDA = 1
Info: FEP VDW ACTIVE FOR EXNIHILATED PARTICLES BETWEEN LAMBDA = 0 AND LAMBDA = 1
Info: FEP BOND ACTIVE FOR ANNIHILATED PARTICLES BETWEEN LAMBDA = 1 AND LAMBDA = 1
Info: FEP BOND ACTIVE FOR EXNIHILATED PARTICLES BETWEEN LAMBDA = 0 AND LAMBDA = 0
Info: LANGEVIN DYNAMICS ACTIVE
Info: LANGEVIN TEMPERATURE   300
Info: LANGEVIN USING BBK INTEGRATOR
Info: LANGEVIN DAMPING COEFFICIENT IS 1 INVERSE PS
Info: LANGEVIN DYNAMICS APPLIED TO HYDROGENS
Info: LANGEVIN PISTON PRESSURE CONTROL ACTIVE
Info:        TARGET PRESSURE IS 1.01325 BAR
Info:     OSCILLATION PERIOD IS 50 FS
Info:             DECAY TIME IS 25 FS
Info:     PISTON TEMPERATURE IS 300 K
Info:       PRESSURE CONTROL IS GROUP-BASED
Info:    INITIAL STRAIN RATE IS 0.000877465 0.000877465 0.000877465
Info:       CELL FLUCTUATION IS ISOTROPIC
Info: PARTICLE MESH EWALD (PME) ACTIVE
Info: PME TOLERANCE               1e-06
Info: PME EWALD COEFFICIENT       0.348832
Info: PME INTERPOLATION ORDER     4
Info: PME GRID DIMENSIONS         36 32 32
Info: PME MAXIMUM GRID SPACING    1
Info: PME CALCULATION WILL BE PERFORMED ON GPU
Info: FULL ELECTROSTATIC EVALUATION FREQUENCY      2
Info: USING VERLET I (r-RESPA) MTS SCHEME.
Info: C1 SPLITTING OF LONG RANGE ELECTROSTATICS
Info: PLACING ATOMS IN PATCHES BY HYDROGEN GROUPS
Info: RIGID BONDS TO HYDROGEN : ALL
Info:         ERROR TOLERANCE : 1e-08
Info:          MAX ITERATIONS : 100
Info: RIGID WATER USING SETTLE ALGORITHM
Info: RANDOM NUMBER SEED     1743665507
Info: USE HYDROGEN BONDS?    NO
Info: Using AMBER format force field!
Info: AMBER PARM FILE        mobley_4371692.prmtop
Info: COORDINATE PDB         mobley_4371692.pdb
Info: Exclusions will be read from PARM file!
Info: SCNB (VDW SCALING)     2
Info: USING ARITHMETIC MEAN TO COMBINE L-J SIGMA PARAMETERS
Info: BINARY COORDINATES     mobley_4371692_equil.coor
Info: SUMMARY OF PARAMETERS:
Info: 10 BONDS
Info: 10 ANGLES
Info:   10 HARMONIC
Info:   0 COSINE-BASED
Info: 6 DIHEDRAL
Info: 0 IMPROPER
Info: 0 CROSSTERM
Info: 0 VDW
Info: 36 VDW_PAIRS
Info: 0 NBTHOLE_PAIRS
Info: To read alchdata from file: mobley_4371692.pdb
Info: To read alchflag data from column: 5
Info: STRUCTURE SUMMARY:
Info: 2949 ATOMS
Info: 2951 BONDS
Info: 46 ANGLES
Info: 85 DIHEDRALS
Info: 0 IMPROPERS
Info: 0 CROSSTERMS
Info: 3058 EXCLUSIONS
Info: 2931 RIGID BONDS
Info: ALCH: 0 ATOMS TO DISAPPEAR IN FINAL STATE
Info: ALCH: 27 ATOMS TO APPEAR IN FINAL STATE
Info: 5916 DEGREES OF FREEDOM
Info: 992 HYDROGEN GROUPS
Info: 3 ATOMS IN LARGEST HYDROGEN GROUP
Info: 992 MIGRATION GROUPS
Info: 3 ATOMS IN LARGEST MIGRATION GROUP
Info: TOTAL MASS = 17786.8 amu
Info: TOTAL CHARGE = 0.000100076 e
Info: MASS DENSITY = 0.972661 g/cm^3
Info: ATOM DENSITY = 0.0971134 atoms/A^3
Info: ADDED 0 IMPLICIT EXCLUSIONS
Info: NONBONDED TABLE R-SQUARED SPACING: 0.0625
Info: NONBONDED TABLE SIZE: 705 POINTS
Info: REMOVING COM VELOCITY -0.159398 0.0636132 0.0369451
Info: Use 3D box decompostion in PME FFT.
Info: Updated CUDA force table with 4096 elements.
Info: Updated CUDA LJ table with 8 x 8 elements.
Info: Found 28 unique exclusion lists needing 92 bytes
TCL: Running for 1500000 steps
ETITLE: TS BOND ANGLE DIHED IMPRP ELECT VDW BOUNDARY MISC KINETIC TOTAL TEMP POTENTIAL TOTALAVG TEMPAVG PRESSURE GPRESSURE VOLUME PRESSAVG GPRESSAVG
ENERGY: 0 3.8829 8.8574 14.3726 0.0000 -10695.6616 1407.1449 0.0000 0.0000 1786.9698 -7474.4340 304.0041 -9261.4038 -7474.4340 304.0041 -371.0891 -287.5197 30366.5557 -371.0891 -287.5197
ENERGY: 300000 8.2214 6.3451 11.4748 0.0000 -10604.2169 1426.4870 0.0000 0.0000 1748.6967 -7402.9918 297.4930 -9151.6885 -7515.2489 294.2699 -148.7196 -98.6104 30652.3293 -19.2249 34.4439
ENERGY: 600000 10.3271 12.1917 11.4131 0.0000 -10735.6152 1497.5471 0.0000 0.0000 1747.6045 -7456.5317 297.3072 -9204.1362 -7482.1369 295.6270 708.0464 704.8382 30310.8988 -40.9397 13.9570
ENERGY: 900000 7.7197 9.8416 11.6248 0.0000 -10637.3467 1419.8071 0.0000 0.0000 1787.7342 -7400.6194 304.1341 -9188.3536 -7461.9016 298.3830 -98.5952 -29.8914 30322.1716 -76.7369 -35.7591
ENERGY: 1200000 8.4312 7.2924 5.8322 0.0000 -10601.8158 1366.3091 0.0000 0.0000 1722.9669 -7490.9840 293.1158 -9213.9509 -7459.8144 297.6126 -681.2377 -548.3657 30253.7121 -120.9312 -63.1563
ENERGY: 1500000 8.6215 7.9438 10.7610 0.0000 -10666.1865 1456.1625 0.0000 0.0000 1750.5470 -7432.1506 297.8078 -9182.6977 -7467.3818 297.7454 433.1598 471.9041 30402.7225 -204.6321 -140.0485
TCL: Running FEP window   2: Lambda1 0.95   Lambda2 0.8999999999999999 [dLambda -0.050000000000000044]
TCL: Setting parameter firsttimestep to 0
TCL: Setting parameter alchLambda to 0.95
Info: NONBONDED TABLE R-SQUARED SPACING: 0.0625
Info: NONBONDED TABLE SIZE: 705 POINTS
TCL: Setting parameter alchLambda2 to 0.8999999999999999
Info: NONBONDED TABLE R-SQUARED SPACING: 0.0625
Info: NONBONDED TABLE SIZE: 705 POINTS
TCL: Running for 1500000 steps
ETITLE: TS BOND ANGLE DIHED IMPRP ELECT VDW BOUNDARY MISC KINETIC TOTAL TEMP POTENTIAL TOTALAVG TEMPAVG PRESSURE GPRESSURE VOLUME PRESSAVG GPRESSAVG
ENERGY: 0 8.6215 7.9438 10.7610 0.0000 -10664.9349 1456.0731 0.0000 0.0000 1749.6789 -7431.8566 297.6601 -9181.5355 -7431.8566 297.6601 361.0930 453.8281 30402.7225 361.0930 453.8281
ENERGY: 300000 5.1242 5.6259 10.6081 0.0000 -10615.3165 1423.3246 0.0000 0.0000 1811.7110 -7358.9226 308.2131 -9170.6336 -7423.9465 302.5819 88.9501 136.6160 30504.3062 -129.6201 -81.0145
ENERGY: 600000 2.8797 9.0031 10.0543 0.0000 -10722.4978 1442.5038 0.0000 0.0000 1832.1736 -7425.8832 311.6943 -9258.0568 -7413.7699 304.5824 52.1066 171.8919 30102.6867 -11.0761 60.3245
ENERGY: 900000 6.2130 5.0939 9.7748 0.0000 -10800.7649 1535.8892 0.0000 0.0000 1702.0985 -7541.6956 289.5656 -9243.7940 -7430.2200 302.6632 1184.2528 1120.9790 29714.7558 141.3262 192.4409
ENERGY: 1200000 16.3353 8.6658 7.4760 0.0000 -10580.6829 1412.4705 0.0000 0.0000 1800.6921 -7335.0432 306.3386 -9135.7354 -7433.7129 301.7621 -218.2769 -106.4864 30671.2655 28.9973 83.2741
ENERGY: 1500000 10.5886 7.2228 9.1344 0.0000 -10774.5918 1503.3880 0.0000 0.0000 1749.8086 -7494.4493 297.6821 -9244.2579 -7444.4723 301.6091 415.8279 492.8660 30267.2544 -3.2800 56.4535
TCL: Running FEP window   3: Lambda1 0.8999999999999999 Lambda2 0.8499999999999999 [dLambda -0.050000000000000044]
TCL: Setting parameter firsttimestep to 0
TCL: Setting parameter alchLambda to 0.8999999999999999
Info: NONBONDED TABLE R-SQUARED SPACING: 0.0625
Info: NONBONDED TABLE SIZE: 705 POINTS
TCL: Setting parameter alchLambda2 to 0.8499999999999999
Info: NONBONDED TABLE R-SQUARED SPACING: 0.0625
Info: NONBONDED TABLE SIZE: 705 POINTS
TCL: Running for 1500000 steps
ETITLE: TS BOND ANGLE DIHED IMPRP ELECT VDW BOUNDARY MISC KINETIC TOTAL TEMP POTENTIAL TOTALAVG TEMPAVG PRESSURE GPRESSURE VOLUME PRESSAVG GPRESSAVG
ENERGY: 0 10.5886 7.2228 9.1344 0.0000 -10771.9089 1501.8090 0.0000 0.0000 1748.9201 -7494.2339 297.5310 -9243.1540 -7494.2339 297.5310 369.6100 458.0529 30267.2544 369.6100 458.0529
ENERGY: 300000 7.4713 9.5309 6.5475 0.0000 -10672.0551 1363.9859 0.0000 0.0000 1795.1201 -7489.3994 305.3906 -9284.5195 -7492.7405 296.4827 -843.2721 -772.3179 30161.3724 96.8385 171.3879
ENERGY: 600000 9.8507 8.5447 5.6805 0.0000 -10634.1242 1487.8757 0.0000 0.0000 1741.8936 -7380.2788 296.3356 -9122.1724 -7430.9333 299.0402 388.5337 443.5903 30773.2601 -49.7991 7.4791
ENERGY: 900000 10.1150 7.9074 8.0653 0.0000 -10890.1573 1597.7996 0.0000 0.0000 1792.5661 -7473.7040 304.9561 -9266.2701 -7425.3985 300.5238 1330.0119 1414.6773 30010.6270 215.9704 275.6413
ENERGY: 1200000 4.0135 8.9318 10.9970 0.0000 -10749.9905 1446.7120 0.0000 0.0000 1784.8429 -7494.4933 303.6423 -9279.3363 -7433.1471 300.5834 111.8928 162.5142 30079.0369 152.5211 215.3916
ENERGY: 1500000 6.0572 9.2780 5.7516 0.0000 -10690.6512 1436.6050 0.0000 0.0000 1786.4099 -7446.5496 303.9088 -9232.9595 -7425.2166 301.5116 5.2736 36.5662 30226.5435 89.0216 152.0354
TCL: Running FEP window   4: Lambda1 0.8499999999999999 Lambda2 0.7999999999999998 [dLambda -0.050000000000000044]
TCL: Setting parameter firsttimestep to 0
TCL: Setting parameter alchLambda to 0.8499999999999999
Info: NONBONDED TABLE R-SQUARED SPACING: 0.0625
Info: NONBONDED TABLE SIZE: 705 POINTS
TCL: Setting parameter alchLambda2 to 0.7999999999999998
Info: NONBONDED TABLE R-SQUARED SPACING: 0.0625
Info: NONBONDED TABLE SIZE: 705 POINTS
TCL: Running for 1500000 steps
ETITLE: TS BOND ANGLE DIHED IMPRP ELECT VDW BOUNDARY MISC KINETIC TOTAL TEMP POTENTIAL TOTALAVG TEMPAVG PRESSURE GPRESSURE VOLUME PRESSAVG GPRESSAVG
ENERGY: 0 6.0572 9.2780 5.7516 0.0000 -10687.2793 1436.2915 0.0000 0.0000 1785.5629 -7444.3382 303.7648 -9229.9012 -7444.3382 303.7648 -56.5303 26.7963 30226.5435 -56.5303 26.7963
ENERGY: 300000 7.7292 4.6754 8.1421 0.0000 -10804.8122 1488.4438 0.0000 0.0000 1758.1013 -7537.7204 299.0929 -9295.8217 -7456.8582 302.3074 269.6216 317.3394 30196.7649 38.5014 111.1954
ENERGY: 600000 4.2718 7.1525 9.1697 0.0000 -10725.4151 1488.6458 0.0000 0.0000 1747.2331 -7468.9423 297.2440 -9216.1754 -7452.3942 302.0695 535.1297 603.7444 30124.9439 35.3119 100.7467
ENERGY: 900000 5.4924 9.4994 9.1012 0.0000 -10672.9897 1411.1497 0.0000 0.0000 1772.8216 -7464.9254 301.5972 -9237.7470 -7442.2836 301.8624 -403.8134 -304.6922 30078.5971 50.1581 127.0176
ENERGY: 1200000 9.2460 5.6959 5.0388 0.0000 -10490.6179 1328.5157 0.0000 0.0000 1727.1700 -7414.9515 293.8308 -9142.1215 -7447.8229 300.3951 -1141.0087 -1024.9973 30786.1602 -131.7100 -60.4809
ENERGY: 1500000 5.0000 5.0714 13.0161 0.0000 -10839.5610 1569.8576 0.0000 0.0000 1748.9432 -7497.6726 297.5349 -9246.6158 -7443.1399 300.5695 1340.3152 1377.8856 29976.0310 -46.8902 22.9412
TCL: Running FEP window   5: Lambda1 0.7999999999999998 Lambda2 0.7499999999999998 [dLambda -0.050000000000000044]
TCL: Setting parameter firsttimestep to 0
TCL: Setting parameter alchLambda to 0.7999999999999998
Info: NONBONDED TABLE R-SQUARED SPACING: 0.0625
Info: NONBONDED TABLE SIZE: 705 POINTS
TCL: Setting parameter alchLambda2 to 0.7499999999999998
Info: NONBONDED TABLE R-SQUARED SPACING: 0.0625
Info: NONBONDED TABLE SIZE: 705 POINTS
TCL: Running for 1500000 steps
ETITLE: TS BOND ANGLE DIHED IMPRP ELECT VDW BOUNDARY MISC KINETIC TOTAL TEMP POTENTIAL TOTALAVG TEMPAVG PRESSURE GPRESSURE VOLUME PRESSAVG GPRESSAVG
ENERGY: 0 5.0000 5.0714 13.0161 0.0000 -10837.8991 1570.4490 0.0000 0.0000 1748.1066 -7496.2559 297.3926 -9244.3625 -7496.2559 297.3926 1300.0861 1370.3043 29976.0310 1300.0861 1370.3043
ENERGY: 300000 7.1351 8.5494 11.8577 0.0000 -10682.2027 1446.2567 0.0000 0.0000 1746.2994 -7462.1045 297.0851 -9208.4039 -7465.6148 296.1985 198.3701 183.0917 30160.8251 429.1844 465.6614
ENERGY: 600000 7.4937 9.7497 9.4585 0.0000 -10635.6225 1414.0946 0.0000 0.0000 1743.0371 -7451.7889 296.5302 -9194.8260 -7458.1165 297.3900 -7.1461 -25.9701 30051.1586 16.9925 44.7484
ENERGY: 900000 5.9537 7.2386 6.4178 0.0000 -10616.5438 1428.9768 0.0000 0.0000 1761.9544 -7406.0025 299.7484 -9167.9569 -7430.5922 299.8158 459.3207 551.8674 30097.6292 -64.1173 -31.0966
ENERGY: 1200000 7.2251 11.7241 8.1307 0.0000 -10522.7921 1366.7294 0.0000 0.0000 1760.8736 -7368.1092 299.5645 -9128.9828 -7426.9666 299.5052 -551.7456 -479.3582 30657.0270 -65.7919 -23.3830
ENERGY: 1500000 10.1977 5.9529 8.2313 0.0000 -10667.2804 1472.5072 0.0000 0.0000 1762.7384 -7407.6528 299.8818 -9170.3912 -7419.9042 300.3050 256.6321 331.8835 30737.9727 -85.6221 -39.2074
TCL: Running FEP window   6: Lambda1 0.7499999999999998 Lambda2 0.6999999999999997 [dLambda -0.050000000000000044]
TCL: Setting parameter firsttimestep to 0
TCL: Setting parameter alchLambda to 0.7499999999999998
Info: NONBONDED TABLE R-SQUARED SPACING: 0.0625
Info: NONBONDED TABLE SIZE: 705 POINTS
TCL: Setting parameter alchLambda2 to 0.6999999999999997
Info: NONBONDED TABLE R-SQUARED SPACING: 0.0625
Info: NONBONDED TABLE SIZE: 705 POINTS
TCL: Running for 1500000 steps
ETITLE: TS BOND ANGLE DIHED IMPRP ELECT VDW BOUNDARY MISC KINETIC TOTAL TEMP POTENTIAL TOTALAVG TEMPAVG PRESSURE GPRESSURE VOLUME PRESSAVG GPRESSAVG
ENERGY: 0 10.1977 5.9529 8.2313 0.0000 -10665.2858 1472.0148 0.0000 0.0000 1761.8437 -7407.0453 299.7296 -9168.8890 -7407.0453 299.7296 242.7166 313.9985 30737.9727 242.7166 313.9985
ENERGY: 300000 7.0840 7.8008 10.8971 0.0000 -10524.4426 1353.4981 0.0000 0.0000 1782.2992 -7362.8635 303.2095 -9145.1626 -7388.6469 303.6073 -400.0648 -320.7806 30382.0716 141.8900 226.9235
ENERGY: 600000 9.4824 7.7045 8.0410 0.0000 -10734.6727 1502.0506 0.0000 0.0000 1760.0915 -7447.3027 299.4315 -9207.3942 -7429.7958 300.1554 590.8388 627.1782 30184.1927 218.6212 293.7161
ENERGY: 900000 6.9982 6.9979 10.9642 0.0000 -10624.8355 1473.5501 0.0000 0.0000 1715.9210 -7410.4040 291.9171 -9126.3251 -7426.2837 298.6444 530.1980 548.7414 30489.7087 179.3749 250.7357
ENERGY: 1200000 5.8476 9.0186 7.5293 0.0000 -10706.3464 1423.0913 0.0000 0.0000 1783.1928 -7477.6668 303.3615 -9260.8596 -7435.1937 298.8633 -130.0978 -119.1172 30307.4850 161.7386 223.4609
ENERGY: 1500000 4.5807 5.9711 6.6697 0.0000 -10604.0811 1422.1177 0.0000 0.0000 1725.5544 -7439.1876 293.5559 -9164.7419 -7434.4871 299.4081 -171.2675 -130.8790 30732.8443 145.0112 205.0297
TCL: Running FEP window   7: Lambda1 0.6999999999999997 Lambda2 0.6499999999999997 [dLambda -0.050000000000000044]
TCL: Setting parameter firsttimestep to 0
TCL: Setting parameter alchLambda to 0.6999999999999997
Info: NONBONDED TABLE R-SQUARED SPACING: 0.0625
Info: NONBONDED TABLE SIZE: 705 POINTS
TCL: Setting parameter alchLambda2 to 0.6499999999999997
Info: NONBONDED TABLE R-SQUARED SPACING: 0.0625
Info: NONBONDED TABLE SIZE: 705 POINTS
TCL: Running for 1500000 steps
ETITLE: TS BOND ANGLE DIHED IMPRP ELECT VDW BOUNDARY MISC KINETIC TOTAL TEMP POTENTIAL TOTALAVG TEMPAVG PRESSURE GPRESSURE VOLUME PRESSAVG GPRESSAVG
ENERGY: 0 4.5806 5.9711 6.6697 0.0000 -10602.4381 1422.8323 0.0000 0.0000 1724.6727 -7437.7117 293.4059 -9162.3844 -7437.7117 293.4059 -213.9104 -137.4955 30732.8443 -213.9104 -137.4955
ENERGY: 300000 2.6979 7.9404 6.3645 0.0000 -10568.8951 1410.2233 0.0000 0.0000 1745.2727 -7396.3962 296.9105 -9141.6689 -7409.1337 297.7027 -104.8665 -33.9344 30830.5480 -330.9919 -238.2459
ENERGY: 600000 3.5860 8.6815 6.4212 0.0000 -10580.0377 1383.7725 0.0000 0.0000 1724.2642 -7453.3124 293.3365 -9177.5766 -7415.6695 298.0037 -698.2056 -608.0656 31082.7441 -240.8930 -171.1711
ENERGY: 900000 6.6933 7.6674 12.1561 0.0000 -10908.4028 1584.0825 0.0000 0.0000 1748.3886 -7549.4150 297.4405 -9297.8035 -7456.2780 297.2041 447.4644 472.2628 30593.4921 -89.3862 -23.1199
ENERGY: 1200000 5.9373 9.7578 7.9999 0.0000 -10610.0361 1433.3832 0.0000 0.0000 1763.0340 -7389.9239 299.9321 -9152.9580 -7465.7970 296.7891 35.0032 58.8311 30177.4872 -115.2747 -51.4512
ENERGY: 1500000 6.0285 8.7604 8.2268 0.0000 -10649.7093 1403.3889 0.0000 0.0000 1839.7555 -7383.5492 312.9841 -9223.3047 -7459.4554 297.9701 -382.2739 -386.7427 30732.3598 -141.9169 -83.6042
TCL: Running FEP window   8: Lambda1 0.6499999999999997 Lambda2 0.5999999999999996 [dLambda -0.050000000000000044]
TCL: Setting parameter firsttimestep to 0
TCL: Setting parameter alchLambda to 0.6499999999999997
Info: NONBONDED TABLE R-SQUARED SPACING: 0.0625
Info: NONBONDED TABLE SIZE: 705 POINTS
TCL: Setting parameter alchLambda2 to 0.5999999999999996
Info: NONBONDED TABLE R-SQUARED SPACING: 0.0625
Info: NONBONDED TABLE SIZE: 705 POINTS
TCL: Running for 1500000 steps
ETITLE: TS BOND ANGLE DIHED IMPRP ELECT VDW BOUNDARY MISC KINETIC TOTAL TEMP POTENTIAL TOTALAVG TEMPAVG PRESSURE GPRESSURE VOLUME PRESSAVG GPRESSAVG
ENERGY: 0 6.0285 8.7604 8.2268 0.0000 -10646.3931 1403.4012 0.0000 0.0000 1838.8905 -7381.0857 312.8370 -9219.9762 -7381.0857 312.8370 -468.1628 -391.4086 30732.3598 -468.1628 -391.4086
ENERGY: 300000 4.2871 7.5214 10.8529 0.0000 -10608.6982 1414.7187 0.0000 0.0000 1721.8294 -7449.4887 292.9222 -9171.3181 -7409.7893 303.0223 85.9393 147.1106 30116.4598 9.0641 55.6649
ENERGY: 600000 11.6453 7.5142 8.3208 0.0000 -10527.2848 1373.5583 0.0000 0.0000 1751.0153 -7375.2308 297.8874 -9126.2461 -7405.6646 302.2428 -436.5040 -305.7047 30576.1302 -115.5714 -47.4503
ENERGY: 900000 11.0347 9.3840 11.1832 0.0000 -10670.4440 1425.9530 0.0000 0.0000 1685.1851 -7527.7040 286.6882 -9212.8891 -7415.3326 301.1503 -386.7465 -279.1352 30483.9272 -12.8239 52.1569
ENERGY: 1200000 10.6752 5.9444 7.1402 0.0000 -10714.7968 1476.3120 0.0000 0.0000 1732.5274 -7482.1977 294.7422 -9214.7251 -7431.9387 300.8925 -44.0225 24.8969 30393.9239 25.1246 86.1744
ENERGY: 1500000 9.6383 8.3975 7.4983 0.0000 -10571.0852 1370.2342 0.0000 0.0000 1717.7990 -7457.5178 292.2366 -9175.3169 -7427.0915 301.3220 -763.9656 -718.7532 30642.7809 -88.8577 -27.7882
TCL: Running FEP window   9: Lambda1 0.5999999999999996 Lambda2 0.5499999999999996 [dLambda -0.050000000000000044]
TCL: Setting parameter firsttimestep to 0
TCL: Setting parameter alchLambda to 0.5999999999999996
Info: NONBONDED TABLE R-SQUARED SPACING: 0.0625
Info: NONBONDED TABLE SIZE: 705 POINTS
TCL: Setting parameter alchLambda2 to 0.5499999999999996
Info: NONBONDED TABLE R-SQUARED SPACING: 0.0625
Info: NONBONDED TABLE SIZE: 705 POINTS
TCL: Running for 1500000 steps
ETITLE: TS BOND ANGLE DIHED IMPRP ELECT VDW BOUNDARY MISC KINETIC TOTAL TEMP POTENTIAL TOTALAVG TEMPAVG PRESSURE GPRESSURE VOLUME PRESSAVG GPRESSAVG
ENERGY: 0 9.6383 8.3975 7.4983 0.0000 -10569.0815 1369.1225 0.0000 0.0000 1716.9155 -7457.5094 292.0863 -9174.4248 -7457.5094 292.0863 -826.7362 -738.2176 30642.7809 -826.7362 -738.2176
ENERGY: 300000 8.2836 9.0305 14.2832 0.0000 -10714.6991 1448.3266 0.0000 0.0000 1769.3540 -7465.4211 301.0073 -9234.7752 -7439.6673 297.5917 -158.4453 -74.0834 30121.5031 143.1319 220.4865
ENERGY: 600000 6.0129 6.8716 7.9412 0.0000 -10647.6231 1501.5872 0.0000 0.0000 1760.5547 -7364.6555 299.5103 -9125.2102 -7412.1792 299.6586 699.5989 778.1562 30820.4896 321.0112 390.0260
ENERGY: 900000 4.5069 8.2050 10.2171 0.0000 -10575.1104 1350.0168 0.0000 0.0000 1746.5080 -7455.6567 297.1206 -9202.1647 -7416.0042 300.0916 -840.9743 -781.8654 30668.4223 98.8035 159.0766
ENERGY: 1200000 5.6409 5.9159 8.3993 0.0000 -10574.5032 1380.1473 0.0000 0.0000 1783.3755 -7391.0243 303.3926 -9174.3998 -7421.7966 300.4143 -446.4981 -474.4368 30499.7414 114.5479 163.7634
ENERGY: 1500000 6.6067 6.5496 3.1318 0.0000 -10741.4176 1447.4743 0.0000 0.0000 1729.7857 -7547.8695 294.2758 -9277.6552 -7422.2277 300.2979 -132.5282 -34.6858 30504.4514 148.0042 204.9454
TCL: Running FEP window  10: Lambda1 0.5499999999999996 Lambda2 0.4999999999999996 [dLambda -0.04999999999999999]
TCL: Setting parameter firsttimestep to 0
TCL: Setting parameter alchLambda to 0.5499999999999996
Info: NONBONDED TABLE R-SQUARED SPACING: 0.0625
Info: NONBONDED TABLE SIZE: 705 POINTS
TCL: Setting parameter alchLambda2 to 0.4999999999999996
Info: NONBONDED TABLE R-SQUARED SPACING: 0.0625
Info: NONBONDED TABLE SIZE: 705 POINTS
TCL: Running for 1500000 steps
ETITLE: TS BOND ANGLE DIHED IMPRP ELECT VDW BOUNDARY MISC KINETIC TOTAL TEMP POTENTIAL TOTALAVG TEMPAVG PRESSURE GPRESSURE VOLUME PRESSAVG GPRESSAVG
ENERGY: 0 6.6067 6.5496 3.1318 0.0000 -10741.2167 1448.0783 0.0000 0.0000 1728.9628 -7547.8875 294.1358 -9276.8503 -7547.8875 294.1358 -124.8445 -40.1975 30504.4514 -124.8445 -40.1975
ENERGY: 300000 6.7313 9.7080 4.6581 0.0000 -10691.0607 1475.9977 0.0000 0.0000 1747.9849 -7445.9807 297.3719 -9193.9655 -7460.2160 297.4451 -18.4698 79.5521 30679.2692 -409.9783 -324.9537
ENERGY: 600000 8.0694 11.3065 7.9811 0.0000 -10631.8217 1445.1935 0.0000 0.0000 1732.6935 -7426.5777 294.7705 -9159.2712 -7454.5646 296.1784 -70.8718 -42.1652 30378.1901 -125.2868 -57.2783
ENERGY: 900000 12.0919 10.8994 8.2930 0.0000 -10784.5631 1484.6380 0.0000 0.0000 1770.9129 -7497.7278 301.2725 -9268.6407 -7455.4335 296.7505 -369.0344 -272.9182 30394.0490 -70.6591 -4.0152
ENERGY: 1200000 6.9431 8.8426 6.6580 0.0000 -10707.5359 1487.0444 0.0000 0.0000 1763.4665 -7434.5814 300.0056 -9198.0479 -7445.3813 298.3939 420.5471 476.3938 30062.5715 61.2119 118.9569
ENERGY: 1500000 5.4792 9.7956 11.5265 0.0000 -10620.2489 1379.4026 0.0000 0.0000 1731.2048 -7482.8401 294.5172 -9214.0449 -7445.9283 298.2375 -521.8969 -493.6951 30609.1322 115.6400 172.2424
TCL: Running FEP window  11: Lambda1 0.4999999999999996 Lambda2 0.4499999999999996 [dLambda -0.04999999999999999]
TCL: Setting parameter firsttimestep to 0
TCL: Setting parameter alchLambda to 0.4999999999999996
Info: NONBONDED TABLE R-SQUARED SPACING: 0.0625
Info: NONBONDED TABLE SIZE: 705 POINTS
TCL: Setting parameter alchLambda2 to 0.4499999999999996
Info: NONBONDED TABLE R-SQUARED SPACING: 0.0625
Info: NONBONDED TABLE SIZE: 705 POINTS
TCL: Running for 1500000 steps
ETITLE: TS BOND ANGLE DIHED IMPRP ELECT VDW BOUNDARY MISC KINETIC TOTAL TEMP POTENTIAL TOTALAVG TEMPAVG PRESSURE GPRESSURE VOLUME PRESSAVG GPRESSAVG
ENERGY: 0 5.4792 9.7956 11.5265 0.0000 -10620.3314 1380.0757 0.0000 0.0000 1730.3051 -7483.1493 294.3641 -9213.4543 -7483.1493 294.3641 -578.6864 -495.6879 30609.1322 -578.6864 -495.6879
ENERGY: 300000 8.4701 8.1972 9.2152 0.0000 -10621.7658 1399.5065 0.0000 0.0000 1763.1253 -7433.2514 299.9476 -9196.3767 -7428.3367 298.9282 -398.8752 -311.4148 30103.8622 -176.0945 -113.3258
ENERGY: 600000 4.0434 7.6098 9.0470 0.0000 -10722.4204 1448.3130 0.0000 0.0000 1855.1955 -7398.2118 315.6108 -9253.4072 -7433.2487 301.6910 -29.4561 56.9385 30409.6645 -178.4219 -97.6982
ENERGY: 900000 9.9144 5.0973 5.4091 0.0000 -10556.5277 1376.1711 0.0000 0.0000 1732.9444 -7426.9914 294.8131 -9159.9358 -7421.6589 300.4582 -470.1296 -421.4307 30249.7720 -316.1509 -242.0916
ENERGY: 1200000 8.0020 4.5195 6.6223 0.0000 -10789.5515 1515.5288 0.0000 0.0000 1839.3824 -7415.4965 312.9207 -9254.8788 -7428.1109 301.0559 707.8595 698.4008 29829.0794 -127.0703 -59.4883
ENERGY: 1500000 5.5126 5.7113 10.7694 0.0000 -10626.8670 1374.4793 0.0000 0.0000 1736.0250 -7494.3695 295.3372 -9230.3945 -7435.4547 300.2715 -629.7088 -533.8528 30277.4084 -94.6687 -25.4188
TCL: Running FEP window  12: Lambda1 0.4499999999999996 Lambda2 0.39999999999999963 [dLambda -0.04999999999999999]
TCL: Setting parameter firsttimestep to 0
TCL: Setting parameter alchLambda to 0.4499999999999996
Info: NONBONDED TABLE R-SQUARED SPACING: 0.0625
Info: NONBONDED TABLE SIZE: 705 POINTS
TCL: Setting parameter alchLambda2 to 0.39999999999999963
Info: NONBONDED TABLE R-SQUARED SPACING: 0.0625
Info: NONBONDED TABLE SIZE: 705 POINTS
TCL: Running for 1500000 steps
ETITLE: TS BOND ANGLE DIHED IMPRP ELECT VDW BOUNDARY MISC KINETIC TOTAL TEMP POTENTIAL TOTALAVG TEMPAVG PRESSURE GPRESSURE VOLUME PRESSAVG GPRESSAVG
ENERGY: 0 5.5126 5.7113 10.7694 0.0000 -10626.8670 1375.0488 0.0000 0.0000 1735.1182 -7494.7068 295.1830 -9229.8249 -7494.7068 295.1830 -626.9425 -538.8150 30277.4084 -626.9425 -538.8150
ENERGY: 300000 6.3316 10.7390 7.7258 0.0000 -10765.2096 1455.5937 0.0000 0.0000 1736.0579 -7548.7618 295.3428 -9284.8196 -7466.0129 297.5818 -83.3331 -31.9052 29980.8531 -333.0966 -265.4018
ENERGY: 600000 7.8022 9.1332 7.6600 0.0000 -10720.9586 1490.0433 0.0000 0.0000 1770.2718 -7436.0480 301.1634 -9206.3198 -7451.5998 298.7060 324.5555 327.8498 30057.8302 59.1477 108.9761
ENERGY: 900000 6.0258 8.8219 12.6043 0.0000 -10643.6928 1436.6487 0.0000 0.0000 1789.9169 -7389.6752 304.5055 -9179.5921 -7441.2399 299.1066 -29.2843 -5.9269 30591.1820 24.7663 67.9725
ENERGY: 1200000 5.2127 4.8078 7.8249 0.0000 -10813.2986 1502.0058 0.0000 0.0000 1787.8153 -7505.6322 304.1479 -9293.4475 -7453.1281 300.0219 413.4068 429.6351 30030.2713 5.5336 55.3820
ENERGY: 1500000 8.5841 4.2689 8.1312 0.0000 -10787.3593 1513.8575 0.0000 0.0000 1784.9378 -7467.5800 303.6584 -9252.5178 -7445.5414 300.3260 289.0537 301.0294 30070.4602 37.8681 84.1349
TCL: Running FEP window  13: Lambda1 0.39999999999999963 Lambda2 0.34999999999999964 [dLambda -0.04999999999999999]
TCL: Setting parameter firsttimestep to 0
TCL: Setting parameter alchLambda to 0.39999999999999963
Info: NONBONDED TABLE R-SQUARED SPACING: 0.0625
Info: NONBONDED TABLE SIZE: 705 POINTS
TCL: Setting parameter alchLambda2 to 0.34999999999999964
Info: NONBONDED TABLE R-SQUARED SPACING: 0.0625
Info: NONBONDED TABLE SIZE: 705 POINTS
TCL: Running for 1500000 steps
ETITLE: TS BOND ANGLE DIHED IMPRP ELECT VDW BOUNDARY MISC KINETIC TOTAL TEMP POTENTIAL TOTALAVG TEMPAVG PRESSURE GPRESSURE VOLUME PRESSAVG GPRESSAVG
ENERGY: 0 8.5841 4.2689 8.1312 0.0000 -10787.3598 1513.4914 0.0000 0.0000 1784.0556 -7468.8288 303.5083 -9252.8843 -7468.8288 303.5083 200.5558 289.2326 30070.4602 200.5558 289.2326
ENERGY: 300000 4.4959 7.5037 6.9590 0.0000 -10548.9868 1460.6442 0.0000 0.0000 1789.6029 -7279.7812 304.4520 -9069.3841 -7419.9050 302.2216 469.4512 540.5716 30655.6737 -72.5779 -4.5655
ENERGY: 600000 6.4746 9.8173 3.9574 0.0000 -10531.4795 1341.0717 0.0000 0.0000 1781.8892 -7388.2694 303.1398 -9170.1586 -7404.9004 303.1625 -909.4958 -758.9732 30420.2995 -105.9422 -39.5792
ENERGY: 900000 12.4738 4.9308 7.7774 0.0000 -10597.9790 1390.8892 0.0000 0.0000 1778.4712 -7403.4366 302.5583 -9181.9077 -7397.4304 303.1015 -706.8141 -624.4379 30404.9113 -39.9853 21.9118
ENERGY: 1200000 5.3505 5.5807 6.5373 0.0000 -10679.2643 1434.4700 0.0000 0.0000 1765.0350 -7462.2908 300.2725 -9227.3258 -7397.3950 302.6789 -421.6812 -350.2872 30602.8229 -71.5808 -10.9299
ENERGY: 1500000 6.2954 10.7971 5.2028 0.0000 -10744.3265 1540.0571 0.0000 0.0000 1818.9709 -7363.0033 309.4482 -9181.9741 -7397.5980 302.4094 909.0046 960.6269 30224.8354 -14.6860 42.6995
TCL: Running FEP window  14: Lambda1 0.34999999999999964 Lambda2 0.29999999999999966 [dLambda -0.04999999999999999]
TCL: Setting parameter firsttimestep to 0
TCL: Setting parameter alchLambda to 0.34999999999999964
Info: NONBONDED TABLE R-SQUARED SPACING: 0.0625
Info: NONBONDED TABLE SIZE: 705 POINTS
TCL: Setting parameter alchLambda2 to 0.29999999999999966
Info: NONBONDED TABLE R-SQUARED SPACING: 0.0625
Info: NONBONDED TABLE SIZE: 705 POINTS
TCL: Running for 1500000 steps
ETITLE: TS BOND ANGLE DIHED IMPRP ELECT VDW BOUNDARY MISC KINETIC TOTAL TEMP POTENTIAL TOTALAVG TEMPAVG PRESSURE GPRESSURE VOLUME PRESSAVG GPRESSAVG
ENERGY: 0 6.2954 10.7971 5.2028 0.0000 -10744.3264 1540.4843 0.0000 0.0000 1818.0870 -7363.4599 309.2978 -9181.5469 -7363.4599 309.2978 869.3215 957.7054 30224.8354 869.3215 957.7054
ENERGY: 300000 5.7786 7.7989 5.3958 0.0000 -10746.4066 1478.4353 0.0000 0.0000 1824.3599 -7424.6382 310.3650 -9248.9981 -7402.8215 304.1483 230.6578 308.0570 30005.9727 182.7200 242.7463
ENERGY: 600000 8.1361 10.8536 6.6487 0.0000 -10596.6959 1347.8262 0.0000 0.0000 1799.5780 -7423.6532 306.1490 -9223.2313 -7416.4018 302.6084 -683.1952 -581.3897 29932.9072 117.3463 191.2271
ENERGY: 900000 8.9698 7.8130 4.3396 0.0000 -10611.4772 1413.0882 0.0000 0.0000 1814.4038 -7362.8628 308.6712 -9177.2666 -7406.2014 302.3453 -50.7948 -56.7390 30347.6245 51.2729 113.3791
ENERGY: 1200000 6.0147 7.9008 5.9803 0.0000 -10820.5054 1525.4295 0.0000 0.0000 1766.7962 -7508.3839 300.5721 -9275.1801 -7415.4394 301.5461 572.6054 706.4670 29691.8564 120.6197 193.6890
ENERGY: 1500000 10.8123 7.3577 11.1578 0.0000 -10722.1046 1490.7354 0.0000 0.0000 1792.8043 -7409.2371 304.9967 -9202.0413 -7412.4115 301.7245 488.8839 594.9723 29750.4565 161.6080 231.0102
TCL: Running FEP window  15: Lambda1 0.29999999999999966 Lambda2 0.24999999999999967 [dLambda -0.04999999999999999]
TCL: Setting parameter firsttimestep to 0
TCL: Setting parameter alchLambda to 0.29999999999999966
Info: NONBONDED TABLE R-SQUARED SPACING: 0.0625
Info: NONBONDED TABLE SIZE: 705 POINTS
TCL: Setting parameter alchLambda2 to 0.24999999999999967
Info: NONBONDED TABLE R-SQUARED SPACING: 0.0625
Info: NONBONDED TABLE SIZE: 705 POINTS
TCL: Running for 1500000 steps
ETITLE: TS BOND ANGLE DIHED IMPRP ELECT VDW BOUNDARY MISC KINETIC TOTAL TEMP POTENTIAL TOTALAVG TEMPAVG PRESSURE GPRESSURE VOLUME PRESSAVG GPRESSAVG
ENERGY: 0 10.8123 7.3577 11.1578 0.0000 -10722.1024 1490.1422 0.0000 0.0000 1791.9541 -7410.6783 304.8520 -9202.6324 -7410.6783 304.8520 496.5347 581.6046 29750.4565 496.5347 581.6046
ENERGY: 300000 3.2400 9.8446 7.1567 0.0000 -10712.2318 1470.4049 0.0000 0.0000 1791.8595 -7429.7261 304.8359 -9221.5856 -7431.9532 302.4937 -214.9011 -113.1314 30597.6643 43.7657 121.4370
ENERGY: 600000 8.3377 7.7490 6.0257 0.0000 -10673.7252 1434.0173 0.0000 0.0000 1773.0180 -7444.5775 301.6306 -9217.5955 -7420.6964 301.9810 -44.1721 -16.5026 30141.7062 151.5925 202.8110
ENERGY: 900000 6.9252 8.6747 9.4174 0.0000 -10657.8346 1406.1126 0.0000 0.0000 1793.1764 -7433.5284 305.0600 -9226.7047 -7418.4265 303.0176 -406.9356 -367.2041 30222.6836 30.9348 79.6123
ENERGY: 1200000 6.9745 8.7294 8.7996 0.0000 -10750.6241 1418.5915 0.0000 0.0000 1802.6322 -7504.8968 306.6686 -9307.5290 -7422.0590 303.6685 -635.8885 -573.7627 30196.1924 58.5130 114.0750
ENERGY: 1500000 4.8611 9.0262 12.7402 0.0000 -10555.2887 1392.3054 0.0000 0.0000 1762.1896 -7374.1663 299.7884 -9136.3559 -7416.1274 302.8237 -456.1694 -366.2427 30484.4518 110.2269 169.0348
TCL: Running FEP window  16: Lambda1 0.24999999999999967 Lambda2 0.19999999999999968 [dLambda -0.04999999999999999]
TCL: Setting parameter firsttimestep to 0
TCL: Setting parameter alchLambda to 0.24999999999999967
Info: NONBONDED TABLE R-SQUARED SPACING: 0.0625
Info: NONBONDED TABLE SIZE: 705 POINTS
TCL: Setting parameter alchLambda2 to 0.19999999999999968
Info: NONBONDED TABLE R-SQUARED SPACING: 0.0625
Info: NONBONDED TABLE SIZE: 705 POINTS
TCL: Running for 1500000 steps
ETITLE: TS BOND ANGLE DIHED IMPRP ELECT VDW BOUNDARY MISC KINETIC TOTAL TEMP POTENTIAL TOTALAVG TEMPAVG PRESSURE GPRESSURE VOLUME PRESSAVG GPRESSAVG
ENERGY: 0 4.8611 9.0262 12.7402 0.0000 -10555.2875 1392.3829 0.0000 0.0000 1761.3484 -7374.9288 299.6453 -9136.2772 -7374.9288 299.6453 -464.9065 -371.2842 30484.4518 -464.9065 -371.2842
ENERGY: 300000 3.7017 7.7982 8.7550 0.0000 -10614.2411 1450.5559 0.0000 0.0000 1787.2551 -7356.1752 304.0526 -9143.4303 -7396.5551 297.8500 174.9064 202.8326 30313.8358 23.8793 102.9396
ENERGY: 600000 5.9367 9.9824 5.3567 0.0000 -10545.2716 1400.9161 0.0000 0.0000 1766.6591 -7356.4207 300.5488 -9123.0797 -7383.8128 299.7033 153.2193 246.1924 29810.3129 -6.4046 70.9175
ENERGY: 900000 5.4050 6.7910 6.9191 0.0000 -10648.0636 1472.9095 0.0000 0.0000 1774.9723 -7381.0666 301.9630 -9156.0389 -7389.8501 301.0892 228.3536 273.9002 30486.5448 42.6359 122.7393
ENERGY: 1200000 6.7296 5.6963 8.0989 0.0000 -10887.2237 1538.5271 0.0000 0.0000 1757.4813 -7570.6905 298.9874 -9328.1718 -7400.3987 300.9841 576.8442 668.5434 29531.6351 84.0413 165.7515
ENERGY: 1500000 9.4452 6.9127 5.7754 0.0000 -10629.4602 1432.5825 0.0000 0.0000 1731.8639 -7442.8806 294.6293 -9174.7445 -7397.3664 300.4448 -161.2762 -95.5984 30552.5085 -55.3987 19.1511
TCL: Running FEP window  17: Lambda1 0.19999999999999968 Lambda2 0.1499999999999997 [dLambda -0.04999999999999999]
TCL: Setting parameter firsttimestep to 0
TCL: Setting parameter alchLambda to 0.19999999999999968
Info: NONBONDED TABLE R-SQUARED SPACING: 0.0625
Info: NONBONDED TABLE SIZE: 705 POINTS
TCL: Setting parameter alchLambda2 to 0.1499999999999997
Info: NONBONDED TABLE R-SQUARED SPACING: 0.0625
Info: NONBONDED TABLE SIZE: 705 POINTS
TCL: Running for 1500000 steps
ETITLE: TS BOND ANGLE DIHED IMPRP ELECT VDW BOUNDARY MISC KINETIC TOTAL TEMP POTENTIAL TOTALAVG TEMPAVG PRESSURE GPRESSURE VOLUME PRESSAVG GPRESSAVG
ENERGY: 0 9.4452 6.9127 5.7754 0.0000 -10629.4617 1432.7191 0.0000 0.0000 1731.0005 -7443.6088 294.4824 -9174.6093 -7443.6088 294.4824 -157.9687 -99.1371 30552.5085 -157.9687 -99.1371
ENERGY: 300000 8.7341 7.1578 8.0559 0.0000 -10611.4898 1428.9549 0.0000 0.0000 1725.7282 -7432.8588 293.5855 -9158.5870 -7451.2626 299.3852 -511.2983 -457.5826 31207.7005 -271.3042 -224.1163
ENERGY: 600000 7.3683 6.2830 7.1877 0.0000 -10545.0771 1406.4476 0.0000 0.0000 1784.8404 -7332.9501 303.6418 -9117.7905 -7436.5163 298.9510 -310.5436 -205.6476 30246.1592 -327.4929 -267.1998
ENERGY: 900000 10.4356 7.4480 17.3295 0.0000 -10710.8958 1453.7592 0.0000 0.0000 1804.2034 -7417.7202 306.9359 -9221.9236 -7425.5827 299.8884 -357.8265 -268.8884 30509.8289 -268.7476 -204.1515
ENERGY: 1200000 8.2257 9.7502 8.1994 0.0000 -10617.2011 1391.6226 0.0000 0.0000 1741.2033 -7458.1999 296.2182 -9199.4032 -7416.8977 299.8769 -763.6755 -758.7576 30857.2886 -378.8940 -315.8219
ENERGY: 1500000 9.1993 10.6284 4.5865 0.0000 -10732.0821 1518.6166 0.0000 0.0000 1736.4804 -7452.5710 295.4147 -9189.0514 -7428.2752 298.8166 302.4263 406.9644 30118.9264 -275.0770 -212.7035
TCL: Running FEP window  18: Lambda1 0.1499999999999997 Lambda2 0.09999999999999969 [dLambda -0.05 ]
TCL: Setting parameter firsttimestep to 0
TCL: Setting parameter alchLambda to 0.1499999999999997
Info: NONBONDED TABLE R-SQUARED SPACING: 0.0625
Info: NONBONDED TABLE SIZE: 705 POINTS
TCL: Setting parameter alchLambda2 to 0.09999999999999969
Info: NONBONDED TABLE R-SQUARED SPACING: 0.0625
Info: NONBONDED TABLE SIZE: 705 POINTS
TCL: Running for 1500000 steps
ETITLE: TS BOND ANGLE DIHED IMPRP ELECT VDW BOUNDARY MISC KINETIC TOTAL TEMP POTENTIAL TOTALAVG TEMPAVG PRESSURE GPRESSURE VOLUME PRESSAVG GPRESSAVG
ENERGY: 0 9.1993 10.6284 4.5865 0.0000 -10732.0828 1518.9648 0.0000 0.0000 1735.6365 -7453.0674 295.2711 -9188.7038 -7453.0674 295.2711 308.5199 402.8567 30118.9264 308.5199 402.8567
ENERGY: 300000 5.1856 7.7594 4.7782 0.0000 -10620.9321 1458.2723 0.0000 0.0000 1810.9128 -7334.0237 308.0773 -9144.9365 -7445.8354 297.9507 272.9576 282.1406 30306.8143 330.6759 373.2608
ENERGY: 600000 13.3270 10.7156 13.1763 0.0000 -10581.0751 1440.9951 0.0000 0.0000 1794.9556 -7307.9054 305.3627 -9102.8610 -7415.8692 301.3559 76.0310 120.7869 30333.7843 163.4384 223.3412
ENERGY: 900000 4.7117 8.3568 8.8744 0.0000 -10546.6277 1438.1416 0.0000 0.0000 1743.2753 -7343.2678 296.5707 -9086.5431 -7405.1535 301.8311 273.6253 237.6621 30435.3944 216.3392 265.6610
ENERGY: 1200000 6.4506 6.9771 5.2201 0.0000 -10613.6898 1395.8562 0.0000 0.0000 1784.5281 -7414.6576 303.5887 -9199.1857 -7397.3729 301.9802 -367.3391 -351.0340 30212.5045 152.3431 200.2008
ENERGY: 1500000 4.8249 4.6600 6.8652 0.0000 -10630.8026 1473.3981 0.0000 0.0000 1782.0946 -7358.9598 303.1747 -9141.0545 -7394.1062 302.4613 609.7228 702.1326 29766.3083 107.2166 163.0906
TCL: Running FEP window  19: Lambda1 0.09999999999999969 Lambda2 0.049999999999999684 [dLambda -0.05 ]
TCL: Setting parameter firsttimestep to 0
TCL: Setting parameter alchLambda to 0.09999999999999969
Info: NONBONDED TABLE R-SQUARED SPACING: 0.0625
Info: NONBONDED TABLE SIZE: 705 POINTS
TCL: Setting parameter alchLambda2 to 0.049999999999999684
Info: NONBONDED TABLE R-SQUARED SPACING: 0.0625
Info: NONBONDED TABLE SIZE: 705 POINTS
TCL: Running for 1500000 steps
ETITLE: TS BOND ANGLE DIHED IMPRP ELECT VDW BOUNDARY MISC KINETIC TOTAL TEMP POTENTIAL TOTALAVG TEMPAVG PRESSURE GPRESSURE VOLUME PRESSAVG GPRESSAVG
ENERGY: 0 4.8249 4.6600 6.8652 0.0000 -10630.8023 1473.5538 0.0000 0.0000 1781.2134 -7359.6850 303.0248 -9140.8984 -7359.6850 303.0248 605.5295 696.2102 29766.3083 605.5295 696.2102
ENERGY: 300000 3.3255 7.8045 10.1880 0.0000 -10756.6378 1438.7802 0.0000 0.0000 1702.8591 -7593.6805 289.6949 -9296.5396 -7470.8513 298.7124 -509.2960 -419.7845 29966.7822 229.5428 301.9785
ENERGY: 600000 8.2646 11.8257 5.2168 0.0000 -10697.5443 1481.9456 0.0000 0.0000 1802.8848 -7387.4068 306.7116 -9190.2916 -7472.4487 299.5546 127.5477 215.5615 30257.8250 207.4401 282.8176
ENERGY: 900000 6.9974 8.7448 6.2288 0.0000 -10689.0012 1418.6945 0.0000 0.0000 1807.1684 -7441.1672 307.4403 -9248.3356 -7467.3550 299.1513 -203.1296 -198.1296 29947.7014 47.7647 111.7527
ENERGY: 1200000 6.2821 8.3761 9.6765 0.0000 -10635.6387 1403.3210 0.0000 0.0000 1758.1527 -7449.8303 299.1017 -9207.9830 -7464.2121 298.7178 -625.7499 -562.5403 30698.2182 -55.5977 6.3394
ENERGY: 1500000 11.6712 6.6305 7.0414 0.0000 -10596.0244 1387.0465 0.0000 0.0000 1823.9812 -7359.6535 310.3006 -9183.6347 -7447.8482 300.1911 -800.0172 -742.5789 30515.7664 -97.9024 -34.2404
TCL: Running FEP window  20: Lambda1 0.049999999999999684 Lambda2 0.0    [dLambda -0.049999999999999684]
TCL: Setting parameter firsttimestep to 0
TCL: Setting parameter alchLambda to 0.049999999999999684
Info: NONBONDED TABLE R-SQUARED SPACING: 0.0625
Info: NONBONDED TABLE SIZE: 705 POINTS
TCL: Setting parameter alchLambda2 to 0.0
Info: NONBONDED TABLE R-SQUARED SPACING: 0.0625
Info: NONBONDED TABLE SIZE: 705 POINTS
TCL: Running for 1500000 steps
ETITLE: TS BOND ANGLE DIHED IMPRP ELECT VDW BOUNDARY MISC KINETIC TOTAL TEMP POTENTIAL TOTALAVG TEMPAVG PRESSURE GPRESSURE VOLUME PRESSAVG GPRESSAVG
ENERGY: 0 11.6712 6.6305 7.0414 0.0000 -10596.0252 1387.6874 0.0000 0.0000 1823.1267 -7359.8680 310.1552 -9182.9947 -7359.8680 310.1552 -818.4006 -742.1696 30515.7664 -818.4006 -742.1696
ENERGY: 300000 7.8210 7.4865 7.0559 0.0000 -10598.3739 1344.2686 0.0000 0.0000 1773.0577 -7458.6842 301.6373 -9231.7420 -7393.5000 302.3257 -1017.3179 -974.9920 30239.0248 -525.4589 -465.2681
ENERGY: 600000 6.6693 8.2878 6.6107 0.0000 -10626.8110 1436.7775 0.0000 0.0000 1747.3858 -7421.0800 297.2700 -9168.4658 -7405.9353 301.4311 -499.1543 -450.4387 30404.3113 -399.4511 -332.0195
ENERGY: 900000 12.9242 10.2262 8.2853 0.0000 -10630.7307 1451.3602 0.0000 0.0000 1708.1783 -7439.7564 290.5999 -9147.9347 -7412.2017 299.9680 -114.4310 -52.3991 30219.3943 -330.4052 -261.6973
ENERGY: 1200000 6.1950 8.1274 4.8768 0.0000 -10764.2807 1536.3736 0.0000 0.0000 1773.0567 -7435.6512 301.6372 -9208.7079 -7407.7519 301.4401 741.1748 851.2992 30102.2661 -174.5862 -104.0320
ENERGY: 1500000 11.3406 11.0392 9.0773 0.0000 -10430.2599 1306.8006 0.0000 0.0000 1695.7613 -7396.2409 288.4875 -9092.0022 -7406.4689 301.2488 -1032.7784 -882.3484 30498.7159 -171.7929 -93.1937
TCL: Exiting due to exit command.
