Info: SIMULATION PARAMETERS:
Info: TIMESTEP               2
Info: NUMBER OF STEPS        0
Info: STEPS PER CYCLE        10
Info: PERIODIC CELL BASIS 1  31.0788 0 0
Info: PERIODIC CELL BASIS 2  0 29.796 0
Info: PERIODIC CELL BASIS 3  0 0 33.2685
Info: PERIODIC CELL CENTER   0 0 0
Info: WRAPPING WATERS AROUND PERIODIC BOUNDARIES ON OUTPUT.
Info: WRAPPING ALL CLUSTERS AROUND PERIODIC BOUNDARIES ON OUTPUT.
Info: FIRST LDB TIMESTEP     50
Info: LAST LDB TIMESTEP     -1
Info: HOM BACKGROUND SCALING 1
Info: PME BACKGROUND SCALING 1
Info: MIN ATOMS PER PATCH    40
Info: EMPTY PATCH LOAD       40 ATOMS
Info: VELOCITY FILE          mobley_2972345_equil.vel
Info: CENTER OF MASS MOVING INITIALLY? NO
Info: DIELECTRIC             1
Info: EXCLUDE                SCALED ONE-FOUR
Info: 1-4 ELECTROSTATICS SCALED BY 0.833333
Info: MODIFIED 1-4 VDW PARAMETERS WILL BE USED
Info: DCD FILENAME           mobley_2972345_prod.dcd
Info: DCD FREQUENCY          100000
Info: DCD FIRST STEP         100000
Info: DCD FILE WILL CONTAIN UNIT CELL DATA
Info: XST FILENAME           mobley_2972345_prod.xst
Info: XST FREQUENCY          100000
Info: NO VELOCITY DCD OUTPUT
Info: NO FORCE DCD OUTPUT
Info: OUTPUT FILENAME        mobley_2972345_prod
Info: BINARY OUTPUT FILES WILL BE USED
Info: RESTART FILENAME       mobley_2972345_prod.restart
Info: RESTART FREQUENCY      100000
Info: BINARY RESTART FILES WILL BE USED
Info: CUTOFF                 9
Info: PAIRLIST DISTANCE      11
Info: PAIRLIST SHRINK RATE   0.01
Info: PAIRLIST GROW RATE     0.01
Info: PAIRLIST TRIGGER       0.3
Info: PAIRLISTS PER CYCLE    2
Info: PAIRLISTS ENABLED
Info: MARGIN                 2
Info: HYDROGEN GROUP CUTOFF  2.5
Info: PATCH DIMENSION        15.5
Info: ENERGY OUTPUT STEPS    100000
Info: ENERGY EVALUATION STEPS    100000
Info: OUTPUT ENERGY PRECISION 4
Info: CROSSTERM ENERGY INCLUDED IN DIHEDRAL
Info: TIMING OUTPUT STEPS    1000000
Info: PRESSURE OUTPUT STEPS  100000
Info: ALCHEMICAL FEP ON
Info: FEP CURRENT LAMBDA VALUE     0
Info: FEP COMPARISON LAMBDA VALUE  0.05
Info: FEP INTRA-ALCHEMICAL NON-BONDED INTERACTIONS WILL BE RETAINED
Info: FEP INTRA-ALCHEMICAL BONDED INTERACTIONS WILL BE RETAINED
Info: FEP VDW SHIFTING COEFFICIENT 5
Info: FEP ELEC. ACTIVE FOR ANNIHILATED PARTICLES BETWEEN LAMBDA = 0 AND LAMBDA = 0.5
Info: FEP ELEC. ACTIVE FOR EXNIHILATED PARTICLES BETWEEN LAMBDA = 0.5 AND LAMBDA = 1
Info: FEP VDW ACTIVE FOR ANNIHILATED PARTICLES BETWEEN LAMBDA = 0 AND LAMBDA = 1
Info: FEP VDW ACTIVE FOR EXNIHILATED PARTICLES BETWEEN LAMBDA = 0 AND LAMBDA = 1
Info: FEP BOND ACTIVE FOR ANNIHILATED PARTICLES BETWEEN LAMBDA = 1 AND LAMBDA = 1
Info: FEP BOND ACTIVE FOR EXNIHILATED PARTICLES BETWEEN LAMBDA = 0 AND LAMBDA = 0
Info: LANGEVIN DYNAMICS ACTIVE
Info: LANGEVIN TEMPERATURE   300
Info: LANGEVIN USING BBK INTEGRATOR
Info: LANGEVIN DAMPING COEFFICIENT IS 1 INVERSE PS
Info: LANGEVIN DYNAMICS APPLIED TO HYDROGENS
Info: LANGEVIN PISTON PRESSURE CONTROL ACTIVE
Info:        TARGET PRESSURE IS 1.01325 BAR
Info:     OSCILLATION PERIOD IS 50 FS
Info:             DECAY TIME IS 25 FS
Info:     PISTON TEMPERATURE IS 300 K
Info:       PRESSURE CONTROL IS GROUP-BASED
Info:    INITIAL STRAIN RATE IS -0.000677565 -0.000677565 -0.000677565
Info:       CELL FLUCTUATION IS ISOTROPIC
Info: PARTICLE MESH EWALD (PME) ACTIVE
Info: PME TOLERANCE               1e-06
Info: PME EWALD COEFFICIENT       0.348832
Info: PME INTERPOLATION ORDER     4
Info: PME GRID DIMENSIONS         32 32 36
Info: PME MAXIMUM GRID SPACING    1
Info: PME CALCULATION WILL BE PERFORMED ON GPU
Info: FULL ELECTROSTATIC EVALUATION FREQUENCY      2
Info: USING VERLET I (r-RESPA) MTS SCHEME.
Info: C1 SPLITTING OF LONG RANGE ELECTROSTATICS
Info: PLACING ATOMS IN PATCHES BY HYDROGEN GROUPS
Info: RIGID BONDS TO HYDROGEN : ALL
Info:         ERROR TOLERANCE : 1e-08
Info:          MAX ITERATIONS : 100
Info: RIGID WATER USING SETTLE ALGORITHM
Info: RANDOM NUMBER SEED     1743662725
Info: USE HYDROGEN BONDS?    NO
Info: Using AMBER format force field!
Info: AMBER PARM FILE        mobley_2972345.prmtop
Info: COORDINATE PDB         mobley_2972345.pdb
Info: Exclusions will be read from PARM file!
Info: SCNB (VDW SCALING)     2
Info: USING ARITHMETIC MEAN TO COMBINE L-J SIGMA PARAMETERS
Info: BINARY COORDINATES     mobley_2972345_equil.coor
Info: SUMMARY OF PARAMETERS:
Info: 6 BONDS
Info: 6 ANGLES
Info:   6 HARMONIC
Info:   0 COSINE-BASED
Info: 3 DIHEDRAL
Info: 0 IMPROPER
Info: 0 CROSSTERM
Info: 0 VDW
Info: 21 VDW_PAIRS
Info: 0 NBTHOLE_PAIRS
Info: To read alchdata from file: mobley_2972345.pdb
Info: To read alchflag data from column: 5
Info: STRUCTURE SUMMARY:
Info: 2993 ATOMS
Info: 2995 BONDS
Info: 48 ANGLES
Info: 84 DIHEDRALS
Info: 0 IMPROPERS
Info: 0 CROSSTERMS
Info: 3106 EXCLUSIONS
Info: 2979 RIGID BONDS
Info: ALCH: 0 ATOMS TO DISAPPEAR IN FINAL STATE
Info: ALCH: 26 ATOMS TO APPEAR IN FINAL STATE
Info: 6000 DEGREES OF FREEDOM
Info: 1003 HYDROGEN GROUPS
Info: 3 ATOMS IN LARGEST HYDROGEN GROUP
Info: 1003 MIGRATION GROUPS
Info: 3 ATOMS IN LARGEST MIGRATION GROUP
Info: TOTAL MASS = 17998.1 amu
Info: TOTAL CHARGE = -0.000200078 e
Info: MASS DENSITY = 0.970129 g/cm^3
Info: ATOM DENSITY = 0.0971519 atoms/A^3
Info: ADDED 0 IMPLICIT EXCLUSIONS
Info: NONBONDED TABLE R-SQUARED SPACING: 0.0625
Info: NONBONDED TABLE SIZE: 705 POINTS
Info: REMOVING COM VELOCITY -0.0869072 -0.0764208 -0.0516415
Info: Use 3D box decompostion in PME FFT.
Info: Updated CUDA force table with 4096 elements.
Info: Updated CUDA LJ table with 6 x 6 elements.
Info: Found 24 unique exclusion lists needing 84 bytes
TCL: Running for 1500000 steps
ETITLE: TS BOND ANGLE DIHED IMPRP ELECT VDW BOUNDARY MISC KINETIC TOTAL TEMP POTENTIAL TOTALAVG TEMPAVG PRESSURE GPRESSURE VOLUME PRESSAVG GPRESSAVG
ENERGY: 0 3.6462 7.5405 6.7893 0.0000 -10919.0058 1563.6648 0.0000 0.0000 1813.9773 -7523.3878 304.2783 -9337.3650 -7523.3878 304.2783 576.4259 637.9562 30807.4396 576.4259 637.9562
ENERGY: 300000 4.8893 7.2726 7.6733 0.0000 -10758.0943 1503.3078 0.0000 0.0000 1776.8327 -7458.1186 298.0476 -9234.9513 -7543.0313 302.2157 520.4196 604.8725 30297.9362 228.8327 294.0680
ENERGY: 600000 5.8087 4.9411 10.6277 0.0000 -10759.8606 1408.9146 0.0000 0.0000 1808.7645 -7520.8040 303.4039 -9329.5685 -7531.0295 301.6410 -543.5503 -458.1310 30439.9710 77.5479 148.0061
ENERGY: 900000 9.6328 10.7778 4.2651 0.0000 -10789.7595 1388.6782 0.0000 0.0000 1762.8222 -7613.5834 295.6975 -9376.4056 -7536.1944 302.0070 -906.7251 -900.4320 30275.6746 -27.8645 33.3104
ENERGY: 1200000 6.7650 9.1683 6.5755 0.0000 -10855.5592 1521.0084 0.0000 0.0000 1815.8781 -7496.1639 304.5971 -9312.0420 -7531.1664 301.4432 520.1586 604.9309 30386.5872 -10.4306 55.0989
ENERGY: 1500000 3.8893 5.4789 2.5508 0.0000 -10787.6675 1499.4007 0.0000 0.0000 1739.8409 -7536.5070 291.8426 -9276.3479 -7532.7008 300.4782 221.4868 319.7804 30558.7829 74.0625 143.3120
TCL: Running FEP window   2: Lambda1 0.05   Lambda2 0.1    [dLambda 0.05  ]
TCL: Setting parameter firsttimestep to 0
TCL: Setting parameter alchLambda to 0.05
Info: NONBONDED TABLE R-SQUARED SPACING: 0.0625
Info: NONBONDED TABLE SIZE: 705 POINTS
TCL: Setting parameter alchLambda2 to 0.1
Info: NONBONDED TABLE R-SQUARED SPACING: 0.0625
Info: NONBONDED TABLE SIZE: 705 POINTS
TCL: Running for 1500000 steps
ETITLE: TS BOND ANGLE DIHED IMPRP ELECT VDW BOUNDARY MISC KINETIC TOTAL TEMP POTENTIAL TOTALAVG TEMPAVG PRESSURE GPRESSURE VOLUME PRESSAVG GPRESSAVG
ENERGY: 0 3.8893 5.4789 2.5508 0.0000 -10787.6678 1504.9637 0.0000 0.0000 1739.0002 -7531.7849 291.7016 -9270.7851 -7531.7849 291.7016 229.7853 330.3025 30558.7829 229.7853 330.3025
ENERGY: 300000 4.0164 4.0286 7.6718 0.0000 -10803.6074 1444.6688 0.0000 0.0000 1799.8918 -7543.3300 301.9156 -9343.2219 -7495.6743 300.9374 -280.1099 -186.0774 30659.4037 23.9299 88.6017
ENERGY: 600000 5.4336 8.8229 11.3522 0.0000 -10919.7557 1531.3666 0.0000 0.0000 1811.2743 -7551.5062 303.8249 -9362.7805 -7500.8209 301.3422 345.8275 386.4009 30524.1341 150.2144 200.2986
ENERGY: 900000 1.5608 6.7107 6.7765 0.0000 -10949.5381 1581.5501 0.0000 0.0000 1823.5869 -7529.3531 305.8902 -9352.9401 -7508.7323 303.1448 846.1490 910.1267 30438.2732 242.5637 292.5968
ENERGY: 1200000 3.2417 4.7776 3.8662 0.0000 -10720.1536 1398.6116 0.0000 0.0000 1814.7592 -7494.8972 304.4095 -9309.6564 -7520.6717 302.8210 -594.8032 -497.1840 30695.4660 184.3235 245.7959
ENERGY: 1500000 7.1184 10.8899 5.8987 0.0000 -10716.8478 1447.5229 0.0000 0.0000 1803.0827 -7442.3352 302.4508 -9245.4179 -7513.8684 302.7782 -80.7954 -18.9161 30974.3935 137.0678 192.6053
TCL: Running FEP window   3: Lambda1 0.1    Lambda2 0.15000000000000002 [dLambda 0.05000000000000002]
TCL: Setting parameter firsttimestep to 0
TCL: Setting parameter alchLambda to 0.1
Info: NONBONDED TABLE R-SQUARED SPACING: 0.0625
Info: NONBONDED TABLE SIZE: 705 POINTS
TCL: Setting parameter alchLambda2 to 0.15000000000000002
Info: NONBONDED TABLE R-SQUARED SPACING: 0.0625
Info: NONBONDED TABLE SIZE: 705 POINTS
TCL: Running for 1500000 steps
ETITLE: TS BOND ANGLE DIHED IMPRP ELECT VDW BOUNDARY MISC KINETIC TOTAL TEMP POTENTIAL TOTALAVG TEMPAVG PRESSURE GPRESSURE VOLUME PRESSAVG GPRESSAVG
ENERGY: 0 7.1184 10.8899 5.8987 0.0000 -10716.8487 1447.9535 0.0000 0.0000 1802.1683 -7442.8199 302.2974 -9244.9882 -7442.8199 302.2974 -88.5280 -12.3539 30974.3935 -88.5280 -12.3539
ENERGY: 300000 4.5318 7.4884 4.8763 0.0000 -10853.0083 1474.0451 0.0000 0.0000 1771.4134 -7590.6532 297.1386 -9362.0666 -7497.6565 301.7396 -243.3799 -163.6188 30642.2563 -244.7434 -171.2535
ENERGY: 600000 6.5569 7.6914 2.2675 0.0000 -10885.2148 1477.1395 0.0000 0.0000 1763.4454 -7628.1141 295.8020 -9391.5595 -7497.9789 301.6715 -18.7313 69.3914 30243.4194 -114.2644 -54.8165
ENERGY: 900000 4.6329 7.6371 4.6067 0.0000 -11025.9006 1608.9023 0.0000 0.0000 1785.4308 -7614.6908 299.4899 -9400.1217 -7523.2071 300.6615 1242.5905 1362.6886 30074.7857 78.3532 144.1843
ENERGY: 1200000 8.3887 8.9195 2.9203 0.0000 -10932.9024 1487.0050 0.0000 0.0000 1800.7123 -7624.9567 302.0532 -9425.6689 -7550.1297 299.8860 124.3439 149.0575 30354.9625 58.1193 125.7963
ENERGY: 1500000 3.8982 12.4125 7.5196 0.0000 -10767.0940 1428.6459 0.0000 0.0000 1785.0765 -7529.5414 299.4305 -9314.6179 -7554.6102 299.5917 -501.9334 -363.2330 30662.6091 38.2283 107.1608
TCL: Running FEP window   4: Lambda1 0.15000000000000002 Lambda2 0.2    [dLambda 0.04999999999999999]
TCL: Setting parameter firsttimestep to 0
TCL: Setting parameter alchLambda to 0.15000000000000002
Info: NONBONDED TABLE R-SQUARED SPACING: 0.0625
Info: NONBONDED TABLE SIZE: 705 POINTS
TCL: Setting parameter alchLambda2 to 0.2
Info: NONBONDED TABLE R-SQUARED SPACING: 0.0625
Info: NONBONDED TABLE SIZE: 705 POINTS
TCL: Running for 1500000 steps
ETITLE: TS BOND ANGLE DIHED IMPRP ELECT VDW BOUNDARY MISC KINETIC TOTAL TEMP POTENTIAL TOTALAVG TEMPAVG PRESSURE GPRESSURE VOLUME PRESSAVG GPRESSAVG
ENERGY: 0 3.8982 12.4125 7.5196 0.0000 -10767.0940 1432.5896 0.0000 0.0000 1784.1843 -7526.4898 299.2808 -9310.6742 -7526.4898 299.2808 -433.1412 -343.1685 30662.6091 -433.1412 -343.1685
ENERGY: 300000 3.0225 8.6212 5.4080 0.0000 -10702.3658 1452.3508 0.0000 0.0000 1843.4058 -7389.5575 309.2147 -9232.9633 -7493.2819 299.2757 350.7505 403.4042 30516.1475 32.8369 111.7845
ENERGY: 600000 3.5595 12.3511 6.6321 0.0000 -10891.9709 1539.0358 0.0000 0.0000 1810.1616 -7520.2308 303.6383 -9330.3924 -7522.9989 298.7950 770.2798 818.3350 30583.2073 194.4205 260.2194
ENERGY: 900000 3.0642 9.2281 4.8609 0.0000 -10810.4607 1453.0922 0.0000 0.0000 1785.2136 -7555.0017 299.4535 -9340.2153 -7512.1730 300.2319 77.3454 94.2573 30689.8523 217.4490 282.1176
ENERGY: 1200000 3.7061 8.8315 6.9744 0.0000 -10773.6768 1449.3378 0.0000 0.0000 1766.5306 -7538.2964 296.3195 -9304.8270 -7518.5125 299.3717 -81.2261 -46.2895 30753.9848 139.3977 204.6852
ENERGY: 1500000 2.4630 7.8037 5.2572 0.0000 -10718.7142 1398.6470 0.0000 0.0000 1816.6942 -7487.8491 304.7340 -9304.5433 -7517.1732 299.4251 -581.0919 -414.6904 30587.6306 -1.0868 69.8574
TCL: Running FEP window   5: Lambda1 0.2    Lambda2 0.25   [dLambda 0.04999999999999999]
TCL: Setting parameter firsttimestep to 0
TCL: Setting parameter alchLambda to 0.2
Info: NONBONDED TABLE R-SQUARED SPACING: 0.0625
Info: NONBONDED TABLE SIZE: 705 POINTS
TCL: Setting parameter alchLambda2 to 0.25
Info: NONBONDED TABLE R-SQUARED SPACING: 0.0625
Info: NONBONDED TABLE SIZE: 705 POINTS
TCL: Running for 1500000 steps
ETITLE: TS BOND ANGLE DIHED IMPRP ELECT VDW BOUNDARY MISC KINETIC TOTAL TEMP POTENTIAL TOTALAVG TEMPAVG PRESSURE GPRESSURE VOLUME PRESSAVG GPRESSAVG
ENERGY: 0 2.4631 7.8037 5.2572 0.0000 -10718.7146 1399.3551 0.0000 0.0000 1815.7890 -7488.0465 304.5822 -9303.8355 -7488.0465 304.5822 -490.1543 -407.5087 30587.6306 -490.1543 -407.5087
ENERGY: 300000 7.2241 4.4209 6.6359 0.0000 -10942.8338 1496.5105 0.0000 0.0000 1745.6022 -7682.4402 292.8090 -9428.0424 -7541.3538 298.9087 -190.6536 -155.1024 30393.2373 32.0726 84.2622
ENERGY: 600000 6.1383 5.8343 6.1037 0.0000 -10704.3878 1368.5227 0.0000 0.0000 1850.0568 -7467.7319 310.3303 -9317.7887 -7540.5232 299.7948 -753.0095 -738.3593 30835.3297 27.5597 73.9967
ENERGY: 900000 4.2395 10.8049 8.0244 0.0000 -10780.6707 1427.1669 0.0000 0.0000 1780.9537 -7549.4812 298.7389 -9330.4348 -7546.4548 299.8677 -84.1908 -113.5633 30857.9162 -57.6492 -19.5094
ENERGY: 1200000 6.2813 7.6965 6.4271 0.0000 -10687.3982 1400.6287 0.0000 0.0000 1794.8722 -7471.4924 301.0736 -9266.3646 -7531.0382 299.9844 -296.6856 -257.2334 30593.1654 -73.4885 -25.6926
ENERGY: 1500000 9.5482 9.1253 5.7644 0.0000 -10752.3549 1474.5810 0.0000 0.0000 1781.8768 -7471.4592 298.8937 -9253.3361 -7520.4306 299.8143 82.0744 111.7203 30596.2033 15.7685 68.4794
TCL: Running FEP window   6: Lambda1 0.25   Lambda2 0.3    [dLambda 0.04999999999999999]
TCL: Setting parameter firsttimestep to 0
TCL: Setting parameter alchLambda to 0.25
Info: NONBONDED TABLE R-SQUARED SPACING: 0.0625
Info: NONBONDED TABLE SIZE: 705 POINTS
TCL: Setting parameter alchLambda2 to 0.3
Info: NONBONDED TABLE R-SQUARED SPACING: 0.0625
Info: NONBONDED TABLE SIZE: 705 POINTS
TCL: Running for 1500000 steps
ETITLE: TS BOND ANGLE DIHED IMPRP ELECT VDW BOUNDARY MISC KINETIC TOTAL TEMP POTENTIAL TOTALAVG TEMPAVG PRESSURE GPRESSURE VOLUME PRESSAVG GPRESSAVG
ENERGY: 0 9.5482 9.1253 5.7643 0.0000 -10752.3546 1474.4044 0.0000 0.0000 1781.0010 -7472.5114 298.7468 -9253.5124 -7472.5114 298.7468 41.2674 117.0492 30596.2033 41.2674 117.0492
ENERGY: 300000 5.2076 5.1755 4.3190 0.0000 -10853.7932 1554.8611 0.0000 0.0000 1793.2551 -7490.9748 300.8023 -9284.2300 -7540.4866 296.1031 1216.7957 1224.8467 30078.3242 316.1248 376.3957
ENERGY: 600000 6.6042 10.9206 4.0237 0.0000 -10860.7990 1520.2564 0.0000 0.0000 1802.9785 -7516.0156 302.4334 -9318.9941 -7531.6566 296.4806 493.5161 544.5713 30487.6806 213.1631 267.7753
ENERGY: 900000 4.1706 11.0705 3.9143 0.0000 -10840.5999 1466.8359 0.0000 0.0000 1792.4563 -7562.1524 300.6684 -9354.6087 -7533.4787 298.0414 75.4938 126.0511 30914.8928 235.7829 286.0044
ENERGY: 1200000 6.5254 11.5870 6.4511 0.0000 -10862.0189 1518.8314 0.0000 0.0000 1783.5836 -7535.0403 299.1800 -9318.6239 -7531.1010 298.0349 300.1389 326.7558 30533.1113 272.8185 321.6609
ENERGY: 1500000 5.4661 9.6322 5.4128 0.0000 -10830.5116 1487.6508 0.0000 0.0000 1833.2030 -7489.1467 307.5032 -9322.3497 -7530.1877 299.3627 360.1630 473.9998 30410.5676 271.6119 328.0801
TCL: Running FEP window   7: Lambda1 0.3    Lambda2 0.35   [dLambda 0.04999999999999999]
TCL: Setting parameter firsttimestep to 0
TCL: Setting parameter alchLambda to 0.3
Info: NONBONDED TABLE R-SQUARED SPACING: 0.0625
Info: NONBONDED TABLE SIZE: 705 POINTS
TCL: Setting parameter alchLambda2 to 0.35
Info: NONBONDED TABLE R-SQUARED SPACING: 0.0625
Info: NONBONDED TABLE SIZE: 705 POINTS
TCL: Running for 1500000 steps
ETITLE: TS BOND ANGLE DIHED IMPRP ELECT VDW BOUNDARY MISC KINETIC TOTAL TEMP POTENTIAL TOTALAVG TEMPAVG PRESSURE GPRESSURE VOLUME PRESSAVG GPRESSAVG
ENERGY: 0 5.4662 9.6322 5.4128 0.0000 -10830.5114 1488.4497 0.0000 0.0000 1832.3238 -7489.2268 307.3558 -9321.5506 -7489.2268 307.3558 388.4052 484.3273 30410.5676 388.4052 484.3273
ENERGY: 300000 5.2837 10.4719 7.9056 0.0000 -10854.2008 1510.7713 0.0000 0.0000 1763.3828 -7556.3856 295.7915 -9319.7684 -7531.3221 300.6393 249.8499 273.2560 30735.1842 -152.4377 -91.8157
ENERGY: 600000 7.6247 5.9194 6.2791 0.0000 -10793.1724 1450.2828 0.0000 0.0000 1751.8474 -7571.2190 293.8566 -9323.0664 -7529.6332 300.1930 48.6406 66.5629 30602.1297 -147.1135 -87.1706
ENERGY: 900000 5.3970 7.0605 4.3080 0.0000 -10835.5843 1430.5718 0.0000 0.0000 1772.3837 -7615.8632 297.3013 -9388.2469 -7536.3368 299.7500 -206.3279 -163.4258 30685.0313 -167.5179 -115.1632
ENERGY: 1200000 3.6724 6.9208 5.0547 0.0000 -10717.2407 1381.5800 0.0000 0.0000 1765.3786 -7554.6342 296.1263 -9320.0128 -7541.5874 299.4555 -694.3383 -627.0262 30490.0897 -276.9727 -218.3529
ENERGY: 1500000 6.4062 9.1189 5.4478 0.0000 -10773.3259 1442.0947 0.0000 0.0000 1767.9503 -7542.3080 296.5577 -9310.2583 -7536.0601 300.0510 -399.8810 -302.4582 31009.4733 -244.1960 -184.7993
TCL: Running FEP window   8: Lambda1 0.35   Lambda2 0.39999999999999997 [dLambda 0.04999999999999999]
TCL: Setting parameter firsttimestep to 0
TCL: Setting parameter alchLambda to 0.35
Info: NONBONDED TABLE R-SQUARED SPACING: 0.0625
Info: NONBONDED TABLE SIZE: 705 POINTS
TCL: Setting parameter alchLambda2 to 0.39999999999999997
Info: NONBONDED TABLE R-SQUARED SPACING: 0.0625
Info: NONBONDED TABLE SIZE: 705 POINTS
TCL: Running for 1500000 steps
ETITLE: TS BOND ANGLE DIHED IMPRP ELECT VDW BOUNDARY MISC KINETIC TOTAL TEMP POTENTIAL TOTALAVG TEMPAVG PRESSURE GPRESSURE VOLUME PRESSAVG GPRESSAVG
ENERGY: 0 6.4062 9.1189 5.4478 0.0000 -10773.3257 1442.0126 0.0000 0.0000 1767.0948 -7543.2454 296.4142 -9310.3402 -7543.2454 296.4142 -373.6979 -295.5617 31009.4733 -373.6979 -295.5617
ENERGY: 300000 4.5611 5.7470 4.4874 0.0000 -10708.9253 1424.2325 0.0000 0.0000 1837.6806 -7432.2167 308.2543 -9269.8973 -7528.0957 302.3580 -348.8438 -300.2239 31502.0657 -197.9782 -131.1466
ENERGY: 600000 5.3439 6.4131 3.5390 0.0000 -10943.3097 1608.3907 0.0000 0.0000 1861.1319 -7458.4911 312.1881 -9319.6230 -7527.8163 303.1906 1383.3585 1416.2743 30654.0766 242.6890 298.4761
ENERGY: 900000 5.7873 8.9042 4.7826 0.0000 -10883.1178 1515.2648 0.0000 0.0000 1827.9874 -7520.3915 306.6284 -9348.3789 -7532.1985 302.2741 608.3590 641.1604 30576.9743 243.7990 293.6175
ENERGY: 1200000 3.0257 7.3145 4.6291 0.0000 -10795.9834 1470.7546 0.0000 0.0000 1774.3849 -7535.8746 297.6370 -9310.2595 -7522.6432 302.1662 57.1003 102.0659 30751.1307 169.5654 218.1328
ENERGY: 1500000 3.6721 9.5077 4.8624 0.0000 -10760.5856 1403.6655 0.0000 0.0000 1784.2561 -7554.6218 299.2928 -9338.8779 -7521.5437 302.2921 -537.4565 -437.5377 30915.6729 95.1430 145.1606
TCL: Running FEP window   9: Lambda1 0.39999999999999997 Lambda2 0.44999999999999996 [dLambda 0.04999999999999999]
TCL: Setting parameter firsttimestep to 0
TCL: Setting parameter alchLambda to 0.39999999999999997
Info: NONBONDED TABLE R-SQUARED SPACING: 0.0625
Info: NONBONDED TABLE SIZE: 705 POINTS
TCL: Setting parameter alchLambda2 to 0.44999999999999996
Info: NONBONDED TABLE R-SQUARED SPACING: 0.0625
Info: NONBONDED TABLE SIZE: 705 POINTS
TCL: Running for 1500000 steps
ETITLE: TS BOND ANGLE DIHED IMPRP ELECT VDW BOUNDARY MISC KINETIC TOTAL TEMP POTENTIAL TOTALAVG TEMPAVG PRESSURE GPRESSURE VOLUME PRESSAVG GPRESSAVG
ENERGY: 0 3.6721 9.5077 4.8624 0.0000 -10760.5833 1403.9194 0.0000 0.0000 1783.3423 -7555.2795 299.1396 -9338.6218 -7555.2795 299.1396 -510.1835 -430.9307 30915.6729 -510.1835 -430.9307
ENERGY: 300000 5.9751 5.8754 4.6150 0.0000 -10693.9621 1420.7634 0.0000 0.0000 1768.4765 -7488.2566 296.6460 -9256.7331 -7563.1865 295.7264 -308.4210 -270.1873 31065.5872 -123.4759 -93.2526
ENERGY: 600000 9.6280 6.5109 3.9107 0.0000 -10814.5506 1423.6899 0.0000 0.0000 1751.5286 -7619.2826 293.8031 -9370.8111 -7560.6354 297.4682 -554.7719 -550.8026 30706.6409 -22.0144 16.3669
ENERGY: 900000 4.8345 8.5027 5.5514 0.0000 -10618.8433 1317.6013 0.0000 0.0000 1790.0841 -7492.2693 300.2704 -9282.3535 -7561.6388 297.1966 -922.8324 -943.9578 30957.1301 -55.4507 -17.4717
ENERGY: 1200000 3.4823 11.3093 5.9733 0.0000 -10807.1276 1428.6423 0.0000 0.0000 1773.9081 -7583.8123 297.5571 -9357.7204 -7557.3289 297.1884 -322.1441 -238.1548 30580.5446 -103.9974 -53.9519
ENERGY: 1500000 4.3602 7.6374 5.5291 0.0000 -10845.5586 1440.0619 0.0000 0.0000 1792.0408 -7595.9293 300.5987 -9387.9701 -7555.2604 297.6622 -261.5766 -210.0978 30690.4370 -135.8282 -90.6168
TCL: Running FEP window  10: Lambda1 0.44999999999999996 Lambda2 0.49999999999999994 [dLambda 0.04999999999999999]
TCL: Setting parameter firsttimestep to 0
TCL: Setting parameter alchLambda to 0.44999999999999996
Info: NONBONDED TABLE R-SQUARED SPACING: 0.0625
Info: NONBONDED TABLE SIZE: 705 POINTS
TCL: Setting parameter alchLambda2 to 0.49999999999999994
Info: NONBONDED TABLE R-SQUARED SPACING: 0.0625
Info: NONBONDED TABLE SIZE: 705 POINTS
TCL: Running for 1500000 steps
ETITLE: TS BOND ANGLE DIHED IMPRP ELECT VDW BOUNDARY MISC KINETIC TOTAL TEMP POTENTIAL TOTALAVG TEMPAVG PRESSURE GPRESSURE VOLUME PRESSAVG GPRESSAVG
ENERGY: 0 4.3602 7.6374 5.5291 0.0000 -10845.5576 1439.3763 0.0000 0.0000 1791.1712 -7597.4836 300.4528 -9388.6548 -7597.4836 300.4528 -293.5340 -208.0493 30690.4370 -293.5340 -208.0493
ENERGY: 300000 3.9148 11.4878 4.0218 0.0000 -10793.2808 1478.6000 0.0000 0.0000 1829.7700 -7465.4864 306.9274 -9295.2564 -7525.0632 300.8265 559.7827 655.2785 30142.8758 80.5521 160.8409
ENERGY: 600000 4.0677 8.4844 5.4280 0.0000 -10875.9942 1522.7608 0.0000 0.0000 1737.1666 -7598.0868 291.3940 -9335.2534 -7537.7508 299.3761 559.6976 590.1970 30573.1230 171.6630 239.6328
ENERGY: 900000 4.8563 8.3830 6.9480 0.0000 -10766.3550 1419.5975 0.0000 0.0000 1850.5846 -7475.9855 310.4188 -9326.5702 -7536.6784 300.2450 -90.1778 -42.3718 31081.0276 46.3404 110.0470
ENERGY: 1200000 7.3768 12.3699 2.5040 0.0000 -10813.4569 1426.2065 0.0000 0.0000 1771.4313 -7593.5683 297.1416 -9364.9997 -7540.3059 300.1394 -570.7056 -544.5019 30738.0089 -64.2770 4.2193
ENERGY: 1500000 6.1358 17.9547 8.7573 0.0000 -10802.1505 1532.8883 0.0000 0.0000 1734.5920 -7501.8224 290.9621 -9236.4144 -7539.3744 299.1341 361.5140 400.7831 31067.6798 -142.9994 -78.5512
TCL: Running FEP window  11: Lambda1 0.49999999999999994 Lambda2 0.5499999999999999 [dLambda 0.04999999999999999]
TCL: Setting parameter firsttimestep to 0
TCL: Setting parameter alchLambda to 0.49999999999999994
Info: NONBONDED TABLE R-SQUARED SPACING: 0.0625
Info: NONBONDED TABLE SIZE: 705 POINTS
TCL: Setting parameter alchLambda2 to 0.5499999999999999
Info: NONBONDED TABLE R-SQUARED SPACING: 0.0625
Info: NONBONDED TABLE SIZE: 705 POINTS
TCL: Running for 1500000 steps
ETITLE: TS BOND ANGLE DIHED IMPRP ELECT VDW BOUNDARY MISC KINETIC TOTAL TEMP POTENTIAL TOTALAVG TEMPAVG PRESSURE GPRESSURE VOLUME PRESSAVG GPRESSAVG
ENERGY: 0 6.1358 17.9547 8.7573 0.0000 -10802.1499 1532.0906 0.0000 0.0000 1733.7171 -7503.4945 290.8154 -9237.2115 -7503.4945 290.8154 328.7806 403.3462 31067.6798 328.7806 403.3462
ENERGY: 300000 7.9797 5.6215 4.0270 0.0000 -10541.8402 1307.2726 0.0000 0.0000 1742.5563 -7474.3831 292.2981 -9216.9395 -7513.1502 293.8051 -1164.3645 -1101.9867 31477.3005 -357.8075 -294.6412
ENERGY: 600000 5.7390 9.4125 6.4694 0.0000 -10742.9323 1437.5830 0.0000 0.0000 1778.3209 -7505.4075 298.2973 -9283.7284 -7521.1643 296.2075 26.0366 54.7428 30851.9876 -443.7571 -384.8270
ENERGY: 900000 4.8973 11.2897 3.1812 0.0000 -10736.8714 1437.5142 0.0000 0.0000 1764.3512 -7515.6378 295.9540 -9279.9890 -7534.4255 296.3376 -214.5677 -92.4263 30616.1001 -429.2301 -371.5084
ENERGY: 1200000 7.0362 8.1714 4.1145 0.0000 -10847.4772 1477.2662 0.0000 0.0000 1752.3750 -7598.5139 293.9451 -9350.8889 -7545.9827 296.3710 159.1215 220.8019 30305.1572 -330.6703 -267.8257
ENERGY: 1500000 7.8352 7.3769 6.1498 0.0000 -10771.5193 1440.9231 0.0000 0.0000 1766.8275 -7542.4069 296.3694 -9309.2344 -7541.4267 296.5884 -132.8055 -88.6690 30830.7138 -310.5443 -252.4214
TCL: Running FEP window  12: Lambda1 0.5499999999999999 Lambda2 0.6    [dLambda 0.050000000000000044]
TCL: Setting parameter firsttimestep to 0
TCL: Setting parameter alchLambda to 0.5499999999999999
Info: NONBONDED TABLE R-SQUARED SPACING: 0.0625
Info: NONBONDED TABLE SIZE: 705 POINTS
TCL: Setting parameter alchLambda2 to 0.6
Info: NONBONDED TABLE R-SQUARED SPACING: 0.0625
Info: NONBONDED TABLE SIZE: 705 POINTS
TCL: Running for 1500000 steps
ETITLE: TS BOND ANGLE DIHED IMPRP ELECT VDW BOUNDARY MISC KINETIC TOTAL TEMP POTENTIAL TOTALAVG TEMPAVG PRESSURE GPRESSURE VOLUME PRESSAVG GPRESSAVG
ENERGY: 0 7.8352 7.3769 6.1498 0.0000 -10771.1230 1441.4592 0.0000 0.0000 1765.9623 -7542.3396 296.2242 -9308.3019 -7542.3396 296.2242 -145.7535 -71.8088 30830.7138 -145.7535 -71.8088
ENERGY: 300000 4.6722 3.8884 5.6845 0.0000 -10634.1764 1367.4000 0.0000 0.0000 1771.4803 -7481.0511 297.1498 -9252.5314 -7487.5999 301.8049 -419.1165 -376.8819 30522.8476 -109.9493 -59.4381
ENERGY: 600000 6.5000 8.1297 5.6405 0.0000 -10853.4331 1519.0780 0.0000 0.0000 1876.8626 -7437.2222 314.8267 -9314.0849 -7500.0082 302.0477 704.4557 752.0562 30497.6465 -3.8475 61.0556
ENERGY: 900000 7.0123 15.3387 4.8345 0.0000 -10827.7349 1436.4565 0.0000 0.0000 1799.6346 -7564.4583 301.8724 -9364.0928 -7499.4651 301.1122 -253.6122 -279.5793 30516.9576 -53.6225 -1.8664
ENERGY: 1200000 5.4280 6.0897 3.4871 0.0000 -10975.8747 1565.5483 0.0000 0.0000 1837.2923 -7558.0293 308.1892 -9395.3216 -7518.2500 300.5520 747.0431 816.3605 30601.1918 -94.8180 -40.2387
ENERGY: 1500000 5.6243 8.2760 6.9486 0.0000 -10668.6619 1302.9260 0.0000 0.0000 1811.2028 -7533.6843 303.8129 -9344.8871 -7516.1698 301.3534 -1416.1827 -1361.7555 30770.9178 -166.3433 -113.2984
TCL: Running FEP window  13: Lambda1 0.6    Lambda2 0.65   [dLambda 0.050000000000000044]
TCL: Setting parameter firsttimestep to 0
TCL: Setting parameter alchLambda to 0.6
Info: NONBONDED TABLE R-SQUARED SPACING: 0.0625
Info: NONBONDED TABLE SIZE: 705 POINTS
TCL: Setting parameter alchLambda2 to 0.65
Info: NONBONDED TABLE R-SQUARED SPACING: 0.0625
Info: NONBONDED TABLE SIZE: 705 POINTS
TCL: Running for 1500000 steps
ETITLE: TS BOND ANGLE DIHED IMPRP ELECT VDW BOUNDARY MISC KINETIC TOTAL TEMP POTENTIAL TOTALAVG TEMPAVG PRESSURE GPRESSURE VOLUME PRESSAVG GPRESSAVG
ENERGY: 0 5.6243 8.2760 6.9486 0.0000 -10668.6061 1303.3704 0.0000 0.0000 1810.2929 -7534.0940 303.6603 -9344.3869 -7534.0940 303.6603 -1413.1988 -1345.2978 30770.9178 -1413.1988 -1345.2978
ENERGY: 300000 5.6979 7.8842 4.9594 0.0000 -10822.2040 1489.6754 0.0000 0.0000 1797.5510 -7516.4361 301.5229 -9313.9871 -7546.6298 298.8965 69.5486 207.3014 31070.8093 -340.3758 -259.3574
ENERGY: 600000 3.6109 9.8887 9.4250 0.0000 -10871.2854 1511.7548 0.0000 0.0000 1819.8559 -7516.7500 305.2644 -9336.6059 -7541.8581 299.4896 536.9508 573.6807 30799.2792 -228.8557 -153.0092
ENERGY: 900000 6.9521 12.4436 7.0811 0.0000 -10704.0953 1435.3124 0.0000 0.0000 1756.9962 -7485.3099 294.7202 -9242.3062 -7530.0814 299.2728 -301.4321 -256.3680 30964.7007 -158.8278 -92.1893
ENERGY: 1200000 5.7999 10.8202 6.2229 0.0000 -10833.6742 1536.1273 0.0000 0.0000 1764.3916 -7510.3123 295.9607 -9274.7039 -7525.2497 299.1823 716.0863 795.3405 30892.6412 -125.6148 -65.2860
ENERGY: 1500000 6.5166 6.5225 3.2030 0.0000 -10640.8404 1388.3780 0.0000 0.0000 1801.1347 -7435.0855 302.1241 -9236.2202 -7524.5346 299.0624 -295.1992 -195.4623 31051.4938 -110.3208 -46.2798
TCL: Running FEP window  14: Lambda1 0.65   Lambda2 0.7000000000000001 [dLambda 0.050000000000000044]
TCL: Setting parameter firsttimestep to 0
TCL: Setting parameter alchLambda to 0.65
Info: NONBONDED TABLE R-SQUARED SPACING: 0.0625
Info: NONBONDED TABLE SIZE: 705 POINTS
TCL: Setting parameter alchLambda2 to 0.7000000000000001
Info: NONBONDED TABLE R-SQUARED SPACING: 0.0625
Info: NONBONDED TABLE SIZE: 705 POINTS
TCL: Running for 1500000 steps
ETITLE: TS BOND ANGLE DIHED IMPRP ELECT VDW BOUNDARY MISC KINETIC TOTAL TEMP POTENTIAL TOTALAVG TEMPAVG PRESSURE GPRESSURE VOLUME PRESSAVG GPRESSAVG
ENERGY: 0 6.5166 6.5225 3.2030 0.0000 -10641.1586 1388.3795 0.0000 0.0000 1800.2255 -7436.3114 301.9716 -9236.5369 -7436.3114 301.9716 -270.1273 -183.4741 31051.4938 -270.1273 -183.4741
ENERGY: 300000 3.8066 8.3626 8.9928 0.0000 -10915.0009 1540.1917 0.0000 0.0000 1794.7403 -7558.9069 301.0515 -9353.6472 -7547.5976 297.8777 579.2114 656.2308 30406.5309 215.7674 280.9753
ENERGY: 600000 4.1925 9.4495 5.6809 0.0000 -10804.2875 1504.9728 0.0000 0.0000 1814.4995 -7465.4924 304.3659 -9279.9919 -7516.1219 301.5179 670.4824 747.9034 30566.8591 218.3671 279.4802
ENERGY: 900000 3.2197 8.1055 6.2067 0.0000 -10818.6359 1440.3780 0.0000 0.0000 1755.9371 -7604.7888 294.5426 -9360.7259 -7518.1622 301.3397 -50.5847 45.4079 30372.3420 89.3278 157.5726
ENERGY: 1200000 4.0285 8.7338 7.2317 0.0000 -10717.6368 1413.2871 0.0000 0.0000 1767.0723 -7517.2834 296.4104 -9284.3557 -7521.1806 300.8615 -447.2173 -382.7778 31135.0455 48.6344 106.3355
ENERGY: 1500000 6.7289 7.9171 5.4040 0.0000 -10626.8348 1356.2338 0.0000 0.0000 1779.5509 -7471.0001 298.5036 -9250.5510 -7522.4101 301.0987 -867.6802 -805.7132 31378.7461 51.2999 110.5982
TCL: Running FEP window  15: Lambda1 0.7000000000000001 Lambda2 0.7500000000000001 [dLambda 0.050000000000000044]
TCL: Setting parameter firsttimestep to 0
TCL: Setting parameter alchLambda to 0.7000000000000001
Info: NONBONDED TABLE R-SQUARED SPACING: 0.0625
Info: NONBONDED TABLE SIZE: 705 POINTS
TCL: Setting parameter alchLambda2 to 0.7500000000000001
Info: NONBONDED TABLE R-SQUARED SPACING: 0.0625
Info: NONBONDED TABLE SIZE: 705 POINTS
TCL: Running for 1500000 steps
ETITLE: TS BOND ANGLE DIHED IMPRP ELECT VDW BOUNDARY MISC KINETIC TOTAL TEMP POTENTIAL TOTALAVG TEMPAVG PRESSURE GPRESSURE VOLUME PRESSAVG GPRESSAVG
ENERGY: 0 6.7289 7.9171 5.4040 0.0000 -10627.6800 1356.4896 0.0000 0.0000 1778.6906 -7472.4499 298.3593 -9251.1404 -7472.4499 298.3593 -868.0015 -793.5414 31378.7461 -868.0015 -793.5414
ENERGY: 300000 4.9602 6.3356 4.5735 0.0000 -10831.5151 1423.5424 0.0000 0.0000 1807.5639 -7584.5396 303.2025 -9392.1034 -7537.2439 304.0874 -116.2541 -47.4536 30761.8881 -203.7585 -121.1911
ENERGY: 600000 4.9814 8.4850 5.8787 0.0000 -10812.7687 1447.3125 0.0000 0.0000 1834.0535 -7512.0576 307.6459 -9346.1111 -7535.8571 301.4946 -526.5722 -445.2785 31218.2640 -366.8687 -299.7780
ENERGY: 900000 4.5537 10.9834 5.3304 0.0000 -10921.8559 1467.8332 0.0000 0.0000 1756.5980 -7676.5572 294.6534 -9433.1552 -7556.3375 300.5564 105.8504 94.0707 30350.0088 -413.8956 -350.4178
ENERGY: 1200000 6.6240 8.0929 4.0871 0.0000 -10873.1491 1513.4758 0.0000 0.0000 1788.0870 -7552.7822 299.9354 -9340.8693 -7548.1721 300.6928 408.1291 452.6653 30597.8682 -239.1035 -174.2881
ENERGY: 1500000 4.2672 8.7344 4.0076 0.0000 -10804.4253 1455.3556 0.0000 0.0000 1812.1361 -7519.9243 303.9695 -9332.0604 -7536.6460 301.6421 190.4802 243.7255 30403.7802 -81.5932 -20.2885
TCL: Running FEP window  16: Lambda1 0.7500000000000001 Lambda2 0.8000000000000002 [dLambda 0.050000000000000044]
TCL: Setting parameter firsttimestep to 0
TCL: Setting parameter alchLambda to 0.7500000000000001
Info: NONBONDED TABLE R-SQUARED SPACING: 0.0625
Info: NONBONDED TABLE SIZE: 705 POINTS
TCL: Setting parameter alchLambda2 to 0.8000000000000002
Info: NONBONDED TABLE R-SQUARED SPACING: 0.0625
Info: NONBONDED TABLE SIZE: 705 POINTS
TCL: Running for 1500000 steps
ETITLE: TS BOND ANGLE DIHED IMPRP ELECT VDW BOUNDARY MISC KINETIC TOTAL TEMP POTENTIAL TOTALAVG TEMPAVG PRESSURE GPRESSURE VOLUME PRESSAVG GPRESSAVG
ENERGY: 0 4.2672 8.7344 4.0076 0.0000 -10805.3867 1455.3116 0.0000 0.0000 1811.3031 -7521.7627 303.8297 -9333.0658 -7521.7627 303.8297 165.8811 256.8386 30403.7802 165.8811 256.8386
ENERGY: 300000 7.2286 8.8184 5.1284 0.0000 -10654.8149 1383.4106 0.0000 0.0000 1789.7704 -7460.4585 300.2178 -9250.2289 -7466.4423 303.7632 -263.5112 -221.5616 30880.6594 -254.2531 -180.9625
ENERGY: 600000 4.3802 6.0623 6.1880 0.0000 -10843.8936 1460.0613 0.0000 0.0000 1755.7493 -7611.4525 294.5111 -9367.2018 -7512.0318 300.8298 -23.8021 -42.2918 30507.9679 -174.3324 -113.5660
ENERGY: 900000 3.6560 8.8141 3.9126 0.0000 -10712.6931 1441.6997 0.0000 0.0000 1766.4393 -7488.1714 296.3042 -9254.6107 -7501.7176 300.6394 116.9875 170.7137 31122.9310 -77.7432 -11.6407
ENERGY: 1200000 4.1779 8.3162 8.7891 0.0000 -10832.7923 1440.8310 0.0000 0.0000 1833.2146 -7537.4636 307.5052 -9370.6782 -7509.2643 301.0697 -329.7379 -267.3217 31068.9247 -55.4904 13.7029
ENERGY: 1500000 3.4978 10.8166 6.7297 0.0000 -10832.7174 1405.1117 0.0000 0.0000 1853.8178 -7552.7439 310.9612 -9406.5617 -7515.6293 301.9066 -523.6596 -429.7107 30583.8554 -68.8703 0.6125
TCL: Running FEP window  17: Lambda1 0.8000000000000002 Lambda2 0.8500000000000002 [dLambda 0.050000000000000044]
TCL: Setting parameter firsttimestep to 0
TCL: Setting parameter alchLambda to 0.8000000000000002
Info: NONBONDED TABLE R-SQUARED SPACING: 0.0625
Info: NONBONDED TABLE SIZE: 705 POINTS
TCL: Setting parameter alchLambda2 to 0.8500000000000002
Info: NONBONDED TABLE R-SQUARED SPACING: 0.0625
Info: NONBONDED TABLE SIZE: 705 POINTS
TCL: Running for 1500000 steps
ETITLE: TS BOND ANGLE DIHED IMPRP ELECT VDW BOUNDARY MISC KINETIC TOTAL TEMP POTENTIAL TOTALAVG TEMPAVG PRESSURE GPRESSURE VOLUME PRESSAVG GPRESSAVG
ENERGY: 0 3.4978 10.8166 6.7297 0.0000 -10833.3527 1405.2843 0.0000 0.0000 1852.9170 -7554.1074 310.8101 -9407.0244 -7554.1074 310.8101 -511.9447 -415.0643 30583.8554 -511.9447 -415.0643
ENERGY: 300000 3.6942 12.8620 6.0204 0.0000 -10741.9956 1368.6841 0.0000 0.0000 1762.6774 -7588.0575 295.6732 -9350.7349 -7543.0985 304.0087 -573.3670 -523.6925 30454.2092 -361.4396 -301.1038
ENERGY: 600000 7.7039 5.4037 4.7615 0.0000 -10731.3346 1423.2564 0.0000 0.0000 1779.7713 -7510.4379 298.5406 -9290.2092 -7533.5976 301.6947 -492.9124 -462.4737 31227.7964 -257.7419 -206.2116
ENERGY: 900000 7.5129 7.4777 6.6198 0.0000 -10761.5409 1445.5339 0.0000 0.0000 1763.9323 -7530.4643 295.8837 -9294.3966 -7545.3991 301.8937 311.7200 335.5218 30604.5101 -213.2969 -166.1483
ENERGY: 1200000 8.4855 8.0584 5.6139 0.0000 -10846.7812 1426.4466 0.0000 0.0000 1831.8993 -7566.2774 307.2846 -9398.1767 -7548.6728 301.9469 -464.6400 -400.3210 30757.0350 -208.8902 -156.8499
ENERGY: 1500000 6.6131 5.3393 2.4360 0.0000 -10760.5131 1423.2748 0.0000 0.0000 1798.8388 -7524.0111 301.7389 -9322.8499 -7545.4998 301.7801 -56.5575 -21.5456 30956.3243 -140.0460 -95.2597
TCL: Running FEP window  18: Lambda1 0.8500000000000002 Lambda2 0.9000000000000002 [dLambda 0.050000000000000044]
TCL: Setting parameter firsttimestep to 0
TCL: Setting parameter alchLambda to 0.8500000000000002
Info: NONBONDED TABLE R-SQUARED SPACING: 0.0625
Info: NONBONDED TABLE SIZE: 705 POINTS
TCL: Setting parameter alchLambda2 to 0.9000000000000002
Info: NONBONDED TABLE R-SQUARED SPACING: 0.0625
Info: NONBONDED TABLE SIZE: 705 POINTS
TCL: Running for 1500000 steps
ETITLE: TS BOND ANGLE DIHED IMPRP ELECT VDW BOUNDARY MISC KINETIC TOTAL TEMP POTENTIAL TOTALAVG TEMPAVG PRESSURE GPRESSURE VOLUME PRESSAVG GPRESSAVG
ENERGY: 0 6.6131 5.3393 2.4360 0.0000 -10761.3119 1423.0555 0.0000 0.0000 1797.9443 -7525.9237 301.5889 -9323.8679 -7525.9237 301.5889 -86.8466 -11.6602 30956.3243 -86.8466 -11.6602
ENERGY: 300000 5.2421 11.7729 3.4717 0.0000 -10783.8266 1427.4903 0.0000 0.0000 1781.6059 -7554.2436 298.8483 -9335.8495 -7553.5529 297.0619 -523.3691 -431.5934 31223.8573 -175.3416 -93.6303
ENERGY: 600000 2.4007 9.2700 3.1642 0.0000 -10744.1878 1387.6089 0.0000 0.0000 1764.2634 -7577.4806 295.9392 -9341.7440 -7551.7420 296.3186 -690.2909 -613.8885 31109.4116 -183.4911 -118.7581
ENERGY: 900000 2.2373 7.9579 2.7282 0.0000 -10714.5929 1399.9965 0.0000 0.0000 1726.9914 -7574.6816 289.6872 -9301.6731 -7543.1126 297.1114 -192.2168 -136.9656 30609.3533 -140.9024 -70.5328
ENERGY: 1200000 7.2620 5.4807 3.7117 0.0000 -10721.5882 1371.1726 0.0000 0.0000 1778.0199 -7555.9412 298.2468 -9333.9612 -7540.6349 297.9467 -860.8495 -774.5309 31116.3015 -294.4817 -231.1365
ENERGY: 1500000 3.5597 5.1421 5.8639 0.0000 -10765.1823 1426.6571 0.0000 0.0000 1783.7643 -7540.1952 299.2103 -9323.9595 -7534.7863 297.7404 -314.6475 -140.9667 31159.1939 -300.8555 -234.4646
TCL: Running FEP window  19: Lambda1 0.9000000000000002 Lambda2 0.9500000000000003 [dLambda 0.050000000000000044]
TCL: Setting parameter firsttimestep to 0
TCL: Setting parameter alchLambda to 0.9000000000000002
Info: NONBONDED TABLE R-SQUARED SPACING: 0.0625
Info: NONBONDED TABLE SIZE: 705 POINTS
TCL: Setting parameter alchLambda2 to 0.9500000000000003
Info: NONBONDED TABLE R-SQUARED SPACING: 0.0625
Info: NONBONDED TABLE SIZE: 705 POINTS
TCL: Running for 1500000 steps
ETITLE: TS BOND ANGLE DIHED IMPRP ELECT VDW BOUNDARY MISC KINETIC TOTAL TEMP POTENTIAL TOTALAVG TEMPAVG PRESSURE GPRESSURE VOLUME PRESSAVG GPRESSAVG
ENERGY: 0 3.5597 5.1421 5.8639 0.0000 -10766.1836 1427.3680 0.0000 0.0000 1782.8755 -7541.3744 299.0613 -9324.2499 -7541.3744 299.0613 -202.9967 -115.2791 31159.1939 -202.9967 -115.2791
ENERGY: 300000 3.7977 3.8990 3.7458 0.0000 -10604.2642 1367.7325 0.0000 0.0000 1809.7662 -7415.3231 303.5719 -9225.0892 -7534.9309 300.4642 -620.7448 -595.6939 31648.0009 -81.6408 -31.8653
ENERGY: 600000 4.0660 8.6302 4.7085 0.0000 -10838.0567 1473.4462 0.0000 0.0000 1775.3440 -7571.8619 297.7979 -9347.2059 -7543.0137 300.5918 179.5691 197.9208 30959.7509 -32.6028 18.2847
ENERGY: 900000 7.8280 5.7563 6.0856 0.0000 -10727.5726 1421.4472 0.0000 0.0000 1828.4905 -7457.9649 306.7128 -9286.4555 -7528.8782 301.9451 -252.6893 -162.8686 30802.0807 -72.2778 -6.4146
ENERGY: 1200000 10.0738 9.3936 7.4227 0.0000 -10961.5107 1532.7400 0.0000 0.0000 1756.5397 -7645.3410 294.6437 -9401.8807 -7548.5478 300.6737 180.1525 233.2714 30794.4511 -104.1568 -36.0845
ENERGY: 1500000 4.0444 10.7610 7.3902 0.0000 -10643.4674 1431.2320 0.0000 0.0000 1767.3399 -7422.7000 296.4553 -9190.0399 -7546.4715 299.7461 234.0877 301.0191 30871.7033 -62.4335 0.6874
TCL: Running FEP window  20: Lambda1 0.9500000000000003 Lambda2 1.0    [dLambda 0.04999999999999971]
TCL: Setting parameter firsttimestep to 0
TCL: Setting parameter alchLambda to 0.9500000000000003
Info: NONBONDED TABLE R-SQUARED SPACING: 0.0625
Info: NONBONDED TABLE SIZE: 705 POINTS
TCL: Setting parameter alchLambda2 to 1.0
Info: NONBONDED TABLE R-SQUARED SPACING: 0.0625
Info: NONBONDED TABLE SIZE: 705 POINTS
TCL: Running for 1500000 steps
ETITLE: TS BOND ANGLE DIHED IMPRP ELECT VDW BOUNDARY MISC KINETIC TOTAL TEMP POTENTIAL TOTALAVG TEMPAVG PRESSURE GPRESSURE VOLUME PRESSAVG GPRESSAVG
ENERGY: 0 4.0443 10.7610 7.3902 0.0000 -10644.4833 1430.8166 0.0000 0.0000 1766.4644 -7425.0067 296.3084 -9191.4711 -7425.0067 296.3084 232.0534 310.5269 30871.7033 232.0534 310.5269
ENERGY: 300000 1.5959 7.2502 5.3877 0.0000 -10760.3540 1398.6483 0.0000 0.0000 1798.0493 -7549.4226 301.6065 -9347.4719 -7499.3290 300.7671 -523.6825 -384.2902 31184.5802 -36.3749 54.1881
ENERGY: 600000 3.3652 7.7492 6.1353 0.0000 -10721.7082 1387.8849 0.0000 0.0000 1774.7150 -7541.8586 297.6924 -9316.5736 -7519.1906 300.3198 -546.9187 -515.6380 31074.5195 -235.0031 -154.6895
ENERGY: 900000 8.9064 10.2730 7.9194 0.0000 -10781.8791 1433.0846 0.0000 0.0000 1798.3778 -7523.3178 301.6616 -9321.6956 -7516.9879 301.0851 -280.7625 -197.7174 30972.5349 -309.5762 -228.2084
ENERGY: 1200000 4.5681 6.9267 2.9704 0.0000 -10967.3408 1550.2636 0.0000 0.0000 1787.0237 -7615.5884 299.7571 -9402.6120 -7539.9730 300.0574 309.7931 390.2267 30824.9881 -182.6074 -106.2587
ENERGY: 1500000 4.7584 9.3772 3.6396 0.0000 -10893.0181 1545.7863 0.0000 0.0000 1827.2031 -7502.2535 306.4968 -9329.4566 -7544.7757 301.1499 1058.4434 1144.5719 30214.9561 -118.0034 -34.6406
TCL: Exiting due to exit command.
