Info: SIMULATION PARAMETERS:
Info: TIMESTEP               2
Info: NUMBER OF STEPS        0
Info: STEPS PER CYCLE        10
Info: PERIODIC CELL BASIS 1  32.1057 0 0
Info: PERIODIC CELL BASIS 2  0 30.1757 0
Info: PERIODIC CELL BASIS 3  0 0 32.0331
Info: PERIODIC CELL CENTER   0 0 0
Info: WRAPPING WATERS AROUND PERIODIC BOUNDARIES ON OUTPUT.
Info: WRAPPING ALL CLUSTERS AROUND PERIODIC BOUNDARIES ON OUTPUT.
Info: FIRST LDB TIMESTEP     50
Info: LAST LDB TIMESTEP     -1
Info: HOM BACKGROUND SCALING 1
Info: PME BACKGROUND SCALING 1
Info: MIN ATOMS PER PATCH    40
Info: EMPTY PATCH LOAD       40 ATOMS
Info: VELOCITY FILE          mobley_2681549_equil.vel
Info: CENTER OF MASS MOVING INITIALLY? NO
Info: DIELECTRIC             1
Info: EXCLUDE                SCALED ONE-FOUR
Info: 1-4 ELECTROSTATICS SCALED BY 0.833333
Info: MODIFIED 1-4 VDW PARAMETERS WILL BE USED
Info: DCD FILENAME           mobley_2681549_prod.dcd
Info: DCD FREQUENCY          100000
Info: DCD FIRST STEP         100000
Info: DCD FILE WILL CONTAIN UNIT CELL DATA
Info: XST FILENAME           mobley_2681549_prod.xst
Info: XST FREQUENCY          100000
Info: NO VELOCITY DCD OUTPUT
Info: NO FORCE DCD OUTPUT
Info: OUTPUT FILENAME        mobley_2681549_prod
Info: BINARY OUTPUT FILES WILL BE USED
Info: RESTART FILENAME       mobley_2681549_prod.restart
Info: RESTART FREQUENCY      100000
Info: BINARY RESTART FILES WILL BE USED
Info: CUTOFF                 9
Info: PAIRLIST DISTANCE      11
Info: PAIRLIST SHRINK RATE   0.01
Info: PAIRLIST GROW RATE     0.01
Info: PAIRLIST TRIGGER       0.3
Info: PAIRLISTS PER CYCLE    2
Info: PAIRLISTS ENABLED
Info: MARGIN                 2
Info: HYDROGEN GROUP CUTOFF  2.5
Info: PATCH DIMENSION        15.5
Info: ENERGY OUTPUT STEPS    100000
Info: ENERGY EVALUATION STEPS    100000
Info: OUTPUT ENERGY PRECISION 4
Info: CROSSTERM ENERGY INCLUDED IN DIHEDRAL
Info: TIMING OUTPUT STEPS    1000000
Info: PRESSURE OUTPUT STEPS  100000
Info: ALCHEMICAL FEP ON
Info: FEP CURRENT LAMBDA VALUE     0
Info: FEP COMPARISON LAMBDA VALUE  0.05
Info: FEP INTRA-ALCHEMICAL NON-BONDED INTERACTIONS WILL BE RETAINED
Info: FEP INTRA-ALCHEMICAL BONDED INTERACTIONS WILL BE RETAINED
Info: FEP VDW SHIFTING COEFFICIENT 5
Info: FEP ELEC. ACTIVE FOR ANNIHILATED PARTICLES BETWEEN LAMBDA = 0 AND LAMBDA = 0.5
Info: FEP ELEC. ACTIVE FOR EXNIHILATED PARTICLES BETWEEN LAMBDA = 0.5 AND LAMBDA = 1
Info: FEP VDW ACTIVE FOR ANNIHILATED PARTICLES BETWEEN LAMBDA = 0 AND LAMBDA = 1
Info: FEP VDW ACTIVE FOR EXNIHILATED PARTICLES BETWEEN LAMBDA = 0 AND LAMBDA = 1
Info: FEP BOND ACTIVE FOR ANNIHILATED PARTICLES BETWEEN LAMBDA = 1 AND LAMBDA = 1
Info: FEP BOND ACTIVE FOR EXNIHILATED PARTICLES BETWEEN LAMBDA = 0 AND LAMBDA = 0
Info: LANGEVIN DYNAMICS ACTIVE
Info: LANGEVIN TEMPERATURE   300
Info: LANGEVIN USING BBK INTEGRATOR
Info: LANGEVIN DAMPING COEFFICIENT IS 1 INVERSE PS
Info: LANGEVIN DYNAMICS APPLIED TO HYDROGENS
Info: LANGEVIN PISTON PRESSURE CONTROL ACTIVE
Info:        TARGET PRESSURE IS 1.01325 BAR
Info:     OSCILLATION PERIOD IS 50 FS
Info:             DECAY TIME IS 25 FS
Info:     PISTON TEMPERATURE IS 300 K
Info:       PRESSURE CONTROL IS GROUP-BASED
Info:    INITIAL STRAIN RATE IS 0.000106542 0.000106542 0.000106542
Info:       CELL FLUCTUATION IS ISOTROPIC
Info: PARTICLE MESH EWALD (PME) ACTIVE
Info: PME TOLERANCE               1e-06
Info: PME EWALD COEFFICIENT       0.348832
Info: PME INTERPOLATION ORDER     4
Info: PME GRID DIMENSIONS         36 32 36
Info: PME MAXIMUM GRID SPACING    1
Info: PME CALCULATION WILL BE PERFORMED ON GPU
Info: FULL ELECTROSTATIC EVALUATION FREQUENCY      2
Info: USING VERLET I (r-RESPA) MTS SCHEME.
Info: C1 SPLITTING OF LONG RANGE ELECTROSTATICS
Info: PLACING ATOMS IN PATCHES BY HYDROGEN GROUPS
Info: RIGID BONDS TO HYDROGEN : ALL
Info:         ERROR TOLERANCE : 1e-08
Info:          MAX ITERATIONS : 100
Info: RIGID WATER USING SETTLE ALGORITHM
Info: RANDOM NUMBER SEED     1743522648
Info: USE HYDROGEN BONDS?    NO
Info: Using AMBER format force field!
Info: AMBER PARM FILE        mobley_2681549.prmtop
Info: COORDINATE PDB         mobley_2681549.pdb
Info: Exclusions will be read from PARM file!
Info: SCNB (VDW SCALING)     2
Info: USING ARITHMETIC MEAN TO COMBINE L-J SIGMA PARAMETERS
Info: BINARY COORDINATES     mobley_2681549_equil.coor
Info: SUMMARY OF PARAMETERS:
Info: 5 BONDS
Info: 3 ANGLES
Info:   3 HARMONIC
Info:   0 COSINE-BASED
Info: 2 DIHEDRAL
Info: 0 IMPROPER
Info: 0 CROSSTERM
Info: 0 VDW
Info: 15 VDW_PAIRS
Info: 0 NBTHOLE_PAIRS
Info: To read alchdata from file: mobley_2681549.pdb
Info: To read alchflag data from column: 5
Info: STRUCTURE SUMMARY:
Info: 2991 ATOMS
Info: 2991 BONDS
Info: 18 ANGLES
Info: 30 DIHEDRALS
Info: 0 IMPROPERS
Info: 0 CROSSTERMS
Info: 3030 EXCLUSIONS
Info: 2982 RIGID BONDS
Info: ALCH: 0 ATOMS TO DISAPPEAR IN FINAL STATE
Info: ALCH: 12 ATOMS TO APPEAR IN FINAL STATE
Info: 5991 DEGREES OF FREEDOM
Info: 1002 HYDROGEN GROUPS
Info: 3 ATOMS IN LARGEST HYDROGEN GROUP
Info: 1002 MIGRATION GROUPS
Info: 3 ATOMS IN LARGEST MIGRATION GROUP
Info: TOTAL MASS = 18071.3 amu
Info: TOTAL CHARGE = 0.000199992 e
Info: MASS DENSITY = 0.966968 g/cm^3
Info: ATOM DENSITY = 0.0963783 atoms/A^3
Info: ADDED 0 IMPLICIT EXCLUSIONS
Info: NONBONDED TABLE R-SQUARED SPACING: 0.0625
Info: NONBONDED TABLE SIZE: 705 POINTS
Info: REMOVING COM VELOCITY -0.0681478 -0.00894377 -0.180924
Info: Use 3D box decompostion in PME FFT.
Info: Updated CUDA force table with 4096 elements.
Info: Updated CUDA LJ table with 5 x 5 elements.
Info: Found 14 unique exclusion lists needing 24 bytes
TCL: Running for 1500000 steps
ETITLE: TS BOND ANGLE DIHED IMPRP ELECT VDW BOUNDARY MISC KINETIC TOTAL TEMP POTENTIAL TOTALAVG TEMPAVG PRESSURE GPRESSURE VOLUME PRESSAVG GPRESSAVG
ENERGY: 0 5.1495 1.4448 1.7848 0.0000 -10840.1506 1518.1048 0.0000 0.0000 1742.0031 -7571.6636 292.6442 -9313.6666 -7571.6636 292.6442 296.7246 371.4022 31033.9550 296.7246 371.4022
ENERGY: 300000 3.5252 3.0099 1.4129 0.0000 -10708.8754 1379.5297 0.0000 0.0000 1788.2153 -7533.1825 300.4076 -9321.3978 -7571.7672 301.3191 -435.0424 -367.0653 30991.1324 -233.2523 -154.3326
ENERGY: 600000 1.7238 1.6859 3.3519 0.0000 -10692.5004 1369.7169 0.0000 0.0000 1801.2979 -7514.7239 302.6054 -9316.0219 -7552.9442 302.6875 -733.0033 -714.9767 31342.1243 -258.7109 -196.7743
ENERGY: 900000 2.1591 5.3390 5.1556 0.0000 -10916.6173 1475.1324 0.0000 0.0000 1783.2803 -7645.5509 299.5785 -9428.8312 -7562.1514 302.8002 83.9372 125.3890 30506.4624 -95.0054 -31.6973
ENERGY: 1200000 2.4205 2.6280 1.8824 0.0000 -10917.7226 1452.3758 0.0000 0.0000 1813.6438 -7644.7721 304.6794 -9458.4159 -7586.3167 302.6125 -112.1998 1.3790 30108.3180 -99.1616 -22.7577
ENERGY: 1500000 3.1712 3.4582 2.0143 0.0000 -10922.1590 1512.5240 0.0000 0.0000 1746.7614 -7654.2299 293.4436 -9400.9912 -7592.1142 301.5837 288.6363 330.2691 31005.9049 -69.1190 2.8584
TCL: Running FEP window   2: Lambda1 0.05   Lambda2 0.1    [dLambda 0.05  ]
TCL: Setting parameter firsttimestep to 0
TCL: Setting parameter alchLambda to 0.05
Info: NONBONDED TABLE R-SQUARED SPACING: 0.0625
Info: NONBONDED TABLE SIZE: 705 POINTS
TCL: Setting parameter alchLambda2 to 0.1
Info: NONBONDED TABLE R-SQUARED SPACING: 0.0625
Info: NONBONDED TABLE SIZE: 705 POINTS
TCL: Running for 1500000 steps
ETITLE: TS BOND ANGLE DIHED IMPRP ELECT VDW BOUNDARY MISC KINETIC TOTAL TEMP POTENTIAL TOTALAVG TEMPAVG PRESSURE GPRESSURE VOLUME PRESSAVG GPRESSAVG
ENERGY: 0 3.1712 3.4582 2.0143 0.0000 -10922.1586 1517.7496 0.0000 0.0000 1745.8383 -7649.9270 293.2885 -9395.7653 -7649.9270 293.2885 261.1436 339.7957 31005.9049 261.1436 339.7957
ENERGY: 300000 1.1212 3.4472 1.3374 0.0000 -10893.4518 1593.4993 0.0000 0.0000 1770.8518 -7523.1949 297.4906 -9294.0467 -7589.2535 299.2324 1132.5840 1281.5835 30642.9510 61.6201 144.8898
ENERGY: 600000 5.5063 3.1287 3.4120 0.0000 -10870.6217 1423.6154 0.0000 0.0000 1766.8702 -7668.0891 296.8217 -9434.9592 -7597.3832 299.8611 -524.0659 -481.1747 30806.2873 -45.0389 16.2384
ENERGY: 900000 1.9721 4.0044 4.9858 0.0000 -10908.6801 1487.5305 0.0000 0.0000 1844.6124 -7565.5749 309.8819 -9410.1873 -7612.1848 300.2175 69.8513 114.4451 30681.2097 28.0063 85.4960
ENERGY: 1200000 0.6491 4.3393 1.5785 0.0000 -10783.7269 1382.0680 0.0000 0.0000 1788.3476 -7606.7444 300.4298 -9395.0920 -7618.3781 299.7978 -544.8585 -549.5686 30749.0783 -13.4328 26.9300
ENERGY: 1500000 1.6526 3.0854 1.8208 0.0000 -10836.1273 1443.1886 0.0000 0.0000 1803.7413 -7582.6387 303.0158 -9386.3799 -7604.7187 300.6862 -348.1686 -306.7227 30699.5485 29.1259 76.6506
TCL: Running FEP window   3: Lambda1 0.1    Lambda2 0.15000000000000002 [dLambda 0.05000000000000002]
TCL: Setting parameter firsttimestep to 0
TCL: Setting parameter alchLambda to 0.1
Info: NONBONDED TABLE R-SQUARED SPACING: 0.0625
Info: NONBONDED TABLE SIZE: 705 POINTS
TCL: Setting parameter alchLambda2 to 0.15000000000000002
Info: NONBONDED TABLE R-SQUARED SPACING: 0.0625
Info: NONBONDED TABLE SIZE: 705 POINTS
TCL: Running for 1500000 steps
ETITLE: TS BOND ANGLE DIHED IMPRP ELECT VDW BOUNDARY MISC KINETIC TOTAL TEMP POTENTIAL TOTALAVG TEMPAVG PRESSURE GPRESSURE VOLUME PRESSAVG GPRESSAVG
ENERGY: 0 1.6526 3.0854 1.8208 0.0000 -10836.1268 1445.5629 0.0000 0.0000 1802.8539 -7581.1513 302.8668 -9384.0052 -7581.1513 302.8668 -374.4426 -294.2798 30699.5485 -374.4426 -294.2798
ENERGY: 300000 1.1995 2.9797 2.9628 0.0000 -10740.7723 1428.9474 0.0000 0.0000 1769.9664 -7534.7165 297.3419 -9304.6830 -7559.8574 300.7602 110.7614 178.5611 30620.3269 120.6380 175.5609
ENERGY: 600000 2.8842 1.0876 3.5466 0.0000 -10727.4879 1366.6041 0.0000 0.0000 1787.0534 -7566.3120 300.2124 -9353.3654 -7590.7234 299.8570 -849.4156 -774.7984 31195.4227 -87.5512 -21.9686
ENERGY: 900000 1.8830 3.2967 1.5484 0.0000 -10887.4536 1496.4166 0.0000 0.0000 1723.4209 -7660.8880 289.5226 -9384.3089 -7605.2907 297.9062 448.4897 540.3425 30387.0255 -161.8300 -97.9350
ENERGY: 1200000 2.5746 4.4269 2.7334 0.0000 -10888.0233 1493.2507 0.0000 0.0000 1794.8185 -7590.2193 301.5169 -9385.0379 -7611.5331 298.1958 246.5689 325.2062 30742.4146 -79.5972 -16.6876
ENERGY: 1500000 4.5042 1.5352 1.7877 0.0000 -10879.4358 1532.4318 0.0000 0.0000 1861.7443 -7477.4325 312.7599 -9339.1769 -7605.9066 299.3192 514.3786 625.2876 30632.5555 -79.9426 -11.0399
TCL: Running FEP window   4: Lambda1 0.15000000000000002 Lambda2 0.2    [dLambda 0.04999999999999999]
TCL: Setting parameter firsttimestep to 0
TCL: Setting parameter alchLambda to 0.15000000000000002
Info: NONBONDED TABLE R-SQUARED SPACING: 0.0625
Info: NONBONDED TABLE SIZE: 705 POINTS
TCL: Setting parameter alchLambda2 to 0.2
Info: NONBONDED TABLE R-SQUARED SPACING: 0.0625
Info: NONBONDED TABLE SIZE: 705 POINTS
TCL: Running for 1500000 steps
ETITLE: TS BOND ANGLE DIHED IMPRP ELECT VDW BOUNDARY MISC KINETIC TOTAL TEMP POTENTIAL TOTALAVG TEMPAVG PRESSURE GPRESSURE VOLUME PRESSAVG GPRESSAVG
ENERGY: 0 4.5042 1.5352 1.7877 0.0000 -10879.4357 1533.6946 0.0000 0.0000 1860.8490 -7477.0650 312.6095 -9337.9141 -7477.0650 312.6095 540.7352 634.3914 30632.5555 540.7352 634.3914
ENERGY: 300000 4.1571 2.8920 1.8665 0.0000 -10730.9575 1433.9822 0.0000 0.0000 1824.2855 -7463.7742 306.4671 -9288.0597 -7553.8328 302.6538 -93.9351 -65.6860 31397.6984 271.0077 327.0674
ENERGY: 600000 4.1565 1.2578 2.2359 0.0000 -11020.4220 1528.6345 0.0000 0.0000 1777.1055 -7707.0317 298.5412 -9484.1373 -7559.8726 302.1985 106.1039 147.7182 30646.6019 240.9317 294.0815
ENERGY: 900000 4.3554 4.2369 7.6208 0.0000 -10813.7881 1416.4040 0.0000 0.0000 1774.5177 -7606.6532 298.1065 -9381.1709 -7575.2979 300.9450 -495.5194 -387.2747 30500.3958 38.3828 100.5055
ENERGY: 1200000 3.4489 1.5413 2.3973 0.0000 -11010.3465 1521.6563 0.0000 0.0000 1752.6290 -7728.6736 294.4293 -9481.3027 -7588.9719 300.1905 -35.5032 8.7369 30770.0856 73.5676 136.4558
ENERGY: 1500000 2.1025 5.2268 1.5983 0.0000 -10781.3967 1476.5136 0.0000 0.0000 1743.2983 -7552.6572 292.8618 -9295.9554 -7593.7370 299.5876 111.1964 204.8941 31175.8079 121.1572 178.7668
TCL: Running FEP window   5: Lambda1 0.2    Lambda2 0.25   [dLambda 0.04999999999999999]
TCL: Setting parameter firsttimestep to 0
TCL: Setting parameter alchLambda to 0.2
Info: NONBONDED TABLE R-SQUARED SPACING: 0.0625
Info: NONBONDED TABLE SIZE: 705 POINTS
TCL: Setting parameter alchLambda2 to 0.25
Info: NONBONDED TABLE R-SQUARED SPACING: 0.0625
Info: NONBONDED TABLE SIZE: 705 POINTS
TCL: Running for 1500000 steps
ETITLE: TS BOND ANGLE DIHED IMPRP ELECT VDW BOUNDARY MISC KINETIC TOTAL TEMP POTENTIAL TOTALAVG TEMPAVG PRESSURE GPRESSURE VOLUME PRESSAVG GPRESSAVG
ENERGY: 0 2.1025 5.2268 1.5983 0.0000 -10781.3969 1476.5431 0.0000 0.0000 1742.3997 -7553.5265 292.7109 -9295.9262 -7553.5265 292.7109 142.8235 208.0779 31175.8079 142.8235 208.0779
ENERGY: 300000 2.6719 2.9549 3.6185 0.0000 -10740.1489 1316.7245 0.0000 0.0000 1775.3297 -7638.8495 298.2429 -9414.1792 -7573.1531 299.4498 -1291.1857 -1240.7200 30994.3688 -407.4600 -344.1764
ENERGY: 600000 4.6803 3.4567 1.5835 0.0000 -10975.4482 1593.2549 0.0000 0.0000 1725.9939 -7646.4789 289.9548 -9372.4728 -7580.1566 298.9272 1098.7342 1107.6539 30781.6387 -195.4498 -136.5465
ENERGY: 900000 2.7978 1.7965 1.2757 0.0000 -10817.9931 1405.5569 0.0000 0.0000 1830.4698 -7576.0964 307.5060 -9406.5661 -7584.8031 299.7359 -684.8253 -605.6113 31117.8284 -370.1245 -304.1521
ENERGY: 1200000 4.8326 3.2654 1.7498 0.0000 -10979.8744 1567.5916 0.0000 0.0000 1795.1628 -7607.2723 301.5747 -9402.4350 -7583.7837 300.4227 771.7263 875.8110 30673.9539 -177.1006 -105.7169
ENERGY: 1500000 3.8578 2.5528 5.1992 0.0000 -10942.4338 1469.0523 0.0000 0.0000 1753.2452 -7708.5265 294.5328 -9461.7717 -7581.5275 300.9061 -144.8054 -89.8453 30672.4279 -190.2300 -119.5179
TCL: Running FEP window   6: Lambda1 0.25   Lambda2 0.3    [dLambda 0.04999999999999999]
TCL: Setting parameter firsttimestep to 0
TCL: Setting parameter alchLambda to 0.25
Info: NONBONDED TABLE R-SQUARED SPACING: 0.0625
Info: NONBONDED TABLE SIZE: 705 POINTS
TCL: Setting parameter alchLambda2 to 0.3
Info: NONBONDED TABLE R-SQUARED SPACING: 0.0625
Info: NONBONDED TABLE SIZE: 705 POINTS
TCL: Running for 1500000 steps
ETITLE: TS BOND ANGLE DIHED IMPRP ELECT VDW BOUNDARY MISC KINETIC TOTAL TEMP POTENTIAL TOTALAVG TEMPAVG PRESSURE GPRESSURE VOLUME PRESSAVG GPRESSAVG
ENERGY: 0 3.8578 2.5528 5.1992 0.0000 -10942.4337 1471.7218 0.0000 0.0000 1752.3490 -7706.7531 294.3823 -9459.1021 -7706.7531 294.3823 -152.2318 -73.2479 30672.4279 -152.2318 -73.2479
ENERGY: 300000 5.7370 2.1213 1.6890 0.0000 -10860.9410 1490.4606 0.0000 0.0000 1820.0402 -7540.8929 305.7539 -9360.9331 -7597.3363 301.4821 261.5747 338.5834 30906.1622 57.1755 107.1998
ENERGY: 600000 1.3152 1.0603 4.8373 0.0000 -10811.6659 1427.4917 0.0000 0.0000 1826.4237 -7550.5376 306.8263 -9376.9613 -7591.8930 301.4341 -206.4166 -108.8620 30712.1026 -53.0306 0.5808
ENERGY: 900000 1.8263 2.4618 3.3569 0.0000 -10811.2489 1437.8003 0.0000 0.0000 1772.5400 -7593.2636 297.7742 -9365.8036 -7577.2601 301.0300 165.4689 232.7811 30078.7153 45.4325 98.6349
ENERGY: 1200000 3.6499 2.5462 2.5738 0.0000 -10765.8108 1366.0000 0.0000 0.0000 1713.1952 -7677.8457 287.8047 -9391.0408 -7602.5374 298.7497 -1138.5065 -1022.9523 31019.1796 -56.6161 5.2903
ENERGY: 1500000 2.6393 3.2413 5.1423 0.0000 -10863.1184 1473.6543 0.0000 0.0000 1838.5515 -7539.8898 308.8637 -9378.4413 -7594.9579 299.9827 148.3536 137.8230 30695.5003 -3.8899 49.8012
TCL: Running FEP window   7: Lambda1 0.3    Lambda2 0.35   [dLambda 0.04999999999999999]
TCL: Setting parameter firsttimestep to 0
TCL: Setting parameter alchLambda to 0.3
Info: NONBONDED TABLE R-SQUARED SPACING: 0.0625
Info: NONBONDED TABLE SIZE: 705 POINTS
TCL: Setting parameter alchLambda2 to 0.35
Info: NONBONDED TABLE R-SQUARED SPACING: 0.0625
Info: NONBONDED TABLE SIZE: 705 POINTS
TCL: Running for 1500000 steps
ETITLE: TS BOND ANGLE DIHED IMPRP ELECT VDW BOUNDARY MISC KINETIC TOTAL TEMP POTENTIAL TOTALAVG TEMPAVG PRESSURE GPRESSURE VOLUME PRESSAVG GPRESSAVG
ENERGY: 0 2.6393 3.2413 5.1423 0.0000 -10863.1170 1473.7132 0.0000 0.0000 1837.6803 -7540.7006 308.7173 -9378.3809 -7540.7006 308.7173 61.3625 142.3120 30695.5003 61.3625 142.3120
ENERGY: 300000 1.5846 1.6811 4.7607 0.0000 -10838.9386 1424.7224 0.0000 0.0000 1812.9963 -7593.1936 304.5706 -9406.1898 -7561.2149 305.1794 -278.3755 -197.5926 30654.6191 -81.2177 -6.1019
ENERGY: 600000 2.0058 2.3025 5.8261 0.0000 -10755.2861 1369.5073 0.0000 0.0000 1797.9002 -7577.7442 302.0346 -9375.6444 -7567.7798 305.0089 -744.0556 -678.7609 30940.1309 -193.8299 -123.7771
ENERGY: 900000 7.8894 3.1634 1.2855 0.0000 -10870.6326 1466.3804 0.0000 0.0000 1761.6758 -7630.2380 295.9491 -9391.9138 -7595.7872 302.3118 275.5394 364.3730 30445.6891 -115.5994 -43.7179
ENERGY: 1200000 3.7400 2.3879 1.5774 0.0000 -11004.0477 1548.7820 0.0000 0.0000 1794.4067 -7653.1536 301.4477 -9447.5604 -7604.1093 301.7208 465.4781 508.4614 30687.8591 -115.7256 -43.6611
ENERGY: 1500000 4.3283 1.9929 0.9123 0.0000 -10718.4032 1325.0314 0.0000 0.0000 1889.5740 -7496.5644 317.4351 -9386.1384 -7600.8758 302.2906 -1049.9917 -963.1029 30787.7954 -102.0460 -29.0565
TCL: Running FEP window   8: Lambda1 0.35   Lambda2 0.39999999999999997 [dLambda 0.04999999999999999]
TCL: Setting parameter firsttimestep to 0
TCL: Setting parameter alchLambda to 0.35
Info: NONBONDED TABLE R-SQUARED SPACING: 0.0625
Info: NONBONDED TABLE SIZE: 705 POINTS
TCL: Setting parameter alchLambda2 to 0.39999999999999997
Info: NONBONDED TABLE R-SQUARED SPACING: 0.0625
Info: NONBONDED TABLE SIZE: 705 POINTS
TCL: Running for 1500000 steps
ETITLE: TS BOND ANGLE DIHED IMPRP ELECT VDW BOUNDARY MISC KINETIC TOTAL TEMP POTENTIAL TOTALAVG TEMPAVG PRESSURE GPRESSURE VOLUME PRESSAVG GPRESSAVG
ENERGY: 0 4.3283 1.9929 0.9123 0.0000 -10718.4028 1325.0828 0.0000 0.0000 1888.7113 -7497.3752 317.2902 -9386.0865 -7497.3752 317.2902 -1039.2307 -956.4467 30787.7954 -1039.2307 -956.4467
ENERGY: 300000 3.3408 2.5012 2.5649 0.0000 -11053.8430 1581.2197 0.0000 0.0000 1781.3610 -7682.8554 299.2561 -9464.2164 -7584.5174 302.6598 919.2294 1015.8579 30561.2800 -263.0414 -176.9153
ENERGY: 600000 7.1185 0.8094 2.0785 0.0000 -10789.2151 1391.0670 0.0000 0.0000 1762.7668 -7625.3750 296.1324 -9388.1418 -7591.2543 299.2156 -673.3547 -617.1616 31154.9239 -281.7607 -203.3318
ENERGY: 900000 2.6852 1.6500 4.0863 0.0000 -10734.7709 1359.0707 0.0000 0.0000 1746.5319 -7620.7470 293.4050 -9367.2788 -7608.3480 298.2617 -997.1305 -940.5201 31190.1321 -449.1122 -376.6749
ENERGY: 1200000 2.7359 1.7477 3.4894 0.0000 -10639.9705 1305.2955 0.0000 0.0000 1771.3739 -7555.3280 297.5783 -9326.7019 -7606.5808 298.0730 -1319.3397 -1280.4006 31387.7238 -504.5983 -442.6955
ENERGY: 1500000 1.8372 0.8883 3.9286 0.0000 -10750.6361 1339.9085 0.0000 0.0000 1772.2922 -7631.7813 297.7326 -9404.0735 -7601.3699 298.8915 -1160.1034 -1190.4234 31370.0145 -392.1901 -336.2718
TCL: Running FEP window   9: Lambda1 0.39999999999999997 Lambda2 0.44999999999999996 [dLambda 0.04999999999999999]
TCL: Setting parameter firsttimestep to 0
TCL: Setting parameter alchLambda to 0.39999999999999997
Info: NONBONDED TABLE R-SQUARED SPACING: 0.0625
Info: NONBONDED TABLE SIZE: 705 POINTS
TCL: Setting parameter alchLambda2 to 0.44999999999999996
Info: NONBONDED TABLE R-SQUARED SPACING: 0.0625
Info: NONBONDED TABLE SIZE: 705 POINTS
TCL: Running for 1500000 steps
ETITLE: TS BOND ANGLE DIHED IMPRP ELECT VDW BOUNDARY MISC KINETIC TOTAL TEMP POTENTIAL TOTALAVG TEMPAVG PRESSURE GPRESSURE VOLUME PRESSAVG GPRESSAVG
ENERGY: 0 1.8372 0.8883 3.9286 0.0000 -10750.6365 1339.7681 0.0000 0.0000 1771.3807 -7632.8336 297.5795 -9404.2143 -7632.8336 297.5795 -1255.9365 -1184.4530 31370.0145 -1255.9365 -1184.4530
ENERGY: 300000 3.6154 2.5164 4.3599 0.0000 -10909.1412 1523.9875 0.0000 0.0000 1857.8945 -7516.7674 312.1132 -9374.6619 -7587.6696 298.9953 479.0128 561.6084 30866.2515 -165.5741 -107.7512
ENERGY: 600000 4.3137 2.6093 2.1865 0.0000 -10909.0317 1469.7326 0.0000 0.0000 1755.2602 -7674.9293 294.8714 -9430.1895 -7604.6111 298.2449 -47.4235 53.5157 30629.9858 -120.0755 -67.4925
ENERGY: 900000 2.0668 1.3768 3.5580 0.0000 -10801.8990 1454.8157 0.0000 0.0000 1742.9467 -7597.1350 292.8028 -9340.0817 -7594.4805 298.4386 -15.0100 37.6782 31366.0101 -131.7572 -70.4108
ENERGY: 1200000 2.9488 2.3050 2.0988 0.0000 -10746.2039 1385.1961 0.0000 0.0000 1759.3315 -7594.3238 295.5553 -9353.6553 -7592.4546 299.5021 -836.5497 -771.9440 31443.6713 -84.6700 -25.4584
ENERGY: 1500000 5.7517 4.1409 1.5327 0.0000 -10887.1325 1479.1416 0.0000 0.0000 1805.9485 -7590.6171 303.3866 -9396.5657 -7597.9062 299.1415 -27.9526 31.2566 30852.3961 -80.8465 -21.4332
TCL: Running FEP window  10: Lambda1 0.44999999999999996 Lambda2 0.49999999999999994 [dLambda 0.04999999999999999]
TCL: Setting parameter firsttimestep to 0
TCL: Setting parameter alchLambda to 0.44999999999999996
Info: NONBONDED TABLE R-SQUARED SPACING: 0.0625
Info: NONBONDED TABLE SIZE: 705 POINTS
TCL: Setting parameter alchLambda2 to 0.49999999999999994
Info: NONBONDED TABLE R-SQUARED SPACING: 0.0625
Info: NONBONDED TABLE SIZE: 705 POINTS
TCL: Running for 1500000 steps
ETITLE: TS BOND ANGLE DIHED IMPRP ELECT VDW BOUNDARY MISC KINETIC TOTAL TEMP POTENTIAL TOTALAVG TEMPAVG PRESSURE GPRESSURE VOLUME PRESSAVG GPRESSAVG
ENERGY: 0 5.7517 4.1409 1.5327 0.0000 -10887.1330 1479.1145 0.0000 0.0000 1805.0718 -7591.5215 303.2393 -9396.5933 -7591.5215 303.2393 -58.2447 35.9267 30852.3961 -58.2447 35.9267
ENERGY: 300000 1.4185 3.2475 1.7489 0.0000 -11066.5833 1531.6804 0.0000 0.0000 1825.0135 -7703.4746 306.5894 -9528.4880 -7638.4835 303.2082 512.3333 545.2631 30089.2521 555.6040 611.6086
ENERGY: 600000 2.2991 2.7658 1.2075 0.0000 -10892.8429 1430.7781 0.0000 0.0000 1773.0470 -7682.7454 297.8594 -9455.7925 -7643.6328 299.6002 -496.2520 -362.8353 30437.5388 87.6612 153.7923
ENERGY: 900000 2.8820 2.5226 5.0758 0.0000 -10788.7655 1457.4497 0.0000 0.0000 1772.0362 -7548.7993 297.6896 -9320.8354 -7615.4356 299.2320 -11.5826 -6.9354 31056.8969 64.5625 118.1649
ENERGY: 1200000 3.3504 2.0833 0.9418 0.0000 -10847.3549 1469.7695 0.0000 0.0000 1821.3974 -7549.8125 305.9819 -9371.2099 -7611.7498 299.1018 -338.8581 -210.6640 31374.2453 -61.8870 0.4444
ENERGY: 1500000 3.8925 2.0883 4.7348 0.0000 -10928.8985 1496.6194 0.0000 0.0000 1766.6726 -7654.8909 296.7885 -9421.5635 -7623.1696 298.4622 84.2527 129.1738 30616.0134 -18.5762 44.2493
TCL: Running FEP window  11: Lambda1 0.49999999999999994 Lambda2 0.5499999999999999 [dLambda 0.04999999999999999]
TCL: Setting parameter firsttimestep to 0
TCL: Setting parameter alchLambda to 0.49999999999999994
Info: NONBONDED TABLE R-SQUARED SPACING: 0.0625
Info: NONBONDED TABLE SIZE: 705 POINTS
TCL: Setting parameter alchLambda2 to 0.5499999999999999
Info: NONBONDED TABLE R-SQUARED SPACING: 0.0625
Info: NONBONDED TABLE SIZE: 705 POINTS
TCL: Running for 1500000 steps
ETITLE: TS BOND ANGLE DIHED IMPRP ELECT VDW BOUNDARY MISC KINETIC TOTAL TEMP POTENTIAL TOTALAVG TEMPAVG PRESSURE GPRESSURE VOLUME PRESSAVG GPRESSAVG
ENERGY: 0 3.8926 2.0883 4.7348 0.0000 -10928.8993 1496.6215 0.0000 0.0000 1765.7720 -7655.7902 296.6373 -9421.5622 -7655.7902 296.6373 52.9504 136.1581 30616.0134 52.9504 136.1581
ENERGY: 300000 0.6487 1.8947 3.3801 0.0000 -10893.1521 1437.1532 0.0000 0.0000 1815.4269 -7634.6486 304.9789 -9450.0754 -7600.9460 300.6430 -173.2264 -126.1973 30695.2380 -83.1550 5.3385
ENERGY: 600000 4.8602 1.5433 1.9864 0.0000 -10870.9470 1463.0054 0.0000 0.0000 1820.5874 -7578.9644 305.8459 -9399.5518 -7615.7947 300.7688 40.9240 126.0500 30645.6364 -198.1832 -122.3628
ENERGY: 900000 1.9621 2.9390 1.8206 0.0000 -10701.9115 1354.9902 0.0000 0.0000 1857.3522 -7482.8474 312.0221 -9340.1996 -7597.5397 301.9030 -705.2166 -645.4089 31231.4493 -301.1439 -241.2151
ENERGY: 1200000 2.8198 2.4596 4.1097 0.0000 -10786.2294 1442.9880 0.0000 0.0000 1800.9585 -7532.8939 302.5483 -9333.8525 -7599.0372 301.7135 -27.3524 55.4095 30393.5940 -249.9162 -194.8327
ENERGY: 1500000 0.6674 5.9561 1.1145 0.0000 -10741.2702 1369.1920 0.0000 0.0000 1793.2408 -7571.0993 301.2518 -9364.3401 -7596.3486 301.8380 -621.7258 -596.8528 30823.2462 -227.8788 -175.4919
TCL: Running FEP window  12: Lambda1 0.5499999999999999 Lambda2 0.6    [dLambda 0.050000000000000044]
TCL: Setting parameter firsttimestep to 0
TCL: Setting parameter alchLambda to 0.5499999999999999
Info: NONBONDED TABLE R-SQUARED SPACING: 0.0625
Info: NONBONDED TABLE SIZE: 705 POINTS
TCL: Setting parameter alchLambda2 to 0.6
Info: NONBONDED TABLE R-SQUARED SPACING: 0.0625
Info: NONBONDED TABLE SIZE: 705 POINTS
TCL: Running for 1500000 steps
ETITLE: TS BOND ANGLE DIHED IMPRP ELECT VDW BOUNDARY MISC KINETIC TOTAL TEMP POTENTIAL TOTALAVG TEMPAVG PRESSURE GPRESSURE VOLUME PRESSAVG GPRESSAVG
ENERGY: 0 0.6674 5.9561 1.1145 0.0000 -10741.1554 1368.6758 0.0000 0.0000 1792.3499 -7572.3916 301.1022 -9364.7415 -7572.3916 301.1022 -686.1007 -594.5809 30823.2462 -686.1007 -594.5809
ENERGY: 300000 1.9383 2.3200 1.7494 0.0000 -10850.4685 1484.0425 0.0000 0.0000 1740.7734 -7619.6449 292.4377 -9360.4183 -7575.1348 301.0325 166.8505 203.1863 30711.3612 -303.5452 -244.1538
ENERGY: 600000 2.9437 1.3755 1.7107 0.0000 -10741.3419 1403.3810 0.0000 0.0000 1806.7789 -7525.1523 303.5261 -9331.9311 -7574.6714 300.7889 -89.1681 -91.9537 30757.5147 -441.1948 -379.3081
ENERGY: 900000 2.1665 1.7904 3.3077 0.0000 -10794.7131 1393.1771 0.0000 0.0000 1793.2713 -7601.0001 301.2569 -9394.2713 -7578.3004 301.3922 -570.0813 -482.5656 30685.5711 -390.1156 -320.6366
ENERGY: 1200000 0.9327 3.5024 4.3443 0.0000 -10879.1419 1452.5971 0.0000 0.0000 1838.1803 -7579.5852 308.8013 -9417.7654 -7584.0310 300.8184 -86.3750 -53.0230 30852.2286 -448.3814 -384.3569
ENERGY: 1500000 1.9655 5.8437 1.9001 0.0000 -10866.3937 1446.1903 0.0000 0.0000 1819.4320 -7591.0621 305.6517 -9410.4940 -7590.4887 300.3693 -202.4573 -102.6394 30842.4909 -357.6703 -290.5079
TCL: Running FEP window  13: Lambda1 0.6    Lambda2 0.65   [dLambda 0.050000000000000044]
TCL: Setting parameter firsttimestep to 0
TCL: Setting parameter alchLambda to 0.6
Info: NONBONDED TABLE R-SQUARED SPACING: 0.0625
Info: NONBONDED TABLE SIZE: 705 POINTS
TCL: Setting parameter alchLambda2 to 0.65
Info: NONBONDED TABLE R-SQUARED SPACING: 0.0625
Info: NONBONDED TABLE SIZE: 705 POINTS
TCL: Running for 1500000 steps
ETITLE: TS BOND ANGLE DIHED IMPRP ELECT VDW BOUNDARY MISC KINETIC TOTAL TEMP POTENTIAL TOTALAVG TEMPAVG PRESSURE GPRESSURE VOLUME PRESSAVG GPRESSAVG
ENERGY: 0 1.9655 5.8437 1.9001 0.0000 -10866.5835 1446.9320 0.0000 0.0000 1818.5352 -7591.4070 305.5011 -9409.9421 -7591.4070 305.5011 -170.3494 -86.6124 30842.4909 -170.3494 -86.6124
ENERGY: 300000 1.4786 3.5681 5.5409 0.0000 -10776.6872 1465.3993 0.0000 0.0000 1744.6852 -7556.0151 293.0948 -9300.7003 -7604.7510 300.8426 338.6401 436.0190 30823.0229 102.1845 163.9853
ENERGY: 600000 3.5044 1.7462 1.8234 0.0000 -10806.5891 1390.1445 0.0000 0.0000 1745.1257 -7664.2448 293.1688 -9409.3705 -7611.4114 299.6928 -783.0530 -723.4926 31479.8638 -61.1322 -3.3939
ENERGY: 900000 1.7457 1.4879 4.0889 0.0000 -10680.4732 1353.1351 0.0000 0.0000 1739.6319 -7580.3838 292.2459 -9320.0157 -7606.6878 299.4275 -923.3730 -894.4975 31489.2220 -122.3208 -67.6155
ENERGY: 1200000 3.5191 4.1744 4.4093 0.0000 -10727.9713 1392.3551 0.0000 0.0000 1803.7864 -7519.7269 303.0234 -9323.5133 -7605.1223 299.6606 -650.3652 -588.9896 31156.7248 -153.5141 -93.6453
ENERGY: 1500000 2.2390 3.4145 2.1901 0.0000 -10696.9701 1453.0049 0.0000 0.0000 1837.4052 -7398.7164 308.6711 -9236.1216 -7584.5453 300.8661 135.1823 144.7228 31326.8340 -151.0575 -95.2994
TCL: Running FEP window  14: Lambda1 0.65   Lambda2 0.7000000000000001 [dLambda 0.050000000000000044]
TCL: Setting parameter firsttimestep to 0
TCL: Setting parameter alchLambda to 0.65
Info: NONBONDED TABLE R-SQUARED SPACING: 0.0625
Info: NONBONDED TABLE SIZE: 705 POINTS
TCL: Setting parameter alchLambda2 to 0.7000000000000001
Info: NONBONDED TABLE R-SQUARED SPACING: 0.0625
Info: NONBONDED TABLE SIZE: 705 POINTS
TCL: Running for 1500000 steps
ETITLE: TS BOND ANGLE DIHED IMPRP ELECT VDW BOUNDARY MISC KINETIC TOTAL TEMP POTENTIAL TOTALAVG TEMPAVG PRESSURE GPRESSURE VOLUME PRESSAVG GPRESSAVG
ENERGY: 0 2.2389 3.4145 2.1901 0.0000 -10696.4579 1453.5760 0.0000 0.0000 1836.5181 -7398.5204 308.5221 -9235.0384 -7398.5204 308.5221 78.8088 162.7917 31326.8340 78.8088 162.7917
ENERGY: 300000 2.5867 3.9502 3.6031 0.0000 -10811.6045 1441.1970 0.0000 0.0000 1762.4376 -7597.8300 296.0771 -9360.2676 -7531.7567 301.3260 -172.9060 -78.9871 30870.3429 -97.1710 -24.0567
ENERGY: 600000 2.4597 2.0966 6.7973 0.0000 -10906.8522 1521.1462 0.0000 0.0000 1770.3570 -7603.9953 297.4075 -9374.3524 -7569.0761 299.8281 514.0476 626.0029 30516.6519 61.7912 148.4319
ENERGY: 900000 3.0067 1.9661 1.6257 0.0000 -10908.2068 1475.1419 0.0000 0.0000 1739.1806 -7687.2858 292.1701 -9426.4664 -7578.0074 299.4287 143.5414 217.2913 30694.1439 100.4955 181.5899
ENERGY: 1200000 2.6153 2.3891 1.4702 0.0000 -10849.8197 1481.7532 0.0000 0.0000 1774.4089 -7587.1830 298.0882 -9361.5919 -7590.9290 298.2620 244.2822 341.2038 30618.1732 186.5745 263.9852
ENERGY: 1500000 2.4327 5.9668 3.3939 0.0000 -10886.7902 1440.2560 0.0000 0.0000 1803.4999 -7631.2410 302.9753 -9434.7409 -7596.9961 299.3817 -307.7985 -180.0173 30731.7399 179.0446 253.8121
TCL: Running FEP window  15: Lambda1 0.7000000000000001 Lambda2 0.7500000000000001 [dLambda 0.050000000000000044]
TCL: Setting parameter firsttimestep to 0
TCL: Setting parameter alchLambda to 0.7000000000000001
Info: NONBONDED TABLE R-SQUARED SPACING: 0.0625
Info: NONBONDED TABLE SIZE: 705 POINTS
TCL: Setting parameter alchLambda2 to 0.7500000000000001
Info: NONBONDED TABLE R-SQUARED SPACING: 0.0625
Info: NONBONDED TABLE SIZE: 705 POINTS
TCL: Running for 1500000 steps
ETITLE: TS BOND ANGLE DIHED IMPRP ELECT VDW BOUNDARY MISC KINETIC TOTAL TEMP POTENTIAL TOTALAVG TEMPAVG PRESSURE GPRESSURE VOLUME PRESSAVG GPRESSAVG
ENERGY: 0 2.4327 5.9668 3.3939 0.0000 -10886.8933 1440.4363 0.0000 0.0000 1802.6208 -7632.0429 302.8276 -9434.6637 -7632.0429 302.8276 -267.8350 -169.6224 30731.7399 -267.8350 -169.6224
ENERGY: 300000 4.2542 3.0236 1.8392 0.0000 -10859.0698 1448.1926 0.0000 0.0000 1813.5894 -7588.1708 304.6702 -9401.7602 -7610.0127 304.4772 310.7262 328.6704 30315.9043 -278.5172 -224.1555
ENERGY: 600000 0.8236 0.7536 2.3119 0.0000 -10839.8655 1417.8187 0.0000 0.0000 1799.8911 -7618.2666 302.3690 -9418.1578 -7625.6318 299.6472 -131.5345 -45.2556 30410.9059 37.3512 99.0660
ENERGY: 900000 1.8742 4.6991 3.0288 0.0000 -10787.7068 1374.3030 0.0000 0.0000 1819.6244 -7584.1773 305.6841 -9403.8017 -7624.2504 300.2392 -646.2524 -591.6848 30687.9834 -47.4699 1.0049
ENERGY: 1200000 2.0586 1.6729 1.6802 0.0000 -10777.8288 1444.5887 0.0000 0.0000 1785.8640 -7541.9644 300.0126 -9327.8284 -7607.9548 299.9266 -231.7038 -186.7144 31410.4003 -177.1179 -122.6325
ENERGY: 1500000 2.7312 4.2382 0.4676 0.0000 -10853.2089 1491.4272 0.0000 0.0000 1860.5663 -7493.7784 312.5620 -9354.3447 -7600.4711 300.5184 375.7248 430.9400 31042.1176 -167.1537 -107.9585
TCL: Running FEP window  16: Lambda1 0.7500000000000001 Lambda2 0.8000000000000002 [dLambda 0.050000000000000044]
TCL: Setting parameter firsttimestep to 0
TCL: Setting parameter alchLambda to 0.7500000000000001
Info: NONBONDED TABLE R-SQUARED SPACING: 0.0625
Info: NONBONDED TABLE SIZE: 705 POINTS
TCL: Setting parameter alchLambda2 to 0.8000000000000002
Info: NONBONDED TABLE R-SQUARED SPACING: 0.0625
Info: NONBONDED TABLE SIZE: 705 POINTS
TCL: Running for 1500000 steps
ETITLE: TS BOND ANGLE DIHED IMPRP ELECT VDW BOUNDARY MISC KINETIC TOTAL TEMP POTENTIAL TOTALAVG TEMPAVG PRESSURE GPRESSURE VOLUME PRESSAVG GPRESSAVG
ENERGY: 0 2.7312 4.2382 0.4676 0.0000 -10853.3363 1491.0439 0.0000 0.0000 1859.6762 -7495.1791 312.4125 -9354.8554 -7495.1791 312.4125 349.6515 437.1422 31042.1176 349.6515 437.1422
ENERGY: 300000 1.8876 2.1059 1.9590 0.0000 -10969.4524 1516.0236 0.0000 0.0000 1748.3081 -7699.1682 293.7034 -9447.4763 -7603.5536 299.1502 19.7170 143.3630 31018.2300 108.7064 185.6556
ENERGY: 600000 3.8821 5.0638 2.5875 0.0000 -11019.7705 1542.7831 0.0000 0.0000 1845.6289 -7619.8251 310.0527 -9465.4541 -7609.8339 300.5313 770.2771 861.3300 30073.6884 147.2432 231.4159
ENERGY: 900000 1.1237 4.4995 1.4556 0.0000 -10615.8019 1323.1546 0.0000 0.0000 1709.5734 -7575.9950 287.1963 -9285.5684 -7603.3883 298.5014 -961.1035 -907.2948 31491.8587 27.5967 101.2588
ENERGY: 1200000 2.5359 3.2494 3.4829 0.0000 -10949.5638 1522.2101 0.0000 0.0000 1770.1993 -7647.8862 297.3810 -9418.0855 -7605.9778 298.1322 472.9184 549.1266 30852.5676 124.8825 198.8140
ENERGY: 1500000 2.1180 3.0107 1.6610 0.0000 -10963.1714 1453.5814 0.0000 0.0000 1825.7157 -7677.0846 306.7074 -9502.8003 -7601.2332 299.3242 -268.2692 -179.0541 30738.5436 93.5041 167.7563
TCL: Running FEP window  17: Lambda1 0.8000000000000002 Lambda2 0.8500000000000002 [dLambda 0.050000000000000044]
TCL: Setting parameter firsttimestep to 0
TCL: Setting parameter alchLambda to 0.8000000000000002
Info: NONBONDED TABLE R-SQUARED SPACING: 0.0625
Info: NONBONDED TABLE SIZE: 705 POINTS
TCL: Setting parameter alchLambda2 to 0.8500000000000002
Info: NONBONDED TABLE R-SQUARED SPACING: 0.0625
Info: NONBONDED TABLE SIZE: 705 POINTS
TCL: Running for 1500000 steps
ETITLE: TS BOND ANGLE DIHED IMPRP ELECT VDW BOUNDARY MISC KINETIC TOTAL TEMP POTENTIAL TOTALAVG TEMPAVG PRESSURE GPRESSURE VOLUME PRESSAVG GPRESSAVG
ENERGY: 0 2.1180 3.0107 1.6610 0.0000 -10963.2930 1453.7157 0.0000 0.0000 1824.7736 -7678.0139 306.5491 -9502.7875 -7678.0139 306.5491 -256.8883 -165.8174 30738.5436 -256.8883 -165.8174
ENERGY: 300000 0.9049 2.2475 2.7132 0.0000 -11008.1102 1563.1608 0.0000 0.0000 1842.9820 -7596.1017 309.6080 -9439.0837 -7617.2547 307.8234 924.5503 952.0914 30698.7107 15.8012 82.5374
ENERGY: 600000 5.1389 5.9154 1.5574 0.0000 -10718.6451 1372.3023 0.0000 0.0000 1773.2565 -7560.4746 297.8946 -9333.7312 -7593.6573 305.4362 -646.4789 -545.1120 30765.3010 37.9191 112.9470
ENERGY: 900000 3.7218 1.8505 1.9941 0.0000 -10898.0747 1530.6927 0.0000 0.0000 1813.9884 -7545.8271 304.7373 -9359.8155 -7583.5095 303.7107 863.7352 914.4182 30712.2772 101.0096 172.1306
ENERGY: 1200000 3.6831 1.3839 3.2156 0.0000 -10725.6989 1366.9013 0.0000 0.0000 1759.9088 -7590.6063 295.6523 -9350.5150 -7579.7693 302.7221 -559.7408 -488.3690 31009.4621 26.9765 95.3694
ENERGY: 1500000 2.3306 2.1566 2.6199 0.0000 -10802.2436 1342.7356 0.0000 0.0000 1769.0096 -7683.3913 297.1811 -9452.4009 -7589.5059 302.3879 -1084.3711 -1024.9960 30841.7693 -48.4200 17.6131
TCL: Running FEP window  18: Lambda1 0.8500000000000002 Lambda2 0.9000000000000002 [dLambda 0.050000000000000044]
TCL: Setting parameter firsttimestep to 0
TCL: Setting parameter alchLambda to 0.8500000000000002
Info: NONBONDED TABLE R-SQUARED SPACING: 0.0625
Info: NONBONDED TABLE SIZE: 705 POINTS
TCL: Setting parameter alchLambda2 to 0.9000000000000002
Info: NONBONDED TABLE R-SQUARED SPACING: 0.0625
Info: NONBONDED TABLE SIZE: 705 POINTS
TCL: Running for 1500000 steps
ETITLE: TS BOND ANGLE DIHED IMPRP ELECT VDW BOUNDARY MISC KINETIC TOTAL TEMP POTENTIAL TOTALAVG TEMPAVG PRESSURE GPRESSURE VOLUME PRESSAVG GPRESSAVG
ENERGY: 0 2.3306 2.1566 2.6199 0.0000 -10802.0895 1342.5461 0.0000 0.0000 1768.1275 -7684.3088 297.0330 -9452.4362 -7684.3088 297.0330 -1101.9926 -1019.1569 30841.7693 -1101.9926 -1019.1569
ENERGY: 300000 2.8683 1.3292 2.1398 0.0000 -10809.5341 1455.5380 0.0000 0.0000 1770.5180 -7577.1408 297.4346 -9347.6588 -7625.2405 298.6486 212.1064 298.5975 30792.3460 -31.6300 31.1764
ENERGY: 600000 3.2329 4.4692 1.3004 0.0000 -10716.4276 1460.4832 0.0000 0.0000 1839.9528 -7406.9892 309.0991 -9246.9420 -7587.4176 299.4842 334.9718 374.8197 30969.2724 -166.9791 -100.0543
ENERGY: 900000 3.5920 0.7032 1.2570 0.0000 -10900.0777 1492.7117 0.0000 0.0000 1829.2612 -7572.5526 307.3030 -9401.8138 -7582.8273 300.5343 299.8417 364.9352 30570.4665 -157.1595 -91.9616
ENERGY: 1200000 3.0714 3.0831 2.0896 0.0000 -10887.7372 1542.5407 0.0000 0.0000 1754.5714 -7582.3810 294.7556 -9336.9524 -7592.2030 299.8993 525.0992 585.2944 31635.4189 -28.8811 26.8462
ENERGY: 1500000 1.6582 1.2646 5.5328 0.0000 -10698.8932 1367.5777 0.0000 0.0000 1799.8104 -7523.0495 302.3555 -9322.8598 -7586.5274 299.9563 -740.4142 -689.2782 31568.6227 -128.3364 -71.9126
TCL: Running FEP window  19: Lambda1 0.9000000000000002 Lambda2 0.9500000000000003 [dLambda 0.050000000000000044]
TCL: Setting parameter firsttimestep to 0
TCL: Setting parameter alchLambda to 0.9000000000000002
Info: NONBONDED TABLE R-SQUARED SPACING: 0.0625
Info: NONBONDED TABLE SIZE: 705 POINTS
TCL: Setting parameter alchLambda2 to 0.9500000000000003
Info: NONBONDED TABLE R-SQUARED SPACING: 0.0625
Info: NONBONDED TABLE SIZE: 705 POINTS
TCL: Running for 1500000 steps
ETITLE: TS BOND ANGLE DIHED IMPRP ELECT VDW BOUNDARY MISC KINETIC TOTAL TEMP POTENTIAL TOTALAVG TEMPAVG PRESSURE GPRESSURE VOLUME PRESSAVG GPRESSAVG
ENERGY: 0 1.6582 1.2646 5.5328 0.0000 -10699.0310 1367.1328 0.0000 0.0000 1798.9074 -7524.5352 302.2038 -9323.4426 -7524.5352 302.2038 -781.7875 -681.6132 31568.6227 -781.7875 -681.6132
ENERGY: 300000 1.8172 2.3605 4.6568 0.0000 -10860.6588 1404.8691 0.0000 0.0000 1759.8299 -7687.1254 295.6390 -9446.9552 -7604.5762 301.5334 -504.4380 -403.0705 30587.2932 -352.8926 -278.7622
ENERGY: 600000 3.0462 0.8329 2.3430 0.0000 -10762.0895 1450.8230 0.0000 0.0000 1770.2660 -7534.7784 297.3922 -9305.0443 -7583.7364 301.5669 98.3085 158.2500 31042.4560 -171.5272 -102.4681
ENERGY: 900000 1.0374 4.8348 2.8523 0.0000 -10864.8872 1446.7921 0.0000 0.0000 1753.3807 -7655.9898 294.5556 -9409.3705 -7584.2679 300.9338 -231.6587 -206.4205 31384.3723 -131.2131 -67.6179
ENERGY: 1200000 1.2414 3.5842 2.8502 0.0000 -10824.6777 1409.8568 0.0000 0.0000 1766.7612 -7640.3839 296.8034 -9407.1450 -7594.1618 301.3070 -441.7012 -354.8108 30991.3097 -35.0395 29.1361
ENERGY: 1500000 4.5636 2.9874 2.2193 0.0000 -10755.8108 1380.4186 0.0000 0.0000 1753.2711 -7612.3508 294.5372 -9365.6219 -7584.0464 301.5655 -554.6975 -463.5034 30931.4568 -101.6555 -36.7915
TCL: Running FEP window  20: Lambda1 0.9500000000000003 Lambda2 1.0    [dLambda 0.04999999999999971]
TCL: Setting parameter firsttimestep to 0
TCL: Setting parameter alchLambda to 0.9500000000000003
Info: NONBONDED TABLE R-SQUARED SPACING: 0.0625
Info: NONBONDED TABLE SIZE: 705 POINTS
TCL: Setting parameter alchLambda2 to 1.0
Info: NONBONDED TABLE R-SQUARED SPACING: 0.0625
Info: NONBONDED TABLE SIZE: 705 POINTS
TCL: Running for 1500000 steps
ETITLE: TS BOND ANGLE DIHED IMPRP ELECT VDW BOUNDARY MISC KINETIC TOTAL TEMP POTENTIAL TOTALAVG TEMPAVG PRESSURE GPRESSURE VOLUME PRESSAVG GPRESSAVG
ENERGY: 0 4.5636 2.9874 2.2193 0.0000 -10755.8472 1379.9094 0.0000 0.0000 1752.4108 -7613.7566 294.3927 -9366.1674 -7613.7566 294.3927 -536.7454 -457.8302 30931.4568 -536.7454 -457.8302
ENERGY: 300000 1.9731 0.6895 1.5970 0.0000 -11024.7158 1623.9985 0.0000 0.0000 1827.0910 -7569.3667 306.9384 -9396.4577 -7577.6535 302.3005 1352.6309 1353.2660 31124.6548 48.0708 112.7111
ENERGY: 600000 5.0646 3.0568 3.1674 0.0000 -10759.0897 1421.2746 0.0000 0.0000 1775.5569 -7550.9694 298.2811 -9326.5263 -7579.3645 301.3164 55.0459 86.7197 30632.0531 124.9715 178.1563
ENERGY: 900000 8.6720 3.2615 3.6654 0.0000 -10824.3905 1393.1078 0.0000 0.0000 1826.6252 -7589.0586 306.8602 -9415.6838 -7597.3507 300.2136 -1011.8067 -895.2951 31208.6061 -51.8747 12.4973
ENERGY: 1200000 2.1396 1.2026 2.8067 0.0000 -10904.9416 1465.6504 0.0000 0.0000 1816.5451 -7616.5972 305.1668 -9433.1423 -7583.6739 301.7792 -40.8388 -49.8667 30979.2668 -116.9996 -64.5313
ENERGY: 1500000 2.2760 2.7466 1.5800 0.0000 -10874.0865 1444.2745 0.0000 0.0000 1773.1761 -7650.0332 297.8811 -9423.2093 -7583.6186 301.9164 -139.1638 -75.3635 30960.2368 -140.3273 -86.0804
TCL: Exiting due to exit command.
