Info: SIMULATION PARAMETERS:
Info: TIMESTEP               2
Info: NUMBER OF STEPS        0
Info: STEPS PER CYCLE        10
Info: PERIODIC CELL BASIS 1  30.8307 0 0
Info: PERIODIC CELL BASIS 2  0 31.1839 0
Info: PERIODIC CELL BASIS 3  0 0 31.389
Info: PERIODIC CELL CENTER   0 0 0
Info: WRAPPING WATERS AROUND PERIODIC BOUNDARIES ON OUTPUT.
Info: WRAPPING ALL CLUSTERS AROUND PERIODIC BOUNDARIES ON OUTPUT.
Info: FIRST LDB TIMESTEP     50
Info: LAST LDB TIMESTEP     -1
Info: HOM BACKGROUND SCALING 1
Info: PME BACKGROUND SCALING 1
Info: MIN ATOMS PER PATCH    40
Info: EMPTY PATCH LOAD       40 ATOMS
Info: VELOCITY FILE          mobley_7326982_equil.vel
Info: CENTER OF MASS MOVING INITIALLY? NO
Info: DIELECTRIC             1
Info: EXCLUDE                SCALED ONE-FOUR
Info: 1-4 ELECTROSTATICS SCALED BY 0.833333
Info: MODIFIED 1-4 VDW PARAMETERS WILL BE USED
Info: DCD FILENAME           mobley_7326982_prod.dcd
Info: DCD FREQUENCY          100000
Info: DCD FIRST STEP         100000
Info: DCD FILE WILL CONTAIN UNIT CELL DATA
Info: XST FILENAME           mobley_7326982_prod.xst
Info: XST FREQUENCY          100000
Info: NO VELOCITY DCD OUTPUT
Info: NO FORCE DCD OUTPUT
Info: OUTPUT FILENAME        mobley_7326982_prod
Info: BINARY OUTPUT FILES WILL BE USED
Info: RESTART FILENAME       mobley_7326982_prod.restart
Info: RESTART FREQUENCY      100000
Info: BINARY RESTART FILES WILL BE USED
Info: CUTOFF                 9
Info: PAIRLIST DISTANCE      11
Info: PAIRLIST SHRINK RATE   0.01
Info: PAIRLIST GROW RATE     0.01
Info: PAIRLIST TRIGGER       0.3
Info: PAIRLISTS PER CYCLE    2
Info: PAIRLISTS ENABLED
Info: MARGIN                 2
Info: HYDROGEN GROUP CUTOFF  2.5
Info: PATCH DIMENSION        15.5
Info: ENERGY OUTPUT STEPS    100000
Info: ENERGY EVALUATION STEPS    100000
Info: OUTPUT ENERGY PRECISION 4
Info: CROSSTERM ENERGY INCLUDED IN DIHEDRAL
Info: TIMING OUTPUT STEPS    1000000
Info: PRESSURE OUTPUT STEPS  100000
Info: ALCHEMICAL FEP ON
Info: FEP CURRENT LAMBDA VALUE     1
Info: FEP COMPARISON LAMBDA VALUE  0.95
Info: FEP INTRA-ALCHEMICAL NON-BONDED INTERACTIONS WILL BE RETAINED
Info: FEP INTRA-ALCHEMICAL BONDED INTERACTIONS WILL BE RETAINED
Info: FEP VDW SHIFTING COEFFICIENT 5
Info: FEP ELEC. ACTIVE FOR ANNIHILATED PARTICLES BETWEEN LAMBDA = 0 AND LAMBDA = 0.5
Info: FEP ELEC. ACTIVE FOR EXNIHILATED PARTICLES BETWEEN LAMBDA = 0.5 AND LAMBDA = 1
Info: FEP VDW ACTIVE FOR ANNIHILATED PARTICLES BETWEEN LAMBDA = 0 AND LAMBDA = 1
Info: FEP VDW ACTIVE FOR EXNIHILATED PARTICLES BETWEEN LAMBDA = 0 AND LAMBDA = 1
Info: FEP BOND ACTIVE FOR ANNIHILATED PARTICLES BETWEEN LAMBDA = 1 AND LAMBDA = 1
Info: FEP BOND ACTIVE FOR EXNIHILATED PARTICLES BETWEEN LAMBDA = 0 AND LAMBDA = 0
Info: LANGEVIN DYNAMICS ACTIVE
Info: LANGEVIN TEMPERATURE   300
Info: LANGEVIN USING BBK INTEGRATOR
Info: LANGEVIN DAMPING COEFFICIENT IS 1 INVERSE PS
Info: LANGEVIN DYNAMICS APPLIED TO HYDROGENS
Info: LANGEVIN PISTON PRESSURE CONTROL ACTIVE
Info:        TARGET PRESSURE IS 1.01325 BAR
Info:     OSCILLATION PERIOD IS 50 FS
Info:             DECAY TIME IS 25 FS
Info:     PISTON TEMPERATURE IS 300 K
Info:       PRESSURE CONTROL IS GROUP-BASED
Info:    INITIAL STRAIN RATE IS 3.83602e-05 3.83602e-05 3.83602e-05
Info:       CELL FLUCTUATION IS ISOTROPIC
Info: PARTICLE MESH EWALD (PME) ACTIVE
Info: PME TOLERANCE               1e-06
Info: PME EWALD COEFFICIENT       0.348832
Info: PME INTERPOLATION ORDER     4
Info: PME GRID DIMENSIONS         32 32 32
Info: PME MAXIMUM GRID SPACING    1
Info: PME CALCULATION WILL BE PERFORMED ON GPU
Info: FULL ELECTROSTATIC EVALUATION FREQUENCY      2
Info: USING VERLET I (r-RESPA) MTS SCHEME.
Info: C1 SPLITTING OF LONG RANGE ELECTROSTATICS
Info: PLACING ATOMS IN PATCHES BY HYDROGEN GROUPS
Info: RIGID BONDS TO HYDROGEN : ALL
Info:         ERROR TOLERANCE : 1e-08
Info:          MAX ITERATIONS : 100
Info: RIGID WATER USING SETTLE ALGORITHM
Info: RANDOM NUMBER SEED     1743552508
Info: USE HYDROGEN BONDS?    NO
Info: Using AMBER format force field!
Info: AMBER PARM FILE        mobley_7326982.prmtop
Info: COORDINATE PDB         mobley_7326982.pdb
Info: Exclusions will be read from PARM file!
Info: SCNB (VDW SCALING)     2
Info: USING ARITHMETIC MEAN TO COMBINE L-J SIGMA PARAMETERS
Info: BINARY COORDINATES     mobley_7326982_equil.coor
Info: SUMMARY OF PARAMETERS:
Info: 7 BONDS
Info: 7 ANGLES
Info:   7 HARMONIC
Info:   0 COSINE-BASED
Info: 5 DIHEDRAL
Info: 0 IMPROPER
Info: 0 CROSSTERM
Info: 0 VDW
Info: 21 VDW_PAIRS
Info: 0 NBTHOLE_PAIRS
Info: To read alchdata from file: mobley_7326982.pdb
Info: To read alchflag data from column: 5
Info: STRUCTURE SUMMARY:
Info: 2961 ATOMS
Info: 2960 BONDS
Info: 19 ANGLES
Info: 29 DIHEDRALS
Info: 0 IMPROPERS
Info: 0 CROSSTERMS
Info: 3000 EXCLUSIONS
Info: 2957 RIGID BONDS
Info: ALCH: 0 ATOMS TO DISAPPEAR IN FINAL STATE
Info: ALCH: 12 ATOMS TO APPEAR IN FINAL STATE
Info: 5926 DEGREES OF FREEDOM
Info: 987 HYDROGEN GROUPS
Info: 4 ATOMS IN LARGEST HYDROGEN GROUP
Info: 987 MIGRATION GROUPS
Info: 4 ATOMS IN LARGEST MIGRATION GROUP
Info: TOTAL MASS = 17769.8 amu
Info: TOTAL CHARGE = -0.000199985 e
Info: MASS DENSITY = 0.977802 g/cm^3
Info: ATOM DENSITY = 0.0981176 atoms/A^3
Info: ADDED 0 IMPLICIT EXCLUSIONS
Info: NONBONDED TABLE R-SQUARED SPACING: 0.0625
Info: NONBONDED TABLE SIZE: 705 POINTS
Info: REMOVING COM VELOCITY 0.129279 -0.0115502 -0.0763615
Info: Use 3D box decompostion in PME FFT.
Info: Updated CUDA force table with 4096 elements.
Info: Updated CUDA LJ table with 6 x 6 elements.
Info: Found 15 unique exclusion lists needing 28 bytes
TCL: Running for 1500000 steps
ETITLE: TS BOND ANGLE DIHED IMPRP ELECT VDW BOUNDARY MISC KINETIC TOTAL TEMP POTENTIAL TOTALAVG TEMPAVG PRESSURE GPRESSURE VOLUME PRESSAVG GPRESSAVG
ENERGY: 0 1.3572 6.7281 2.2806 0.0000 -10763.8192 1445.8270 0.0000 0.0000 1720.6990 -7586.9273 292.2359 -9307.6263 -7586.9273 292.2359 -13.9684 58.4792 30178.0723 -13.9684 58.4792
ENERGY: 300000 0.6448 4.0239 2.5128 0.0000 -10807.3940 1466.7910 0.0000 0.0000 1805.8625 -7527.5590 306.6997 -9333.4215 -7507.2529 304.7751 106.9502 231.4681 30546.1431 112.8393 201.9300
ENERGY: 600000 1.2186 6.1292 2.4016 0.0000 -10898.2330 1503.8478 0.0000 0.0000 1759.8665 -7624.7693 298.8880 -9384.6359 -7532.6537 303.0870 329.6210 383.3620 29937.3434 58.4202 118.9165
ENERGY: 900000 1.4715 8.3657 3.2107 0.0000 -10782.2394 1481.4816 0.0000 0.0000 1770.8851 -7516.8248 300.7593 -9287.7099 -7548.2532 301.5850 496.5509 510.8243 30133.8225 158.7385 218.6698
ENERGY: 1200000 1.2059 4.2099 2.3167 0.0000 -10646.7722 1394.8669 0.0000 0.0000 1700.4536 -7543.7192 288.7976 -9244.1729 -7549.3153 299.6511 -222.4907 -137.4889 30522.0518 129.6692 194.3657
ENERGY: 1500000 0.2590 3.4090 2.2488 0.0000 -10736.0232 1402.0663 0.0000 0.0000 1763.6733 -7564.3667 299.5345 -9328.0400 -7558.0550 299.5549 -428.8260 -344.3934 30634.9356 17.5071 82.8080
TCL: Running FEP window   2: Lambda1 0.95   Lambda2 0.8999999999999999 [dLambda -0.050000000000000044]
TCL: Setting parameter firsttimestep to 0
TCL: Setting parameter alchLambda to 0.95
Info: NONBONDED TABLE R-SQUARED SPACING: 0.0625
Info: NONBONDED TABLE SIZE: 705 POINTS
TCL: Setting parameter alchLambda2 to 0.8999999999999999
Info: NONBONDED TABLE R-SQUARED SPACING: 0.0625
Info: NONBONDED TABLE SIZE: 705 POINTS
TCL: Running for 1500000 steps
ETITLE: TS BOND ANGLE DIHED IMPRP ELECT VDW BOUNDARY MISC KINETIC TOTAL TEMP POTENTIAL TOTALAVG TEMPAVG PRESSURE GPRESSURE VOLUME PRESSAVG GPRESSAVG
ENERGY: 0 0.2590 3.4090 2.2488 0.0000 -10734.8576 1401.3484 0.0000 0.0000 1762.7948 -7564.7975 299.3853 -9327.5923 -7564.7975 299.3853 -443.9169 -356.5991 30634.9356 -443.9169 -356.5991
ENERGY: 300000 1.1403 1.7988 2.2043 0.0000 -10761.7706 1464.0203 0.0000 0.0000 1802.9860 -7489.6209 306.2112 -9292.6069 -7497.3337 303.2618 -223.0038 -190.0853 31357.8834 -125.7547 -53.7693
ENERGY: 600000 1.3591 2.8901 3.3650 0.0000 -10925.7196 1491.1803 0.0000 0.0000 1810.6523 -7616.2726 307.5132 -9426.9249 -7531.9601 302.7020 68.8700 204.2626 30342.0602 -43.9154 26.6655
ENERGY: 900000 2.4762 4.8790 2.3358 0.0000 -10801.4504 1429.6879 0.0000 0.0000 1736.8532 -7625.2183 294.9795 -9362.0715 -7545.9565 301.3339 -333.0629 -318.9340 30167.1662 64.4051 115.4693
ENERGY: 1200000 0.8635 5.2422 3.1201 0.0000 -10777.3906 1465.0707 0.0000 0.0000 1778.5543 -7524.5398 302.0618 -9303.0941 -7533.6537 302.0126 77.2528 158.4993 30369.0052 103.3179 156.1856
ENERGY: 1500000 1.1698 4.6612 3.2098 0.0000 -10732.3936 1468.8326 0.0000 0.0000 1760.9238 -7493.5964 299.0675 -9254.5202 -7534.0698 301.3142 404.5949 462.4256 30330.6634 54.4357 110.3530
TCL: Running FEP window   3: Lambda1 0.8999999999999999 Lambda2 0.8499999999999999 [dLambda -0.050000000000000044]
TCL: Setting parameter firsttimestep to 0
TCL: Setting parameter alchLambda to 0.8999999999999999
Info: NONBONDED TABLE R-SQUARED SPACING: 0.0625
Info: NONBONDED TABLE SIZE: 705 POINTS
TCL: Setting parameter alchLambda2 to 0.8499999999999999
Info: NONBONDED TABLE R-SQUARED SPACING: 0.0625
Info: NONBONDED TABLE SIZE: 705 POINTS
TCL: Running for 1500000 steps
ETITLE: TS BOND ANGLE DIHED IMPRP ELECT VDW BOUNDARY MISC KINETIC TOTAL TEMP POTENTIAL TOTALAVG TEMPAVG PRESSURE GPRESSURE VOLUME PRESSAVG GPRESSAVG
ENERGY: 0 1.1698 4.6612 3.2098 0.0000 -10731.5530 1468.8517 0.0000 0.0000 1760.0785 -7493.5821 298.9240 -9253.6605 -7493.5821 298.9240 367.5498 458.3515 30330.6634 367.5498 458.3515
ENERGY: 300000 0.6824 5.7176 2.5258 0.0000 -10802.8469 1464.4284 0.0000 0.0000 1741.7804 -7587.7123 295.8163 -9329.4927 -7537.6268 300.3445 -174.7465 -110.1996 30634.9690 82.4998 156.7623
ENERGY: 600000 0.2878 4.8699 3.4179 0.0000 -10881.6079 1529.0203 0.0000 0.0000 1811.7237 -7532.2883 307.6952 -9344.0120 -7519.7516 303.8439 596.6872 637.1921 30445.5639 -17.0304 46.3613
ENERGY: 900000 0.6461 6.6806 2.2209 0.0000 -10644.7277 1375.3052 0.0000 0.0000 1788.2306 -7471.6443 303.7052 -9259.8749 -7518.2485 304.4478 -456.1698 -380.6514 30687.0271 -66.3067 -4.4325
ENERGY: 1200000 1.2981 6.4503 4.2518 0.0000 -10718.9249 1400.8175 0.0000 0.0000 1756.5829 -7549.5244 298.3303 -9306.1072 -7519.7109 304.0120 -366.7995 -339.2202 30434.1010 -54.1282 5.0966
ENERGY: 1500000 0.1056 4.3083 1.9365 0.0000 -10732.3720 1431.3946 0.0000 0.0000 1759.2212 -7535.4058 298.7784 -9294.6270 -7518.2788 303.6995 -149.5064 -38.5749 30567.5100 -158.0396 -94.6339
TCL: Running FEP window   4: Lambda1 0.8499999999999999 Lambda2 0.7999999999999998 [dLambda -0.050000000000000044]
TCL: Setting parameter firsttimestep to 0
TCL: Setting parameter alchLambda to 0.8499999999999999
Info: NONBONDED TABLE R-SQUARED SPACING: 0.0625
Info: NONBONDED TABLE SIZE: 705 POINTS
TCL: Setting parameter alchLambda2 to 0.7999999999999998
Info: NONBONDED TABLE R-SQUARED SPACING: 0.0625
Info: NONBONDED TABLE SIZE: 705 POINTS
TCL: Running for 1500000 steps
ETITLE: TS BOND ANGLE DIHED IMPRP ELECT VDW BOUNDARY MISC KINETIC TOTAL TEMP POTENTIAL TOTALAVG TEMPAVG PRESSURE GPRESSURE VOLUME PRESSAVG GPRESSAVG
ENERGY: 0 0.1056 4.3083 1.9365 0.0000 -10731.5234 1430.9899 0.0000 0.0000 1758.3624 -7535.8207 298.6325 -9294.1831 -7535.8207 298.6325 -129.9556 -53.8273 30567.5100 -129.9556 -53.8273
ENERGY: 300000 0.2413 5.5030 3.2516 0.0000 -10673.3665 1398.5035 0.0000 0.0000 1762.9445 -7502.9225 299.4107 -9265.8671 -7531.6557 302.7607 -274.2929 -210.8424 30375.4613 -2.4966 62.6757
ENERGY: 600000 0.8357 4.4797 1.9409 0.0000 -10668.4958 1433.0261 0.0000 0.0000 1783.4520 -7444.7614 302.8936 -9228.2134 -7520.6397 303.1817 28.0386 123.3518 30617.3133 37.3794 103.9967
ENERGY: 900000 0.5499 6.1488 2.3704 0.0000 -10854.5742 1520.7347 0.0000 0.0000 1786.0447 -7538.7257 303.3340 -9324.7704 -7519.9659 303.0017 408.0685 457.3382 30394.5206 49.8885 110.4072
ENERGY: 1200000 0.5745 4.1455 2.0084 0.0000 -10792.6064 1455.5534 0.0000 0.0000 1729.5483 -7600.7764 293.7389 -9330.3247 -7532.7856 301.3073 56.4019 128.9196 30301.7233 70.0105 125.1648
ENERGY: 1500000 1.4055 8.8063 3.1566 0.0000 -10647.7050 1427.1002 0.0000 0.0000 1764.1367 -7443.0997 299.6132 -9207.2364 -7527.5050 300.8185 5.1632 167.5440 30703.9177 11.9666 75.0831
TCL: Running FEP window   5: Lambda1 0.7999999999999998 Lambda2 0.7499999999999998 [dLambda -0.050000000000000044]
TCL: Setting parameter firsttimestep to 0
TCL: Setting parameter alchLambda to 0.7999999999999998
Info: NONBONDED TABLE R-SQUARED SPACING: 0.0625
Info: NONBONDED TABLE SIZE: 705 POINTS
TCL: Setting parameter alchLambda2 to 0.7499999999999998
Info: NONBONDED TABLE R-SQUARED SPACING: 0.0625
Info: NONBONDED TABLE SIZE: 705 POINTS
TCL: Running for 1500000 steps
ETITLE: TS BOND ANGLE DIHED IMPRP ELECT VDW BOUNDARY MISC KINETIC TOTAL TEMP POTENTIAL TOTALAVG TEMPAVG PRESSURE GPRESSURE VOLUME PRESSAVG GPRESSAVG
ENERGY: 0 1.4055 8.8063 3.1566 0.0000 -10646.8660 1425.7977 0.0000 0.0000 1763.2095 -7444.4904 299.4558 -9207.7000 -7444.4904 299.4558 61.7279 145.6505 30703.9177 61.7279 145.6505
ENERGY: 300000 0.6516 4.7010 3.4647 0.0000 -10808.4086 1495.9729 0.0000 0.0000 1813.2978 -7490.3206 307.9625 -9303.6184 -7504.5472 301.7311 282.6013 329.6351 30700.7851 -122.9422 -70.2926
ENERGY: 600000 0.8623 5.2335 2.9410 0.0000 -10672.5284 1411.0768 0.0000 0.0000 1749.7925 -7502.6223 297.1771 -9252.4148 -7519.9807 299.7746 -192.2643 -120.9967 30758.6821 -144.0503 -95.4460
ENERGY: 900000 2.0538 3.3368 3.2949 0.0000 -10581.5974 1321.4968 0.0000 0.0000 1758.9891 -7492.4261 298.7390 -9251.4152 -7506.1110 299.0711 -938.2104 -877.4869 30548.3276 -391.9676 -329.1748
ENERGY: 1200000 0.9007 2.1140 3.0668 0.0000 -10673.0256 1386.5052 0.0000 0.0000 1735.1011 -7545.3377 294.6819 -9280.4388 -7514.1609 298.9394 -514.7883 -423.7206 30398.4243 -317.6118 -259.3334
ENERGY: 1500000 0.6027 5.1113 2.7298 0.0000 -10642.2101 1366.3055 0.0000 0.0000 1785.5486 -7481.9122 303.2497 -9267.4609 -7512.4495 299.1759 -467.2222 -394.1229 30369.9897 -372.4567 -316.9762
TCL: Running FEP window   6: Lambda1 0.7499999999999998 Lambda2 0.6999999999999997 [dLambda -0.050000000000000044]
TCL: Setting parameter firsttimestep to 0
TCL: Setting parameter alchLambda to 0.7499999999999998
Info: NONBONDED TABLE R-SQUARED SPACING: 0.0625
Info: NONBONDED TABLE SIZE: 705 POINTS
TCL: Setting parameter alchLambda2 to 0.6999999999999997
Info: NONBONDED TABLE R-SQUARED SPACING: 0.0625
Info: NONBONDED TABLE SIZE: 705 POINTS
TCL: Running for 1500000 steps
ETITLE: TS BOND ANGLE DIHED IMPRP ELECT VDW BOUNDARY MISC KINETIC TOTAL TEMP POTENTIAL TOTALAVG TEMPAVG PRESSURE GPRESSURE VOLUME PRESSAVG GPRESSAVG
ENERGY: 0 0.6027 5.1113 2.7298 0.0000 -10641.0195 1365.8690 0.0000 0.0000 1784.6742 -7482.0325 303.1012 -9266.7067 -7482.0325 303.1012 -475.9288 -401.5522 30369.9897 -475.9288 -401.5522
ENERGY: 300000 1.8282 5.5120 2.6445 0.0000 -10822.0877 1464.6594 0.0000 0.0000 1768.5724 -7578.8713 300.3666 -9347.4437 -7537.7001 301.9890 5.4171 16.0714 30464.4159 -103.3410 -44.1036
ENERGY: 600000 1.9821 6.8500 2.1977 0.0000 -10758.0542 1407.3774 0.0000 0.0000 1815.8608 -7523.7862 308.3978 -9339.6470 -7530.3531 299.7251 -359.2672 -249.0099 30104.3614 -230.4698 -158.9778
ENERGY: 900000 0.3630 4.0236 2.0577 0.0000 -10640.9073 1383.8149 0.0000 0.0000 1765.4759 -7485.1721 299.8407 -9250.6480 -7521.7920 300.6381 -433.9697 -360.6217 30456.1320 -188.7203 -129.7064
ENERGY: 1200000 0.5756 6.6153 2.1297 0.0000 -10693.4763 1398.4089 0.0000 0.0000 1747.3191 -7538.4277 296.7570 -9285.7468 -7522.0470 299.7333 -353.2883 -282.2452 30250.8493 -164.0535 -104.1564
ENERGY: 1500000 0.8353 6.9065 2.7172 0.0000 -10607.1177 1370.4467 0.0000 0.0000 1724.0390 -7502.1730 292.8032 -9226.2120 -7519.2742 299.1410 -704.0850 -638.4411 30788.6091 -192.3475 -134.1475
TCL: Running FEP window   7: Lambda1 0.6999999999999997 Lambda2 0.6499999999999997 [dLambda -0.050000000000000044]
TCL: Setting parameter firsttimestep to 0
TCL: Setting parameter alchLambda to 0.6999999999999997
Info: NONBONDED TABLE R-SQUARED SPACING: 0.0625
Info: NONBONDED TABLE SIZE: 705 POINTS
TCL: Setting parameter alchLambda2 to 0.6499999999999997
Info: NONBONDED TABLE R-SQUARED SPACING: 0.0625
Info: NONBONDED TABLE SIZE: 705 POINTS
TCL: Running for 1500000 steps
ETITLE: TS BOND ANGLE DIHED IMPRP ELECT VDW BOUNDARY MISC KINETIC TOTAL TEMP POTENTIAL TOTALAVG TEMPAVG PRESSURE GPRESSURE VOLUME PRESSAVG GPRESSAVG
ENERGY: 0 0.8353 6.9065 2.7172 0.0000 -10606.1775 1369.4754 0.0000 0.0000 1723.1437 -7503.0994 292.6511 -9226.2431 -7503.0994 292.6511 -735.9639 -651.5522 30788.6091 -735.9639 -651.5522
ENERGY: 300000 0.6998 5.5219 3.7669 0.0000 -10796.8926 1445.5506 0.0000 0.0000 1763.1522 -7578.2012 299.4460 -9341.3534 -7555.2964 297.6260 -295.9439 -304.7062 30653.7432 -314.5531 -255.8442
ENERGY: 600000 0.1945 4.1967 3.1700 0.0000 -10880.0879 1554.0388 0.0000 0.0000 1755.2138 -7563.2741 298.0978 -9318.4879 -7560.8155 296.6961 899.0192 927.3020 30178.3212 -53.3436 3.6924
ENERGY: 900000 1.4118 9.6176 3.1375 0.0000 -10716.7213 1408.6360 0.0000 0.0000 1727.6709 -7566.2475 293.4200 -9293.9184 -7542.3560 296.8445 -363.2630 -347.3809 30659.2200 -156.9123 -95.7013
ENERGY: 1200000 1.0735 5.5293 2.5809 0.0000 -10747.0202 1514.5259 0.0000 0.0000 1772.0538 -7451.2568 300.9578 -9223.3106 -7532.6253 297.1314 479.7753 582.7588 30574.5940 -51.3813 14.7466
ENERGY: 1500000 0.3634 5.7451 2.7418 0.0000 -10710.5859 1389.3996 0.0000 0.0000 1790.3176 -7522.0183 304.0597 -9312.3359 -7528.7174 298.0796 -478.9585 -463.2318 30768.0370 -85.2411 -20.6343
TCL: Running FEP window   8: Lambda1 0.6499999999999997 Lambda2 0.5999999999999996 [dLambda -0.050000000000000044]
TCL: Setting parameter firsttimestep to 0
TCL: Setting parameter alchLambda to 0.6499999999999997
Info: NONBONDED TABLE R-SQUARED SPACING: 0.0625
Info: NONBONDED TABLE SIZE: 705 POINTS
TCL: Setting parameter alchLambda2 to 0.5999999999999996
Info: NONBONDED TABLE R-SQUARED SPACING: 0.0625
Info: NONBONDED TABLE SIZE: 705 POINTS
TCL: Running for 1500000 steps
ETITLE: TS BOND ANGLE DIHED IMPRP ELECT VDW BOUNDARY MISC KINETIC TOTAL TEMP POTENTIAL TOTALAVG TEMPAVG PRESSURE GPRESSURE VOLUME PRESSAVG GPRESSAVG
ENERGY: 0 0.3634 5.7451 2.7418 0.0000 -10709.7965 1389.3994 0.0000 0.0000 1789.4538 -7522.0930 303.9130 -9311.5468 -7522.0930 303.9130 -546.2664 -466.6531 30768.0370 -546.2664 -466.6531
ENERGY: 300000 2.0870 5.1309 3.2845 0.0000 -10744.4289 1487.0597 0.0000 0.0000 1796.7287 -7450.1380 305.1485 -9246.8667 -7504.2565 302.6013 374.7769 451.3051 30309.2425 -196.3844 -120.3449
ENERGY: 600000 0.6085 3.9356 2.6750 0.0000 -10721.4016 1382.2621 0.0000 0.0000 1716.1438 -7615.7767 291.4623 -9331.9204 -7541.1233 298.1454 -589.3912 -537.0052 30149.8387 -335.3267 -258.3218
ENERGY: 900000 0.4124 3.2792 2.4601 0.0000 -10687.3051 1377.9855 0.0000 0.0000 1785.0473 -7518.1207 303.1646 -9303.1679 -7539.0635 299.5490 -464.0557 -360.7951 30240.0840 -271.4657 -197.7819
ENERGY: 1200000 0.1780 3.5288 2.4480 0.0000 -10769.1298 1466.5674 0.0000 0.0000 1759.6502 -7536.7573 298.8513 -9296.4076 -7555.5026 298.5724 69.9865 126.4770 30500.6564 -226.2369 -153.7306
ENERGY: 1500000 1.4361 3.1032 3.0983 0.0000 -10731.6180 1465.9668 0.0000 0.0000 1741.3674 -7516.6462 295.7462 -9258.0136 -7552.5612 298.4863 190.0960 231.8689 30370.0609 -145.7303 -83.0333
TCL: Running FEP window   9: Lambda1 0.5999999999999996 Lambda2 0.5499999999999996 [dLambda -0.050000000000000044]
TCL: Setting parameter firsttimestep to 0
TCL: Setting parameter alchLambda to 0.5999999999999996
Info: NONBONDED TABLE R-SQUARED SPACING: 0.0625
Info: NONBONDED TABLE SIZE: 705 POINTS
TCL: Setting parameter alchLambda2 to 0.5499999999999996
Info: NONBONDED TABLE R-SQUARED SPACING: 0.0625
Info: NONBONDED TABLE SIZE: 705 POINTS
TCL: Running for 1500000 steps
ETITLE: TS BOND ANGLE DIHED IMPRP ELECT VDW BOUNDARY MISC KINETIC TOTAL TEMP POTENTIAL TOTALAVG TEMPAVG PRESSURE GPRESSURE VOLUME PRESSAVG GPRESSAVG
ENERGY: 0 1.4361 3.1032 3.0983 0.0000 -10730.4821 1465.5450 0.0000 0.0000 1740.5069 -7516.7925 295.6000 -9257.2994 -7516.7925 295.6000 130.4422 226.6461 30370.0609 130.4422 226.6461
ENERGY: 300000 1.0685 9.2501 3.0654 0.0000 -10688.9211 1414.7660 0.0000 0.0000 1776.9193 -7483.8519 301.7842 -9260.7712 -7519.5512 299.0672 -290.5700 -233.0542 30521.5645 79.1060 130.8041
ENERGY: 600000 0.9858 8.5709 2.8590 0.0000 -10650.7526 1434.1429 0.0000 0.0000 1745.3874 -7458.8065 296.4289 -9204.1939 -7515.7886 299.0147 -17.3201 19.4133 30839.4229 -40.7083 17.3585
ENERGY: 900000 0.4544 4.3168 2.6815 0.0000 -10756.4553 1458.9932 0.0000 0.0000 1784.0850 -7505.9244 303.0012 -9290.0094 -7521.6398 298.5365 -52.8290 56.6017 30552.8512 -128.9422 -66.9156
ENERGY: 1200000 0.0474 6.9831 3.9288 0.0000 -10785.3776 1439.3979 0.0000 0.0000 1746.9575 -7588.0629 296.6956 -9335.0204 -7530.5705 298.8767 -15.5298 45.5124 29972.7529 -130.8732 -63.7436
ENERGY: 1500000 0.7240 5.4016 2.5428 0.0000 -10664.5731 1407.9564 0.0000 0.0000 1746.4731 -7501.4751 296.6133 -9247.9482 -7527.1064 299.1059 -57.3766 -26.2298 30330.1934 -112.4694 -52.1721
TCL: Running FEP window  10: Lambda1 0.5499999999999996 Lambda2 0.4999999999999996 [dLambda -0.04999999999999999]
TCL: Setting parameter firsttimestep to 0
TCL: Setting parameter alchLambda to 0.5499999999999996
Info: NONBONDED TABLE R-SQUARED SPACING: 0.0625
Info: NONBONDED TABLE SIZE: 705 POINTS
TCL: Setting parameter alchLambda2 to 0.4999999999999996
Info: NONBONDED TABLE R-SQUARED SPACING: 0.0625
Info: NONBONDED TABLE SIZE: 705 POINTS
TCL: Running for 1500000 steps
ETITLE: TS BOND ANGLE DIHED IMPRP ELECT VDW BOUNDARY MISC KINETIC TOTAL TEMP POTENTIAL TOTALAVG TEMPAVG PRESSURE GPRESSURE VOLUME PRESSAVG GPRESSAVG
ENERGY: 0 0.7240 5.4016 2.5428 0.0000 -10664.4540 1408.2740 0.0000 0.0000 1745.5439 -7501.9677 296.4555 -9247.5116 -7501.9677 296.4555 -112.0862 -26.8433 30330.1934 -112.0862 -26.8433
ENERGY: 300000 2.1146 4.2676 2.9800 0.0000 -10771.3000 1422.6843 0.0000 0.0000 1744.2975 -7594.9560 296.2438 -9339.2535 -7511.9879 300.5811 -513.2038 -410.2635 30823.4572 -335.2998 -283.1375
ENERGY: 600000 2.0129 5.3500 2.5205 0.0000 -10793.9380 1510.7711 0.0000 0.0000 1773.4180 -7499.8655 301.1895 -9273.2835 -7518.6568 300.5272 416.6738 500.0290 30594.6610 -130.8112 -71.9160
ENERGY: 900000 1.9268 3.2147 2.5548 0.0000 -10603.5688 1408.3671 0.0000 0.0000 1751.8435 -7435.6618 297.5254 -9187.5053 -7505.7178 300.2451 -200.5839 -44.9505 30668.0033 -181.1483 -111.9696
ENERGY: 1200000 1.5562 4.6242 2.7786 0.0000 -10670.3193 1380.0162 0.0000 0.0000 1773.9041 -7507.4401 301.2721 -9281.3441 -7508.4575 300.1411 -706.1173 -679.4965 30807.8698 -182.6031 -115.7893
ENERGY: 1500000 2.6092 5.5196 2.9247 0.0000 -10684.8212 1347.1053 0.0000 0.0000 1796.3455 -7530.3169 305.0834 -9326.6624 -7514.2275 299.9973 -837.4864 -762.0891 30217.1484 -255.0741 -195.1757
TCL: Running FEP window  11: Lambda1 0.4999999999999996 Lambda2 0.4499999999999996 [dLambda -0.04999999999999999]
TCL: Setting parameter firsttimestep to 0
TCL: Setting parameter alchLambda to 0.4999999999999996
Info: NONBONDED TABLE R-SQUARED SPACING: 0.0625
Info: NONBONDED TABLE SIZE: 705 POINTS
TCL: Setting parameter alchLambda2 to 0.4499999999999996
Info: NONBONDED TABLE R-SQUARED SPACING: 0.0625
Info: NONBONDED TABLE SIZE: 705 POINTS
TCL: Running for 1500000 steps
ETITLE: TS BOND ANGLE DIHED IMPRP ELECT VDW BOUNDARY MISC KINETIC TOTAL TEMP POTENTIAL TOTALAVG TEMPAVG PRESSURE GPRESSURE VOLUME PRESSAVG GPRESSAVG
ENERGY: 0 2.6092 5.5196 2.9247 0.0000 -10684.5324 1347.2863 0.0000 0.0000 1795.4671 -7530.7256 304.9342 -9326.1927 -7530.7256 304.9342 -852.7703 -764.4860 30217.1484 -852.7703 -764.4860
ENERGY: 300000 0.5429 5.4819 3.0022 0.0000 -10813.3070 1472.3029 0.0000 0.0000 1719.7015 -7612.2756 292.0665 -9331.9771 -7576.5106 297.9268 156.0458 225.7759 30215.0839 -526.2542 -450.5717
ENERGY: 600000 0.5069 3.8850 2.0170 0.0000 -10540.2135 1338.5618 0.0000 0.0000 1750.8333 -7444.4094 297.3538 -9195.2428 -7543.5120 297.7308 -551.0332 -454.0999 30530.0541 -291.4997 -212.6865
ENERGY: 900000 0.2617 5.2989 2.1600 0.0000 -10786.1608 1439.8502 0.0000 0.0000 1736.1393 -7602.4508 294.8583 -9338.5902 -7533.3074 299.0625 -385.4945 -295.6736 30784.2117 -256.7372 -181.2469
ENERGY: 1200000 0.2031 3.6294 3.1253 0.0000 -10599.2012 1300.7070 0.0000 0.0000 1702.7758 -7588.7605 289.1920 -9291.5363 -7530.4079 298.1946 -1312.2107 -1274.0129 30786.0158 -231.2409 -165.5370
ENERGY: 1500000 0.3280 2.8737 2.3554 0.0000 -10821.9807 1471.2821 0.0000 0.0000 1744.9043 -7600.2371 296.3469 -9345.1414 -7532.8989 299.2211 183.9768 185.6811 30251.5751 -180.3726 -119.7996
TCL: Running FEP window  12: Lambda1 0.4499999999999996 Lambda2 0.39999999999999963 [dLambda -0.04999999999999999]
TCL: Setting parameter firsttimestep to 0
TCL: Setting parameter alchLambda to 0.4499999999999996
Info: NONBONDED TABLE R-SQUARED SPACING: 0.0625
Info: NONBONDED TABLE SIZE: 705 POINTS
TCL: Setting parameter alchLambda2 to 0.39999999999999963
Info: NONBONDED TABLE R-SQUARED SPACING: 0.0625
Info: NONBONDED TABLE SIZE: 705 POINTS
TCL: Running for 1500000 steps
ETITLE: TS BOND ANGLE DIHED IMPRP ELECT VDW BOUNDARY MISC KINETIC TOTAL TEMP POTENTIAL TOTALAVG TEMPAVG PRESSURE GPRESSURE VOLUME PRESSAVG GPRESSAVG
ENERGY: 0 0.3280 2.8737 2.3554 0.0000 -10821.9817 1471.3162 0.0000 0.0000 1744.0069 -7601.1014 296.1945 -9345.1083 -7601.1014 296.1945 107.1586 178.5011 30251.5751 107.1586 178.5011
ENERGY: 300000 2.4513 5.6352 3.4850 0.0000 -10746.7451 1459.4352 0.0000 0.0000 1755.1035 -7520.6347 298.0791 -9275.7382 -7547.9227 298.4313 195.9474 220.2350 30552.0169 -145.0577 -94.1199
ENERGY: 600000 0.2007 5.7709 3.4636 0.0000 -10698.9928 1444.0253 0.0000 0.0000 1807.7706 -7437.7616 307.0238 -9245.5322 -7544.9080 299.4397 -16.9769 76.2314 30650.6398 -16.5804 49.5245
ENERGY: 900000 0.5160 4.9065 3.1672 0.0000 -10758.3312 1409.2548 0.0000 0.0000 1788.4679 -7552.0188 303.7455 -9340.4868 -7532.2975 300.4325 -335.0848 -232.7363 30110.9344 -83.1960 -15.4180
ENERGY: 1200000 0.1917 5.4764 2.7181 0.0000 -10750.9856 1460.8393 0.0000 0.0000 1767.4595 -7514.3006 300.1775 -9281.7601 -7522.7261 299.8247 -15.4712 130.2530 30705.4199 -146.1101 -70.4171
ENERGY: 1500000 1.0586 4.9801 2.7916 0.0000 -10715.6215 1414.6497 0.0000 0.0000 1769.5425 -7522.5990 300.5313 -9292.1415 -7515.9727 300.4447 -333.2665 -255.6762 30486.5165 -132.6493 -64.6456
TCL: Running FEP window  13: Lambda1 0.39999999999999963 Lambda2 0.34999999999999964 [dLambda -0.04999999999999999]
TCL: Setting parameter firsttimestep to 0
TCL: Setting parameter alchLambda to 0.39999999999999963
Info: NONBONDED TABLE R-SQUARED SPACING: 0.0625
Info: NONBONDED TABLE SIZE: 705 POINTS
TCL: Setting parameter alchLambda2 to 0.34999999999999964
Info: NONBONDED TABLE R-SQUARED SPACING: 0.0625
Info: NONBONDED TABLE SIZE: 705 POINTS
TCL: Running for 1500000 steps
ETITLE: TS BOND ANGLE DIHED IMPRP ELECT VDW BOUNDARY MISC KINETIC TOTAL TEMP POTENTIAL TOTALAVG TEMPAVG PRESSURE GPRESSURE VOLUME PRESSAVG GPRESSAVG
ENERGY: 0 1.0586 4.9801 2.7916 0.0000 -10715.6206 1414.7973 0.0000 0.0000 1768.6612 -7523.3319 300.3816 -9291.9930 -7523.3319 300.3816 -351.2687 -255.8833 30486.5165 -351.2687 -255.8833
ENERGY: 300000 0.2646 3.5713 2.0048 0.0000 -10660.8742 1384.2726 0.0000 0.0000 1750.7793 -7519.9816 297.3447 -9270.7609 -7521.9159 300.5287 -424.9718 -369.3848 30376.3891 -109.4683 -44.3808
ENERGY: 600000 0.1487 6.3955 2.5078 0.0000 -10798.0338 1479.0046 0.0000 0.0000 1717.2947 -7592.6824 291.6578 -9309.9771 -7530.9995 299.7661 323.1651 350.9090 30222.1264 80.4341 128.5935
ENERGY: 900000 0.4706 4.8473 2.3727 0.0000 -10721.0291 1489.2517 0.0000 0.0000 1754.8202 -7469.2666 298.0309 -9224.0868 -7512.2988 300.1970 291.9380 380.7730 30747.4105 208.7603 267.1980
ENERGY: 1200000 0.9100 9.2961 3.1796 0.0000 -10711.7365 1416.8361 0.0000 0.0000 1786.4422 -7495.0726 303.4015 -9281.5147 -7519.3093 299.6258 -259.6474 -144.1027 30596.7053 107.1441 174.2399
ENERGY: 1500000 0.8013 5.2155 2.4325 0.0000 -10698.6671 1395.1936 0.0000 0.0000 1784.4605 -7510.5636 303.0649 -9295.0242 -7512.5137 300.9210 -408.5603 -286.8732 30532.2639 33.3128 104.2002
TCL: Running FEP window  14: Lambda1 0.34999999999999964 Lambda2 0.29999999999999966 [dLambda -0.04999999999999999]
TCL: Setting parameter firsttimestep to 0
TCL: Setting parameter alchLambda to 0.34999999999999964
Info: NONBONDED TABLE R-SQUARED SPACING: 0.0625
Info: NONBONDED TABLE SIZE: 705 POINTS
TCL: Setting parameter alchLambda2 to 0.29999999999999966
Info: NONBONDED TABLE R-SQUARED SPACING: 0.0625
Info: NONBONDED TABLE SIZE: 705 POINTS
TCL: Running for 1500000 steps
ETITLE: TS BOND ANGLE DIHED IMPRP ELECT VDW BOUNDARY MISC KINETIC TOTAL TEMP POTENTIAL TOTALAVG TEMPAVG PRESSURE GPRESSURE VOLUME PRESSAVG GPRESSAVG
ENERGY: 0 0.8013 5.2155 2.4325 0.0000 -10698.6676 1395.2965 0.0000 0.0000 1783.5762 -7511.3456 302.9147 -9294.9218 -7511.3456 302.9147 -377.9213 -289.3645 30532.2639 -377.9213 -289.3645
ENERGY: 300000 2.4372 5.6306 3.0486 0.0000 -10670.4931 1375.7314 0.0000 0.0000 1776.9184 -7506.7268 301.7840 -9283.6452 -7493.5467 299.9817 -873.4626 -760.6198 30919.8332 -575.1819 -499.6685
ENERGY: 600000 0.8799 4.9008 2.7438 0.0000 -10747.3461 1456.1723 0.0000 0.0000 1753.6418 -7529.0076 297.8308 -9282.6494 -7526.6102 298.2440 -140.1041 -41.8186 30801.6793 -225.2931 -154.6429
ENERGY: 900000 0.7769 5.9224 2.5655 0.0000 -10619.6660 1365.7969 0.0000 0.0000 1678.6324 -7565.9719 285.0916 -9244.6043 -7542.1021 297.0035 -513.0686 -500.8927 30456.5423 -307.1386 -237.4243
ENERGY: 1200000 1.2519 6.8239 2.1108 0.0000 -10730.3711 1399.8319 0.0000 0.0000 1751.8930 -7568.4596 297.5338 -9320.3526 -7537.4906 296.8301 -693.3435 -588.8893 30865.3849 -299.5624 -229.6349
ENERGY: 1500000 0.3141 4.3445 3.0607 0.0000 -10797.1782 1447.0726 0.0000 0.0000 1793.9679 -7548.4184 304.6796 -9342.3863 -7527.8584 297.8326 -295.8517 -157.0548 30289.3504 -233.0080 -163.5485
TCL: Running FEP window  15: Lambda1 0.29999999999999966 Lambda2 0.24999999999999967 [dLambda -0.04999999999999999]
TCL: Setting parameter firsttimestep to 0
TCL: Setting parameter alchLambda to 0.29999999999999966
Info: NONBONDED TABLE R-SQUARED SPACING: 0.0625
Info: NONBONDED TABLE SIZE: 705 POINTS
TCL: Setting parameter alchLambda2 to 0.24999999999999967
Info: NONBONDED TABLE R-SQUARED SPACING: 0.0625
Info: NONBONDED TABLE SIZE: 705 POINTS
TCL: Running for 1500000 steps
ETITLE: TS BOND ANGLE DIHED IMPRP ELECT VDW BOUNDARY MISC KINETIC TOTAL TEMP POTENTIAL TOTALAVG TEMPAVG PRESSURE GPRESSURE VOLUME PRESSAVG GPRESSAVG
ENERGY: 0 0.3141 4.3445 3.0607 0.0000 -10797.1783 1447.1870 0.0000 0.0000 1793.0610 -7549.2111 304.5256 -9342.2721 -7549.2111 304.5256 -244.4419 -155.7692 30289.3504 -244.4419 -155.7692
ENERGY: 300000 0.0836 2.3566 4.0069 0.0000 -10786.9462 1418.3152 0.0000 0.0000 1794.9914 -7567.1925 304.8535 -9362.1840 -7544.0070 304.4214 -223.7254 -165.3866 30292.7014 -270.6736 -194.6891
ENERGY: 600000 1.8054 7.3319 1.9645 0.0000 -10682.9201 1482.2670 0.0000 0.0000 1801.0582 -7388.4930 305.8838 -9189.5512 -7534.9708 303.6517 756.6162 841.8716 30197.5482 35.2460 96.5035
ENERGY: 900000 1.5320 2.6202 3.1420 0.0000 -10644.7680 1417.7438 0.0000 0.0000 1766.8807 -7452.8493 300.0792 -9219.7300 -7526.3275 302.4418 -55.2238 -56.9141 30544.1893 -49.0544 9.6185
ENERGY: 1200000 0.1445 5.6672 3.9044 0.0000 -10771.4522 1431.9589 0.0000 0.0000 1763.1352 -7566.6420 299.4431 -9329.7772 -7537.1646 300.6601 2.8676 36.2408 29971.2709 -130.7262 -74.8943
ENERGY: 1500000 0.8804 4.2833 2.4836 0.0000 -10785.5168 1463.8684 0.0000 0.0000 1766.8512 -7547.1499 300.0742 -9314.0011 -7538.9757 299.5445 15.3704 109.1038 30196.2108 -79.1007 -22.2800
TCL: Running FEP window  16: Lambda1 0.24999999999999967 Lambda2 0.19999999999999968 [dLambda -0.04999999999999999]
TCL: Setting parameter firsttimestep to 0
TCL: Setting parameter alchLambda to 0.24999999999999967
Info: NONBONDED TABLE R-SQUARED SPACING: 0.0625
Info: NONBONDED TABLE SIZE: 705 POINTS
TCL: Setting parameter alchLambda2 to 0.19999999999999968
Info: NONBONDED TABLE R-SQUARED SPACING: 0.0625
Info: NONBONDED TABLE SIZE: 705 POINTS
TCL: Running for 1500000 steps
ETITLE: TS BOND ANGLE DIHED IMPRP ELECT VDW BOUNDARY MISC KINETIC TOTAL TEMP POTENTIAL TOTALAVG TEMPAVG PRESSURE GPRESSURE VOLUME PRESSAVG GPRESSAVG
ENERGY: 0 0.8804 4.2833 2.4836 0.0000 -10785.5168 1463.8581 0.0000 0.0000 1765.9246 -7548.0869 299.9169 -9314.0114 -7548.0869 299.9169 27.2837 107.9440 30196.2108 27.2837 107.9440
ENERGY: 300000 0.6330 3.4391 2.2911 0.0000 -10688.6886 1467.8558 0.0000 0.0000 1781.7929 -7432.6768 302.6119 -9214.4696 -7510.6241 299.8194 378.2573 447.7726 30515.7286 -201.7884 -134.9166
ENERGY: 600000 0.6986 6.2354 2.0154 0.0000 -10751.5619 1456.5780 0.0000 0.0000 1759.8576 -7526.1770 298.8865 -9286.0346 -7520.4936 300.6784 248.9720 351.3172 30089.6202 -226.4076 -165.6467
ENERGY: 900000 0.4841 4.4436 2.2519 0.0000 -10608.8798 1428.2703 0.0000 0.0000 1715.6512 -7457.7787 291.3787 -9173.4298 -7527.9347 298.8030 22.5977 154.7045 30636.9006 -86.1144 -21.4349
ENERGY: 1200000 1.6549 5.4512 2.0570 0.0000 -10837.2879 1456.6582 0.0000 0.0000 1733.1746 -7638.2920 294.3548 -9371.4666 -7538.9989 298.3444 67.7199 140.5771 29880.0737 -78.3694 -21.0405
ENERGY: 1500000 2.1026 4.9606 2.1886 0.0000 -10820.2936 1447.3268 0.0000 0.0000 1714.4811 -7649.2339 291.1799 -9363.7150 -7541.4522 298.2432 -161.7438 -67.9546 30199.7488 -74.2910 -23.3830
TCL: Running FEP window  17: Lambda1 0.19999999999999968 Lambda2 0.1499999999999997 [dLambda -0.04999999999999999]
TCL: Setting parameter firsttimestep to 0
TCL: Setting parameter alchLambda to 0.19999999999999968
Info: NONBONDED TABLE R-SQUARED SPACING: 0.0625
Info: NONBONDED TABLE SIZE: 705 POINTS
TCL: Setting parameter alchLambda2 to 0.1499999999999997
Info: NONBONDED TABLE R-SQUARED SPACING: 0.0625
Info: NONBONDED TABLE SIZE: 705 POINTS
TCL: Running for 1500000 steps
ETITLE: TS BOND ANGLE DIHED IMPRP ELECT VDW BOUNDARY MISC KINETIC TOTAL TEMP POTENTIAL TOTALAVG TEMPAVG PRESSURE GPRESSURE VOLUME PRESSAVG GPRESSAVG
ENERGY: 0 2.1026 4.9606 2.1886 0.0000 -10820.2926 1447.2973 0.0000 0.0000 1713.6254 -7650.1181 291.0346 -9363.7436 -7650.1181 291.0346 -156.3699 -68.8132 30199.7488 -156.3699 -68.8132
ENERGY: 300000 1.1472 5.3472 2.0305 0.0000 -10812.0445 1480.4354 0.0000 0.0000 1790.8170 -7532.2671 304.1445 -9323.0841 -7549.1989 298.3226 615.4838 593.2829 29598.1235 265.4681 305.6830
ENERGY: 600000 0.3620 8.1548 4.9494 0.0000 -10732.3851 1467.6185 0.0000 0.0000 1733.9494 -7517.3510 294.4863 -9251.3005 -7540.7198 298.1262 -117.9599 -44.6620 30941.6025 252.5096 301.2873
ENERGY: 900000 0.6812 4.4124 1.9622 0.0000 -10835.6306 1503.4590 0.0000 0.0000 1793.5143 -7531.6016 304.6026 -9325.1159 -7528.5764 299.3797 392.7302 434.0406 30602.1995 159.7509 217.2661
ENERGY: 1200000 0.7705 2.7203 1.9867 0.0000 -10692.6910 1411.1392 0.0000 0.0000 1807.3963 -7468.6780 306.9602 -9276.0743 -7526.4431 299.8679 -23.0428 -1.6863 30313.3036 67.6695 120.1220
ENERGY: 1500000 1.1614 4.3243 4.0439 0.0000 -10722.1521 1448.3333 0.0000 0.0000 1790.6923 -7473.5970 304.1233 -9264.2893 -7521.0442 300.2108 406.9034 482.3224 29842.1343 -9.4136 46.3925
TCL: Running FEP window  18: Lambda1 0.1499999999999997 Lambda2 0.09999999999999969 [dLambda -0.05 ]
TCL: Setting parameter firsttimestep to 0
TCL: Setting parameter alchLambda to 0.1499999999999997
Info: NONBONDED TABLE R-SQUARED SPACING: 0.0625
Info: NONBONDED TABLE SIZE: 705 POINTS
TCL: Setting parameter alchLambda2 to 0.09999999999999969
Info: NONBONDED TABLE R-SQUARED SPACING: 0.0625
Info: NONBONDED TABLE SIZE: 705 POINTS
TCL: Running for 1500000 steps
ETITLE: TS BOND ANGLE DIHED IMPRP ELECT VDW BOUNDARY MISC KINETIC TOTAL TEMP POTENTIAL TOTALAVG TEMPAVG PRESSURE GPRESSURE VOLUME PRESSAVG GPRESSAVG
ENERGY: 0 1.1614 4.3243 4.0439 0.0000 -10722.1511 1448.5486 0.0000 0.0000 1789.7979 -7474.2751 303.9714 -9264.0730 -7474.2751 303.9714 392.3563 479.8701 29842.1343 392.3563 479.8701
ENERGY: 300000 0.8641 8.2291 2.1836 0.0000 -10648.9495 1423.3576 0.0000 0.0000 1796.9023 -7417.4129 305.1780 -9214.3152 -7470.4511 304.9773 -315.2749 -252.6085 31024.5634 235.4390 297.5246
ENERGY: 600000 1.0301 4.1941 2.8701 0.0000 -10623.3962 1350.4418 0.0000 0.0000 1793.1341 -7471.7261 304.5380 -9264.8602 -7471.6423 301.8492 -713.9046 -645.5766 30532.2497 -140.9337 -81.5892
ENERGY: 900000 0.8973 2.5450 2.7081 0.0000 -10868.2873 1500.8561 0.0000 0.0000 1725.3323 -7635.9485 293.0229 -9361.2808 -7492.3231 300.4979 267.1379 215.7748 30350.6049 -108.6753 -46.5543
ENERGY: 1200000 0.3979 4.7057 2.4887 0.0000 -10805.3871 1446.3217 0.0000 0.0000 1835.7789 -7515.6941 311.7806 -9351.4731 -7486.9651 301.5121 -163.2797 -146.7394 30277.6691 -101.8540 -46.3887
ENERGY: 1500000 0.8780 7.0696 3.1036 0.0000 -10795.8653 1469.3593 0.0000 0.0000 1811.8996 -7503.5552 307.7251 -9315.4548 -7492.0201 302.5274 204.3627 321.2005 30011.8362 -97.7108 -38.7998
TCL: Running FEP window  19: Lambda1 0.09999999999999969 Lambda2 0.049999999999999684 [dLambda -0.05 ]
TCL: Setting parameter firsttimestep to 0
TCL: Setting parameter alchLambda to 0.09999999999999969
Info: NONBONDED TABLE R-SQUARED SPACING: 0.0625
Info: NONBONDED TABLE SIZE: 705 POINTS
TCL: Setting parameter alchLambda2 to 0.049999999999999684
Info: NONBONDED TABLE R-SQUARED SPACING: 0.0625
Info: NONBONDED TABLE SIZE: 705 POINTS
TCL: Running for 1500000 steps
ETITLE: TS BOND ANGLE DIHED IMPRP ELECT VDW BOUNDARY MISC KINETIC TOTAL TEMP POTENTIAL TOTALAVG TEMPAVG PRESSURE GPRESSURE VOLUME PRESSAVG GPRESSAVG
ENERGY: 0 0.8780 7.0696 3.1036 0.0000 -10795.8657 1469.6584 0.0000 0.0000 1811.0097 -7504.1464 307.5739 -9315.1561 -7504.1464 307.5739 245.8395 321.6658 30011.8362 245.8395 321.6658
ENERGY: 300000 1.4106 3.8064 2.4606 0.0000 -10816.2044 1459.8121 0.0000 0.0000 1786.7644 -7561.9503 303.4562 -9348.7147 -7499.3221 305.1465 -234.1534 -147.6518 30763.7031 -245.7889 -171.0368
ENERGY: 600000 2.5889 3.5584 2.7811 0.0000 -10676.5130 1416.2293 0.0000 0.0000 1773.8216 -7477.5337 301.2581 -9251.3553 -7524.9338 302.7374 -400.9906 -375.0374 30600.4204 -400.1479 -321.1495
ENERGY: 900000 0.3084 7.0609 2.1360 0.0000 -10743.1490 1500.4683 0.0000 0.0000 1829.6414 -7403.5341 310.7383 -9233.1755 -7505.6049 301.9120 704.8973 734.7774 30240.0666 -271.3110 -193.3378
ENERGY: 1200000 1.2206 8.0759 3.7679 0.0000 -10883.6967 1552.0995 0.0000 0.0000 1749.8211 -7568.7117 297.1819 -9318.5328 -7515.9030 301.1760 1212.4414 1291.1470 29549.5665 -105.5720 -33.8552
ENERGY: 1500000 2.4407 3.4642 2.4573 0.0000 -10828.8287 1521.9973 0.0000 0.0000 1788.4676 -7510.0016 303.7455 -9298.4692 -7510.3770 301.7261 726.8144 800.6718 30105.8551 23.9893 93.9408
TCL: Running FEP window  20: Lambda1 0.049999999999999684 Lambda2 0.0    [dLambda -0.049999999999999684]
TCL: Setting parameter firsttimestep to 0
TCL: Setting parameter alchLambda to 0.049999999999999684
Info: NONBONDED TABLE R-SQUARED SPACING: 0.0625
Info: NONBONDED TABLE SIZE: 705 POINTS
TCL: Setting parameter alchLambda2 to 0.0
Info: NONBONDED TABLE R-SQUARED SPACING: 0.0625
Info: NONBONDED TABLE SIZE: 705 POINTS
TCL: Running for 1500000 steps
ETITLE: TS BOND ANGLE DIHED IMPRP ELECT VDW BOUNDARY MISC KINETIC TOTAL TEMP POTENTIAL TOTALAVG TEMPAVG PRESSURE GPRESSURE VOLUME PRESSAVG GPRESSAVG
ENERGY: 0 2.4407 3.4642 2.4573 0.0000 -10828.8294 1521.7971 0.0000 0.0000 1787.5770 -7511.0931 303.5942 -9298.6701 -7511.0931 303.5942 712.5845 799.8096 30105.8551 712.5845 799.8096
ENERGY: 300000 0.4904 4.8365 4.3043 0.0000 -10900.6531 1586.0571 0.0000 0.0000 1817.0572 -7487.9075 308.6010 -9304.9647 -7506.6592 302.8942 867.0589 1008.0916 30338.8378 433.5013 521.1520
ENERGY: 600000 0.2367 3.9424 1.9753 0.0000 -10878.7298 1501.6342 0.0000 0.0000 1806.4591 -7564.4821 306.8011 -9370.9412 -7514.1175 304.3566 148.7649 192.4081 30319.7429 176.2431 253.9154
ENERGY: 900000 0.9746 3.7087 2.4717 0.0000 -10825.2752 1463.5920 0.0000 0.0000 1758.1373 -7596.3908 298.5943 -9354.5281 -7534.9285 302.5409 -31.9931 1.6694 30174.2809 1.7688 65.5036
ENERGY: 1200000 1.5214 6.9185 2.4749 0.0000 -10767.8677 1460.9353 0.0000 0.0000 1793.2093 -7502.8084 304.5508 -9296.0177 -7540.8055 301.2217 29.2233 78.4958 30649.8553 -0.0261 52.7088
ENERGY: 1500000 2.0495 5.1326 2.3453 0.0000 -10807.5661 1443.8032 0.0000 0.0000 1767.4447 -7586.7908 300.1750 -9354.2355 -7533.7507 301.1177 -332.8476 -227.2248 30501.1503 -50.0360 3.4884
TCL: Exiting due to exit command.
