Info: SIMULATION PARAMETERS:
Info: TIMESTEP               2
Info: NUMBER OF STEPS        0
Info: STEPS PER CYCLE        10
Info: PERIODIC CELL BASIS 1  31.271 0 0
Info: PERIODIC CELL BASIS 2  0 30.6011 0
Info: PERIODIC CELL BASIS 3  0 0 32.333
Info: PERIODIC CELL CENTER   0 0 0
Info: WRAPPING WATERS AROUND PERIODIC BOUNDARIES ON OUTPUT.
Info: WRAPPING ALL CLUSTERS AROUND PERIODIC BOUNDARIES ON OUTPUT.
Info: FIRST LDB TIMESTEP     50
Info: LAST LDB TIMESTEP     -1
Info: HOM BACKGROUND SCALING 1
Info: PME BACKGROUND SCALING 1
Info: MIN ATOMS PER PATCH    40
Info: EMPTY PATCH LOAD       40 ATOMS
Info: VELOCITY FILE          mobley_4715906_equil.vel
Info: CENTER OF MASS MOVING INITIALLY? NO
Info: DIELECTRIC             1
Info: EXCLUDE                SCALED ONE-FOUR
Info: 1-4 ELECTROSTATICS SCALED BY 0.833333
Info: MODIFIED 1-4 VDW PARAMETERS WILL BE USED
Info: DCD FILENAME           mobley_4715906_prod.dcd
Info: DCD FREQUENCY          100000
Info: DCD FIRST STEP         100000
Info: DCD FILE WILL CONTAIN UNIT CELL DATA
Info: XST FILENAME           mobley_4715906_prod.xst
Info: XST FREQUENCY          100000
Info: NO VELOCITY DCD OUTPUT
Info: NO FORCE DCD OUTPUT
Info: OUTPUT FILENAME        mobley_4715906_prod
Info: BINARY OUTPUT FILES WILL BE USED
Info: RESTART FILENAME       mobley_4715906_prod.restart
Info: RESTART FREQUENCY      100000
Info: BINARY RESTART FILES WILL BE USED
Info: CUTOFF                 9
Info: PAIRLIST DISTANCE      11
Info: PAIRLIST SHRINK RATE   0.01
Info: PAIRLIST GROW RATE     0.01
Info: PAIRLIST TRIGGER       0.3
Info: PAIRLISTS PER CYCLE    2
Info: PAIRLISTS ENABLED
Info: MARGIN                 2
Info: HYDROGEN GROUP CUTOFF  2.5
Info: PATCH DIMENSION        15.5
Info: ENERGY OUTPUT STEPS    100000
Info: ENERGY EVALUATION STEPS    100000
Info: OUTPUT ENERGY PRECISION 4
Info: CROSSTERM ENERGY INCLUDED IN DIHEDRAL
Info: TIMING OUTPUT STEPS    1000000
Info: PRESSURE OUTPUT STEPS  100000
Info: ALCHEMICAL FEP ON
Info: FEP CURRENT LAMBDA VALUE     1
Info: FEP COMPARISON LAMBDA VALUE  0.95
Info: FEP INTRA-ALCHEMICAL NON-BONDED INTERACTIONS WILL BE RETAINED
Info: FEP INTRA-ALCHEMICAL BONDED INTERACTIONS WILL BE RETAINED
Info: FEP VDW SHIFTING COEFFICIENT 5
Info: FEP ELEC. ACTIVE FOR ANNIHILATED PARTICLES BETWEEN LAMBDA = 0 AND LAMBDA = 0.5
Info: FEP ELEC. ACTIVE FOR EXNIHILATED PARTICLES BETWEEN LAMBDA = 0.5 AND LAMBDA = 1
Info: FEP VDW ACTIVE FOR ANNIHILATED PARTICLES BETWEEN LAMBDA = 0 AND LAMBDA = 1
Info: FEP VDW ACTIVE FOR EXNIHILATED PARTICLES BETWEEN LAMBDA = 0 AND LAMBDA = 1
Info: FEP BOND ACTIVE FOR ANNIHILATED PARTICLES BETWEEN LAMBDA = 1 AND LAMBDA = 1
Info: FEP BOND ACTIVE FOR EXNIHILATED PARTICLES BETWEEN LAMBDA = 0 AND LAMBDA = 0
Info: LANGEVIN DYNAMICS ACTIVE
Info: LANGEVIN TEMPERATURE   300
Info: LANGEVIN USING BBK INTEGRATOR
Info: LANGEVIN DAMPING COEFFICIENT IS 1 INVERSE PS
Info: LANGEVIN DYNAMICS APPLIED TO HYDROGENS
Info: LANGEVIN PISTON PRESSURE CONTROL ACTIVE
Info:        TARGET PRESSURE IS 1.01325 BAR
Info:     OSCILLATION PERIOD IS 50 FS
Info:             DECAY TIME IS 25 FS
Info:     PISTON TEMPERATURE IS 300 K
Info:       PRESSURE CONTROL IS GROUP-BASED
Info:    INITIAL STRAIN RATE IS -0.000180274 -0.000180274 -0.000180274
Info:       CELL FLUCTUATION IS ISOTROPIC
Info: PARTICLE MESH EWALD (PME) ACTIVE
Info: PME TOLERANCE               1e-06
Info: PME EWALD COEFFICIENT       0.348832
Info: PME INTERPOLATION ORDER     4
Info: PME GRID DIMENSIONS         32 32 36
Info: PME MAXIMUM GRID SPACING    1
Info: PME CALCULATION WILL BE PERFORMED ON GPU
Info: FULL ELECTROSTATIC EVALUATION FREQUENCY      2
Info: USING VERLET I (r-RESPA) MTS SCHEME.
Info: C1 SPLITTING OF LONG RANGE ELECTROSTATICS
Info: PLACING ATOMS IN PATCHES BY HYDROGEN GROUPS
Info: RIGID BONDS TO HYDROGEN : ALL
Info:         ERROR TOLERANCE : 1e-08
Info:          MAX ITERATIONS : 100
Info: RIGID WATER USING SETTLE ALGORITHM
Info: RANDOM NUMBER SEED     1743651407
Info: USE HYDROGEN BONDS?    NO
Info: Using AMBER format force field!
Info: AMBER PARM FILE        mobley_4715906.prmtop
Info: COORDINATE PDB         mobley_4715906.pdb
Info: Exclusions will be read from PARM file!
Info: SCNB (VDW SCALING)     2
Info: USING ARITHMETIC MEAN TO COMBINE L-J SIGMA PARAMETERS
Info: BINARY COORDINATES     mobley_4715906_equil.coor
Info: SUMMARY OF PARAMETERS:
Info: 4 BONDS
Info: 3 ANGLES
Info:   3 HARMONIC
Info:   0 COSINE-BASED
Info: 5 DIHEDRAL
Info: 0 IMPROPER
Info: 0 CROSSTERM
Info: 0 VDW
Info: 10 VDW_PAIRS
Info: 0 NBTHOLE_PAIRS
Info: To read alchdata from file: mobley_4715906.pdb
Info: To read alchflag data from column: 5
Info: STRUCTURE SUMMARY:
Info: 2961 ATOMS
Info: 2961 BONDS
Info: 48 ANGLES
Info: 94 DIHEDRALS
Info: 0 IMPROPERS
Info: 0 CROSSTERMS
Info: 3078 EXCLUSIONS
Info: 2953 RIGID BONDS
Info: ALCH: 0 ATOMS TO DISAPPEAR IN FINAL STATE
Info: ALCH: 24 ATOMS TO APPEAR IN FINAL STATE
Info: 5930 DEGREES OF FREEDOM
Info: 987 HYDROGEN GROUPS
Info: 4 ATOMS IN LARGEST HYDROGEN GROUP
Info: 987 MIGRATION GROUPS
Info: 4 ATOMS IN LARGEST MIGRATION GROUP
Info: TOTAL MASS = 17749.9 amu
Info: TOTAL CHARGE = -0.000199981 e
Info: MASS DENSITY = 0.952641 g/cm^3
Info: ATOM DENSITY = 0.0957003 atoms/A^3
Info: ADDED 0 IMPLICIT EXCLUSIONS
Info: NONBONDED TABLE R-SQUARED SPACING: 0.0625
Info: NONBONDED TABLE SIZE: 705 POINTS
Info: REMOVING COM VELOCITY 0.0745785 -0.104703 -0.0906693
Info: Use 3D box decompostion in PME FFT.
Info: Updated CUDA force table with 4096 elements.
Info: Updated CUDA LJ table with 4 x 4 elements.
Info: Found 27 unique exclusion lists needing 84 bytes
TCL: Running for 1500000 steps
ETITLE: TS BOND ANGLE DIHED IMPRP ELECT VDW BOUNDARY MISC KINETIC TOTAL TEMP POTENTIAL TOTALAVG TEMPAVG PRESSURE GPRESSURE VOLUME PRESSAVG GPRESSAVG
ENERGY: 0 1.3355 16.8589 6.4266 0.0000 -10694.6914 1496.3212 0.0000 0.0000 1761.8135 -7411.9357 299.0168 -9173.7492 -7411.9357 299.0168 491.6466 562.1723 30940.3482 491.6466 562.1723
ENERGY: 300000 2.6764 9.3710 6.2443 0.0000 -10728.3738 1492.3988 0.0000 0.0000 1743.7784 -7473.9048 295.9559 -9217.6832 -7461.5889 299.9998 487.3853 555.5722 30556.5197 242.5942 304.5466
ENERGY: 600000 3.9525 21.7083 5.6773 0.0000 -10679.3047 1466.2317 0.0000 0.0000 1764.5620 -7417.1730 299.4833 -9181.7350 -7458.0724 300.2014 364.4928 476.4003 30208.8616 38.8343 107.7704
ENERGY: 900000 3.5750 11.7126 6.3121 0.0000 -10736.8608 1440.6906 0.0000 0.0000 1837.7226 -7436.8479 311.9002 -9274.5706 -7456.7331 301.5876 -308.9917 -177.5457 30515.9697 80.5594 161.9143
ENERGY: 1200000 2.6924 10.6261 6.1122 0.0000 -10782.7376 1448.9220 0.0000 0.0000 1706.9077 -7607.4772 289.6981 -9314.3849 -7468.1079 300.3377 173.6847 204.0426 30038.1112 25.3821 100.4244
ENERGY: 1500000 3.6701 12.9974 6.0061 0.0000 -10637.1233 1446.5958 0.0000 0.0000 1776.4314 -7391.4225 301.4978 -9167.8540 -7467.7663 299.9845 144.3109 194.3089 30899.0309 28.6348 103.8659
TCL: Running FEP window   2: Lambda1 0.95   Lambda2 0.8999999999999999 [dLambda -0.050000000000000044]
TCL: Setting parameter firsttimestep to 0
TCL: Setting parameter alchLambda to 0.95
Info: NONBONDED TABLE R-SQUARED SPACING: 0.0625
Info: NONBONDED TABLE SIZE: 705 POINTS
TCL: Setting parameter alchLambda2 to 0.8999999999999999
Info: NONBONDED TABLE R-SQUARED SPACING: 0.0625
Info: NONBONDED TABLE SIZE: 705 POINTS
TCL: Running for 1500000 steps
ETITLE: TS BOND ANGLE DIHED IMPRP ELECT VDW BOUNDARY MISC KINETIC TOTAL TEMP POTENTIAL TOTALAVG TEMPAVG PRESSURE GPRESSURE VOLUME PRESSAVG GPRESSAVG
ENERGY: 0 3.6701 12.9974 6.0061 0.0000 -10637.1204 1446.5699 0.0000 0.0000 1775.5185 -7392.3585 301.3428 -9167.8770 -7392.3585 301.3428 100.9563 175.4884 30899.0309 100.9563 175.4884
ENERGY: 300000 5.2221 11.6332 6.6394 0.0000 -10484.6957 1376.8416 0.0000 0.0000 1704.6737 -7379.6858 289.3190 -9084.3594 -7431.1778 295.6473 -614.6287 -530.5698 31245.2039 -189.5014 -120.1502
ENERGY: 600000 2.2494 12.5071 7.1611 0.0000 -10641.9983 1415.8846 0.0000 0.0000 1747.3931 -7456.8030 296.5694 -9204.1961 -7445.6856 296.9466 -22.6052 55.1272 30364.3003 -60.7855 2.6225
ENERGY: 900000 4.0461 13.6158 6.1831 0.0000 -10655.0199 1338.1162 0.0000 0.0000 1773.1788 -7519.8799 300.9457 -9293.0587 -7453.3221 297.6633 -1004.3512 -966.0693 30797.2911 -158.2827 -97.5579
ENERGY: 1200000 1.7744 16.1243 6.4951 0.0000 -10642.0508 1424.3420 0.0000 0.0000 1730.1325 -7463.1825 293.6399 -9193.3150 -7452.2371 298.5708 -25.0039 12.0921 30434.6900 -140.1240 -81.6352
ENERGY: 1500000 6.1704 11.0151 6.3302 0.0000 -10589.5886 1355.5939 0.0000 0.0000 1719.3230 -7491.1560 291.8053 -9210.4790 -7460.9800 297.7707 -265.2613 -272.7663 30318.3679 -126.1582 -76.9949
TCL: Running FEP window   3: Lambda1 0.8999999999999999 Lambda2 0.8499999999999999 [dLambda -0.050000000000000044]
TCL: Setting parameter firsttimestep to 0
TCL: Setting parameter alchLambda to 0.8999999999999999
Info: NONBONDED TABLE R-SQUARED SPACING: 0.0625
Info: NONBONDED TABLE SIZE: 705 POINTS
TCL: Setting parameter alchLambda2 to 0.8499999999999999
Info: NONBONDED TABLE R-SQUARED SPACING: 0.0625
Info: NONBONDED TABLE SIZE: 705 POINTS
TCL: Running for 1500000 steps
ETITLE: TS BOND ANGLE DIHED IMPRP ELECT VDW BOUNDARY MISC KINETIC TOTAL TEMP POTENTIAL TOTALAVG TEMPAVG PRESSURE GPRESSURE VOLUME PRESSAVG GPRESSAVG
ENERGY: 0 6.1704 11.0151 6.3302 0.0000 -10589.5917 1356.2151 0.0000 0.0000 1718.4539 -7491.4071 291.6578 -9209.8609 -7491.4071 291.6578 -361.0425 -280.0805 30318.3679 -361.0425 -280.0805
ENERGY: 300000 1.0274 13.2297 6.5997 0.0000 -10619.0885 1316.0863 0.0000 0.0000 1850.4278 -7431.7175 314.0565 -9282.1453 -7441.0506 301.8401 -1004.1696 -956.5009 30589.4919 -268.9660 -176.5961
ENERGY: 600000 4.2119 15.9456 6.4291 0.0000 -10540.8134 1320.8226 0.0000 0.0000 1815.1201 -7378.2840 308.0641 -9193.4041 -7440.6209 303.8002 -713.6579 -666.0299 30672.9590 -201.8147 -127.1779
ENERGY: 900000 2.6343 13.7425 7.6072 0.0000 -10750.5945 1447.6083 0.0000 0.0000 1731.0138 -7547.9884 293.7895 -9279.0022 -7468.9319 300.8940 120.8565 134.7103 30195.9932 -198.0020 -132.7584
ENERGY: 1200000 2.1810 12.3720 6.5093 0.0000 -10642.0849 1419.4289 0.0000 0.0000 1756.9220 -7444.6716 298.1866 -9201.5936 -7476.7856 300.4563 31.8516 22.0657 30490.2250 -189.5728 -130.1507
ENERGY: 1500000 5.2919 10.0300 6.1847 0.0000 -10589.8512 1334.9486 0.0000 0.0000 1771.1577 -7462.2383 300.6027 -9233.3960 -7465.9835 300.5606 -673.7977 -610.3999 30397.6092 -230.0439 -172.8479
TCL: Running FEP window   4: Lambda1 0.8499999999999999 Lambda2 0.7999999999999998 [dLambda -0.050000000000000044]
TCL: Setting parameter firsttimestep to 0
TCL: Setting parameter alchLambda to 0.8499999999999999
Info: NONBONDED TABLE R-SQUARED SPACING: 0.0625
Info: NONBONDED TABLE SIZE: 705 POINTS
TCL: Setting parameter alchLambda2 to 0.7999999999999998
Info: NONBONDED TABLE R-SQUARED SPACING: 0.0625
Info: NONBONDED TABLE SIZE: 705 POINTS
TCL: Running for 1500000 steps
ETITLE: TS BOND ANGLE DIHED IMPRP ELECT VDW BOUNDARY MISC KINETIC TOTAL TEMP POTENTIAL TOTALAVG TEMPAVG PRESSURE GPRESSURE VOLUME PRESSAVG GPRESSAVG
ENERGY: 0 5.2919 10.0300 6.1847 0.0000 -10589.8473 1335.5099 0.0000 0.0000 1770.2781 -7462.5527 300.4534 -9232.8308 -7462.5527 300.4534 -701.2933 -615.4446 30397.6092 -701.2933 -615.4446
ENERGY: 300000 1.4674 12.5968 6.3140 0.0000 -10698.0055 1426.1939 0.0000 0.0000 1793.0061 -7458.4273 304.3109 -9251.4334 -7446.4374 301.0582 -124.7447 -10.6663 30606.4605 80.5214 151.8236
ENERGY: 600000 2.6386 13.1564 6.1899 0.0000 -10787.4771 1507.9650 0.0000 0.0000 1817.0501 -7440.4771 308.3916 -9257.5272 -7429.7009 302.8458 469.4562 551.1385 30680.1362 23.7214 86.3534
ENERGY: 900000 3.8582 16.8549 5.7539 0.0000 -10809.4530 1526.2972 0.0000 0.0000 1790.4479 -7466.2408 303.8767 -9256.6888 -7446.5343 303.1876 379.3999 425.1803 30806.6687 20.4506 80.4896
ENERGY: 1200000 4.7771 10.1074 7.3835 0.0000 -10708.9696 1404.4678 0.0000 0.0000 1755.1685 -7527.0653 297.8890 -9282.2338 -7465.6377 301.4410 -462.4721 -374.0228 30533.7427 -17.9257 42.5841
ENERGY: 1500000 1.3913 12.2389 6.6679 0.0000 -10897.3110 1559.7854 0.0000 0.0000 1782.3988 -7534.8288 302.5106 -9317.2277 -7463.0869 300.5599 800.7202 837.4516 30388.9081 43.2891 104.3531
TCL: Running FEP window   5: Lambda1 0.7999999999999998 Lambda2 0.7499999999999998 [dLambda -0.050000000000000044]
TCL: Setting parameter firsttimestep to 0
TCL: Setting parameter alchLambda to 0.7999999999999998
Info: NONBONDED TABLE R-SQUARED SPACING: 0.0625
Info: NONBONDED TABLE SIZE: 705 POINTS
TCL: Setting parameter alchLambda2 to 0.7499999999999998
Info: NONBONDED TABLE R-SQUARED SPACING: 0.0625
Info: NONBONDED TABLE SIZE: 705 POINTS
TCL: Running for 1500000 steps
ETITLE: TS BOND ANGLE DIHED IMPRP ELECT VDW BOUNDARY MISC KINETIC TOTAL TEMP POTENTIAL TOTALAVG TEMPAVG PRESSURE GPRESSURE VOLUME PRESSAVG GPRESSAVG
ENERGY: 0 1.3913 12.2389 6.6679 0.0000 -10897.3284 1560.0088 0.0000 0.0000 1781.5174 -7535.5042 302.3610 -9317.0216 -7535.5042 302.3610 749.7441 824.1162 30388.9081 749.7441 824.1162
ENERGY: 300000 4.1388 10.6877 6.7173 0.0000 -10629.8831 1386.9775 0.0000 0.0000 1729.4280 -7491.9338 293.5203 -9221.3618 -7483.0442 298.7952 -384.5385 -303.1073 30361.5772 -218.8251 -135.9651
ENERGY: 600000 4.0232 12.8706 6.2078 0.0000 -10665.4845 1410.7825 0.0000 0.0000 1818.2693 -7413.3310 308.5986 -9231.6004 -7474.6789 300.5386 -335.3567 -212.9641 30536.5311 -194.8431 -114.2024
ENERGY: 900000 4.7501 7.9766 7.1941 0.0000 -10626.0744 1396.3766 0.0000 0.0000 1751.7942 -7457.9828 297.3163 -9209.7770 -7468.7154 299.6428 -250.3963 -248.6938 30718.3864 -144.8627 -75.0411
ENERGY: 1200000 2.5401 7.9093 6.7376 0.0000 -10587.1185 1380.2719 0.0000 0.0000 1771.6181 -7418.0415 300.6809 -9189.6596 -7453.3307 299.6640 -353.9432 -374.1303 30511.0793 -183.6783 -121.3681
ENERGY: 1500000 3.1014 7.5451 6.3736 0.0000 -10511.5744 1309.5415 0.0000 0.0000 1847.8852 -7337.1275 313.6250 -9185.0127 -7448.2882 299.9141 -1132.0623 -1046.5512 31172.2510 -279.3825 -217.8327
TCL: Running FEP window   6: Lambda1 0.7499999999999998 Lambda2 0.6999999999999997 [dLambda -0.050000000000000044]
TCL: Setting parameter firsttimestep to 0
TCL: Setting parameter alchLambda to 0.7499999999999998
Info: NONBONDED TABLE R-SQUARED SPACING: 0.0625
Info: NONBONDED TABLE SIZE: 705 POINTS
TCL: Setting parameter alchLambda2 to 0.6999999999999997
Info: NONBONDED TABLE R-SQUARED SPACING: 0.0625
Info: NONBONDED TABLE SIZE: 705 POINTS
TCL: Running for 1500000 steps
ETITLE: TS BOND ANGLE DIHED IMPRP ELECT VDW BOUNDARY MISC KINETIC TOTAL TEMP POTENTIAL TOTALAVG TEMPAVG PRESSURE GPRESSURE VOLUME PRESSAVG GPRESSAVG
ENERGY: 0 3.1014 7.5451 6.3736 0.0000 -10511.5559 1309.2713 0.0000 0.0000 1846.9726 -7338.2919 313.4701 -9185.2645 -7338.2919 313.4701 -1152.3131 -1062.8990 31172.2510 -1152.3131 -1062.8990
ENERGY: 300000 5.3063 10.9378 6.1037 0.0000 -10636.9337 1376.2442 0.0000 0.0000 1768.3330 -7470.0088 300.1233 -9238.3418 -7400.3393 304.9535 -746.5595 -675.7409 31063.0395 -428.0324 -347.1134
ENERGY: 600000 5.7776 12.2920 7.0094 0.0000 -10656.1357 1415.3106 0.0000 0.0000 1737.7809 -7477.9652 294.9380 -9215.7461 -7429.3922 302.5873 -486.3778 -420.7685 30942.6612 -480.2176 -405.8101
ENERGY: 900000 2.5765 11.1266 8.1470 0.0000 -10674.1707 1415.6886 0.0000 0.0000 1792.3486 -7444.2834 304.1993 -9236.6320 -7421.4146 303.0856 -407.9546 -339.1450 30876.3438 -513.0256 -435.8860
ENERGY: 1200000 2.6503 10.3822 6.3765 0.0000 -10616.3428 1372.7996 0.0000 0.0000 1801.0171 -7423.1170 305.6705 -9224.1342 -7420.8763 303.5370 -328.0368 -239.1595 30280.0637 -463.2187 -386.7748
ENERGY: 1500000 3.4829 11.9470 6.2883 0.0000 -10803.3557 1479.4426 0.0000 0.0000 1764.6166 -7537.5782 299.4926 -9302.1949 -7441.5243 302.1984 -73.4230 9.6638 30780.5417 -398.9775 -327.1538
TCL: Running FEP window   7: Lambda1 0.6999999999999997 Lambda2 0.6499999999999997 [dLambda -0.050000000000000044]
TCL: Setting parameter firsttimestep to 0
TCL: Setting parameter alchLambda to 0.6999999999999997
Info: NONBONDED TABLE R-SQUARED SPACING: 0.0625
Info: NONBONDED TABLE SIZE: 705 POINTS
TCL: Setting parameter alchLambda2 to 0.6499999999999997
Info: NONBONDED TABLE R-SQUARED SPACING: 0.0625
Info: NONBONDED TABLE SIZE: 705 POINTS
TCL: Running for 1500000 steps
ETITLE: TS BOND ANGLE DIHED IMPRP ELECT VDW BOUNDARY MISC KINETIC TOTAL TEMP POTENTIAL TOTALAVG TEMPAVG PRESSURE GPRESSURE VOLUME PRESSAVG GPRESSAVG
ENERGY: 0 3.4829 11.9470 6.2883 0.0000 -10803.3443 1479.0896 0.0000 0.0000 1763.7011 -7538.8354 299.3372 -9302.5365 -7538.8354 299.3372 -110.2802 -8.0195 30780.5417 -110.2802 -8.0195
ENERGY: 300000 1.5324 17.7023 6.4113 0.0000 -10585.3143 1362.9795 0.0000 0.0000 1822.4265 -7374.2623 309.3041 -9196.6888 -7481.2216 296.7474 -531.9551 -413.5565 30599.8647 -244.7278 -169.7519
ENERGY: 600000 3.5121 14.4679 6.0049 0.0000 -10696.4454 1394.7558 0.0000 0.0000 1729.8139 -7547.8908 293.5858 -9277.7047 -7485.3738 296.7599 -450.5164 -417.4615 30346.9925 -416.0436 -333.5615
ENERGY: 900000 4.3728 8.4370 7.5365 0.0000 -10738.4699 1447.1364 0.0000 0.0000 1779.6961 -7491.2911 302.0519 -9270.9872 -7468.6970 298.8712 -284.1571 -189.2265 30536.4521 -282.2536 -197.9693
ENERGY: 1200000 0.6025 12.8757 7.6704 0.0000 -10728.4926 1391.6437 0.0000 0.0000 1697.0866 -7618.6136 288.0313 -9315.7002 -7477.9715 297.5522 -650.4431 -607.8843 30314.6532 -274.9042 -200.1876
ENERGY: 1500000 1.5766 10.0106 6.4683 0.0000 -10540.8561 1416.7178 0.0000 0.0000 1823.0009 -7283.0818 309.4016 -9106.0827 -7463.6911 299.0752 222.5966 304.5778 30414.7425 -269.7499 -195.1887
TCL: Running FEP window   8: Lambda1 0.6499999999999997 Lambda2 0.5999999999999996 [dLambda -0.050000000000000044]
TCL: Setting parameter firsttimestep to 0
TCL: Setting parameter alchLambda to 0.6499999999999997
Info: NONBONDED TABLE R-SQUARED SPACING: 0.0625
Info: NONBONDED TABLE SIZE: 705 POINTS
TCL: Setting parameter alchLambda2 to 0.5999999999999996
Info: NONBONDED TABLE R-SQUARED SPACING: 0.0625
Info: NONBONDED TABLE SIZE: 705 POINTS
TCL: Running for 1500000 steps
ETITLE: TS BOND ANGLE DIHED IMPRP ELECT VDW BOUNDARY MISC KINETIC TOTAL TEMP POTENTIAL TOTALAVG TEMPAVG PRESSURE GPRESSURE VOLUME PRESSAVG GPRESSAVG
ENERGY: 0 1.5766 10.0106 6.4683 0.0000 -10540.9043 1416.5621 0.0000 0.0000 1822.1489 -7284.1377 309.2570 -9106.2866 -7284.1377 309.2570 216.6920 296.2324 30414.7425 216.6920 296.2324
ENERGY: 300000 2.7440 13.8117 6.5651 0.0000 -10798.9033 1462.0315 0.0000 0.0000 1767.9637 -7545.7874 300.0606 -9313.7510 -7435.8987 303.8086 -5.7425 80.7786 30089.4585 105.3838 203.2945
ENERGY: 600000 2.0358 10.8336 6.1088 0.0000 -10566.4928 1334.9241 0.0000 0.0000 1771.6729 -7440.9176 300.6902 -9212.5905 -7451.4354 302.3338 -477.9376 -386.1757 29903.7555 -2.3763 78.9689
ENERGY: 900000 2.1120 10.4194 5.6713 0.0000 -10768.0906 1411.7972 0.0000 0.0000 1730.1010 -7607.9897 293.6345 -9338.0907 -7471.6736 301.2064 -553.4730 -496.9277 30460.0365 -57.1521 13.3483
ENERGY: 1200000 1.8358 13.3832 7.0087 0.0000 -10672.4283 1430.8013 0.0000 0.0000 1836.0344 -7383.3650 311.6137 -9219.3994 -7450.2635 302.5167 42.9910 98.8094 30420.6926 -211.2977 -141.5028
ENERGY: 1500000 4.6668 12.4148 6.8246 0.0000 -10724.8974 1481.7048 0.0000 0.0000 1741.6195 -7477.6668 295.5895 -9219.2864 -7452.4467 301.7159 507.4696 548.8244 30253.4418 -198.1530 -127.7688
TCL: Running FEP window   9: Lambda1 0.5999999999999996 Lambda2 0.5499999999999996 [dLambda -0.050000000000000044]
TCL: Setting parameter firsttimestep to 0
TCL: Setting parameter alchLambda to 0.5999999999999996
Info: NONBONDED TABLE R-SQUARED SPACING: 0.0625
Info: NONBONDED TABLE SIZE: 705 POINTS
TCL: Setting parameter alchLambda2 to 0.5499999999999996
Info: NONBONDED TABLE R-SQUARED SPACING: 0.0625
Info: NONBONDED TABLE SIZE: 705 POINTS
TCL: Running for 1500000 steps
ETITLE: TS BOND ANGLE DIHED IMPRP ELECT VDW BOUNDARY MISC KINETIC TOTAL TEMP POTENTIAL TOTALAVG TEMPAVG PRESSURE GPRESSURE VOLUME PRESSAVG GPRESSAVG
ENERGY: 0 4.6668 12.4148 6.8246 0.0000 -10724.8429 1481.9055 0.0000 0.0000 1740.7473 -7478.2839 295.4414 -9219.0312 -7478.2839 295.4414 459.4896 545.0999 30253.4418 459.4896 545.0999
ENERGY: 300000 1.6775 12.9531 6.9013 0.0000 -10564.7834 1380.3279 0.0000 0.0000 1707.8549 -7455.0688 289.8589 -9162.9237 -7493.4606 295.4033 -260.3364 -185.3499 30524.3753 -237.2127 -151.7850
ENERGY: 600000 1.6575 11.1825 6.6295 0.0000 -10685.0895 1433.4284 0.0000 0.0000 1742.4715 -7489.7201 295.7341 -9232.1916 -7469.2353 299.7883 -196.0955 -176.8288 30656.4367 -152.6199 -74.9168
ENERGY: 900000 2.7880 12.1395 7.7665 0.0000 -10736.4760 1448.4657 0.0000 0.0000 1768.5019 -7496.8144 300.1520 -9265.3163 -7476.0199 300.0027 -30.7765 32.1574 30183.6837 -172.5128 -98.6484
ENERGY: 1200000 1.1223 11.9703 5.7096 0.0000 -10797.1921 1444.3508 0.0000 0.0000 1728.6407 -7605.3984 293.3867 -9334.0390 -7486.6440 298.9154 -141.7372 -113.8517 30396.0148 -224.8177 -143.5953
ENERGY: 1500000 2.2439 12.8342 6.9005 0.0000 -10618.8477 1475.8723 0.0000 0.0000 1791.6252 -7329.3715 304.0765 -9120.9967 -7467.9124 299.9592 545.3586 613.0803 30736.3831 -196.4376 -119.1539
TCL: Running FEP window  10: Lambda1 0.5499999999999996 Lambda2 0.4999999999999996 [dLambda -0.04999999999999999]
TCL: Setting parameter firsttimestep to 0
TCL: Setting parameter alchLambda to 0.5499999999999996
Info: NONBONDED TABLE R-SQUARED SPACING: 0.0625
Info: NONBONDED TABLE SIZE: 705 POINTS
TCL: Setting parameter alchLambda2 to 0.4999999999999996
Info: NONBONDED TABLE R-SQUARED SPACING: 0.0625
Info: NONBONDED TABLE SIZE: 705 POINTS
TCL: Running for 1500000 steps
ETITLE: TS BOND ANGLE DIHED IMPRP ELECT VDW BOUNDARY MISC KINETIC TOTAL TEMP POTENTIAL TOTALAVG TEMPAVG PRESSURE GPRESSURE VOLUME PRESSAVG GPRESSAVG
ENERGY: 0 2.2439 12.8342 6.9005 0.0000 -10618.8702 1476.4195 0.0000 0.0000 1790.7489 -7329.7232 303.9278 -9120.4721 -7329.7232 303.9278 548.7667 614.9444 30736.3831 548.7667 614.9444
ENERGY: 300000 1.2333 10.6421 5.9769 0.0000 -10665.1653 1422.3619 0.0000 0.0000 1795.5565 -7429.3947 304.7437 -9224.9512 -7408.5104 303.6152 -184.1769 -137.9180 30731.5091 -12.5072 56.4368
ENERGY: 600000 3.1166 11.0462 6.7522 0.0000 -10661.0368 1418.7350 0.0000 0.0000 1812.5161 -7408.8706 307.6221 -9221.3867 -7424.9194 303.2584 -195.9720 -136.9626 30479.0102 -11.7847 48.8923
ENERGY: 900000 1.6018 11.5497 7.1472 0.0000 -10574.3689 1393.9008 0.0000 0.0000 1735.8275 -7424.3418 294.6064 -9160.1693 -7441.8445 302.1606 -159.9210 -93.5546 30648.9380 81.2394 155.2618
ENERGY: 1200000 3.8560 15.7618 7.7779 0.0000 -10753.1429 1449.1920 0.0000 0.0000 1806.7843 -7469.7709 306.6493 -9276.5552 -7442.0711 301.6629 -238.3840 -179.9572 30503.5753 108.4681 181.5936
ENERGY: 1500000 3.1367 10.3035 5.6876 0.0000 -10665.7422 1440.9902 0.0000 0.0000 1752.9293 -7452.6950 297.5090 -9205.6242 -7447.1206 301.2864 -233.9195 -172.1071 30909.1219 52.4106 119.1745
TCL: Running FEP window  11: Lambda1 0.4999999999999996 Lambda2 0.4499999999999996 [dLambda -0.04999999999999999]
TCL: Setting parameter firsttimestep to 0
TCL: Setting parameter alchLambda to 0.4999999999999996
Info: NONBONDED TABLE R-SQUARED SPACING: 0.0625
Info: NONBONDED TABLE SIZE: 705 POINTS
TCL: Setting parameter alchLambda2 to 0.4499999999999996
Info: NONBONDED TABLE R-SQUARED SPACING: 0.0625
Info: NONBONDED TABLE SIZE: 705 POINTS
TCL: Running for 1500000 steps
ETITLE: TS BOND ANGLE DIHED IMPRP ELECT VDW BOUNDARY MISC KINETIC TOTAL TEMP POTENTIAL TOTALAVG TEMPAVG PRESSURE GPRESSURE VOLUME PRESSAVG GPRESSAVG
ENERGY: 0 3.1367 10.3035 5.6876 0.0000 -10665.7418 1441.3163 0.0000 0.0000 1752.0445 -7453.2533 297.3588 -9205.2978 -7453.2533 297.3588 -260.2080 -176.3889 30909.1219 -260.2080 -176.3889
ENERGY: 300000 3.6162 7.5758 5.6956 0.0000 -10587.0776 1324.9168 0.0000 0.0000 1781.9456 -7463.3277 302.4337 -9245.2733 -7470.1500 299.8661 -1017.1799 -969.5519 30631.7035 -445.3826 -396.2776
ENERGY: 600000 1.3695 12.0010 6.2911 0.0000 -10838.6488 1494.0877 0.0000 0.0000 1798.9846 -7525.9151 305.3255 -9324.8996 -7478.1648 300.8576 461.2773 491.4228 29844.5401 6.9136 47.8270
ENERGY: 900000 2.1240 11.4189 5.8728 0.0000 -10712.7788 1437.1003 0.0000 0.0000 1784.6841 -7471.5787 302.8985 -9256.2628 -7477.8609 301.4073 -101.5873 -34.0483 30305.8788 -16.1600 27.3489
ENERGY: 1200000 0.8736 11.3253 5.8036 0.0000 -10569.3789 1340.0481 0.0000 0.0000 1780.3043 -7431.0240 302.1551 -9211.3283 -7468.2219 301.0255 -675.4865 -589.3424 30514.9659 -119.2929 -76.0705
ENERGY: 1500000 4.0339 9.5661 6.7183 0.0000 -10743.1475 1453.5326 0.0000 0.0000 1725.4654 -7543.8313 292.8478 -9269.2966 -7473.0901 299.8812 -6.6056 3.8641 30174.4553 -89.7925 -48.3275
TCL: Running FEP window  12: Lambda1 0.4499999999999996 Lambda2 0.39999999999999963 [dLambda -0.04999999999999999]
TCL: Setting parameter firsttimestep to 0
TCL: Setting parameter alchLambda to 0.4499999999999996
Info: NONBONDED TABLE R-SQUARED SPACING: 0.0625
Info: NONBONDED TABLE SIZE: 705 POINTS
TCL: Setting parameter alchLambda2 to 0.39999999999999963
Info: NONBONDED TABLE R-SQUARED SPACING: 0.0625
Info: NONBONDED TABLE SIZE: 705 POINTS
TCL: Running for 1500000 steps
ETITLE: TS BOND ANGLE DIHED IMPRP ELECT VDW BOUNDARY MISC KINETIC TOTAL TEMP POTENTIAL TOTALAVG TEMPAVG PRESSURE GPRESSURE VOLUME PRESSAVG GPRESSAVG
ENERGY: 0 4.0339 9.5661 6.7183 0.0000 -10743.1472 1453.8117 0.0000 0.0000 1724.5542 -7544.4631 292.6931 -9269.0173 -7544.4631 292.6931 -90.7887 -2.0267 30174.4553 -90.7887 -2.0267
ENERGY: 300000 2.8937 13.2603 7.6330 0.0000 -10669.8112 1412.6673 0.0000 0.0000 1705.2698 -7528.0869 289.4202 -9233.3568 -7483.2536 299.5795 -218.2291 -92.8039 30101.7649 170.2177 275.9089
ENERGY: 600000 2.3540 11.3413 6.5162 0.0000 -10649.4560 1379.3361 0.0000 0.0000 1781.6749 -7468.2335 302.3877 -9249.9084 -7466.3504 301.0803 -607.0917 -519.9761 30652.6373 -103.9467 -15.2772
ENERGY: 900000 3.6596 9.4082 7.0857 0.0000 -10670.8697 1448.2112 0.0000 0.0000 1721.8320 -7480.6730 292.2311 -9202.5050 -7472.2626 298.7953 -24.2407 -4.1720 30586.0840 -54.5078 21.7621
ENERGY: 1200000 4.1652 18.6518 7.9935 0.0000 -10609.3457 1433.3534 0.0000 0.0000 1741.3803 -7403.8014 295.5489 -9145.1818 -7471.4058 297.8788 207.0156 246.2965 30220.8163 -70.9659 8.3701
ENERGY: 1500000 1.4045 9.5735 7.3382 0.0000 -10755.5858 1453.2403 0.0000 0.0000 1799.2947 -7484.7347 305.3782 -9284.0294 -7472.2850 298.3360 -35.9798 56.5493 30366.4331 -58.9804 17.9106
TCL: Running FEP window  13: Lambda1 0.39999999999999963 Lambda2 0.34999999999999964 [dLambda -0.04999999999999999]
TCL: Setting parameter firsttimestep to 0
TCL: Setting parameter alchLambda to 0.39999999999999963
Info: NONBONDED TABLE R-SQUARED SPACING: 0.0625
Info: NONBONDED TABLE SIZE: 705 POINTS
TCL: Setting parameter alchLambda2 to 0.34999999999999964
Info: NONBONDED TABLE R-SQUARED SPACING: 0.0625
Info: NONBONDED TABLE SIZE: 705 POINTS
TCL: Running for 1500000 steps
ETITLE: TS BOND ANGLE DIHED IMPRP ELECT VDW BOUNDARY MISC KINETIC TOTAL TEMP POTENTIAL TOTALAVG TEMPAVG PRESSURE GPRESSURE VOLUME PRESSAVG GPRESSAVG
ENERGY: 0 1.4045 9.5735 7.3382 0.0000 -10755.5855 1453.7450 0.0000 0.0000 1798.4157 -7485.1086 305.2290 -9283.5243 -7485.1086 305.2290 -37.2754 54.4627 30366.4331 -37.2754 54.4627
ENERGY: 300000 1.4260 11.1276 6.7548 0.0000 -10788.9727 1499.7024 0.0000 0.0000 1757.2058 -7512.7559 298.2348 -9269.9617 -7489.7193 301.6907 429.9359 528.7532 30242.6721 52.3712 136.6468
ENERGY: 600000 1.6332 12.3242 6.0595 0.0000 -10667.0559 1388.4120 0.0000 0.0000 1737.2848 -7521.3422 294.8538 -9258.6269 -7474.4822 300.0115 -207.3408 -187.4889 29853.2280 38.2220 122.6506
ENERGY: 900000 4.1385 14.0672 6.4456 0.0000 -10593.2446 1374.0796 0.0000 0.0000 1802.9882 -7391.5255 306.0050 -9194.5137 -7464.5902 301.5225 -564.5551 -550.1625 30701.4728 29.9956 91.8462
ENERGY: 1200000 3.9109 12.5017 6.9488 0.0000 -10505.6661 1347.1530 0.0000 0.0000 1848.9103 -7286.2415 313.7990 -9135.1518 -7449.4076 303.0050 -314.0540 -236.7435 30326.5786 70.0333 129.6723
ENERGY: 1500000 4.3713 9.3193 5.9225 0.0000 -10561.6020 1426.1347 0.0000 0.0000 1724.7040 -7391.1501 292.7186 -9115.8541 -7443.6341 303.1323 165.9859 258.3404 30298.7099 52.7243 110.8568
TCL: Running FEP window  14: Lambda1 0.34999999999999964 Lambda2 0.29999999999999966 [dLambda -0.04999999999999999]
TCL: Setting parameter firsttimestep to 0
TCL: Setting parameter alchLambda to 0.34999999999999964
Info: NONBONDED TABLE R-SQUARED SPACING: 0.0625
Info: NONBONDED TABLE SIZE: 705 POINTS
TCL: Setting parameter alchLambda2 to 0.29999999999999966
Info: NONBONDED TABLE R-SQUARED SPACING: 0.0625
Info: NONBONDED TABLE SIZE: 705 POINTS
TCL: Running for 1500000 steps
ETITLE: TS BOND ANGLE DIHED IMPRP ELECT VDW BOUNDARY MISC KINETIC TOTAL TEMP POTENTIAL TOTALAVG TEMPAVG PRESSURE GPRESSURE VOLUME PRESSAVG GPRESSAVG
ENERGY: 0 4.3714 9.3193 5.9225 0.0000 -10561.6022 1426.4402 0.0000 0.0000 1723.8291 -7391.7198 292.5701 -9115.5489 -7391.7198 292.5701 164.1920 252.6030 30298.7099 164.1920 252.6030
ENERGY: 300000 2.8100 10.8772 6.6626 0.0000 -10872.9333 1557.4450 0.0000 0.0000 1765.8962 -7529.2423 299.7097 -9295.1385 -7451.2106 300.5627 697.4409 821.7621 30408.5566 274.4733 371.3187
ENERGY: 600000 2.0274 12.2011 6.9572 0.0000 -10708.0661 1465.0790 0.0000 0.0000 1754.9152 -7466.8862 297.8460 -9221.8014 -7449.2225 299.1313 98.5111 221.3479 30485.3259 309.9516 396.2497
ENERGY: 900000 4.1287 12.6756 7.4825 0.0000 -10542.6331 1368.9922 0.0000 0.0000 1758.5304 -7390.8238 298.4596 -9149.3542 -7450.2854 298.7398 -162.4043 -125.4187 30378.3851 177.6755 250.9099
ENERGY: 1200000 5.2752 11.2521 6.4767 0.0000 -10601.6118 1425.2676 0.0000 0.0000 1756.7192 -7396.6211 298.1522 -9153.3403 -7450.6183 299.2713 -99.1253 -30.7835 30555.5165 220.7180 293.9307
ENERGY: 1500000 3.1386 13.3517 6.3917 0.0000 -10625.8799 1427.7908 0.0000 0.0000 1797.3902 -7377.8170 305.0549 -9175.2071 -7454.9981 299.3361 -34.4734 -46.1353 30590.5381 175.2429 238.7367
TCL: Running FEP window  15: Lambda1 0.29999999999999966 Lambda2 0.24999999999999967 [dLambda -0.04999999999999999]
TCL: Setting parameter firsttimestep to 0
TCL: Setting parameter alchLambda to 0.29999999999999966
Info: NONBONDED TABLE R-SQUARED SPACING: 0.0625
Info: NONBONDED TABLE SIZE: 705 POINTS
TCL: Setting parameter alchLambda2 to 0.24999999999999967
Info: NONBONDED TABLE R-SQUARED SPACING: 0.0625
Info: NONBONDED TABLE SIZE: 705 POINTS
TCL: Running for 1500000 steps
ETITLE: TS BOND ANGLE DIHED IMPRP ELECT VDW BOUNDARY MISC KINETIC TOTAL TEMP POTENTIAL TOTALAVG TEMPAVG PRESSURE GPRESSURE VOLUME PRESSAVG GPRESSAVG
ENERGY: 0 3.1386 13.3517 6.3917 0.0000 -10625.8804 1427.7165 0.0000 0.0000 1796.5257 -7378.7562 304.9082 -9175.2819 -7378.7562 304.9082 -120.2904 -51.9978 30590.5381 -120.2904 -51.9978
ENERGY: 300000 1.8213 10.1896 5.9792 0.0000 -10688.0711 1430.4408 0.0000 0.0000 1766.3775 -7473.2628 299.7914 -9239.6402 -7432.2200 303.0783 -13.3764 56.0981 30190.0086 -265.2846 -196.0146
ENERGY: 600000 2.5725 10.1653 7.4606 0.0000 -10711.3635 1463.1867 0.0000 0.0000 1808.3945 -7419.5839 306.9226 -9227.9784 -7451.8187 301.5024 64.5311 137.6087 30592.1521 -290.0948 -227.6373
ENERGY: 900000 3.8254 10.7674 6.1658 0.0000 -10690.2337 1398.0730 0.0000 0.0000 1771.7862 -7499.6159 300.7094 -9271.4022 -7474.6979 299.7655 -461.0133 -393.7757 30274.5122 -295.3060 -232.7276
ENERGY: 1200000 3.0431 7.9056 7.9619 0.0000 -10567.0915 1441.4583 0.0000 0.0000 1816.5375 -7290.1852 308.3046 -9106.7226 -7451.4665 300.2901 5.3428 127.9350 30635.8688 -266.2626 -196.5199
ENERGY: 1500000 2.7505 13.6004 6.9157 0.0000 -10694.4339 1463.4125 0.0000 0.0000 1746.8369 -7460.9178 296.4750 -9207.7547 -7448.7731 300.5509 385.6189 376.9883 30304.3945 -168.9576 -104.4113
TCL: Running FEP window  16: Lambda1 0.24999999999999967 Lambda2 0.19999999999999968 [dLambda -0.04999999999999999]
TCL: Setting parameter firsttimestep to 0
TCL: Setting parameter alchLambda to 0.24999999999999967
Info: NONBONDED TABLE R-SQUARED SPACING: 0.0625
Info: NONBONDED TABLE SIZE: 705 POINTS
TCL: Setting parameter alchLambda2 to 0.19999999999999968
Info: NONBONDED TABLE R-SQUARED SPACING: 0.0625
Info: NONBONDED TABLE SIZE: 705 POINTS
TCL: Running for 1500000 steps
ETITLE: TS BOND ANGLE DIHED IMPRP ELECT VDW BOUNDARY MISC KINETIC TOTAL TEMP POTENTIAL TOTALAVG TEMPAVG PRESSURE GPRESSURE VOLUME PRESSAVG GPRESSAVG
ENERGY: 0 2.7505 13.6005 6.9157 0.0000 -10694.4334 1463.4836 0.0000 0.0000 1745.9714 -7461.7118 296.3281 -9207.6832 -7461.7118 296.3281 286.8655 371.6484 30304.3945 286.8655 371.6484
ENERGY: 300000 3.4261 10.5298 6.4292 0.0000 -10597.5708 1375.4177 0.0000 0.0000 1746.4104 -7455.3576 296.4026 -9201.7681 -7479.6209 297.4459 -639.5353 -605.7167 30952.7408 -371.9044 -320.9675
ENERGY: 600000 2.7243 12.1786 5.9260 0.0000 -10643.2137 1402.7463 0.0000 0.0000 1773.3156 -7446.3230 300.9690 -9219.6386 -7467.6718 298.9310 -423.1899 -409.3352 30541.9525 -234.7860 -188.0846
ENERGY: 900000 3.9563 11.0888 6.8122 0.0000 -10612.5628 1415.6812 0.0000 0.0000 1778.6754 -7396.3489 301.8786 -9175.0243 -7458.6111 299.4570 -127.1622 -90.7835 30825.4113 -247.1154 -203.7743
ENERGY: 1200000 1.8818 9.6996 6.1611 0.0000 -10592.5740 1406.7108 0.0000 0.0000 1738.6789 -7429.4417 295.0904 -9168.1207 -7450.4785 298.8863 -146.4285 -81.0630 30145.1610 -228.1224 -182.0091
ENERGY: 1500000 3.8148 10.5177 6.1288 0.0000 -10672.0297 1458.0602 0.0000 0.0000 1761.0184 -7432.4899 298.8819 -9193.5083 -7445.3716 299.2322 210.2674 297.4866 30182.4746 -183.5098 -131.8495
TCL: Running FEP window  17: Lambda1 0.19999999999999968 Lambda2 0.1499999999999997 [dLambda -0.04999999999999999]
TCL: Setting parameter firsttimestep to 0
TCL: Setting parameter alchLambda to 0.19999999999999968
Info: NONBONDED TABLE R-SQUARED SPACING: 0.0625
Info: NONBONDED TABLE SIZE: 705 POINTS
TCL: Setting parameter alchLambda2 to 0.1499999999999997
Info: NONBONDED TABLE R-SQUARED SPACING: 0.0625
Info: NONBONDED TABLE SIZE: 705 POINTS
TCL: Running for 1500000 steps
ETITLE: TS BOND ANGLE DIHED IMPRP ELECT VDW BOUNDARY MISC KINETIC TOTAL TEMP POTENTIAL TOTALAVG TEMPAVG PRESSURE GPRESSURE VOLUME PRESSAVG GPRESSAVG
ENERGY: 0 3.8148 10.5177 6.1288 0.0000 -10672.0295 1458.1847 0.0000 0.0000 1760.1494 -7433.2342 298.7344 -9193.3836 -7433.2342 298.7344 206.6549 294.6509 30182.4746 206.6549 294.6509
ENERGY: 300000 2.9792 15.4492 6.4347 0.0000 -10605.5275 1343.3807 0.0000 0.0000 1803.4384 -7433.8453 306.0814 -9237.2837 -7450.1289 304.4845 -831.1332 -801.0741 30625.1970 -225.5342 -189.2360
ENERGY: 600000 6.0965 14.0875 7.9422 0.0000 -10680.8152 1410.7085 0.0000 0.0000 1770.8337 -7471.1467 300.5477 -9241.9804 -7464.4459 301.2792 -222.6946 -115.9774 30010.3419 -265.1534 -208.1392
ENERGY: 900000 2.5529 12.6287 6.8676 0.0000 -10530.4882 1341.5658 0.0000 0.0000 1797.8952 -7368.9780 305.1406 -9166.8732 -7446.0898 302.1104 -483.0593 -477.7632 30559.9085 -186.1726 -143.7894
ENERGY: 1200000 2.5338 10.1531 6.5364 0.0000 -10749.8076 1476.5063 0.0000 0.0000 1816.1973 -7437.8808 308.2469 -9254.0781 -7441.3232 303.0287 456.4880 490.2300 30007.8757 -124.7357 -79.3907
ENERGY: 1500000 0.2252 7.8608 5.9727 0.0000 -10691.2529 1445.0388 0.0000 0.0000 1765.5806 -7466.5750 299.6562 -9232.1556 -7436.3723 301.8919 184.8751 267.0649 30169.0013 -85.0845 -35.5210
TCL: Running FEP window  18: Lambda1 0.1499999999999997 Lambda2 0.09999999999999969 [dLambda -0.05 ]
TCL: Setting parameter firsttimestep to 0
TCL: Setting parameter alchLambda to 0.1499999999999997
Info: NONBONDED TABLE R-SQUARED SPACING: 0.0625
Info: NONBONDED TABLE SIZE: 705 POINTS
TCL: Setting parameter alchLambda2 to 0.09999999999999969
Info: NONBONDED TABLE R-SQUARED SPACING: 0.0625
Info: NONBONDED TABLE SIZE: 705 POINTS
TCL: Running for 1500000 steps
ETITLE: TS BOND ANGLE DIHED IMPRP ELECT VDW BOUNDARY MISC KINETIC TOTAL TEMP POTENTIAL TOTALAVG TEMPAVG PRESSURE GPRESSURE VOLUME PRESSAVG GPRESSAVG
ENERGY: 0 0.2252 7.8608 5.9727 0.0000 -10691.2530 1445.4376 0.0000 0.0000 1764.6626 -7467.0943 299.5004 -9231.7569 -7467.0943 299.5004 186.3200 263.3162 30169.0013 186.3200 263.3162
ENERGY: 300000 5.2337 16.0660 7.6183 0.0000 -10634.3295 1360.9351 0.0000 0.0000 1790.7635 -7453.7128 303.9303 -9244.4764 -7468.4568 301.5436 -941.1335 -872.8145 30712.0956 -49.4000 42.7414
ENERGY: 600000 4.4560 11.8889 7.1580 0.0000 -10746.7124 1472.2145 0.0000 0.0000 1759.7942 -7491.2008 298.6741 -9250.9949 -7464.0076 300.8839 105.7169 189.9140 30101.8692 -33.4067 41.2221
ENERGY: 900000 3.5900 10.5451 6.6379 0.0000 -10554.4572 1326.6538 0.0000 0.0000 1761.1264 -7445.9039 298.9002 -9207.0303 -7459.1362 300.6155 -850.0298 -762.8812 30111.9252 -83.1471 -16.1214
ENERGY: 1200000 2.5823 14.2462 6.7719 0.0000 -10564.1486 1375.9694 0.0000 0.0000 1755.2775 -7409.3012 297.9075 -9164.5787 -7453.3252 300.2904 -354.4676 -334.5365 30323.2417 -78.1133 -9.5343
ENERGY: 1500000 2.3280 19.5374 6.6571 0.0000 -10678.8835 1457.5476 0.0000 0.0000 1791.8068 -7401.0066 304.1073 -9192.8134 -7445.0689 301.1827 404.6278 419.5662 30134.1891 -104.7215 -43.3389
TCL: Running FEP window  19: Lambda1 0.09999999999999969 Lambda2 0.049999999999999684 [dLambda -0.05 ]
TCL: Setting parameter firsttimestep to 0
TCL: Setting parameter alchLambda to 0.09999999999999969
Info: NONBONDED TABLE R-SQUARED SPACING: 0.0625
Info: NONBONDED TABLE SIZE: 705 POINTS
TCL: Setting parameter alchLambda2 to 0.049999999999999684
Info: NONBONDED TABLE R-SQUARED SPACING: 0.0625
Info: NONBONDED TABLE SIZE: 705 POINTS
TCL: Running for 1500000 steps
ETITLE: TS BOND ANGLE DIHED IMPRP ELECT VDW BOUNDARY MISC KINETIC TOTAL TEMP POTENTIAL TOTALAVG TEMPAVG PRESSURE GPRESSURE VOLUME PRESSAVG GPRESSAVG
ENERGY: 0 2.3280 19.5374 6.6571 0.0000 -10678.8838 1457.9813 0.0000 0.0000 1790.9372 -7401.4428 303.9597 -9192.3800 -7401.4428 303.9597 335.5852 418.2142 30134.1891 335.5852 418.2142
ENERGY: 300000 4.1225 14.0383 5.9384 0.0000 -10717.8746 1411.9596 0.0000 0.0000 1798.8285 -7482.9872 305.2991 -9281.8157 -7466.9696 299.1052 -495.5386 -477.8250 30281.3788 136.1777 168.5630
ENERGY: 600000 3.3071 15.7796 8.4152 0.0000 -10766.3471 1419.9704 0.0000 0.0000 1782.1422 -7536.7327 302.4670 -9318.8748 -7465.9414 301.2989 -565.5262 -497.6494 30179.1446 -146.6676 -102.1363
ENERGY: 900000 4.0664 13.5121 5.5218 0.0000 -10714.9665 1400.4251 0.0000 0.0000 1713.1952 -7578.2460 290.7653 -9291.4412 -7476.3414 300.4417 -571.1453 -498.9652 30241.0318 -114.7399 -69.9650
ENERGY: 1200000 1.1809 15.4365 6.5800 0.0000 -10641.6182 1462.8068 0.0000 0.0000 1758.4037 -7397.2102 298.4381 -9155.6139 -7461.7862 299.5415 310.3804 375.9078 30352.1307 -86.9982 -41.6784
ENERGY: 1500000 3.7535 13.6976 7.0812 0.0000 -10731.8688 1516.3225 0.0000 0.0000 1790.0081 -7401.0059 303.8020 -9191.0139 -7454.3024 299.8589 516.4542 587.8062 30484.7757 -1.0772 48.5435
TCL: Running FEP window  20: Lambda1 0.049999999999999684 Lambda2 0.0    [dLambda -0.049999999999999684]
TCL: Setting parameter firsttimestep to 0
TCL: Setting parameter alchLambda to 0.049999999999999684
Info: NONBONDED TABLE R-SQUARED SPACING: 0.0625
Info: NONBONDED TABLE SIZE: 705 POINTS
TCL: Setting parameter alchLambda2 to 0.0
Info: NONBONDED TABLE R-SQUARED SPACING: 0.0625
Info: NONBONDED TABLE SIZE: 705 POINTS
TCL: Running for 1500000 steps
ETITLE: TS BOND ANGLE DIHED IMPRP ELECT VDW BOUNDARY MISC KINETIC TOTAL TEMP POTENTIAL TOTALAVG TEMPAVG PRESSURE GPRESSURE VOLUME PRESSAVG GPRESSAVG
ENERGY: 0 3.7535 13.6976 7.0812 0.0000 -10731.8697 1515.3792 0.0000 0.0000 1789.1509 -7402.8073 303.6566 -9191.9583 -7402.8073 303.6566 499.8124 585.5508 30484.7757 499.8124 585.5508
ENERGY: 300000 2.6045 9.7417 5.8081 0.0000 -10703.9213 1461.8978 0.0000 0.0000 1730.7160 -7493.1531 293.7389 -9223.8692 -7445.3039 298.3493 -145.3701 -99.7595 30572.4142 390.0872 439.0625
ENERGY: 600000 0.9482 12.7615 6.9491 0.0000 -10616.5140 1409.6316 0.0000 0.0000 1792.7911 -7393.4325 304.2744 -9186.2236 -7464.1516 296.5616 -58.5674 -9.0415 30198.8904 260.9845 311.9488
ENERGY: 900000 2.5115 12.4002 6.3425 0.0000 -10565.6988 1397.0702 0.0000 0.0000 1811.0210 -7336.3533 307.3684 -9147.3743 -7458.5961 298.5371 -65.4307 30.8804 30163.1939 235.1971 290.5453
ENERGY: 1200000 1.9047 10.9032 8.1648 0.0000 -10769.6926 1537.4359 0.0000 0.0000 1771.7188 -7439.5651 300.6980 -9211.2838 -7455.8769 298.9738 788.6263 849.7502 29894.9438 365.7641 421.6872
ENERGY: 1500000 3.3190 13.5042 6.6178 0.0000 -10589.5264 1375.0112 0.0000 0.0000 1750.7146 -7440.3595 297.1331 -9191.0741 -7461.1684 298.9384 -72.9241 -9.2756 29592.0796 311.2382 369.6682
TCL: Exiting due to exit command.
