Info: SIMULATION PARAMETERS:
Info: TIMESTEP               2
Info: NUMBER OF STEPS        0
Info: STEPS PER CYCLE        10
Info: PERIODIC CELL BASIS 1  31.1279 0 0
Info: PERIODIC CELL BASIS 2  0 29.7203 0
Info: PERIODIC CELL BASIS 3  0 0 33.0933
Info: PERIODIC CELL CENTER   0 0 0
Info: WRAPPING WATERS AROUND PERIODIC BOUNDARIES ON OUTPUT.
Info: WRAPPING ALL CLUSTERS AROUND PERIODIC BOUNDARIES ON OUTPUT.
Info: FIRST LDB TIMESTEP     50
Info: LAST LDB TIMESTEP     -1
Info: HOM BACKGROUND SCALING 1
Info: PME BACKGROUND SCALING 1
Info: MIN ATOMS PER PATCH    40
Info: EMPTY PATCH LOAD       40 ATOMS
Info: VELOCITY FILE          mobley_4883284_equil.vel
Info: CENTER OF MASS MOVING INITIALLY? NO
Info: DIELECTRIC             1
Info: EXCLUDE                SCALED ONE-FOUR
Info: 1-4 ELECTROSTATICS SCALED BY 0.833333
Info: MODIFIED 1-4 VDW PARAMETERS WILL BE USED
Info: DCD FILENAME           mobley_4883284_prod.dcd
Info: DCD FREQUENCY          100000
Info: DCD FIRST STEP         100000
Info: DCD FILE WILL CONTAIN UNIT CELL DATA
Info: XST FILENAME           mobley_4883284_prod.xst
Info: XST FREQUENCY          100000
Info: NO VELOCITY DCD OUTPUT
Info: NO FORCE DCD OUTPUT
Info: OUTPUT FILENAME        mobley_4883284_prod
Info: BINARY OUTPUT FILES WILL BE USED
Info: RESTART FILENAME       mobley_4883284_prod.restart
Info: RESTART FREQUENCY      100000
Info: BINARY RESTART FILES WILL BE USED
Info: CUTOFF                 9
Info: PAIRLIST DISTANCE      11
Info: PAIRLIST SHRINK RATE   0.01
Info: PAIRLIST GROW RATE     0.01
Info: PAIRLIST TRIGGER       0.3
Info: PAIRLISTS PER CYCLE    2
Info: PAIRLISTS ENABLED
Info: MARGIN                 2
Info: HYDROGEN GROUP CUTOFF  2.5
Info: PATCH DIMENSION        15.5
Info: ENERGY OUTPUT STEPS    100000
Info: ENERGY EVALUATION STEPS    100000
Info: OUTPUT ENERGY PRECISION 4
Info: CROSSTERM ENERGY INCLUDED IN DIHEDRAL
Info: TIMING OUTPUT STEPS    1000000
Info: PRESSURE OUTPUT STEPS  100000
Info: ALCHEMICAL FEP ON
Info: FEP CURRENT LAMBDA VALUE     0
Info: FEP COMPARISON LAMBDA VALUE  0.05
Info: FEP INTRA-ALCHEMICAL NON-BONDED INTERACTIONS WILL BE RETAINED
Info: FEP INTRA-ALCHEMICAL BONDED INTERACTIONS WILL BE RETAINED
Info: FEP VDW SHIFTING COEFFICIENT 5
Info: FEP ELEC. ACTIVE FOR ANNIHILATED PARTICLES BETWEEN LAMBDA = 0 AND LAMBDA = 0.5
Info: FEP ELEC. ACTIVE FOR EXNIHILATED PARTICLES BETWEEN LAMBDA = 0.5 AND LAMBDA = 1
Info: FEP VDW ACTIVE FOR ANNIHILATED PARTICLES BETWEEN LAMBDA = 0 AND LAMBDA = 1
Info: FEP VDW ACTIVE FOR EXNIHILATED PARTICLES BETWEEN LAMBDA = 0 AND LAMBDA = 1
Info: FEP BOND ACTIVE FOR ANNIHILATED PARTICLES BETWEEN LAMBDA = 1 AND LAMBDA = 1
Info: FEP BOND ACTIVE FOR EXNIHILATED PARTICLES BETWEEN LAMBDA = 0 AND LAMBDA = 0
Info: LANGEVIN DYNAMICS ACTIVE
Info: LANGEVIN TEMPERATURE   300
Info: LANGEVIN USING BBK INTEGRATOR
Info: LANGEVIN DAMPING COEFFICIENT IS 1 INVERSE PS
Info: LANGEVIN DYNAMICS APPLIED TO HYDROGENS
Info: LANGEVIN PISTON PRESSURE CONTROL ACTIVE
Info:        TARGET PRESSURE IS 1.01325 BAR
Info:     OSCILLATION PERIOD IS 50 FS
Info:             DECAY TIME IS 25 FS
Info:     PISTON TEMPERATURE IS 300 K
Info:       PRESSURE CONTROL IS GROUP-BASED
Info:    INITIAL STRAIN RATE IS 5.93221e-05 5.93221e-05 5.93221e-05
Info:       CELL FLUCTUATION IS ISOTROPIC
Info: PARTICLE MESH EWALD (PME) ACTIVE
Info: PME TOLERANCE               1e-06
Info: PME EWALD COEFFICIENT       0.348832
Info: PME INTERPOLATION ORDER     4
Info: PME GRID DIMENSIONS         32 32 36
Info: PME MAXIMUM GRID SPACING    1
Info: PME CALCULATION WILL BE PERFORMED ON GPU
Info: FULL ELECTROSTATIC EVALUATION FREQUENCY      2
Info: USING VERLET I (r-RESPA) MTS SCHEME.
Info: C1 SPLITTING OF LONG RANGE ELECTROSTATICS
Info: PLACING ATOMS IN PATCHES BY HYDROGEN GROUPS
Info: RIGID BONDS TO HYDROGEN : ALL
Info:         ERROR TOLERANCE : 1e-08
Info:          MAX ITERATIONS : 100
Info: RIGID WATER USING SETTLE ALGORITHM
Info: RANDOM NUMBER SEED     1743562423
Info: USE HYDROGEN BONDS?    NO
Info: Using AMBER format force field!
Info: AMBER PARM FILE        mobley_4883284.prmtop
Info: COORDINATE PDB         mobley_4883284.pdb
Info: Exclusions will be read from PARM file!
Info: SCNB (VDW SCALING)     2
Info: USING ARITHMETIC MEAN TO COMBINE L-J SIGMA PARAMETERS
Info: BINARY COORDINATES     mobley_4883284_equil.coor
Info: SUMMARY OF PARAMETERS:
Info: 6 BONDS
Info: 5 ANGLES
Info:   5 HARMONIC
Info:   0 COSINE-BASED
Info: 3 DIHEDRAL
Info: 0 IMPROPER
Info: 0 CROSSTERM
Info: 0 VDW
Info: 21 VDW_PAIRS
Info: 0 NBTHOLE_PAIRS
Info: To read alchdata from file: mobley_4883284.pdb
Info: To read alchflag data from column: 5
Info: STRUCTURE SUMMARY:
Info: 2963 ATOMS
Info: 2963 BONDS
Info: 21 ANGLES
Info: 35 DIHEDRALS
Info: 0 IMPROPERS
Info: 0 CROSSTERMS
Info: 3009 EXCLUSIONS
Info: 2956 RIGID BONDS
Info: ALCH: 0 ATOMS TO DISAPPEAR IN FINAL STATE
Info: ALCH: 14 ATOMS TO APPEAR IN FINAL STATE
Info: 5933 DEGREES OF FREEDOM
Info: 990 HYDROGEN GROUPS
Info: 3 ATOMS IN LARGEST HYDROGEN GROUP
Info: 990 MIGRATION GROUPS
Info: 3 ATOMS IN LARGEST MIGRATION GROUP
Info: TOTAL MASS = 17802.9 amu
Info: TOTAL CHARGE = 0.000299931 e
Info: MASS DENSITY = 0.965619 g/cm^3
Info: ATOM DENSITY = 0.0967807 atoms/A^3
Info: ADDED 0 IMPLICIT EXCLUSIONS
Info: NONBONDED TABLE R-SQUARED SPACING: 0.0625
Info: NONBONDED TABLE SIZE: 705 POINTS
Info: REMOVING COM VELOCITY 0.0351757 -0.320467 -0.134118
Info: Use 3D box decompostion in PME FFT.
Info: Updated CUDA force table with 4096 elements.
Info: Updated CUDA LJ table with 6 x 6 elements.
Info: Found 16 unique exclusion lists needing 32 bytes
TCL: Running for 1500000 steps
ETITLE: TS BOND ANGLE DIHED IMPRP ELECT VDW BOUNDARY MISC KINETIC TOTAL TEMP POTENTIAL TOTALAVG TEMPAVG PRESSURE GPRESSURE VOLUME PRESSAVG GPRESSAVG
ENERGY: 0 2.1372 5.0801 4.9137 0.0000 -10879.4933 1515.7985 0.0000 0.0000 1731.8992 -7619.6646 293.7911 -9351.5638 -7619.6646 293.7911 276.6015 349.1531 30615.6169 276.6015 349.1531
ENERGY: 300000 2.0482 2.9938 1.8698 0.0000 -10796.1354 1447.8864 0.0000 0.0000 1727.3843 -7613.9529 293.0252 -9341.3372 -7606.0549 295.4650 -207.2453 -162.2801 30434.0672 179.9133 214.9535
ENERGY: 600000 1.9719 3.3895 2.4167 0.0000 -10887.0885 1520.6785 0.0000 0.0000 1757.4913 -7601.1405 298.1324 -9358.6318 -7595.5810 297.2170 421.8824 395.1695 30356.7463 165.6601 196.9969
ENERGY: 900000 3.9296 5.1180 5.0409 0.0000 -10673.0879 1419.5143 0.0000 0.0000 1744.8475 -7494.6376 295.9876 -9239.4851 -7573.6907 298.5023 235.0695 201.9583 30224.7643 138.9189 171.3331
ENERGY: 1200000 4.4447 2.6653 3.1428 0.0000 -10788.4903 1415.9844 0.0000 0.0000 1785.5611 -7576.6920 302.8940 -9362.2530 -7579.5521 297.2617 -355.7049 -349.8321 30184.9330 131.5832 165.0309
ENERGY: 1500000 1.2117 4.0631 4.7258 0.0000 -10719.7697 1428.0709 0.0000 0.0000 1811.3083 -7470.3900 307.2617 -9281.6984 -7569.7290 298.8210 37.0642 152.1819 30439.6384 174.4625 213.3267
TCL: Running FEP window   2: Lambda1 0.05   Lambda2 0.1    [dLambda 0.05  ]
TCL: Setting parameter firsttimestep to 0
TCL: Setting parameter alchLambda to 0.05
Info: NONBONDED TABLE R-SQUARED SPACING: 0.0625
Info: NONBONDED TABLE SIZE: 705 POINTS
TCL: Setting parameter alchLambda2 to 0.1
Info: NONBONDED TABLE R-SQUARED SPACING: 0.0625
Info: NONBONDED TABLE SIZE: 705 POINTS
TCL: Running for 1500000 steps
ETITLE: TS BOND ANGLE DIHED IMPRP ELECT VDW BOUNDARY MISC KINETIC TOTAL TEMP POTENTIAL TOTALAVG TEMPAVG PRESSURE GPRESSURE VOLUME PRESSAVG GPRESSAVG
ENERGY: 0 1.2117 4.0631 4.7257 0.0000 -10719.7720 1430.0776 0.0000 0.0000 1810.4125 -7469.2815 307.1097 -9279.6939 -7469.2815 307.1097 79.7286 158.5686 30439.6384 79.7286 158.5686
ENERGY: 300000 5.5673 6.9238 1.2289 0.0000 -10775.2310 1504.3458 0.0000 0.0000 1776.2906 -7480.8747 301.3214 -9257.1652 -7498.6189 301.5531 175.3378 273.5149 31245.3031 -97.7970 -28.2337
ENERGY: 600000 7.3533 2.3663 1.6458 0.0000 -10844.4338 1452.6319 0.0000 0.0000 1764.8613 -7615.5752 299.3826 -9380.4365 -7505.7899 302.0560 -426.0668 -358.2467 30323.8348 -140.1728 -66.9175
ENERGY: 900000 4.6659 3.6573 4.4932 0.0000 -10631.4908 1403.2409 0.0000 0.0000 1782.3409 -7433.0926 302.3478 -9215.4335 -7508.8378 302.5011 -311.8177 -210.0253 30367.7430 -89.3556 -10.6825
ENERGY: 1200000 3.5994 2.9428 1.6991 0.0000 -10708.3295 1361.9095 0.0000 0.0000 1740.9369 -7597.2418 295.3242 -9338.1787 -7523.1953 300.7645 -693.6706 -599.3082 30331.8979 -158.1885 -79.5522
ENERGY: 1500000 2.5161 6.4129 2.3216 0.0000 -10562.9256 1306.9799 0.0000 0.0000 1792.2222 -7452.4729 304.0240 -9244.6951 -7521.2117 301.3473 -903.3545 -796.5154 29980.5706 -119.2590 -42.2399
TCL: Running FEP window   3: Lambda1 0.1    Lambda2 0.15000000000000002 [dLambda 0.05000000000000002]
TCL: Setting parameter firsttimestep to 0
TCL: Setting parameter alchLambda to 0.1
Info: NONBONDED TABLE R-SQUARED SPACING: 0.0625
Info: NONBONDED TABLE SIZE: 705 POINTS
TCL: Setting parameter alchLambda2 to 0.15000000000000002
Info: NONBONDED TABLE R-SQUARED SPACING: 0.0625
Info: NONBONDED TABLE SIZE: 705 POINTS
TCL: Running for 1500000 steps
ETITLE: TS BOND ANGLE DIHED IMPRP ELECT VDW BOUNDARY MISC KINETIC TOTAL TEMP POTENTIAL TOTALAVG TEMPAVG PRESSURE GPRESSURE VOLUME PRESSAVG GPRESSAVG
ENERGY: 0 2.5161 6.4129 2.3216 0.0000 -10562.9274 1308.6730 0.0000 0.0000 1791.3514 -7451.6523 303.8763 -9243.0037 -7451.6523 303.8763 -883.1673 -792.0761 29980.5706 -883.1673 -792.0761
ENERGY: 300000 1.0033 3.4804 1.7033 0.0000 -10826.1250 1507.8026 0.0000 0.0000 1789.9505 -7522.1850 303.6387 -9312.1355 -7529.1105 299.2178 733.2337 756.1386 30141.8228 -17.0605 54.8336
ENERGY: 600000 0.4553 3.4070 2.7332 0.0000 -10825.8676 1512.3583 0.0000 0.0000 1776.3158 -7530.5978 301.3257 -9306.9137 -7543.9735 300.0884 644.8178 669.1120 30125.7310 -11.2126 51.6262
ENERGY: 900000 1.9374 3.0892 2.6532 0.0000 -10667.7148 1409.9847 0.0000 0.0000 1706.1040 -7543.9464 289.4153 -9250.0504 -7539.7265 299.1771 -37.9153 32.7844 30350.6344 79.0258 149.5281
ENERGY: 1200000 2.1013 4.3815 4.3743 0.0000 -10714.9944 1374.3666 0.0000 0.0000 1795.1655 -7534.6053 304.5233 -9329.7708 -7535.9510 300.4125 -724.3890 -649.1925 30278.7688 92.5405 156.9658
ENERGY: 1500000 1.8670 1.7165 2.0559 0.0000 -10824.0617 1477.1655 0.0000 0.0000 1773.2879 -7567.9689 300.8121 -9341.2568 -7530.3417 300.5947 128.6014 223.3322 30245.0856 108.2442 173.6901
TCL: Running FEP window   4: Lambda1 0.15000000000000002 Lambda2 0.2    [dLambda 0.04999999999999999]
TCL: Setting parameter firsttimestep to 0
TCL: Setting parameter alchLambda to 0.15000000000000002
Info: NONBONDED TABLE R-SQUARED SPACING: 0.0625
Info: NONBONDED TABLE SIZE: 705 POINTS
TCL: Setting parameter alchLambda2 to 0.2
Info: NONBONDED TABLE R-SQUARED SPACING: 0.0625
Info: NONBONDED TABLE SIZE: 705 POINTS
TCL: Running for 1500000 steps
ETITLE: TS BOND ANGLE DIHED IMPRP ELECT VDW BOUNDARY MISC KINETIC TOTAL TEMP POTENTIAL TOTALAVG TEMPAVG PRESSURE GPRESSURE VOLUME PRESSAVG GPRESSAVG
ENERGY: 0 1.8670 1.7165 2.0559 0.0000 -10824.0604 1477.2489 0.0000 0.0000 1772.4219 -7568.7502 300.6652 -9341.1721 -7568.7502 300.6652 143.0095 223.3606 30245.0856 143.0095 223.3606
ENERGY: 300000 2.7930 6.8456 3.4241 0.0000 -10676.0796 1391.9030 0.0000 0.0000 1717.5111 -7553.6029 291.3504 -9271.1140 -7582.9179 295.7601 -350.0423 -314.5203 30402.1272 -55.4324 0.5612
ENERGY: 600000 4.8176 4.5234 3.3104 0.0000 -10840.9129 1520.6030 0.0000 0.0000 1803.7513 -7503.9072 305.9798 -9307.6585 -7568.8828 298.3807 416.1414 455.7247 30593.6697 -37.0484 14.9972
ENERGY: 900000 2.0101 4.6646 3.0839 0.0000 -10609.5841 1358.2820 0.0000 0.0000 1682.6027 -7558.9408 285.4287 -9241.5435 -7563.6282 297.5265 -692.1098 -669.2002 30552.1064 -196.9992 -138.7083
ENERGY: 1200000 2.6273 2.4919 5.8809 0.0000 -10796.9190 1432.0010 0.0000 0.0000 1763.0616 -7590.8564 299.0773 -9353.9180 -7568.7631 298.8329 -358.0484 -299.8780 30534.5287 -155.9051 -92.2434
ENERGY: 1500000 1.1460 4.2955 2.6620 0.0000 -10713.7931 1505.0681 0.0000 0.0000 1757.8608 -7442.7607 298.1951 -9200.6215 -7555.0992 299.0027 459.3456 535.8657 30876.1872 -174.8095 -112.3155
TCL: Running FEP window   5: Lambda1 0.2    Lambda2 0.25   [dLambda 0.04999999999999999]
TCL: Setting parameter firsttimestep to 0
TCL: Setting parameter alchLambda to 0.2
Info: NONBONDED TABLE R-SQUARED SPACING: 0.0625
Info: NONBONDED TABLE SIZE: 705 POINTS
TCL: Setting parameter alchLambda2 to 0.25
Info: NONBONDED TABLE R-SQUARED SPACING: 0.0625
Info: NONBONDED TABLE SIZE: 705 POINTS
TCL: Running for 1500000 steps
ETITLE: TS BOND ANGLE DIHED IMPRP ELECT VDW BOUNDARY MISC KINETIC TOTAL TEMP POTENTIAL TOTALAVG TEMPAVG PRESSURE GPRESSURE VOLUME PRESSAVG GPRESSAVG
ENERGY: 0 1.1459 4.2956 2.6620 0.0000 -10713.7928 1506.1478 0.0000 0.0000 1757.0038 -7442.5378 298.0497 -9199.5416 -7442.5378 298.0497 465.5354 542.5104 30876.1872 465.5354 542.5104
ENERGY: 300000 3.6366 5.8519 6.2225 0.0000 -10783.0534 1493.1585 0.0000 0.0000 1782.1648 -7492.0191 302.3179 -9274.1839 -7486.3897 302.6703 450.0631 555.1316 30149.4447 68.8970 138.9040
ENERGY: 600000 2.0819 4.3197 2.3419 0.0000 -10696.2362 1442.2457 0.0000 0.0000 1712.1029 -7533.1440 290.4330 -9245.2470 -7516.1136 299.6247 -0.3339 51.8757 30890.4038 46.9261 111.0144
ENERGY: 900000 4.3554 1.2754 4.8290 0.0000 -10770.5995 1449.7135 0.0000 0.0000 1762.4565 -7547.9698 298.9747 -9310.4263 -7516.4868 299.1259 -446.0608 -328.0470 30819.1377 119.9673 188.9105
ENERGY: 1200000 1.8409 3.8968 3.3820 0.0000 -10766.9550 1380.4602 0.0000 0.0000 1796.8382 -7580.5369 304.8071 -9377.3751 -7532.2810 298.3001 -775.7583 -743.0553 30543.1244 -50.2756 18.7970
ENERGY: 1500000 0.8582 3.2329 2.6472 0.0000 -10830.2232 1487.3158 0.0000 0.0000 1695.5367 -7640.6324 287.6227 -9336.1691 -7538.6472 297.6652 333.1644 456.6205 29938.5883 -82.7532 -10.1123
TCL: Running FEP window   6: Lambda1 0.25   Lambda2 0.3    [dLambda 0.04999999999999999]
TCL: Setting parameter firsttimestep to 0
TCL: Setting parameter alchLambda to 0.25
Info: NONBONDED TABLE R-SQUARED SPACING: 0.0625
Info: NONBONDED TABLE SIZE: 705 POINTS
TCL: Setting parameter alchLambda2 to 0.3
Info: NONBONDED TABLE R-SQUARED SPACING: 0.0625
Info: NONBONDED TABLE SIZE: 705 POINTS
TCL: Running for 1500000 steps
ETITLE: TS BOND ANGLE DIHED IMPRP ELECT VDW BOUNDARY MISC KINETIC TOTAL TEMP POTENTIAL TOTALAVG TEMPAVG PRESSURE GPRESSURE VOLUME PRESSAVG GPRESSAVG
ENERGY: 0 0.8582 3.2329 2.6472 0.0000 -10830.2218 1487.7723 0.0000 0.0000 1694.6309 -7641.0804 287.4691 -9335.7113 -7641.0804 287.4691 383.4174 465.1000 29938.5883 383.4174 465.1000
ENERGY: 300000 1.6185 1.9958 3.9805 0.0000 -10727.6134 1451.7473 0.0000 0.0000 1704.1273 -7564.1439 289.0800 -9268.2712 -7583.0992 293.0536 21.2239 121.6419 30473.3580 -33.3326 26.7863
ENERGY: 600000 2.2111 4.0562 3.1857 0.0000 -10691.4092 1446.9952 0.0000 0.0000 1755.1935 -7479.7676 297.7426 -9234.9611 -7572.4808 296.0649 208.5260 307.8414 30486.4255 100.7537 178.3039
ENERGY: 900000 2.1873 4.6953 4.6739 0.0000 -10745.6926 1399.7184 0.0000 0.0000 1782.9564 -7551.4613 302.4522 -9334.4177 -7561.5025 297.9361 -530.5855 -391.6850 30553.2633 -91.4962 -1.6202
ENERGY: 1200000 1.6862 6.3388 4.2906 0.0000 -10727.0216 1418.6032 0.0000 0.0000 1810.0249 -7486.0779 307.0440 -9296.1028 -7554.9545 299.3668 -283.9436 -239.4300 30646.3654 -36.6440 35.1601
ENERGY: 1500000 3.8894 3.8084 2.5396 0.0000 -10721.2457 1431.6222 0.0000 0.0000 1787.4452 -7491.9408 303.2137 -9279.3859 -7542.2749 300.3290 -11.9474 105.1744 30244.1459 -114.3172 -38.2556
TCL: Running FEP window   7: Lambda1 0.3    Lambda2 0.35   [dLambda 0.04999999999999999]
TCL: Setting parameter firsttimestep to 0
TCL: Setting parameter alchLambda to 0.3
Info: NONBONDED TABLE R-SQUARED SPACING: 0.0625
Info: NONBONDED TABLE SIZE: 705 POINTS
TCL: Setting parameter alchLambda2 to 0.35
Info: NONBONDED TABLE R-SQUARED SPACING: 0.0625
Info: NONBONDED TABLE SIZE: 705 POINTS
TCL: Running for 1500000 steps
ETITLE: TS BOND ANGLE DIHED IMPRP ELECT VDW BOUNDARY MISC KINETIC TOTAL TEMP POTENTIAL TOTALAVG TEMPAVG PRESSURE GPRESSURE VOLUME PRESSAVG GPRESSAVG
ENERGY: 0 3.8894 3.8084 2.5396 0.0000 -10721.2448 1431.5526 0.0000 0.0000 1786.5870 -7492.8677 303.0681 -9279.4547 -7492.8677 303.0681 27.1588 108.0311 30244.1459 27.1588 108.0311
ENERGY: 300000 6.1188 2.9510 1.9088 0.0000 -10544.6031 1312.4936 0.0000 0.0000 1762.3894 -7458.7415 298.9633 -9221.1309 -7467.5617 299.9851 -1030.7479 -937.6579 30918.6651 -282.5670 -209.5619
ENERGY: 600000 2.3529 5.0878 4.3578 0.0000 -10684.2273 1394.2146 0.0000 0.0000 1769.1775 -7509.0368 300.1148 -9278.2142 -7482.2318 301.0883 -490.7814 -327.4999 30235.0938 -198.3968 -118.3689
ENERGY: 900000 1.7730 1.6449 3.4726 0.0000 -10762.1876 1442.0149 0.0000 0.0000 1739.9637 -7573.3186 295.1591 -9313.2823 -7496.8670 301.2300 -281.0052 -277.9250 30693.9086 -120.6602 -50.1693
ENERGY: 1200000 2.0953 3.6876 2.8320 0.0000 -10675.5866 1396.0195 0.0000 0.0000 1798.3843 -7472.5678 305.0693 -9270.9522 -7497.4831 301.0670 -382.8285 -350.7941 30993.1445 -211.1436 -143.9508
ENERGY: 1500000 1.3502 2.9121 5.8988 0.0000 -10779.5255 1528.3010 0.0000 0.0000 1793.3410 -7447.7224 304.2138 -9241.0634 -7488.1874 302.1770 472.2963 565.8913 30752.2642 -189.9169 -118.7840
TCL: Running FEP window   8: Lambda1 0.35   Lambda2 0.39999999999999997 [dLambda 0.04999999999999999]
TCL: Setting parameter firsttimestep to 0
TCL: Setting parameter alchLambda to 0.35
Info: NONBONDED TABLE R-SQUARED SPACING: 0.0625
Info: NONBONDED TABLE SIZE: 705 POINTS
TCL: Setting parameter alchLambda2 to 0.39999999999999997
Info: NONBONDED TABLE R-SQUARED SPACING: 0.0625
Info: NONBONDED TABLE SIZE: 705 POINTS
TCL: Running for 1500000 steps
ETITLE: TS BOND ANGLE DIHED IMPRP ELECT VDW BOUNDARY MISC KINETIC TOTAL TEMP POTENTIAL TOTALAVG TEMPAVG PRESSURE GPRESSURE VOLUME PRESSAVG GPRESSAVG
ENERGY: 0 1.3502 2.9121 5.8988 0.0000 -10779.5252 1528.3354 0.0000 0.0000 1792.4125 -7448.6162 304.0563 -9241.0288 -7448.6162 304.0563 492.3898 568.6804 30752.2642 492.3898 568.6804
ENERGY: 300000 2.8160 5.7523 2.6458 0.0000 -10784.0923 1522.5263 0.0000 0.0000 1754.7063 -7495.6456 297.6600 -9250.3519 -7544.1125 300.0145 711.1655 782.5020 30458.0361 312.8317 368.4050
ENERGY: 600000 0.5295 1.6132 5.9264 0.0000 -10894.7860 1532.2051 0.0000 0.0000 1794.5609 -7559.9510 304.4207 -9354.5119 -7543.5138 299.8980 661.3796 737.7729 30261.1963 49.1104 127.2733
ENERGY: 900000 3.1592 3.2617 4.2102 0.0000 -10769.3006 1465.3720 0.0000 0.0000 1774.1360 -7519.1615 300.9560 -9293.2975 -7523.0816 301.1856 116.5876 200.1449 30504.0332 1.0133 77.7380
ENERGY: 1200000 2.0411 3.1717 2.9286 0.0000 -10913.7209 1581.9809 0.0000 0.0000 1793.3065 -7530.2922 304.2079 -9323.5987 -7528.8097 300.7444 947.8407 950.2882 30378.6649 153.3248 219.0947
ENERGY: 1500000 2.5951 3.0047 2.6637 0.0000 -10689.4151 1384.7384 0.0000 0.0000 1720.0031 -7576.4101 291.7731 -9296.4132 -7533.9891 300.7044 -359.5812 -221.7835 30171.5408 95.8452 166.0244
TCL: Running FEP window   9: Lambda1 0.39999999999999997 Lambda2 0.44999999999999996 [dLambda 0.04999999999999999]
TCL: Setting parameter firsttimestep to 0
TCL: Setting parameter alchLambda to 0.39999999999999997
Info: NONBONDED TABLE R-SQUARED SPACING: 0.0625
Info: NONBONDED TABLE SIZE: 705 POINTS
TCL: Setting parameter alchLambda2 to 0.44999999999999996
Info: NONBONDED TABLE R-SQUARED SPACING: 0.0625
Info: NONBONDED TABLE SIZE: 705 POINTS
TCL: Running for 1500000 steps
ETITLE: TS BOND ANGLE DIHED IMPRP ELECT VDW BOUNDARY MISC KINETIC TOTAL TEMP POTENTIAL TOTALAVG TEMPAVG PRESSURE GPRESSURE VOLUME PRESSAVG GPRESSAVG
ENERGY: 0 2.5951 3.0047 2.6637 0.0000 -10689.4143 1384.3896 0.0000 0.0000 1719.1190 -7577.6421 291.6231 -9296.7611 -7577.6421 291.6231 -311.3877 -218.9830 30171.5408 -311.3877 -218.9830
ENERGY: 300000 0.7516 5.1114 3.3259 0.0000 -10815.9929 1496.5252 0.0000 0.0000 1726.2071 -7584.0717 292.8255 -9310.2788 -7539.4987 297.0025 442.2914 512.3927 30016.8745 -90.9249 -4.5218
ENERGY: 600000 3.0753 6.2807 4.7123 0.0000 -10842.5579 1463.7223 0.0000 0.0000 1785.0319 -7579.7354 302.8043 -9364.7674 -7533.3250 299.3317 63.9585 113.2060 30110.7691 -250.5492 -183.2330
ENERGY: 900000 2.3962 1.5968 3.4545 0.0000 -10932.5745 1528.1894 0.0000 0.0000 1813.7231 -7583.2145 307.6713 -9396.9376 -7526.8626 300.7849 547.5977 632.3827 30133.4048 -75.0311 -12.1697
ENERGY: 1200000 1.9331 2.0970 3.6042 0.0000 -10740.0665 1394.9315 0.0000 0.0000 1771.5301 -7565.9707 300.5139 -9337.5008 -7527.4664 301.5288 -537.0411 -437.8014 30368.7775 -42.3228 19.0591
ENERGY: 1500000 2.3608 7.4512 1.9843 0.0000 -10779.9164 1420.5181 0.0000 0.0000 1801.1519 -7546.4501 305.5388 -9347.6020 -7535.6281 301.2761 -384.6448 -300.2345 30422.0294 -123.4027 -61.6481
TCL: Running FEP window  10: Lambda1 0.44999999999999996 Lambda2 0.49999999999999994 [dLambda 0.04999999999999999]
TCL: Setting parameter firsttimestep to 0
TCL: Setting parameter alchLambda to 0.44999999999999996
Info: NONBONDED TABLE R-SQUARED SPACING: 0.0625
Info: NONBONDED TABLE SIZE: 705 POINTS
TCL: Setting parameter alchLambda2 to 0.49999999999999994
Info: NONBONDED TABLE R-SQUARED SPACING: 0.0625
Info: NONBONDED TABLE SIZE: 705 POINTS
TCL: Running for 1500000 steps
ETITLE: TS BOND ANGLE DIHED IMPRP ELECT VDW BOUNDARY MISC KINETIC TOTAL TEMP POTENTIAL TOTALAVG TEMPAVG PRESSURE GPRESSURE VOLUME PRESSAVG GPRESSAVG
ENERGY: 0 2.3608 7.4512 1.9843 0.0000 -10779.9165 1420.6004 0.0000 0.0000 1800.2497 -7547.2701 305.3858 -9347.5198 -7547.2701 305.3858 -369.7409 -295.6095 30422.0294 -369.7409 -295.6095
ENERGY: 300000 2.4281 4.4962 1.5970 0.0000 -10695.5165 1413.6115 0.0000 0.0000 1762.5858 -7510.7979 298.9966 -9273.3837 -7507.8024 302.0268 -479.4778 -407.8326 31100.6098 -267.0820 -209.3868
ENERGY: 600000 0.9232 5.6235 3.7685 0.0000 -10863.9789 1529.8650 0.0000 0.0000 1813.5968 -7510.2020 307.6499 -9323.7987 -7510.3901 302.1557 640.6804 675.7272 30491.6348 -25.9946 28.1337
ENERGY: 900000 1.0295 2.5111 4.9492 0.0000 -10858.6334 1471.7962 0.0000 0.0000 1714.0953 -7664.2521 290.7709 -9378.3474 -7527.4164 299.8618 37.9056 112.1011 30141.8187 48.9503 105.9756
ENERGY: 1200000 2.2763 2.1493 3.5615 0.0000 -10683.9429 1409.0983 0.0000 0.0000 1790.9634 -7475.8941 303.8105 -9266.8575 -7525.6944 299.8478 -473.2145 -399.4891 30691.7632 -40.0400 16.8316
ENERGY: 1500000 3.0814 2.1853 4.9192 0.0000 -10599.5168 1389.8425 0.0000 0.0000 1807.3221 -7392.1664 306.5855 -9199.4884 -7524.0242 299.9824 -224.1166 -130.2674 30555.1765 -24.9515 34.7136
TCL: Running FEP window  11: Lambda1 0.49999999999999994 Lambda2 0.5499999999999999 [dLambda 0.04999999999999999]
TCL: Setting parameter firsttimestep to 0
TCL: Setting parameter alchLambda to 0.49999999999999994
Info: NONBONDED TABLE R-SQUARED SPACING: 0.0625
Info: NONBONDED TABLE SIZE: 705 POINTS
TCL: Setting parameter alchLambda2 to 0.5499999999999999
Info: NONBONDED TABLE R-SQUARED SPACING: 0.0625
Info: NONBONDED TABLE SIZE: 705 POINTS
TCL: Running for 1500000 steps
ETITLE: TS BOND ANGLE DIHED IMPRP ELECT VDW BOUNDARY MISC KINETIC TOTAL TEMP POTENTIAL TOTALAVG TEMPAVG PRESSURE GPRESSURE VOLUME PRESSAVG GPRESSAVG
ENERGY: 0 3.0814 2.1853 4.9192 0.0000 -10599.5165 1389.8773 0.0000 0.0000 1806.3908 -7393.0625 306.4275 -9199.4533 -7393.0625 306.4275 -228.5179 -122.8483 30555.1765 -228.5179 -122.8483
ENERGY: 300000 1.5234 5.1677 2.1276 0.0000 -10673.8546 1422.3952 0.0000 0.0000 1785.1449 -7457.4958 302.8235 -9242.6407 -7497.2099 299.2491 -131.0130 -72.6356 30724.1754 -251.2320 -179.4964
ENERGY: 600000 1.4554 3.0464 2.2683 0.0000 -10764.5781 1493.9743 0.0000 0.0000 1770.6018 -7493.2319 300.3564 -9263.8337 -7514.0727 299.4338 489.6394 527.9805 30331.9186 -53.3066 17.3377
ENERGY: 900000 0.9649 2.9669 3.2435 0.0000 -10843.7793 1499.5890 0.0000 0.0000 1781.2360 -7555.7791 302.1604 -9337.0151 -7526.3266 299.6384 524.6471 532.6030 30095.7927 -9.5989 63.5216
ENERGY: 1200000 1.1812 3.5640 4.0753 0.0000 -10746.4180 1422.3077 0.0000 0.0000 1730.8413 -7584.4485 293.6117 -9315.2898 -7529.1021 299.5160 -188.7190 -75.0620 30487.4848 -9.9461 58.6756
ENERGY: 1500000 3.8204 6.6415 2.8827 0.0000 -10772.6089 1444.4420 0.0000 0.0000 1764.6540 -7550.1684 299.3475 -9314.8223 -7535.7439 299.5240 77.8323 200.2289 30321.4930 -81.5275 -2.1596
TCL: Running FEP window  12: Lambda1 0.5499999999999999 Lambda2 0.6    [dLambda 0.050000000000000044]
TCL: Setting parameter firsttimestep to 0
TCL: Setting parameter alchLambda to 0.5499999999999999
Info: NONBONDED TABLE R-SQUARED SPACING: 0.0625
Info: NONBONDED TABLE SIZE: 705 POINTS
TCL: Setting parameter alchLambda2 to 0.6
Info: NONBONDED TABLE R-SQUARED SPACING: 0.0625
Info: NONBONDED TABLE SIZE: 705 POINTS
TCL: Running for 1500000 steps
ETITLE: TS BOND ANGLE DIHED IMPRP ELECT VDW BOUNDARY MISC KINETIC TOTAL TEMP POTENTIAL TOTALAVG TEMPAVG PRESSURE GPRESSURE VOLUME PRESSAVG GPRESSAVG
ENERGY: 0 3.8204 6.6415 2.8827 0.0000 -10772.4585 1444.4466 0.0000 0.0000 1763.8088 -7550.8585 299.2041 -9314.6673 -7550.8585 299.2041 109.2500 207.2916 30321.4930 109.2500 207.2916
ENERGY: 300000 1.0198 6.4784 3.9854 0.0000 -10740.5975 1433.5378 0.0000 0.0000 1746.8164 -7548.7597 296.3216 -9295.5761 -7542.0018 299.7381 -107.3028 -95.7058 30401.8974 -423.9202 -350.6949
ENERGY: 600000 1.9266 6.3534 1.9042 0.0000 -10686.1036 1369.5335 0.0000 0.0000 1771.1690 -7535.2169 300.4526 -9306.3858 -7539.6179 299.6838 -777.2579 -706.2902 30822.5763 -173.6647 -108.7039
ENERGY: 900000 2.4893 2.6733 5.9862 0.0000 -10811.1176 1486.1166 0.0000 0.0000 1782.9283 -7530.9240 302.4474 -9313.8523 -7542.8993 299.0882 271.8702 386.9706 30339.0538 -178.3936 -114.9931
ENERGY: 1200000 5.6452 5.3576 4.3414 0.0000 -10753.5646 1380.6977 0.0000 0.0000 1739.0914 -7618.4314 295.0112 -9357.5227 -7538.8399 299.6357 -793.3121 -720.2267 30670.4578 -196.3117 -141.5739
ENERGY: 1500000 2.2793 2.7771 4.9507 0.0000 -10863.9573 1514.6551 0.0000 0.0000 1737.2597 -7602.0354 294.7004 -9339.2951 -7545.6721 300.2215 -154.2545 -47.3766 31123.7472 -158.7911 -98.2887
TCL: Running FEP window  13: Lambda1 0.6    Lambda2 0.65   [dLambda 0.050000000000000044]
TCL: Setting parameter firsttimestep to 0
TCL: Setting parameter alchLambda to 0.6
Info: NONBONDED TABLE R-SQUARED SPACING: 0.0625
Info: NONBONDED TABLE SIZE: 705 POINTS
TCL: Setting parameter alchLambda2 to 0.65
Info: NONBONDED TABLE R-SQUARED SPACING: 0.0625
Info: NONBONDED TABLE SIZE: 705 POINTS
TCL: Running for 1500000 steps
ETITLE: TS BOND ANGLE DIHED IMPRP ELECT VDW BOUNDARY MISC KINETIC TOTAL TEMP POTENTIAL TOTALAVG TEMPAVG PRESSURE GPRESSURE VOLUME PRESSAVG GPRESSAVG
ENERGY: 0 2.2793 2.7771 4.9507 0.0000 -10864.7316 1514.8340 0.0000 0.0000 1736.3865 -7603.5041 294.5523 -9339.8905 -7603.5041 294.5523 -126.9644 -42.2547 31123.7472 -126.9644 -42.2547
ENERGY: 300000 3.5596 3.3791 3.2913 0.0000 -10801.0078 1508.6619 0.0000 0.0000 1801.2454 -7480.8705 305.5547 -9282.1159 -7545.4920 302.8384 369.2476 400.3437 30625.1340 67.8543 115.6405
ENERGY: 600000 2.0341 5.4081 3.8245 0.0000 -10748.0445 1381.3831 0.0000 0.0000 1769.9199 -7585.4749 300.2408 -9355.3948 -7550.6656 302.1849 -554.3506 -538.2565 30481.7298 -166.7626 -113.0957
ENERGY: 900000 1.3416 3.5603 4.6257 0.0000 -10678.0978 1438.8081 0.0000 0.0000 1805.4395 -7424.3226 306.2661 -9229.7621 -7529.0941 303.4987 -225.5295 -141.4961 31091.7676 -204.0399 -149.1783
ENERGY: 1200000 1.7610 2.1551 2.0588 0.0000 -10795.6399 1433.8366 0.0000 0.0000 1802.4456 -7553.3828 305.7583 -9355.8284 -7527.4410 303.6130 -226.2448 -213.6890 30744.6726 -137.2722 -87.1244
ENERGY: 1500000 2.2784 5.3711 1.5796 0.0000 -10885.3610 1479.5970 0.0000 0.0000 1829.9269 -7566.6080 310.4201 -9396.5348 -7521.2201 303.2000 107.3279 198.7271 30398.3947 -72.4208 -16.5831
TCL: Running FEP window  14: Lambda1 0.65   Lambda2 0.7000000000000001 [dLambda 0.050000000000000044]
TCL: Setting parameter firsttimestep to 0
TCL: Setting parameter alchLambda to 0.65
Info: NONBONDED TABLE R-SQUARED SPACING: 0.0625
Info: NONBONDED TABLE SIZE: 705 POINTS
TCL: Setting parameter alchLambda2 to 0.7000000000000001
Info: NONBONDED TABLE R-SQUARED SPACING: 0.0625
Info: NONBONDED TABLE SIZE: 705 POINTS
TCL: Running for 1500000 steps
ETITLE: TS BOND ANGLE DIHED IMPRP ELECT VDW BOUNDARY MISC KINETIC TOTAL TEMP POTENTIAL TOTALAVG TEMPAVG PRESSURE GPRESSURE VOLUME PRESSAVG GPRESSAVG
ENERGY: 0 2.2784 5.3711 1.5796 0.0000 -10886.8174 1480.6287 0.0000 0.0000 1829.0655 -7567.8941 310.2739 -9396.9596 -7567.8941 310.2739 129.0306 212.0188 30398.3947 129.0306 212.0188
ENERGY: 300000 2.4352 4.0739 2.1071 0.0000 -10645.3120 1441.1023 0.0000 0.0000 1792.2661 -7403.3274 304.0315 -9195.5935 -7474.2168 304.7257 261.1946 236.9328 30908.7112 189.7585 227.1748
ENERGY: 600000 2.7535 3.0083 2.4598 0.0000 -10787.7167 1459.2333 0.0000 0.0000 1809.2859 -7510.9759 306.9186 -9320.2618 -7484.8805 305.0129 -161.0119 -26.3684 30594.0010 101.9540 167.8095
ENERGY: 900000 0.6712 5.7877 3.4698 0.0000 -10681.7651 1349.1098 0.0000 0.0000 1704.9912 -7617.7354 289.2266 -9322.7267 -7503.3233 303.4273 -807.1410 -717.3465 30376.4531 -175.2187 -112.8005
ENERGY: 1200000 0.5404 2.7471 5.4003 0.0000 -10758.5498 1462.6158 0.0000 0.0000 1766.9509 -7520.2953 299.7371 -9287.2462 -7509.4344 301.9238 -138.8835 -11.5798 30897.2281 -162.2202 -97.5448
ENERGY: 1500000 5.3072 3.8109 2.3713 0.0000 -10656.8462 1391.3301 0.0000 0.0000 1816.8140 -7437.2128 308.1957 -9254.0268 -7509.4527 301.7426 -425.9596 -337.2203 30674.4685 -115.8070 -47.7795
TCL: Running FEP window  15: Lambda1 0.7000000000000001 Lambda2 0.7500000000000001 [dLambda 0.050000000000000044]
TCL: Setting parameter firsttimestep to 0
TCL: Setting parameter alchLambda to 0.7000000000000001
Info: NONBONDED TABLE R-SQUARED SPACING: 0.0625
Info: NONBONDED TABLE SIZE: 705 POINTS
TCL: Setting parameter alchLambda2 to 0.7500000000000001
Info: NONBONDED TABLE R-SQUARED SPACING: 0.0625
Info: NONBONDED TABLE SIZE: 705 POINTS
TCL: Running for 1500000 steps
ETITLE: TS BOND ANGLE DIHED IMPRP ELECT VDW BOUNDARY MISC KINETIC TOTAL TEMP POTENTIAL TOTALAVG TEMPAVG PRESSURE GPRESSURE VOLUME PRESSAVG GPRESSAVG
ENERGY: 0 5.3072 3.8109 2.3713 0.0000 -10656.8892 1391.1380 0.0000 0.0000 1815.9895 -7438.2722 308.0558 -9254.2618 -7438.2722 308.0558 -430.4432 -334.2778 30674.4685 -430.4432 -334.2778
ENERGY: 300000 2.6253 4.3968 2.5046 0.0000 -10793.2996 1517.1554 0.0000 0.0000 1741.2659 -7525.3516 295.3800 -9266.6175 -7546.7018 299.1658 732.2767 740.2757 30404.7497 156.5768 207.1534
ENERGY: 600000 4.1249 3.7312 3.0656 0.0000 -10852.6566 1456.2177 0.0000 0.0000 1744.9250 -7640.5922 296.0007 -9385.5172 -7557.8055 299.1255 -181.5958 -168.3418 30343.4484 112.6230 148.7614
ENERGY: 900000 4.5530 3.0298 4.5632 0.0000 -10718.2417 1437.3479 0.0000 0.0000 1759.0613 -7509.6865 298.3987 -9268.7478 -7539.9549 300.1626 25.9661 103.0087 30553.1013 154.4921 201.4397
ENERGY: 1200000 2.8494 2.5442 3.2698 0.0000 -10831.2685 1452.4682 0.0000 0.0000 1787.1135 -7583.0233 303.1574 -9370.1369 -7547.0217 299.7414 -240.8985 -129.2390 30660.2204 33.7496 85.4849
ENERGY: 1500000 2.0748 5.4829 2.5441 0.0000 -10725.3103 1394.8807 0.0000 0.0000 1765.8317 -7554.4961 299.5473 -9320.3278 -7546.6733 299.4178 -386.5247 -338.9222 30515.9822 -16.9310 30.4127
TCL: Running FEP window  16: Lambda1 0.7500000000000001 Lambda2 0.8000000000000002 [dLambda 0.050000000000000044]
TCL: Setting parameter firsttimestep to 0
TCL: Setting parameter alchLambda to 0.7500000000000001
Info: NONBONDED TABLE R-SQUARED SPACING: 0.0625
Info: NONBONDED TABLE SIZE: 705 POINTS
TCL: Setting parameter alchLambda2 to 0.8000000000000002
Info: NONBONDED TABLE R-SQUARED SPACING: 0.0625
Info: NONBONDED TABLE SIZE: 705 POINTS
TCL: Running for 1500000 steps
ETITLE: TS BOND ANGLE DIHED IMPRP ELECT VDW BOUNDARY MISC KINETIC TOTAL TEMP POTENTIAL TOTALAVG TEMPAVG PRESSURE GPRESSURE VOLUME PRESSAVG GPRESSAVG
ENERGY: 0 2.0748 5.4830 2.5441 0.0000 -10725.9503 1394.8511 0.0000 0.0000 1764.9812 -7556.0162 299.4030 -9320.9974 -7556.0162 299.4030 -403.7314 -331.0138 30515.9822 -403.7314 -331.0138
ENERGY: 300000 1.8948 3.1637 3.0727 0.0000 -10819.2985 1515.7033 0.0000 0.0000 1755.0192 -7540.4448 297.7131 -9295.4640 -7550.6668 299.5535 619.3528 639.3936 30505.3333 -67.9593 10.7177
ENERGY: 600000 2.6056 2.2032 4.7683 0.0000 -10768.1949 1436.5164 0.0000 0.0000 1857.8225 -7464.2789 315.1521 -9322.1014 -7546.0579 300.0518 207.5944 239.0657 30050.5664 134.5858 194.1009
ENERGY: 900000 2.3619 3.8548 3.6111 0.0000 -10795.7229 1430.7353 0.0000 0.0000 1758.5460 -7596.6139 298.3113 -9355.1598 -7539.7717 300.8913 -25.9866 35.2127 30401.8547 37.0670 93.4145
ENERGY: 1200000 2.2322 4.9288 2.0767 0.0000 -10711.2074 1418.9200 0.0000 0.0000 1747.1182 -7535.9316 296.3728 -9283.0498 -7533.2844 300.1522 -194.6098 -115.1954 30562.5301 -38.7314 21.3662
ENERGY: 1500000 2.4845 5.3861 1.6422 0.0000 -10723.3159 1440.8526 0.0000 0.0000 1733.0591 -7539.8914 293.9879 -9272.9504 -7529.0257 300.2476 -74.8111 -39.1259 30850.6415 -10.1346 52.5720
TCL: Running FEP window  17: Lambda1 0.8000000000000002 Lambda2 0.8500000000000002 [dLambda 0.050000000000000044]
TCL: Setting parameter firsttimestep to 0
TCL: Setting parameter alchLambda to 0.8000000000000002
Info: NONBONDED TABLE R-SQUARED SPACING: 0.0625
Info: NONBONDED TABLE SIZE: 705 POINTS
TCL: Setting parameter alchLambda2 to 0.8500000000000002
Info: NONBONDED TABLE R-SQUARED SPACING: 0.0625
Info: NONBONDED TABLE SIZE: 705 POINTS
TCL: Running for 1500000 steps
ETITLE: TS BOND ANGLE DIHED IMPRP ELECT VDW BOUNDARY MISC KINETIC TOTAL TEMP POTENTIAL TOTALAVG TEMPAVG PRESSURE GPRESSURE VOLUME PRESSAVG GPRESSAVG
ENERGY: 0 2.4845 5.3861 1.6422 0.0000 -10725.1590 1441.5211 0.0000 0.0000 1732.2074 -7541.9176 293.8434 -9274.1251 -7541.9176 293.8434 -106.7344 -26.4756 30850.6415 -106.7344 -26.4756
ENERGY: 300000 2.0705 3.3366 4.7186 0.0000 -10604.2506 1362.7500 0.0000 0.0000 1806.0471 -7425.3278 306.3692 -9231.3749 -7523.3846 299.5063 -624.4939 -585.8239 31227.0454 -160.2104 -89.0629
ENERGY: 600000 1.2738 5.5636 2.3043 0.0000 -10782.1126 1512.6683 0.0000 0.0000 1724.8273 -7535.4753 292.5915 -9260.3026 -7522.4922 298.8528 769.3194 878.8486 30105.8317 6.8869 80.8627
ENERGY: 900000 3.5026 4.7528 3.6794 0.0000 -10528.7642 1277.4357 0.0000 0.0000 1773.0873 -7466.3065 300.7781 -9239.3938 -7542.1789 298.2315 -1202.1101 -1081.9305 30758.5746 -235.8356 -155.3790
ENERGY: 1200000 1.9335 3.0960 2.4832 0.0000 -10535.7670 1304.7954 0.0000 0.0000 1768.8363 -7454.6226 300.0569 -9223.4588 -7537.3804 299.0352 -975.4858 -860.9264 30621.7685 -262.1206 -187.7866
ENERGY: 1500000 0.7356 2.8226 2.4897 0.0000 -10751.7274 1427.2626 0.0000 0.0000 1720.2939 -7598.1230 291.8224 -9318.4170 -7544.7399 297.9211 -306.3440 -175.1746 30477.1105 -257.8501 -179.8179
TCL: Running FEP window  18: Lambda1 0.8500000000000002 Lambda2 0.9000000000000002 [dLambda 0.050000000000000044]
TCL: Setting parameter firsttimestep to 0
TCL: Setting parameter alchLambda to 0.8500000000000002
Info: NONBONDED TABLE R-SQUARED SPACING: 0.0625
Info: NONBONDED TABLE SIZE: 705 POINTS
TCL: Setting parameter alchLambda2 to 0.9000000000000002
Info: NONBONDED TABLE R-SQUARED SPACING: 0.0625
Info: NONBONDED TABLE SIZE: 705 POINTS
TCL: Running for 1500000 steps
ETITLE: TS BOND ANGLE DIHED IMPRP ELECT VDW BOUNDARY MISC KINETIC TOTAL TEMP POTENTIAL TOTALAVG TEMPAVG PRESSURE GPRESSURE VOLUME PRESSAVG GPRESSAVG
ENERGY: 0 0.7356 2.8226 2.4897 0.0000 -10752.6868 1427.6607 0.0000 0.0000 1719.4510 -7599.5272 291.6795 -9318.9782 -7599.5272 291.6795 -245.3027 -161.7251 30477.1105 -245.3027 -161.7251
ENERGY: 300000 0.5587 4.4007 5.4845 0.0000 -10794.2096 1463.9420 0.0000 0.0000 1778.2872 -7541.5365 301.6602 -9319.8237 -7570.2891 296.4456 149.9830 208.4966 30175.7102 219.7671 277.0797
ENERGY: 600000 1.6894 3.6543 3.7078 0.0000 -10686.5708 1357.0474 0.0000 0.0000 1760.2586 -7560.2132 298.6019 -9320.4719 -7563.0164 297.3043 -589.9364 -545.5863 30497.7101 4.1724 58.4632
ENERGY: 900000 4.4566 3.3834 2.2208 0.0000 -10776.4453 1410.7542 0.0000 0.0000 1802.7993 -7552.8310 305.8183 -9355.6303 -7553.2800 299.8623 -281.2075 -212.6272 30486.3479 53.2717 111.7287
ENERGY: 1200000 1.9545 4.0549 4.2144 0.0000 -10827.0262 1452.8122 0.0000 0.0000 1789.8975 -7574.0926 303.6297 -9363.9901 -7543.7040 299.7634 16.8740 36.9979 30404.5374 43.8557 110.1171
ENERGY: 1500000 1.5916 7.7616 3.8417 0.0000 -10755.5668 1434.9947 0.0000 0.0000 1733.3652 -7574.0120 294.0398 -9307.3771 -7555.3696 299.1505 100.5288 118.9675 30070.3767 32.4259 99.1626
TCL: Running FEP window  19: Lambda1 0.9000000000000002 Lambda2 0.9500000000000003 [dLambda 0.050000000000000044]
TCL: Setting parameter firsttimestep to 0
TCL: Setting parameter alchLambda to 0.9000000000000002
Info: NONBONDED TABLE R-SQUARED SPACING: 0.0625
Info: NONBONDED TABLE SIZE: 705 POINTS
TCL: Setting parameter alchLambda2 to 0.9500000000000003
Info: NONBONDED TABLE R-SQUARED SPACING: 0.0625
Info: NONBONDED TABLE SIZE: 705 POINTS
TCL: Running for 1500000 steps
ETITLE: TS BOND ANGLE DIHED IMPRP ELECT VDW BOUNDARY MISC KINETIC TOTAL TEMP POTENTIAL TOTALAVG TEMPAVG PRESSURE GPRESSURE VOLUME PRESSAVG GPRESSAVG
ENERGY: 0 1.5916 7.7616 3.8417 0.0000 -10756.4008 1435.0748 0.0000 0.0000 1732.5360 -7575.5952 293.8991 -9308.1311 -7575.5952 293.8991 55.7829 130.0335 30070.3767 55.7829 130.0335
ENERGY: 300000 1.8110 4.6959 3.3427 0.0000 -10732.6394 1406.7637 0.0000 0.0000 1692.6987 -7623.3273 287.1413 -9316.0260 -7580.0099 295.1350 -221.1723 -153.5145 30341.2841 184.5465 259.7923
ENERGY: 600000 0.6095 1.9743 3.1376 0.0000 -10735.4611 1376.1871 0.0000 0.0000 1780.5386 -7573.0140 302.0421 -9353.5526 -7559.7826 299.3502 -427.5169 -373.5805 30119.3817 172.2762 231.0737
ENERGY: 900000 1.2928 7.0250 3.2931 0.0000 -10708.0644 1443.9786 0.0000 0.0000 1789.4842 -7462.9908 303.5596 -9252.4750 -7545.7574 299.2439 119.4194 197.9285 30674.6327 16.8175 77.8284
ENERGY: 1200000 1.7082 2.8696 0.7156 0.0000 -10794.5465 1453.6258 0.0000 0.0000 1816.1238 -7519.5036 308.0786 -9335.6274 -7551.0037 299.3778 72.4167 118.8845 30496.5336 83.7919 140.9608
ENERGY: 1500000 0.8690 4.7024 4.7874 0.0000 -10787.8789 1371.2239 0.0000 0.0000 1736.2325 -7670.0637 294.5262 -9406.2962 -7565.1638 298.6931 -622.9750 -528.4429 30032.7612 -41.9106 22.8429
TCL: Running FEP window  20: Lambda1 0.9500000000000003 Lambda2 1.0    [dLambda 0.04999999999999971]
TCL: Setting parameter firsttimestep to 0
TCL: Setting parameter alchLambda to 0.9500000000000003
Info: NONBONDED TABLE R-SQUARED SPACING: 0.0625
Info: NONBONDED TABLE SIZE: 705 POINTS
TCL: Setting parameter alchLambda2 to 1.0
Info: NONBONDED TABLE R-SQUARED SPACING: 0.0625
Info: NONBONDED TABLE SIZE: 705 POINTS
TCL: Running for 1500000 steps
ETITLE: TS BOND ANGLE DIHED IMPRP ELECT VDW BOUNDARY MISC KINETIC TOTAL TEMP POTENTIAL TOTALAVG TEMPAVG PRESSURE GPRESSURE VOLUME PRESSAVG GPRESSAVG
ENERGY: 0 0.8690 4.7024 4.7874 0.0000 -10789.7267 1372.6997 0.0000 0.0000 1735.3422 -7671.3260 294.3752 -9406.6682 -7671.3260 294.3752 -589.9235 -499.6576 30032.7612 -589.9235 -499.6576
ENERGY: 300000 2.4807 4.2565 3.8408 0.0000 -10634.2655 1355.3778 0.0000 0.0000 1755.8238 -7512.4859 297.8496 -9268.3097 -7569.2776 297.5516 -510.6705 -415.6983 30508.5678 -333.2135 -278.3450
ENERGY: 600000 1.0843 2.3802 2.5843 0.0000 -10733.7602 1421.2754 0.0000 0.0000 1842.1541 -7464.2819 312.4942 -9306.4360 -7553.0519 300.9467 -244.3476 -181.7203 30783.5651 -136.8013 -82.0046
ENERGY: 900000 1.9431 3.5084 5.1551 0.0000 -10802.7961 1456.0745 0.0000 0.0000 1738.3365 -7597.7783 294.8831 -9336.1148 -7546.2462 298.9304 -82.8328 -40.4367 30631.4194 -135.2338 -81.3063
ENERGY: 1200000 3.0693 5.7557 4.2071 0.0000 -10897.4339 1533.9706 0.0000 0.0000 1842.8845 -7507.5466 312.6181 -9350.4312 -7560.0553 299.4976 386.2920 433.6728 30878.0810 -75.3471 -13.8181
ENERGY: 1500000 1.1665 3.7584 7.8308 0.0000 -10826.6994 1466.1992 0.0000 0.0000 1750.2350 -7597.5095 296.9015 -9347.7445 -7564.1537 300.0591 -18.8911 20.6650 30636.1415 -40.6020 20.7650
TCL: Exiting due to exit command.
