Info: SIMULATION PARAMETERS:
Info: TIMESTEP               2
Info: NUMBER OF STEPS        0
Info: STEPS PER CYCLE        10
Info: PERIODIC CELL BASIS 1  31.3073 0 0
Info: PERIODIC CELL BASIS 2  0 30.6366 0
Info: PERIODIC CELL BASIS 3  0 0 32.3705
Info: PERIODIC CELL CENTER   0 0 0
Info: WRAPPING WATERS AROUND PERIODIC BOUNDARIES ON OUTPUT.
Info: WRAPPING ALL CLUSTERS AROUND PERIODIC BOUNDARIES ON OUTPUT.
Info: FIRST LDB TIMESTEP     50
Info: LAST LDB TIMESTEP     -1
Info: HOM BACKGROUND SCALING 1
Info: PME BACKGROUND SCALING 1
Info: MIN ATOMS PER PATCH    40
Info: EMPTY PATCH LOAD       40 ATOMS
Info: VELOCITY FILE          mobley_6190089_equil.vel
Info: CENTER OF MASS MOVING INITIALLY? NO
Info: DIELECTRIC             1
Info: EXCLUDE                SCALED ONE-FOUR
Info: 1-4 ELECTROSTATICS SCALED BY 0.833333
Info: MODIFIED 1-4 VDW PARAMETERS WILL BE USED
Info: DCD FILENAME           mobley_6190089_prod.dcd
Info: DCD FREQUENCY          100000
Info: DCD FIRST STEP         100000
Info: DCD FILE WILL CONTAIN UNIT CELL DATA
Info: XST FILENAME           mobley_6190089_prod.xst
Info: XST FREQUENCY          100000
Info: NO VELOCITY DCD OUTPUT
Info: NO FORCE DCD OUTPUT
Info: OUTPUT FILENAME        mobley_6190089_prod
Info: BINARY OUTPUT FILES WILL BE USED
Info: RESTART FILENAME       mobley_6190089_prod.restart
Info: RESTART FREQUENCY      100000
Info: BINARY RESTART FILES WILL BE USED
Info: CUTOFF                 9
Info: PAIRLIST DISTANCE      11
Info: PAIRLIST SHRINK RATE   0.01
Info: PAIRLIST GROW RATE     0.01
Info: PAIRLIST TRIGGER       0.3
Info: PAIRLISTS PER CYCLE    2
Info: PAIRLISTS ENABLED
Info: MARGIN                 2
Info: HYDROGEN GROUP CUTOFF  2.5
Info: PATCH DIMENSION        15.5
Info: ENERGY OUTPUT STEPS    100000
Info: ENERGY EVALUATION STEPS    100000
Info: OUTPUT ENERGY PRECISION 4
Info: CROSSTERM ENERGY INCLUDED IN DIHEDRAL
Info: TIMING OUTPUT STEPS    1000000
Info: PRESSURE OUTPUT STEPS  100000
Info: ALCHEMICAL FEP ON
Info: FEP CURRENT LAMBDA VALUE     1
Info: FEP COMPARISON LAMBDA VALUE  0.95
Info: FEP INTRA-ALCHEMICAL NON-BONDED INTERACTIONS WILL BE RETAINED
Info: FEP INTRA-ALCHEMICAL BONDED INTERACTIONS WILL BE RETAINED
Info: FEP VDW SHIFTING COEFFICIENT 5
Info: FEP ELEC. ACTIVE FOR ANNIHILATED PARTICLES BETWEEN LAMBDA = 0 AND LAMBDA = 0.5
Info: FEP ELEC. ACTIVE FOR EXNIHILATED PARTICLES BETWEEN LAMBDA = 0.5 AND LAMBDA = 1
Info: FEP VDW ACTIVE FOR ANNIHILATED PARTICLES BETWEEN LAMBDA = 0 AND LAMBDA = 1
Info: FEP VDW ACTIVE FOR EXNIHILATED PARTICLES BETWEEN LAMBDA = 0 AND LAMBDA = 1
Info: FEP BOND ACTIVE FOR ANNIHILATED PARTICLES BETWEEN LAMBDA = 1 AND LAMBDA = 1
Info: FEP BOND ACTIVE FOR EXNIHILATED PARTICLES BETWEEN LAMBDA = 0 AND LAMBDA = 0
Info: LANGEVIN DYNAMICS ACTIVE
Info: LANGEVIN TEMPERATURE   300
Info: LANGEVIN USING BBK INTEGRATOR
Info: LANGEVIN DAMPING COEFFICIENT IS 1 INVERSE PS
Info: LANGEVIN DYNAMICS APPLIED TO HYDROGENS
Info: LANGEVIN PISTON PRESSURE CONTROL ACTIVE
Info:        TARGET PRESSURE IS 1.01325 BAR
Info:     OSCILLATION PERIOD IS 50 FS
Info:             DECAY TIME IS 25 FS
Info:     PISTON TEMPERATURE IS 300 K
Info:       PRESSURE CONTROL IS GROUP-BASED
Info:    INITIAL STRAIN RATE IS 0.000198355 0.000198355 0.000198355
Info:       CELL FLUCTUATION IS ISOTROPIC
Info: PARTICLE MESH EWALD (PME) ACTIVE
Info: PME TOLERANCE               1e-06
Info: PME EWALD COEFFICIENT       0.348832
Info: PME INTERPOLATION ORDER     4
Info: PME GRID DIMENSIONS         32 32 36
Info: PME MAXIMUM GRID SPACING    1
Info: PME CALCULATION WILL BE PERFORMED ON GPU
Info: FULL ELECTROSTATIC EVALUATION FREQUENCY      2
Info: USING VERLET I (r-RESPA) MTS SCHEME.
Info: C1 SPLITTING OF LONG RANGE ELECTROSTATICS
Info: PLACING ATOMS IN PATCHES BY HYDROGEN GROUPS
Info: RIGID BONDS TO HYDROGEN : ALL
Info:         ERROR TOLERANCE : 1e-08
Info:          MAX ITERATIONS : 100
Info: RIGID WATER USING SETTLE ALGORITHM
Info: RANDOM NUMBER SEED     1743672292
Info: USE HYDROGEN BONDS?    NO
Info: Using AMBER format force field!
Info: AMBER PARM FILE        mobley_6190089.prmtop
Info: COORDINATE PDB         mobley_6190089.pdb
Info: Exclusions will be read from PARM file!
Info: SCNB (VDW SCALING)     2
Info: USING ARITHMETIC MEAN TO COMBINE L-J SIGMA PARAMETERS
Info: BINARY COORDINATES     mobley_6190089_equil.coor
Info: SUMMARY OF PARAMETERS:
Info: 5 BONDS
Info: 4 ANGLES
Info:   4 HARMONIC
Info:   0 COSINE-BASED
Info: 3 DIHEDRAL
Info: 0 IMPROPER
Info: 0 CROSSTERM
Info: 0 VDW
Info: 15 VDW_PAIRS
Info: 0 NBTHOLE_PAIRS
Info: To read alchdata from file: mobley_6190089.pdb
Info: To read alchflag data from column: 5
Info: STRUCTURE SUMMARY:
Info: 2978 ATOMS
Info: 2977 BONDS
Info: 12 ANGLES
Info: 13 DIHEDRALS
Info: 0 IMPROPERS
Info: 0 CROSSTERMS
Info: 2998 EXCLUSIONS
Info: 2972 RIGID BONDS
Info: ALCH: 0 ATOMS TO DISAPPEAR IN FINAL STATE
Info: ALCH: 8 ATOMS TO APPEAR IN FINAL STATE
Info: 5962 DEGREES OF FREEDOM
Info: 996 HYDROGEN GROUPS
Info: 3 ATOMS IN LARGEST HYDROGEN GROUP
Info: 996 MIGRATION GROUPS
Info: 3 ATOMS IN LARGEST MIGRATION GROUP
Info: TOTAL MASS = 18003.7 amu
Info: TOTAL CHARGE = -0.000199974 e
Info: MASS DENSITY = 0.962907 g/cm^3
Info: ATOM DENSITY = 0.0959155 atoms/A^3
Info: ADDED 0 IMPLICIT EXCLUSIONS
Info: NONBONDED TABLE R-SQUARED SPACING: 0.0625
Info: NONBONDED TABLE SIZE: 705 POINTS
Info: REMOVING COM VELOCITY -0.000709865 0.229424 -0.221904
Info: Use 3D box decompostion in PME FFT.
Info: Updated CUDA force table with 4096 elements.
Info: Updated CUDA LJ table with 5 x 5 elements.
Info: Found 11 unique exclusion lists needing 16 bytes
TCL: Running for 1500000 steps
ETITLE: TS BOND ANGLE DIHED IMPRP ELECT VDW BOUNDARY MISC KINETIC TOTAL TEMP POTENTIAL TOTALAVG TEMPAVG PRESSURE GPRESSURE VOLUME PRESSAVG GPRESSAVG
ENERGY: 0 5.0142 4.9163 1.7537 0.0000 -10736.6127 1436.3371 0.0000 0.0000 1798.2179 -7490.3735 303.5573 -9288.5914 -7490.3735 303.5573 -181.2927 -101.8350 31048.1687 -181.2927 -101.8350
ENERGY: 300000 0.9457 3.2628 2.0308 0.0000 -10867.9374 1515.7887 0.0000 0.0000 1788.9089 -7557.0006 301.9859 -9345.9094 -7544.9034 299.3385 337.0502 465.9085 30966.1363 16.7202 92.7860
ENERGY: 600000 0.1464 5.0096 1.7357 0.0000 -10667.7650 1419.3608 0.0000 0.0000 1730.4099 -7511.1025 292.1107 -9241.5125 -7540.2524 298.5247 115.4885 218.8880 30694.0946 175.1842 244.6877
ENERGY: 900000 0.9692 3.6821 1.6447 0.0000 -10800.9412 1467.5227 0.0000 0.0000 1757.9403 -7569.1821 296.7581 -9327.1224 -7558.8612 299.3796 209.3393 276.7330 30886.6580 160.3809 225.5268
ENERGY: 1200000 2.5288 4.3309 1.9470 0.0000 -10863.5618 1453.4170 0.0000 0.0000 1761.8187 -7639.5193 297.4128 -9401.3381 -7568.5713 299.0527 -110.3820 -92.2661 30608.2390 110.7161 165.3009
ENERGY: 1500000 3.4719 2.0862 2.4236 0.0000 -10735.7347 1358.1365 0.0000 0.0000 1779.9903 -7589.6262 300.4803 -9369.6165 -7560.2618 299.8023 -1035.2672 -934.4902 31298.9958 2.0715 57.6544
TCL: Running FEP window   2: Lambda1 0.95   Lambda2 0.8999999999999999 [dLambda -0.050000000000000044]
TCL: Setting parameter firsttimestep to 0
TCL: Setting parameter alchLambda to 0.95
Info: NONBONDED TABLE R-SQUARED SPACING: 0.0625
Info: NONBONDED TABLE SIZE: 705 POINTS
TCL: Setting parameter alchLambda2 to 0.8999999999999999
Info: NONBONDED TABLE R-SQUARED SPACING: 0.0625
Info: NONBONDED TABLE SIZE: 705 POINTS
TCL: Running for 1500000 steps
ETITLE: TS BOND ANGLE DIHED IMPRP ELECT VDW BOUNDARY MISC KINETIC TOTAL TEMP POTENTIAL TOTALAVG TEMPAVG PRESSURE GPRESSURE VOLUME PRESSAVG GPRESSAVG
ENERGY: 0 3.4719 2.0862 2.4236 0.0000 -10735.3293 1358.3668 0.0000 0.0000 1779.1063 -7589.8745 300.3311 -9368.9808 -7589.8745 300.3311 -1029.1941 -944.3576 31298.9958 -1029.1941 -944.3576
ENERGY: 300000 0.7206 3.3412 2.3501 0.0000 -10764.2077 1374.8625 0.0000 0.0000 1763.3065 -7619.6268 297.6639 -9382.9333 -7571.4715 302.4794 -650.6409 -560.3099 30517.2550 -588.0166 -504.1714
ENERGY: 600000 1.3078 2.6508 1.6196 0.0000 -10745.1975 1411.4632 0.0000 0.0000 1805.9170 -7522.2391 304.8570 -9328.1561 -7571.5007 301.4332 -59.6709 6.5657 30536.6157 -429.0654 -352.2070
ENERGY: 900000 0.4544 6.0530 1.5417 0.0000 -10784.4022 1448.0761 0.0000 0.0000 1755.7910 -7572.4862 296.3952 -9328.2771 -7566.2153 301.5008 -17.5958 36.1881 30740.3030 -319.9549 -252.4453
ENERGY: 1200000 2.0130 1.4352 1.6503 0.0000 -10705.2391 1406.2401 0.0000 0.0000 1767.3885 -7526.5120 298.3530 -9293.9005 -7562.5732 300.4277 -182.7687 -68.8408 30714.4569 -342.7574 -272.7872
ENERGY: 1500000 0.7961 4.7956 1.6452 0.0000 -10769.6538 1393.9863 0.0000 0.0000 1852.0382 -7516.3924 312.6427 -9368.4306 -7555.3495 302.0382 -426.2794 -390.5365 30984.6753 -290.5367 -222.3953
TCL: Running FEP window   3: Lambda1 0.8999999999999999 Lambda2 0.8499999999999999 [dLambda -0.050000000000000044]
TCL: Setting parameter firsttimestep to 0
TCL: Setting parameter alchLambda to 0.8999999999999999
Info: NONBONDED TABLE R-SQUARED SPACING: 0.0625
Info: NONBONDED TABLE SIZE: 705 POINTS
TCL: Setting parameter alchLambda2 to 0.8499999999999999
Info: NONBONDED TABLE R-SQUARED SPACING: 0.0625
Info: NONBONDED TABLE SIZE: 705 POINTS
TCL: Running for 1500000 steps
ETITLE: TS BOND ANGLE DIHED IMPRP ELECT VDW BOUNDARY MISC KINETIC TOTAL TEMP POTENTIAL TOTALAVG TEMPAVG PRESSURE GPRESSURE VOLUME PRESSAVG GPRESSAVG
ENERGY: 0 0.7961 4.7956 1.6452 0.0000 -10769.0558 1394.0038 0.0000 0.0000 1851.1515 -7516.6636 312.4931 -9367.8151 -7516.6636 312.4931 -468.1182 -399.1645 30984.6753 -468.1182 -399.1645
ENERGY: 300000 3.1257 4.8769 2.3555 0.0000 -10954.9831 1517.1049 0.0000 0.0000 1750.6013 -7676.9188 295.5192 -9427.5201 -7570.1027 301.9437 382.8489 418.2819 30653.0522 -74.1069 -23.6441
ENERGY: 600000 1.4173 0.9813 1.9846 0.0000 -11026.7240 1603.1014 0.0000 0.0000 1704.3476 -7714.8917 287.7111 -9419.2394 -7589.8865 298.3805 560.1224 635.2033 31064.9162 -20.9978 37.0166
ENERGY: 900000 0.5050 2.1504 1.8410 0.0000 -10694.0333 1409.0214 0.0000 0.0000 1817.1125 -7463.4029 306.7469 -9280.5154 -7577.5053 298.2762 -105.8271 -11.6786 30835.2337 19.6126 92.3195
ENERGY: 1200000 2.5796 1.7314 1.6408 0.0000 -10945.2792 1583.6421 0.0000 0.0000 1868.5638 -7487.1215 315.4324 -9355.6853 -7576.4271 299.5720 1250.9942 1277.9750 30399.0077 137.8618 200.9016
ENERGY: 1500000 1.2826 2.8421 2.2463 0.0000 -10821.1783 1455.0040 0.0000 0.0000 1773.1438 -7586.6595 299.3246 -9359.8032 -7577.2664 300.0810 99.7800 151.4386 30531.4797 104.5043 169.1349
TCL: Running FEP window   4: Lambda1 0.8499999999999999 Lambda2 0.7999999999999998 [dLambda -0.050000000000000044]
TCL: Setting parameter firsttimestep to 0
TCL: Setting parameter alchLambda to 0.8499999999999999
Info: NONBONDED TABLE R-SQUARED SPACING: 0.0625
Info: NONBONDED TABLE SIZE: 705 POINTS
TCL: Setting parameter alchLambda2 to 0.7999999999999998
Info: NONBONDED TABLE R-SQUARED SPACING: 0.0625
Info: NONBONDED TABLE SIZE: 705 POINTS
TCL: Running for 1500000 steps
ETITLE: TS BOND ANGLE DIHED IMPRP ELECT VDW BOUNDARY MISC KINETIC TOTAL TEMP POTENTIAL TOTALAVG TEMPAVG PRESSURE GPRESSURE VOLUME PRESSAVG GPRESSAVG
ENERGY: 0 1.2826 2.8421 2.2463 0.0000 -10820.9109 1455.1484 0.0000 0.0000 1772.2426 -7587.1488 299.1724 -9359.3915 -7587.1488 299.1724 79.8730 144.5936 30531.4797 79.8730 144.5936
ENERGY: 300000 0.7735 3.0958 1.5175 0.0000 -10911.0202 1541.4357 0.0000 0.0000 1793.7254 -7570.4723 302.7990 -9364.1977 -7566.0537 303.1521 636.7257 713.3860 30805.9301 373.0739 437.7584
ENERGY: 600000 1.3310 1.6068 1.6465 0.0000 -10685.6360 1366.7576 0.0000 0.0000 1734.8464 -7579.4477 292.8596 -9314.2941 -7570.4329 300.0496 -535.8580 -495.8436 30647.9548 110.3335 165.0115
ENERGY: 900000 2.7076 2.6741 1.8040 0.0000 -10772.2766 1485.4707 0.0000 0.0000 1830.1404 -7449.4798 308.9462 -9279.6202 -7549.0041 302.3262 421.4060 503.9260 30686.7378 85.6836 143.1994
ENERGY: 1200000 0.8133 3.9695 3.2200 0.0000 -10738.0749 1342.8671 0.0000 0.0000 1828.1771 -7559.0280 308.6147 -9387.2051 -7552.5435 302.6278 -928.6721 -804.4746 30734.2272 -50.3974 19.4459
ENERGY: 1500000 2.6513 2.5536 1.7969 0.0000 -10779.4289 1486.8571 0.0000 0.0000 1736.5697 -7549.0004 293.1505 -9285.5700 -7555.2343 301.5581 506.7594 473.3706 30754.1697 55.3340 121.6604
TCL: Running FEP window   5: Lambda1 0.7999999999999998 Lambda2 0.7499999999999998 [dLambda -0.050000000000000044]
TCL: Setting parameter firsttimestep to 0
TCL: Setting parameter alchLambda to 0.7999999999999998
Info: NONBONDED TABLE R-SQUARED SPACING: 0.0625
Info: NONBONDED TABLE SIZE: 705 POINTS
TCL: Setting parameter alchLambda2 to 0.7499999999999998
Info: NONBONDED TABLE R-SQUARED SPACING: 0.0625
Info: NONBONDED TABLE SIZE: 705 POINTS
TCL: Running for 1500000 steps
ETITLE: TS BOND ANGLE DIHED IMPRP ELECT VDW BOUNDARY MISC KINETIC TOTAL TEMP POTENTIAL TOTALAVG TEMPAVG PRESSURE GPRESSURE VOLUME PRESSAVG GPRESSAVG
ENERGY: 0 2.6513 2.5536 1.7969 0.0000 -10779.1673 1486.7681 0.0000 0.0000 1735.6731 -7549.7243 292.9991 -9285.3974 -7549.7243 292.9991 376.7471 462.8171 30754.1697 376.7471 462.8171
ENERGY: 300000 2.3657 1.5133 1.7567 0.0000 -10848.3002 1435.8626 0.0000 0.0000 1764.1561 -7642.6459 297.8074 -9406.8019 -7582.1079 299.6613 -509.5630 -418.8074 31045.8525 -10.5776 67.3452
ENERGY: 600000 1.0359 2.3202 2.3322 0.0000 -10916.3887 1466.9795 0.0000 0.0000 1808.7205 -7635.0003 305.3303 -9443.7208 -7583.2562 302.4396 -331.7674 -237.7316 30627.7047 -53.3025 30.9304
ENERGY: 900000 0.4530 3.7055 1.6122 0.0000 -10854.9372 1485.6605 0.0000 0.0000 1787.2215 -7576.2844 301.7010 -9363.5059 -7578.5796 301.7525 360.6277 445.7651 30720.7075 43.1884 125.6440
ENERGY: 1200000 0.5751 3.2764 1.8478 0.0000 -10844.2338 1514.9344 0.0000 0.0000 1816.8085 -7506.7916 306.6956 -9323.6001 -7572.0948 302.3243 237.9196 288.7239 31303.2981 66.8042 136.1200
ENERGY: 1500000 0.3381 1.2123 2.3051 0.0000 -10832.5133 1447.3986 0.0000 0.0000 1743.9704 -7637.2887 294.3998 -9381.2591 -7574.6444 301.9287 -223.8054 -142.3397 30739.7378 36.5952 102.1776
TCL: Running FEP window   6: Lambda1 0.7499999999999998 Lambda2 0.6999999999999997 [dLambda -0.050000000000000044]
TCL: Setting parameter firsttimestep to 0
TCL: Setting parameter alchLambda to 0.7499999999999998
Info: NONBONDED TABLE R-SQUARED SPACING: 0.0625
Info: NONBONDED TABLE SIZE: 705 POINTS
TCL: Setting parameter alchLambda2 to 0.6999999999999997
Info: NONBONDED TABLE R-SQUARED SPACING: 0.0625
Info: NONBONDED TABLE SIZE: 705 POINTS
TCL: Running for 1500000 steps
ETITLE: TS BOND ANGLE DIHED IMPRP ELECT VDW BOUNDARY MISC KINETIC TOTAL TEMP POTENTIAL TOTALAVG TEMPAVG PRESSURE GPRESSURE VOLUME PRESSAVG GPRESSAVG
ENERGY: 0 0.3381 1.2123 2.3051 0.0000 -10832.1857 1447.9106 0.0000 0.0000 1743.0582 -7637.3614 294.2458 -9380.4196 -7637.3614 294.2458 -226.1909 -146.7386 30739.7378 -226.1909 -146.7386
ENERGY: 300000 0.7216 1.2922 1.6421 0.0000 -10818.6837 1466.4768 0.0000 0.0000 1815.7880 -7532.7629 306.5233 -9348.5509 -7580.9073 299.3327 271.5540 327.0441 30490.7343 44.5217 78.5714
ENERGY: 600000 2.4343 1.6404 2.3483 0.0000 -11077.9882 1617.6345 0.0000 0.0000 1855.6523 -7598.2784 313.2528 -9453.9307 -7586.1717 300.1846 1542.2620 1555.1120 29962.6952 265.2601 320.4938
ENERGY: 900000 1.3787 2.6421 2.3390 0.0000 -10638.3114 1358.7009 0.0000 0.0000 1763.9388 -7509.3119 297.7707 -9273.2508 -7563.6878 300.9139 -476.0199 -378.8053 30845.2540 67.7189 128.3926
ENERGY: 1200000 1.1989 6.0077 2.2081 0.0000 -10868.0048 1459.8293 0.0000 0.0000 1792.3655 -7606.3954 302.5694 -9398.7609 -7565.3685 300.8695 142.0165 172.6135 30451.1268 37.1425 99.9397
ENERGY: 1500000 1.1468 3.9984 2.4292 0.0000 -10665.4374 1368.7361 0.0000 0.0000 1782.5604 -7506.5664 300.9142 -9289.1268 -7558.8240 300.6755 -307.0592 -200.7307 30293.5439 46.8355 113.3128
TCL: Running FEP window   7: Lambda1 0.6999999999999997 Lambda2 0.6499999999999997 [dLambda -0.050000000000000044]
TCL: Setting parameter firsttimestep to 0
TCL: Setting parameter alchLambda to 0.6999999999999997
Info: NONBONDED TABLE R-SQUARED SPACING: 0.0625
Info: NONBONDED TABLE SIZE: 705 POINTS
TCL: Setting parameter alchLambda2 to 0.6499999999999997
Info: NONBONDED TABLE R-SQUARED SPACING: 0.0625
Info: NONBONDED TABLE SIZE: 705 POINTS
TCL: Running for 1500000 steps
ETITLE: TS BOND ANGLE DIHED IMPRP ELECT VDW BOUNDARY MISC KINETIC TOTAL TEMP POTENTIAL TOTALAVG TEMPAVG PRESSURE GPRESSURE VOLUME PRESSAVG GPRESSAVG
ENERGY: 0 1.1468 3.9984 2.4292 0.0000 -10665.2592 1368.9957 0.0000 0.0000 1781.6847 -7507.0044 300.7664 -9288.6891 -7507.0044 300.7664 -288.4286 -205.5795 30293.5439 -288.4286 -205.5795
ENERGY: 300000 0.5812 2.0399 1.9189 0.0000 -10703.0088 1409.6160 0.0000 0.0000 1782.7927 -7506.0602 300.9534 -9288.8529 -7532.9584 300.8378 -370.7012 -303.1920 31005.8352 68.1543 126.3983
ENERGY: 600000 2.0987 3.4924 2.2122 0.0000 -10821.2341 1422.0501 0.0000 0.0000 1859.1502 -7532.2304 313.8433 -9391.3806 -7532.6215 304.8242 -495.7597 -411.7758 30784.0592 206.9312 282.8568
ENERGY: 900000 1.3736 2.3389 2.3345 0.0000 -10793.8683 1448.2317 0.0000 0.0000 1750.6070 -7588.9825 295.5201 -9339.5895 -7549.7539 302.3891 -50.7431 37.8473 30658.0212 109.2823 177.2027
ENERGY: 1200000 1.4700 2.2540 1.7495 0.0000 -10793.5248 1434.6674 0.0000 0.0000 1761.5490 -7591.8349 297.3672 -9353.3838 -7561.7642 301.8767 37.4787 154.4766 30664.5071 78.1840 151.6294
ENERGY: 1500000 0.6272 1.6002 1.6713 0.0000 -10715.9499 1403.0672 0.0000 0.0000 1815.6489 -7493.3351 306.4999 -9308.9841 -7552.6017 301.8422 -320.4198 -234.2512 31046.8556 95.8480 167.1575
TCL: Running FEP window   8: Lambda1 0.6499999999999997 Lambda2 0.5999999999999996 [dLambda -0.050000000000000044]
TCL: Setting parameter firsttimestep to 0
TCL: Setting parameter alchLambda to 0.6499999999999997
Info: NONBONDED TABLE R-SQUARED SPACING: 0.0625
Info: NONBONDED TABLE SIZE: 705 POINTS
TCL: Setting parameter alchLambda2 to 0.5999999999999996
Info: NONBONDED TABLE R-SQUARED SPACING: 0.0625
Info: NONBONDED TABLE SIZE: 705 POINTS
TCL: Running for 1500000 steps
ETITLE: TS BOND ANGLE DIHED IMPRP ELECT VDW BOUNDARY MISC KINETIC TOTAL TEMP POTENTIAL TOTALAVG TEMPAVG PRESSURE GPRESSURE VOLUME PRESSAVG GPRESSAVG
ENERGY: 0 0.6272 1.6002 1.6713 0.0000 -10715.6631 1403.3830 0.0000 0.0000 1814.7600 -7493.6215 306.3498 -9308.3814 -7493.6215 306.3498 -318.3322 -236.2629 31046.8556 -318.3322 -236.2629
ENERGY: 300000 0.4544 2.5131 1.6674 0.0000 -10888.7075 1480.8500 0.0000 0.0000 1797.2159 -7606.0067 303.3882 -9403.2226 -7590.4667 301.2386 98.0680 184.5132 30616.2436 -56.1634 18.0617
ENERGY: 600000 0.9918 1.6141 2.2154 0.0000 -10756.0939 1409.7771 0.0000 0.0000 1806.2229 -7535.2726 304.9087 -9341.4956 -7579.6181 301.2360 -442.0961 -345.3247 30877.2908 -109.5655 -32.5145
ENERGY: 900000 0.9356 3.7323 2.4020 0.0000 -10777.1483 1452.9728 0.0000 0.0000 1767.8129 -7549.2927 298.4247 -9317.1056 -7585.5415 298.5748 -121.9001 -31.1238 31209.2645 -127.1900 -56.9150
ENERGY: 1200000 2.1050 2.7897 1.6119 0.0000 -10829.1864 1467.5887 0.0000 0.0000 1803.9829 -7551.1081 304.5305 -9355.0910 -7583.7530 299.2913 166.7066 129.4807 30745.7942 -66.4591 -6.9423
ENERGY: 1500000 0.8919 1.5876 2.6636 0.0000 -10799.7452 1451.0921 0.0000 0.0000 1811.7259 -7531.7840 305.8376 -9343.5099 -7576.0317 300.0777 -114.2961 -76.8061 31230.7455 -114.5070 -52.9840
TCL: Running FEP window   9: Lambda1 0.5999999999999996 Lambda2 0.5499999999999996 [dLambda -0.050000000000000044]
TCL: Setting parameter firsttimestep to 0
TCL: Setting parameter alchLambda to 0.5999999999999996
Info: NONBONDED TABLE R-SQUARED SPACING: 0.0625
Info: NONBONDED TABLE SIZE: 705 POINTS
TCL: Setting parameter alchLambda2 to 0.5499999999999996
Info: NONBONDED TABLE R-SQUARED SPACING: 0.0625
Info: NONBONDED TABLE SIZE: 705 POINTS
TCL: Running for 1500000 steps
ETITLE: TS BOND ANGLE DIHED IMPRP ELECT VDW BOUNDARY MISC KINETIC TOTAL TEMP POTENTIAL TOTALAVG TEMPAVG PRESSURE GPRESSURE VOLUME PRESSAVG GPRESSAVG
ENERGY: 0 0.8919 1.5876 2.6636 0.0000 -10799.5769 1451.0685 0.0000 0.0000 1810.8356 -7532.5297 305.6873 -9343.3653 -7532.5297 305.6873 -159.5483 -83.9512 31230.7455 -159.5483 -83.9512
ENERGY: 300000 2.7165 2.6055 1.6206 0.0000 -10740.9803 1389.9525 0.0000 0.0000 1824.1887 -7519.8967 307.9415 -9344.0853 -7517.5214 305.3995 -578.6327 -516.8209 30813.3137 -285.0337 -228.6983
ENERGY: 600000 1.2611 6.4792 2.3809 0.0000 -10715.6167 1424.9638 0.0000 0.0000 1766.3685 -7514.1633 298.1808 -9280.5318 -7530.4048 302.9268 -246.3413 -223.4619 31283.9830 -144.4879 -92.5582
ENERGY: 900000 1.2676 3.6784 1.8500 0.0000 -10914.8687 1476.6103 0.0000 0.0000 1732.8583 -7698.6039 292.5240 -9431.4623 -7560.4525 300.9524 -177.1530 -77.3585 30767.0592 40.0101 106.3940
ENERGY: 1200000 0.4832 1.0895 2.7120 0.0000 -10809.9599 1445.8092 0.0000 0.0000 1813.6593 -7546.2066 306.1640 -9359.8660 -7564.1410 300.8444 -20.8700 93.5313 30589.8405 6.7084 75.6210
ENERGY: 1500000 0.5366 1.4256 2.0229 0.0000 -10852.6289 1463.7321 0.0000 0.0000 1725.9909 -7658.9208 291.3647 -9384.9117 -7565.4697 301.5177 -10.4104 55.5694 30857.5818 15.5833 85.2894
TCL: Running FEP window  10: Lambda1 0.5499999999999996 Lambda2 0.4999999999999996 [dLambda -0.04999999999999999]
TCL: Setting parameter firsttimestep to 0
TCL: Setting parameter alchLambda to 0.5499999999999996
Info: NONBONDED TABLE R-SQUARED SPACING: 0.0625
Info: NONBONDED TABLE SIZE: 705 POINTS
TCL: Setting parameter alchLambda2 to 0.4999999999999996
Info: NONBONDED TABLE R-SQUARED SPACING: 0.0625
Info: NONBONDED TABLE SIZE: 705 POINTS
TCL: Running for 1500000 steps
ETITLE: TS BOND ANGLE DIHED IMPRP ELECT VDW BOUNDARY MISC KINETIC TOTAL TEMP POTENTIAL TOTALAVG TEMPAVG PRESSURE GPRESSURE VOLUME PRESSAVG GPRESSAVG
ENERGY: 0 0.5366 1.4256 2.0229 0.0000 -10852.5105 1464.0857 0.0000 0.0000 1725.1042 -7659.3355 291.2150 -9384.4397 -7659.3355 291.2150 -24.1277 51.2510 30857.5818 -24.1277 51.2510
ENERGY: 300000 0.3221 2.1139 2.8797 0.0000 -10935.4387 1544.7103 0.0000 0.0000 1780.9404 -7604.4722 300.6407 -9385.4126 -7598.5374 299.2417 490.8866 525.0768 31093.4448 357.2809 401.4912
ENERGY: 600000 0.2911 1.0573 2.2239 0.0000 -10840.6081 1469.6801 0.0000 0.0000 1795.0334 -7572.3224 303.0198 -9367.3558 -7577.8223 299.6922 24.8102 120.4472 30747.6048 226.6408 270.7840
ENERGY: 900000 0.7021 4.7295 1.7157 0.0000 -10838.7003 1405.1828 0.0000 0.0000 1759.9428 -7666.4274 297.0961 -9426.3702 -7593.2465 298.9268 -158.2372 -117.9876 30118.6117 95.3606 138.2018
ENERGY: 1200000 2.2149 6.4400 1.6802 0.0000 -10775.9929 1453.5510 0.0000 0.0000 1775.7817 -7536.3251 299.7699 -9312.1068 -7596.2773 297.5825 -31.2871 62.0714 30899.1992 -4.4385 51.9188
ENERGY: 1500000 2.4209 4.9254 2.4196 0.0000 -10798.2807 1445.8394 0.0000 0.0000 1794.1877 -7548.4879 302.8770 -9342.6756 -7588.1148 298.2497 218.5986 260.2335 30414.0946 11.5427 70.4223
TCL: Running FEP window  11: Lambda1 0.4999999999999996 Lambda2 0.4499999999999996 [dLambda -0.04999999999999999]
TCL: Setting parameter firsttimestep to 0
TCL: Setting parameter alchLambda to 0.4999999999999996
Info: NONBONDED TABLE R-SQUARED SPACING: 0.0625
Info: NONBONDED TABLE SIZE: 705 POINTS
TCL: Setting parameter alchLambda2 to 0.4499999999999996
Info: NONBONDED TABLE R-SQUARED SPACING: 0.0625
Info: NONBONDED TABLE SIZE: 705 POINTS
TCL: Running for 1500000 steps
ETITLE: TS BOND ANGLE DIHED IMPRP ELECT VDW BOUNDARY MISC KINETIC TOTAL TEMP POTENTIAL TOTALAVG TEMPAVG PRESSURE GPRESSURE VOLUME PRESSAVG GPRESSAVG
ENERGY: 0 2.4209 4.9254 2.4196 0.0000 -10798.1785 1446.3028 0.0000 0.0000 1793.2691 -7548.8408 302.7219 -9342.1099 -7548.8408 302.7219 173.8383 257.8207 30414.0946 173.8383 257.8207
ENERGY: 300000 0.8502 1.0686 2.2480 0.0000 -10731.6312 1370.8929 0.0000 0.0000 1782.2964 -7574.2752 300.8696 -9356.5715 -7604.2736 297.5738 -477.3177 -415.8749 30394.4998 -220.9116 -161.1623
ENERGY: 600000 0.3655 2.2379 2.6120 0.0000 -10895.6356 1526.4709 0.0000 0.0000 1798.9203 -7565.0291 303.6759 -9363.9494 -7578.8416 299.8127 628.0814 766.2463 30457.6262 -176.6986 -111.2384
ENERGY: 900000 0.5017 3.0433 2.1738 0.0000 -10773.9488 1387.2207 0.0000 0.0000 1790.3762 -7590.6330 302.2336 -9381.0093 -7590.9542 300.2109 -502.6561 -370.5375 30403.7921 -153.6443 -85.3206
ENERGY: 1200000 1.3861 1.8118 1.7745 0.0000 -10862.5988 1492.8963 0.0000 0.0000 1793.6181 -7571.1120 302.7808 -9364.7301 -7570.1854 300.7620 199.6129 295.1560 30961.6933 -128.6925 -64.2765
ENERGY: 1500000 3.7925 2.4440 1.6058 0.0000 -10787.7436 1369.2770 0.0000 0.0000 1770.5671 -7640.0572 298.8896 -9410.6243 -7579.1686 301.1176 -983.6385 -925.8288 30831.7679 -160.5291 -98.4526
TCL: Running FEP window  12: Lambda1 0.4499999999999996 Lambda2 0.39999999999999963 [dLambda -0.04999999999999999]
TCL: Setting parameter firsttimestep to 0
TCL: Setting parameter alchLambda to 0.4499999999999996
Info: NONBONDED TABLE R-SQUARED SPACING: 0.0625
Info: NONBONDED TABLE SIZE: 705 POINTS
TCL: Setting parameter alchLambda2 to 0.39999999999999963
Info: NONBONDED TABLE R-SQUARED SPACING: 0.0625
Info: NONBONDED TABLE SIZE: 705 POINTS
TCL: Running for 1500000 steps
ETITLE: TS BOND ANGLE DIHED IMPRP ELECT VDW BOUNDARY MISC KINETIC TOTAL TEMP POTENTIAL TOTALAVG TEMPAVG PRESSURE GPRESSURE VOLUME PRESSAVG GPRESSAVG
ENERGY: 0 3.7925 2.4440 1.6058 0.0000 -10787.7458 1369.4442 0.0000 0.0000 1769.6888 -7640.7706 298.7413 -9410.4594 -7640.7706 298.7413 -1006.9570 -928.9391 30831.7679 -1006.9570 -928.9391
ENERGY: 300000 1.4326 3.1019 2.3690 0.0000 -10640.8614 1380.6184 0.0000 0.0000 1784.6601 -7468.6793 301.2686 -9253.3395 -7548.9329 302.9694 -145.6760 -98.9087 30592.0176 -144.5462 -86.1279
ENERGY: 600000 3.7385 1.6212 2.1886 0.0000 -10858.1398 1427.1763 0.0000 0.0000 1757.2166 -7666.1986 296.6359 -9423.4152 -7568.8520 302.1482 -495.5252 -394.6265 30585.5858 -153.9895 -77.7553
ENERGY: 900000 1.0680 5.0306 1.8048 0.0000 -10869.6204 1508.7322 0.0000 0.0000 1773.4580 -7579.5268 299.3776 -9352.9847 -7559.0119 303.0373 466.5630 458.4254 30599.7905 -170.5217 -104.9228
ENERGY: 1200000 1.5302 2.2724 2.9327 0.0000 -10823.8252 1403.0722 0.0000 0.0000 1800.4053 -7613.6124 303.9266 -9414.0176 -7565.9387 302.1640 -588.8966 -552.5395 30620.6077 -181.0455 -122.3164
ENERGY: 1500000 3.1016 3.4617 1.8567 0.0000 -10681.7661 1375.2159 0.0000 0.0000 1794.5237 -7503.6065 302.9337 -9298.1302 -7568.7820 301.8327 -631.0681 -548.6105 30762.5891 -236.6350 -182.2782
TCL: Running FEP window  13: Lambda1 0.39999999999999963 Lambda2 0.34999999999999964 [dLambda -0.04999999999999999]
TCL: Setting parameter firsttimestep to 0
TCL: Setting parameter alchLambda to 0.39999999999999963
Info: NONBONDED TABLE R-SQUARED SPACING: 0.0625
Info: NONBONDED TABLE SIZE: 705 POINTS
TCL: Setting parameter alchLambda2 to 0.34999999999999964
Info: NONBONDED TABLE R-SQUARED SPACING: 0.0625
Info: NONBONDED TABLE SIZE: 705 POINTS
TCL: Running for 1500000 steps
ETITLE: TS BOND ANGLE DIHED IMPRP ELECT VDW BOUNDARY MISC KINETIC TOTAL TEMP POTENTIAL TOTALAVG TEMPAVG PRESSURE GPRESSURE VOLUME PRESSAVG GPRESSAVG
ENERGY: 0 3.1016 3.4617 1.8567 0.0000 -10681.7655 1375.1774 0.0000 0.0000 1793.6451 -7504.5230 302.7854 -9298.1681 -7504.5230 302.7854 -645.2629 -554.6372 30762.5891 -645.2629 -554.6372
ENERGY: 300000 0.7976 1.5231 1.6672 0.0000 -10670.9770 1405.9993 0.0000 0.0000 1770.7029 -7490.2869 298.9125 -9260.9898 -7567.5275 298.6235 -257.1920 -159.0107 30967.6704 -339.7024 -275.7749
ENERGY: 600000 1.2400 5.0984 2.4437 0.0000 -10840.1954 1411.6306 0.0000 0.0000 1811.6796 -7608.1031 305.8298 -9419.7826 -7583.8705 300.7896 -480.8126 -353.4834 30666.0719 -147.8668 -64.8660
ENERGY: 900000 0.3743 3.0186 1.6653 0.0000 -10863.7561 1583.4687 0.0000 0.0000 1743.2237 -7532.0055 294.2738 -9275.2292 -7566.6147 301.0079 1344.2318 1361.6850 30340.3491 -128.9557 -47.4331
ENERGY: 1200000 1.0355 2.5778 2.2056 0.0000 -10907.2858 1454.4562 0.0000 0.0000 1821.8528 -7625.1580 307.5471 -9447.0108 -7563.2038 301.5702 -241.0523 -189.6940 30592.5874 -131.7922 -58.4347
ENERGY: 1500000 0.6336 1.9249 1.7249 0.0000 -10711.0201 1431.2752 0.0000 0.0000 1751.0512 -7524.4103 295.5951 -9275.4615 -7560.0353 301.1363 -228.2997 -123.1457 31145.2460 -96.4760 -24.6528
TCL: Running FEP window  14: Lambda1 0.34999999999999964 Lambda2 0.29999999999999966 [dLambda -0.04999999999999999]
TCL: Setting parameter firsttimestep to 0
TCL: Setting parameter alchLambda to 0.34999999999999964
Info: NONBONDED TABLE R-SQUARED SPACING: 0.0625
Info: NONBONDED TABLE SIZE: 705 POINTS
TCL: Setting parameter alchLambda2 to 0.29999999999999966
Info: NONBONDED TABLE R-SQUARED SPACING: 0.0625
Info: NONBONDED TABLE SIZE: 705 POINTS
TCL: Running for 1500000 steps
ETITLE: TS BOND ANGLE DIHED IMPRP ELECT VDW BOUNDARY MISC KINETIC TOTAL TEMP POTENTIAL TOTALAVG TEMPAVG PRESSURE GPRESSURE VOLUME PRESSAVG GPRESSAVG
ENERGY: 0 0.6336 1.9249 1.7249 0.0000 -10711.0210 1431.7641 0.0000 0.0000 1750.1507 -7524.8228 295.4431 -9274.9735 -7524.8228 295.4431 -209.8956 -123.3008 31145.2460 -209.8956 -123.3008
ENERGY: 300000 1.6162 1.6181 2.0944 0.0000 -10862.8922 1417.0472 0.0000 0.0000 1778.2305 -7662.2857 300.1833 -9440.5162 -7584.8493 296.5651 -506.9261 -514.5874 30781.0472 -173.1248 -113.2640
ENERGY: 600000 2.3641 4.3688 3.0306 0.0000 -10748.7972 1390.4103 0.0000 0.0000 1729.5295 -7619.0939 291.9620 -9348.6234 -7591.6641 295.7456 -523.1017 -373.7041 30753.6368 -135.1085 -65.0873
ENERGY: 900000 0.8756 1.6997 2.3315 0.0000 -10619.9057 1325.0846 0.0000 0.0000 1753.5260 -7536.3882 296.0129 -9289.9142 -7581.9897 297.3427 -1070.8106 -971.5234 30845.8607 -312.1051 -246.0393
ENERGY: 1200000 1.3424 3.8259 2.3537 0.0000 -10702.7210 1499.5844 0.0000 0.0000 1802.2422 -7393.3724 304.2367 -9195.6146 -7556.0983 298.6516 661.2336 709.4040 30916.1768 -310.5911 -245.3949
ENERGY: 1500000 4.7930 4.4571 2.2532 0.0000 -10874.7352 1417.9932 0.0000 0.0000 1741.6615 -7703.5772 294.0100 -9445.2387 -7571.7572 298.0606 -534.0416 -455.7591 30339.0103 -275.7100 -211.7547
TCL: Running FEP window  15: Lambda1 0.29999999999999966 Lambda2 0.24999999999999967 [dLambda -0.04999999999999999]
TCL: Setting parameter firsttimestep to 0
TCL: Setting parameter alchLambda to 0.29999999999999966
Info: NONBONDED TABLE R-SQUARED SPACING: 0.0625
Info: NONBONDED TABLE SIZE: 705 POINTS
TCL: Setting parameter alchLambda2 to 0.24999999999999967
Info: NONBONDED TABLE R-SQUARED SPACING: 0.0625
Info: NONBONDED TABLE SIZE: 705 POINTS
TCL: Running for 1500000 steps
ETITLE: TS BOND ANGLE DIHED IMPRP ELECT VDW BOUNDARY MISC KINETIC TOTAL TEMP POTENTIAL TOTALAVG TEMPAVG PRESSURE GPRESSURE VOLUME PRESSAVG GPRESSAVG
ENERGY: 0 4.7930 4.4571 2.2532 0.0000 -10874.7356 1417.7029 0.0000 0.0000 1740.8033 -7704.7260 293.8652 -9445.5293 -7704.7260 293.8652 -538.9157 -461.6347 30339.0103 -538.9157 -461.6347
ENERGY: 300000 1.6129 1.8578 2.4676 0.0000 -10763.0894 1437.4675 0.0000 0.0000 1800.3936 -7519.2900 303.9246 -9319.6836 -7593.6919 300.3327 139.2160 176.3851 30787.8890 -48.0334 3.6914
ENERGY: 600000 0.2823 2.5411 2.4488 0.0000 -10815.7464 1506.0389 0.0000 0.0000 1757.3566 -7547.0787 296.6595 -9304.4352 -7567.9178 298.2643 336.6052 381.0364 30923.3615 78.3551 131.4283
ENERGY: 900000 2.6420 2.7252 2.0171 0.0000 -10819.1725 1434.2153 0.0000 0.0000 1755.1983 -7622.3746 296.2952 -9377.5729 -7570.1160 298.8773 -192.6351 -180.9874 30671.4246 29.6486 80.9333
ENERGY: 1200000 3.3472 2.9181 1.7021 0.0000 -10896.2996 1462.4948 0.0000 0.0000 1811.6163 -7614.2210 305.8191 -9425.8373 -7584.5840 299.2575 -381.8327 -336.2058 30932.3925 -42.2464 5.4938
ENERGY: 1500000 1.3225 2.3602 1.7645 0.0000 -10690.3726 1421.9331 0.0000 0.0000 1802.3693 -7460.6231 304.2581 -9262.9923 -7581.0173 299.4596 -137.7432 -57.7485 31078.1035 -77.5430 -29.6371
TCL: Running FEP window  16: Lambda1 0.24999999999999967 Lambda2 0.19999999999999968 [dLambda -0.04999999999999999]
TCL: Setting parameter firsttimestep to 0
TCL: Setting parameter alchLambda to 0.24999999999999967
Info: NONBONDED TABLE R-SQUARED SPACING: 0.0625
Info: NONBONDED TABLE SIZE: 705 POINTS
TCL: Setting parameter alchLambda2 to 0.19999999999999968
Info: NONBONDED TABLE R-SQUARED SPACING: 0.0625
Info: NONBONDED TABLE SIZE: 705 POINTS
TCL: Running for 1500000 steps
ETITLE: TS BOND ANGLE DIHED IMPRP ELECT VDW BOUNDARY MISC KINETIC TOTAL TEMP POTENTIAL TOTALAVG TEMPAVG PRESSURE GPRESSURE VOLUME PRESSAVG GPRESSAVG
ENERGY: 0 1.3225 2.3602 1.7645 0.0000 -10690.3719 1422.3365 0.0000 0.0000 1801.5005 -7461.0877 304.1115 -9262.5882 -7461.0877 304.1115 -146.1186 -59.1766 31078.1035 -146.1186 -59.1766
ENERGY: 300000 2.8321 2.6142 2.4658 0.0000 -10623.7483 1357.6057 0.0000 0.0000 1792.5677 -7465.6628 302.6035 -9258.2305 -7568.9326 297.0174 -464.7763 -397.6441 30847.1531 -137.6765 -65.0782
ENERGY: 600000 1.0516 3.1564 2.5640 0.0000 -10862.5236 1547.3112 0.0000 0.0000 1748.8576 -7559.5827 295.2248 -9308.4404 -7576.9451 297.6523 616.3784 642.6230 30846.5313 -59.2395 11.6108
ENERGY: 900000 2.9138 4.9123 2.2000 0.0000 -10829.0911 1445.7753 0.0000 0.0000 1753.7820 -7619.5077 296.0561 -9373.2897 -7574.2319 298.7286 -244.7149 -206.1612 30715.2263 -7.0623 57.0363
ENERGY: 1200000 1.3080 2.5462 2.4149 0.0000 -10871.9650 1461.4491 0.0000 0.0000 1762.8611 -7641.3857 297.5888 -9404.2469 -7572.8316 300.2285 -134.2570 -57.7458 30509.4880 39.5940 103.7507
ENERGY: 1500000 1.0301 1.8757 2.2814 0.0000 -10890.1505 1469.6468 0.0000 0.0000 1739.4542 -7675.8624 293.6374 -9415.3167 -7582.6000 299.1299 127.3104 119.8902 30454.8523 -2.0246 59.7154
TCL: Running FEP window  17: Lambda1 0.19999999999999968 Lambda2 0.1499999999999997 [dLambda -0.04999999999999999]
TCL: Setting parameter firsttimestep to 0
TCL: Setting parameter alchLambda to 0.19999999999999968
Info: NONBONDED TABLE R-SQUARED SPACING: 0.0625
Info: NONBONDED TABLE SIZE: 705 POINTS
TCL: Setting parameter alchLambda2 to 0.1499999999999997
Info: NONBONDED TABLE R-SQUARED SPACING: 0.0625
Info: NONBONDED TABLE SIZE: 705 POINTS
TCL: Running for 1500000 steps
ETITLE: TS BOND ANGLE DIHED IMPRP ELECT VDW BOUNDARY MISC KINETIC TOTAL TEMP POTENTIAL TOTALAVG TEMPAVG PRESSURE GPRESSURE VOLUME PRESSAVG GPRESSAVG
ENERGY: 0 1.0301 1.8757 2.2814 0.0000 -10890.1500 1469.9543 0.0000 0.0000 1738.6135 -7676.3952 293.4955 -9415.0087 -7676.3952 293.4955 49.7475 119.8699 30454.8523 49.7475 119.8699
ENERGY: 300000 0.2104 3.1898 2.2130 0.0000 -10799.6490 1422.3205 0.0000 0.0000 1755.6740 -7616.0414 296.3755 -9371.7154 -7593.9091 297.4556 -81.8338 -86.7186 30163.1786 -54.1407 -1.9971
ENERGY: 600000 2.1963 4.0608 1.8830 0.0000 -10811.3966 1433.3523 0.0000 0.0000 1783.5539 -7586.3504 301.0819 -9369.9043 -7602.7913 298.2273 -252.4916 -212.8533 30601.4581 -234.7579 -187.2263
ENERGY: 900000 1.4134 1.3734 1.6571 0.0000 -10919.6760 1538.3298 0.0000 0.0000 1776.5177 -7600.3845 299.8941 -9376.9022 -7598.4398 299.3129 889.3546 940.1009 30092.3797 -119.7728 -80.4627
ENERGY: 1200000 1.0731 1.1322 1.6540 0.0000 -10710.6897 1416.1185 0.0000 0.0000 1811.7466 -7478.9652 305.8411 -9290.7118 -7580.3006 300.1538 -318.8296 -261.9739 30984.9075 -155.8574 -106.1631
ENERGY: 1500000 0.5566 3.4002 2.4343 0.0000 -10795.2455 1499.3055 0.0000 0.0000 1746.0006 -7543.5484 294.7425 -9289.5490 -7574.2090 300.0165 359.6344 381.3552 31074.1797 -167.3202 -117.8467
TCL: Running FEP window  18: Lambda1 0.1499999999999997 Lambda2 0.09999999999999969 [dLambda -0.05 ]
TCL: Setting parameter firsttimestep to 0
TCL: Setting parameter alchLambda to 0.1499999999999997
Info: NONBONDED TABLE R-SQUARED SPACING: 0.0625
Info: NONBONDED TABLE SIZE: 705 POINTS
TCL: Setting parameter alchLambda2 to 0.09999999999999969
Info: NONBONDED TABLE R-SQUARED SPACING: 0.0625
Info: NONBONDED TABLE SIZE: 705 POINTS
TCL: Running for 1500000 steps
ETITLE: TS BOND ANGLE DIHED IMPRP ELECT VDW BOUNDARY MISC KINETIC TOTAL TEMP POTENTIAL TOTALAVG TEMPAVG PRESSURE GPRESSURE VOLUME PRESSAVG GPRESSAVG
ENERGY: 0 0.5566 3.4002 2.4343 0.0000 -10795.2451 1499.7585 0.0000 0.0000 1745.1149 -7543.9806 294.5930 -9289.0955 -7543.9806 294.5930 315.2300 379.3548 31074.1797 315.2300 379.3548
ENERGY: 300000 1.2970 4.9126 1.9587 0.0000 -10897.6395 1509.4340 0.0000 0.0000 1776.2494 -7603.7878 299.8488 -9380.0372 -7596.0677 297.7903 190.3282 231.2571 30816.1825 -34.4526 8.1127
ENERGY: 600000 1.6179 3.1954 2.1442 0.0000 -10885.5725 1532.1999 0.0000 0.0000 1797.4737 -7548.9415 303.4317 -9346.4151 -7593.6233 298.0855 584.8476 638.5912 30791.6793 91.1596 127.7909
ENERGY: 900000 1.6172 3.4917 2.0591 0.0000 -10779.9818 1424.9995 0.0000 0.0000 1838.9806 -7508.8337 310.4385 -9347.8143 -7569.6088 299.8270 -210.9486 -119.1455 30338.1326 -67.6877 -17.9690
ENERGY: 1200000 0.9067 1.2347 1.5979 0.0000 -10836.8554 1454.7586 0.0000 0.0000 1780.0969 -7598.2606 300.4983 -9378.3576 -7568.5711 300.1329 -126.6889 -73.7929 30789.0239 -110.6971 -64.3141
ENERGY: 1500000 1.1229 1.8482 2.2010 0.0000 -10766.5414 1405.6889 0.0000 0.0000 1823.1629 -7532.5175 307.7683 -9355.6804 -7569.7750 300.6160 -387.5762 -299.3970 30748.2724 -64.0423 -11.3188
TCL: Running FEP window  19: Lambda1 0.09999999999999969 Lambda2 0.049999999999999684 [dLambda -0.05 ]
TCL: Setting parameter firsttimestep to 0
TCL: Setting parameter alchLambda to 0.09999999999999969
Info: NONBONDED TABLE R-SQUARED SPACING: 0.0625
Info: NONBONDED TABLE SIZE: 705 POINTS
TCL: Setting parameter alchLambda2 to 0.049999999999999684
Info: NONBONDED TABLE R-SQUARED SPACING: 0.0625
Info: NONBONDED TABLE SIZE: 705 POINTS
TCL: Running for 1500000 steps
ETITLE: TS BOND ANGLE DIHED IMPRP ELECT VDW BOUNDARY MISC KINETIC TOTAL TEMP POTENTIAL TOTALAVG TEMPAVG PRESSURE GPRESSURE VOLUME PRESSAVG GPRESSAVG
ENERGY: 0 1.1229 1.8482 2.2010 0.0000 -10766.5440 1405.8862 0.0000 0.0000 1822.3112 -7533.1745 307.6245 -9355.4857 -7533.1745 307.6245 -371.9993 -301.7727 30748.2724 -371.9993 -301.7727
ENERGY: 300000 2.0395 1.7018 2.3865 0.0000 -10787.4284 1453.4196 0.0000 0.0000 1803.0506 -7524.8304 304.3731 -9327.8809 -7560.1113 302.8044 35.4494 158.5671 30706.8330 -300.1488 -225.6770
ENERGY: 600000 1.0860 3.5608 2.2650 0.0000 -10930.0682 1508.1659 0.0000 0.0000 1823.5570 -7591.4335 307.8348 -9414.9905 -7569.6776 301.2271 442.1519 499.7252 30068.7613 -195.0640 -108.7387
ENERGY: 900000 2.6001 2.3841 1.6069 0.0000 -10796.6510 1393.4224 0.0000 0.0000 1752.4299 -7644.2075 295.8279 -9396.6374 -7581.8319 300.0909 -602.0292 -537.0241 30471.3256 -233.7922 -155.9025
ENERGY: 1200000 0.6575 2.8420 2.3896 0.0000 -10814.9941 1481.6663 0.0000 0.0000 1756.7214 -7570.7174 296.5523 -9327.4388 -7583.9666 300.2451 -118.2732 16.1000 31142.7369 -294.6671 -215.9073
ENERGY: 1500000 1.1847 2.1583 1.6336 0.0000 -10888.9672 1484.3070 0.0000 0.0000 1794.3637 -7605.3199 302.9067 -9399.6835 -7586.4186 300.1009 157.3969 259.1321 30097.3782 -210.0640 -128.8310
TCL: Running FEP window  20: Lambda1 0.049999999999999684 Lambda2 0.0    [dLambda -0.049999999999999684]
TCL: Setting parameter firsttimestep to 0
TCL: Setting parameter alchLambda to 0.049999999999999684
Info: NONBONDED TABLE R-SQUARED SPACING: 0.0625
Info: NONBONDED TABLE SIZE: 705 POINTS
TCL: Setting parameter alchLambda2 to 0.0
Info: NONBONDED TABLE R-SQUARED SPACING: 0.0625
Info: NONBONDED TABLE SIZE: 705 POINTS
TCL: Running for 1500000 steps
ETITLE: TS BOND ANGLE DIHED IMPRP ELECT VDW BOUNDARY MISC KINETIC TOTAL TEMP POTENTIAL TOTALAVG TEMPAVG PRESSURE GPRESSURE VOLUME PRESSAVG GPRESSAVG
ENERGY: 0 1.1847 2.1583 1.6336 0.0000 -10888.9680 1483.9880 0.0000 0.0000 1793.4821 -7606.5213 302.7579 -9400.0034 -7606.5213 302.7579 159.6739 255.6531 30097.3782 159.6739 255.6531
ENERGY: 300000 1.2160 2.7244 2.1602 0.0000 -10773.1022 1443.0501 0.0000 0.0000 1729.2047 -7594.7469 291.9072 -9323.9516 -7567.3151 300.4386 -106.9314 -55.2754 30519.6729 92.0953 141.9213
ENERGY: 600000 4.3232 2.1480 1.7215 0.0000 -10915.3033 1544.6886 0.0000 0.0000 1792.6237 -7569.7985 302.6130 -9362.4222 -7582.9836 300.4716 621.8551 662.7740 30356.2454 206.4708 255.2424
ENERGY: 900000 1.1899 6.8238 2.2912 0.0000 -10772.6840 1397.1025 0.0000 0.0000 1748.0937 -7617.1830 295.0959 -9365.2767 -7591.9170 299.8957 -661.6716 -602.1954 30575.3804 38.2902 97.3513
ENERGY: 1200000 0.1834 3.0032 2.1446 0.0000 -10721.6551 1389.4618 0.0000 0.0000 1780.2132 -7546.6491 300.5180 -9326.8622 -7580.6088 300.3481 -568.7226 -441.5007 30741.3783 7.6998 68.7935
ENERGY: 1500000 0.4724 6.0845 1.9493 0.0000 -10637.0419 1363.0186 0.0000 0.0000 1796.2263 -7469.2908 303.2211 -9265.5171 -7573.0745 300.8975 -695.5033 -610.8905 31095.4632 -57.1013 3.4802
TCL: Exiting due to exit command.
