Info: SIMULATION PARAMETERS:
Info: TIMESTEP               2
Info: NUMBER OF STEPS        0
Info: STEPS PER CYCLE        10
Info: PERIODIC CELL BASIS 1  32.1405 0 0
Info: PERIODIC CELL BASIS 2  0 30.3501 0
Info: PERIODIC CELL BASIS 3  0 0 32.0678
Info: PERIODIC CELL CENTER   0 0 0
Info: WRAPPING WATERS AROUND PERIODIC BOUNDARIES ON OUTPUT.
Info: WRAPPING ALL CLUSTERS AROUND PERIODIC BOUNDARIES ON OUTPUT.
Info: FIRST LDB TIMESTEP     50
Info: LAST LDB TIMESTEP     -1
Info: HOM BACKGROUND SCALING 1
Info: PME BACKGROUND SCALING 1
Info: MIN ATOMS PER PATCH    40
Info: EMPTY PATCH LOAD       40 ATOMS
Info: VELOCITY FILE          mobley_8723116_equil.vel
Info: CENTER OF MASS MOVING INITIALLY? NO
Info: DIELECTRIC             1
Info: EXCLUDE                SCALED ONE-FOUR
Info: 1-4 ELECTROSTATICS SCALED BY 0.833333
Info: MODIFIED 1-4 VDW PARAMETERS WILL BE USED
Info: DCD FILENAME           mobley_8723116_prod.dcd
Info: DCD FREQUENCY          100000
Info: DCD FIRST STEP         100000
Info: DCD FILE WILL CONTAIN UNIT CELL DATA
Info: XST FILENAME           mobley_8723116_prod.xst
Info: XST FREQUENCY          100000
Info: NO VELOCITY DCD OUTPUT
Info: NO FORCE DCD OUTPUT
Info: OUTPUT FILENAME        mobley_8723116_prod
Info: BINARY OUTPUT FILES WILL BE USED
Info: RESTART FILENAME       mobley_8723116_prod.restart
Info: RESTART FREQUENCY      100000
Info: BINARY RESTART FILES WILL BE USED
Info: CUTOFF                 9
Info: PAIRLIST DISTANCE      11
Info: PAIRLIST SHRINK RATE   0.01
Info: PAIRLIST GROW RATE     0.01
Info: PAIRLIST TRIGGER       0.3
Info: PAIRLISTS PER CYCLE    2
Info: PAIRLISTS ENABLED
Info: MARGIN                 2
Info: HYDROGEN GROUP CUTOFF  2.5
Info: PATCH DIMENSION        15.5
Info: ENERGY OUTPUT STEPS    100000
Info: ENERGY EVALUATION STEPS    100000
Info: OUTPUT ENERGY PRECISION 4
Info: CROSSTERM ENERGY INCLUDED IN DIHEDRAL
Info: TIMING OUTPUT STEPS    1000000
Info: PRESSURE OUTPUT STEPS  100000
Info: ALCHEMICAL FEP ON
Info: FEP CURRENT LAMBDA VALUE     1
Info: FEP COMPARISON LAMBDA VALUE  0.95
Info: FEP INTRA-ALCHEMICAL NON-BONDED INTERACTIONS WILL BE RETAINED
Info: FEP INTRA-ALCHEMICAL BONDED INTERACTIONS WILL BE RETAINED
Info: FEP VDW SHIFTING COEFFICIENT 5
Info: FEP ELEC. ACTIVE FOR ANNIHILATED PARTICLES BETWEEN LAMBDA = 0 AND LAMBDA = 0.5
Info: FEP ELEC. ACTIVE FOR EXNIHILATED PARTICLES BETWEEN LAMBDA = 0.5 AND LAMBDA = 1
Info: FEP VDW ACTIVE FOR ANNIHILATED PARTICLES BETWEEN LAMBDA = 0 AND LAMBDA = 1
Info: FEP VDW ACTIVE FOR EXNIHILATED PARTICLES BETWEEN LAMBDA = 0 AND LAMBDA = 1
Info: FEP BOND ACTIVE FOR ANNIHILATED PARTICLES BETWEEN LAMBDA = 1 AND LAMBDA = 1
Info: FEP BOND ACTIVE FOR EXNIHILATED PARTICLES BETWEEN LAMBDA = 0 AND LAMBDA = 0
Info: LANGEVIN DYNAMICS ACTIVE
Info: LANGEVIN TEMPERATURE   300
Info: LANGEVIN USING BBK INTEGRATOR
Info: LANGEVIN DAMPING COEFFICIENT IS 1 INVERSE PS
Info: LANGEVIN DYNAMICS APPLIED TO HYDROGENS
Info: LANGEVIN PISTON PRESSURE CONTROL ACTIVE
Info:        TARGET PRESSURE IS 1.01325 BAR
Info:     OSCILLATION PERIOD IS 50 FS
Info:             DECAY TIME IS 25 FS
Info:     PISTON TEMPERATURE IS 300 K
Info:       PRESSURE CONTROL IS GROUP-BASED
Info:    INITIAL STRAIN RATE IS 0.000145527 0.000145527 0.000145527
Info:       CELL FLUCTUATION IS ISOTROPIC
Info: PARTICLE MESH EWALD (PME) ACTIVE
Info: PME TOLERANCE               1e-06
Info: PME EWALD COEFFICIENT       0.348832
Info: PME INTERPOLATION ORDER     4
Info: PME GRID DIMENSIONS         36 32 36
Info: PME MAXIMUM GRID SPACING    1
Info: PME CALCULATION WILL BE PERFORMED ON GPU
Info: FULL ELECTROSTATIC EVALUATION FREQUENCY      2
Info: USING VERLET I (r-RESPA) MTS SCHEME.
Info: C1 SPLITTING OF LONG RANGE ELECTROSTATICS
Info: PLACING ATOMS IN PATCHES BY HYDROGEN GROUPS
Info: RIGID BONDS TO HYDROGEN : ALL
Info:         ERROR TOLERANCE : 1e-08
Info:          MAX ITERATIONS : 100
Info: RIGID WATER USING SETTLE ALGORITHM
Info: RANDOM NUMBER SEED     1743583681
Info: USE HYDROGEN BONDS?    NO
Info: Using AMBER format force field!
Info: AMBER PARM FILE        mobley_8723116.prmtop
Info: COORDINATE PDB         mobley_8723116.pdb
Info: Exclusions will be read from PARM file!
Info: SCNB (VDW SCALING)     2
Info: USING ARITHMETIC MEAN TO COMBINE L-J SIGMA PARAMETERS
Info: BINARY COORDINATES     mobley_8723116_equil.coor
Info: SUMMARY OF PARAMETERS:
Info: 7 BONDS
Info: 6 ANGLES
Info:   6 HARMONIC
Info:   0 COSINE-BASED
Info: 3 DIHEDRAL
Info: 0 IMPROPER
Info: 0 CROSSTERM
Info: 0 VDW
Info: 28 VDW_PAIRS
Info: 0 NBTHOLE_PAIRS
Info: To read alchdata from file: mobley_8723116.pdb
Info: To read alchflag data from column: 5
Info: STRUCTURE SUMMARY:
Info: 2987 ATOMS
Info: 2987 BONDS
Info: 21 ANGLES
Info: 35 DIHEDRALS
Info: 0 IMPROPERS
Info: 0 CROSSTERMS
Info: 3033 EXCLUSIONS
Info: 2979 RIGID BONDS
Info: ALCH: 0 ATOMS TO DISAPPEAR IN FINAL STATE
Info: ALCH: 14 ATOMS TO APPEAR IN FINAL STATE
Info: 5982 DEGREES OF FREEDOM
Info: 999 HYDROGEN GROUPS
Info: 3 ATOMS IN LARGEST HYDROGEN GROUP
Info: 999 MIGRATION GROUPS
Info: 3 ATOMS IN LARGEST MIGRATION GROUP
Info: TOTAL MASS = 17981.4 amu
Info: TOTAL CHARGE = -2.6077e-08 e
Info: MASS DENSITY = 0.954555 g/cm^3
Info: ATOM DENSITY = 0.0954889 atoms/A^3
Info: ADDED 0 IMPLICIT EXCLUSIONS
Info: NONBONDED TABLE R-SQUARED SPACING: 0.0625
Info: NONBONDED TABLE SIZE: 705 POINTS
Info: REMOVING COM VELOCITY 0.0342425 -0.0799911 -0.077327
Info: Use 3D box decompostion in PME FFT.
Info: Updated CUDA force table with 4096 elements.
Info: Updated CUDA LJ table with 7 x 7 elements.
Info: Found 16 unique exclusion lists needing 32 bytes
TCL: Running for 1500000 steps
ETITLE: TS BOND ANGLE DIHED IMPRP ELECT VDW BOUNDARY MISC KINETIC TOTAL TEMP POTENTIAL TOTALAVG TEMPAVG PRESSURE GPRESSURE VOLUME PRESSAVG GPRESSAVG
ENERGY: 0 1.2955 4.6017 4.1861 0.0000 -10775.0123 1446.4608 0.0000 0.0000 1768.8929 -7549.5754 297.6086 -9318.4682 -7549.5754 297.6086 65.0834 144.9236 31281.1322 65.0834 144.9236
ENERGY: 300000 2.0927 3.4098 4.9743 0.0000 -10880.9718 1522.6423 0.0000 0.0000 1788.1150 -7559.7377 300.8427 -9347.8527 -7578.9658 300.5104 495.7612 590.2579 30920.6898 -271.7588 -183.4004
ENERGY: 600000 1.9441 3.3526 2.4892 0.0000 -10899.7956 1529.8611 0.0000 0.0000 1791.9270 -7570.2216 301.4840 -9362.1486 -7583.2583 301.4280 565.3894 619.5093 30867.6883 9.0705 70.7060
ENERGY: 900000 1.7412 1.8573 5.0795 0.0000 -10892.6365 1454.7827 0.0000 0.0000 1790.9087 -7638.2671 301.3127 -9429.1758 -7596.3618 301.5255 -158.9148 -48.5569 30621.4481 -73.6206 -4.7958
ENERGY: 1200000 2.1667 4.9195 3.0519 0.0000 -10770.1012 1455.3687 0.0000 0.0000 1802.5489 -7502.0454 303.2711 -9304.5943 -7585.7839 302.4448 494.2295 523.2928 30618.8753 -60.9398 5.1700
ENERGY: 1500000 2.6950 6.3914 4.7124 0.0000 -10820.6799 1397.0786 0.0000 0.0000 1776.0642 -7633.7383 298.8152 -9409.8025 -7591.6217 301.1739 -536.8489 -516.1456 30984.0935 -201.4752 -141.3665
TCL: Running FEP window   2: Lambda1 0.95   Lambda2 0.8999999999999999 [dLambda -0.050000000000000044]
TCL: Setting parameter firsttimestep to 0
TCL: Setting parameter alchLambda to 0.95
Info: NONBONDED TABLE R-SQUARED SPACING: 0.0625
Info: NONBONDED TABLE SIZE: 705 POINTS
TCL: Setting parameter alchLambda2 to 0.8999999999999999
Info: NONBONDED TABLE R-SQUARED SPACING: 0.0625
Info: NONBONDED TABLE SIZE: 705 POINTS
TCL: Running for 1500000 steps
ETITLE: TS BOND ANGLE DIHED IMPRP ELECT VDW BOUNDARY MISC KINETIC TOTAL TEMP POTENTIAL TOTALAVG TEMPAVG PRESSURE GPRESSURE VOLUME PRESSAVG GPRESSAVG
ENERGY: 0 2.6950 6.3914 4.7124 0.0000 -10818.6396 1396.3393 0.0000 0.0000 1775.2061 -7633.2953 298.6708 -9408.5014 -7633.2953 298.6708 -615.9339 -534.3544 30984.0935 -615.9339 -534.3544
ENERGY: 300000 3.2255 3.0015 3.7378 0.0000 -10824.1764 1442.8325 0.0000 0.0000 1822.1799 -7549.1992 306.5739 -9371.3791 -7571.8482 303.6606 -6.0754 54.6799 30753.1824 80.4645 140.5248
ENERGY: 600000 1.1626 5.2048 3.2828 0.0000 -10879.3685 1473.2369 0.0000 0.0000 1798.1504 -7598.3311 302.5311 -9396.4815 -7583.1907 302.9821 187.7002 262.0817 30649.2716 0.2750 75.7573
ENERGY: 900000 4.0236 2.6549 5.0309 0.0000 -10847.1398 1510.4159 0.0000 0.0000 1816.4057 -7508.6088 305.6024 -9325.0145 -7584.4691 302.6394 597.1737 637.5908 31206.2717 11.4130 77.2444
ENERGY: 1200000 3.0636 1.8228 5.4452 0.0000 -10853.9550 1492.5492 0.0000 0.0000 1829.4680 -7521.6062 307.8001 -9351.0742 -7582.0214 302.6653 759.5298 834.1488 30514.0707 53.1338 122.5691
ENERGY: 1500000 2.1837 2.4603 10.4088 0.0000 -10963.1632 1492.9522 0.0000 0.0000 1775.7679 -7679.3904 298.7653 -9455.1583 -7581.4103 302.2348 310.8162 327.9690 30426.5159 66.8636 132.0349
TCL: Running FEP window   3: Lambda1 0.8999999999999999 Lambda2 0.8499999999999999 [dLambda -0.050000000000000044]
TCL: Setting parameter firsttimestep to 0
TCL: Setting parameter alchLambda to 0.8999999999999999
Info: NONBONDED TABLE R-SQUARED SPACING: 0.0625
Info: NONBONDED TABLE SIZE: 705 POINTS
TCL: Setting parameter alchLambda2 to 0.8499999999999999
Info: NONBONDED TABLE R-SQUARED SPACING: 0.0625
Info: NONBONDED TABLE SIZE: 705 POINTS
TCL: Running for 1500000 steps
ETITLE: TS BOND ANGLE DIHED IMPRP ELECT VDW BOUNDARY MISC KINETIC TOTAL TEMP POTENTIAL TOTALAVG TEMPAVG PRESSURE GPRESSURE VOLUME PRESSAVG GPRESSAVG
ENERGY: 0 2.1837 2.4603 10.4088 0.0000 -10961.1528 1492.5142 0.0000 0.0000 1774.8891 -7678.6967 298.6175 -9453.5858 -7678.6967 298.6175 225.4096 319.9453 30426.5159 225.4096 319.9453
ENERGY: 300000 1.6246 3.2905 5.1675 0.0000 -10903.8217 1448.6094 0.0000 0.0000 1775.7499 -7669.3799 298.7623 -9445.1298 -7637.3806 300.2955 -315.3631 -214.5924 30967.2219 -148.5189 -74.3343
ENERGY: 600000 6.4083 2.5155 5.0729 0.0000 -10757.9910 1384.0469 0.0000 0.0000 1751.6179 -7608.3295 294.7022 -9359.9474 -7617.6293 299.7159 -535.6198 -516.5998 30964.3626 -249.5330 -188.8060
ENERGY: 900000 2.0338 4.7807 2.9735 0.0000 -10805.5490 1350.8464 0.0000 0.0000 1794.3032 -7650.6114 301.8838 -9444.9146 -7616.2386 299.7267 -1141.9864 -1141.3091 31261.7853 -351.9840 -279.9823
ENERGY: 1200000 2.7656 3.2339 3.1732 0.0000 -10748.4943 1379.4540 0.0000 0.0000 1745.8095 -7614.0582 293.7249 -9359.8677 -7618.2472 299.1164 -434.3988 -357.0673 30729.3748 -173.4789 -106.4281
ENERGY: 1500000 1.3254 2.9069 3.7933 0.0000 -10890.5835 1466.6341 0.0000 0.0000 1777.3913 -7638.5325 299.0384 -9415.9238 -7614.5324 299.3113 -161.6591 -13.3605 31033.2404 -161.9724 -93.4997
TCL: Running FEP window   4: Lambda1 0.8499999999999999 Lambda2 0.7999999999999998 [dLambda -0.050000000000000044]
TCL: Setting parameter firsttimestep to 0
TCL: Setting parameter alchLambda to 0.8499999999999999
Info: NONBONDED TABLE R-SQUARED SPACING: 0.0625
Info: NONBONDED TABLE SIZE: 705 POINTS
TCL: Setting parameter alchLambda2 to 0.7999999999999998
Info: NONBONDED TABLE R-SQUARED SPACING: 0.0625
Info: NONBONDED TABLE SIZE: 705 POINTS
TCL: Running for 1500000 steps
ETITLE: TS BOND ANGLE DIHED IMPRP ELECT VDW BOUNDARY MISC KINETIC TOTAL TEMP POTENTIAL TOTALAVG TEMPAVG PRESSURE GPRESSURE VOLUME PRESSAVG GPRESSAVG
ENERGY: 0 1.3254 2.9069 3.7933 0.0000 -10889.4100 1465.8302 0.0000 0.0000 1776.4926 -7639.0616 298.8872 -9415.5541 -7639.0616 298.8872 -117.6266 -31.8646 31033.2404 -117.6266 -31.8646
ENERGY: 300000 2.4450 6.4974 5.8145 0.0000 -10684.7007 1395.3291 0.0000 0.0000 1753.5625 -7521.0522 295.0294 -9274.6147 -7608.8144 299.3436 -198.3499 -77.9051 30677.7405 -139.0477 -52.0026
ENERGY: 600000 2.6537 4.0454 3.2759 0.0000 -10809.3661 1427.4845 0.0000 0.0000 1783.4703 -7588.4363 300.0612 -9371.9066 -7606.7367 300.7342 -461.0007 -305.5732 30946.8831 30.4566 121.1515
ENERGY: 900000 2.5122 2.5188 2.5379 0.0000 -10960.4518 1486.2908 0.0000 0.0000 1792.2019 -7674.3902 301.5303 -9466.5921 -7616.9295 301.8214 -136.0285 -35.0498 30523.0427 -17.7150 67.5237
ENERGY: 1200000 5.2345 3.7813 3.3932 0.0000 -10786.2923 1424.8316 0.0000 0.0000 1862.6130 -7486.4389 313.3766 -9349.0519 -7603.3477 301.8156 -197.3534 -159.2004 31019.1810 -20.1727 54.9915
ENERGY: 1500000 3.4233 3.5409 1.9724 0.0000 -10850.6053 1442.6532 0.0000 0.0000 1850.7452 -7548.2702 311.3799 -9399.0154 -7606.5940 302.2731 12.7240 -12.5922 30504.5335 -26.9041 40.8828
TCL: Running FEP window   5: Lambda1 0.7999999999999998 Lambda2 0.7499999999999998 [dLambda -0.050000000000000044]
TCL: Setting parameter firsttimestep to 0
TCL: Setting parameter alchLambda to 0.7999999999999998
Info: NONBONDED TABLE R-SQUARED SPACING: 0.0625
Info: NONBONDED TABLE SIZE: 705 POINTS
TCL: Setting parameter alchLambda2 to 0.7499999999999998
Info: NONBONDED TABLE R-SQUARED SPACING: 0.0625
Info: NONBONDED TABLE SIZE: 705 POINTS
TCL: Running for 1500000 steps
ETITLE: TS BOND ANGLE DIHED IMPRP ELECT VDW BOUNDARY MISC KINETIC TOTAL TEMP POTENTIAL TOTALAVG TEMPAVG PRESSURE GPRESSURE VOLUME PRESSAVG GPRESSAVG
ENERGY: 0 3.4233 3.5409 1.9724 0.0000 -10848.4244 1441.7663 0.0000 0.0000 1849.8536 -7547.8679 311.2299 -9397.7215 -7547.8679 311.2299 -96.1815 -28.9171 30504.5335 -96.1815 -28.9171
ENERGY: 300000 1.1048 4.7098 2.5642 0.0000 -11055.7918 1603.2791 0.0000 0.0000 1773.3378 -7670.7960 298.3565 -9444.1339 -7618.4048 300.6073 1362.3715 1383.2678 30106.7955 207.1091 266.0804
ENERGY: 600000 4.4329 3.8679 4.3955 0.0000 -10757.4217 1435.9424 0.0000 0.0000 1779.3911 -7529.3919 299.3749 -9308.7830 -7597.2689 300.3655 -28.6790 82.2526 30629.2802 131.8309 212.3725
ENERGY: 900000 3.4600 3.6297 4.1966 0.0000 -10896.5595 1529.8333 0.0000 0.0000 1796.0678 -7559.3720 302.1807 -9355.4398 -7592.4497 299.8910 469.9600 587.8471 30888.5282 95.3069 179.7904
ENERGY: 1200000 3.3495 3.0291 0.8656 0.0000 -10785.9234 1362.3973 0.0000 0.0000 1809.4667 -7606.8152 304.4350 -9416.2819 -7606.6783 299.4785 -896.9977 -758.9866 30739.8960 26.9984 109.2748
ENERGY: 1500000 2.5314 2.2396 3.7499 0.0000 -10896.3357 1471.1227 0.0000 0.0000 1830.7284 -7585.9637 308.0122 -9416.6921 -7608.6439 300.0372 -81.0117 25.0745 30595.9776 34.5685 116.0662
TCL: Running FEP window   6: Lambda1 0.7499999999999998 Lambda2 0.6999999999999997 [dLambda -0.050000000000000044]
TCL: Setting parameter firsttimestep to 0
TCL: Setting parameter alchLambda to 0.7499999999999998
Info: NONBONDED TABLE R-SQUARED SPACING: 0.0625
Info: NONBONDED TABLE SIZE: 705 POINTS
TCL: Setting parameter alchLambda2 to 0.6999999999999997
Info: NONBONDED TABLE R-SQUARED SPACING: 0.0625
Info: NONBONDED TABLE SIZE: 705 POINTS
TCL: Running for 1500000 steps
ETITLE: TS BOND ANGLE DIHED IMPRP ELECT VDW BOUNDARY MISC KINETIC TOTAL TEMP POTENTIAL TOTALAVG TEMPAVG PRESSURE GPRESSURE VOLUME PRESSAVG GPRESSAVG
ENERGY: 0 2.5314 2.2396 3.7499 0.0000 -10896.0639 1471.7563 0.0000 0.0000 1829.8063 -7585.9803 307.8571 -9415.7867 -7585.9803 307.8571 -70.1170 25.3460 30595.9776 -70.1170 25.3460
ENERGY: 300000 3.8701 6.8599 3.3848 0.0000 -10856.6583 1463.4562 0.0000 0.0000 1794.0907 -7584.9965 301.8481 -9379.0873 -7613.1074 299.3743 -76.5611 -29.2238 30856.0262 -177.7384 -130.4071
ENERGY: 600000 1.4781 4.0164 2.8114 0.0000 -10872.7275 1473.9040 0.0000 0.0000 1796.9338 -7593.5839 302.3264 -9390.5177 -7604.2251 301.0870 -113.4189 -26.8207 30967.6178 -4.4818 59.4396
ENERGY: 900000 2.6491 3.9688 1.8812 0.0000 -10879.6938 1463.6675 0.0000 0.0000 1787.2002 -7620.3269 300.6888 -9407.5272 -7593.1990 301.9429 -318.1027 -236.2047 31297.5610 -57.7687 11.0113
ENERGY: 1200000 3.7718 4.3388 4.0312 0.0000 -10858.3586 1503.6353 0.0000 0.0000 1762.5585 -7580.0231 296.5429 -9342.5816 -7592.7876 301.3344 405.1226 443.3195 30901.2150 -69.8192 -11.4584
ENERGY: 1500000 0.7226 3.2360 4.5322 0.0000 -11059.9831 1547.8087 0.0000 0.0000 1790.5862 -7713.0975 301.2584 -9503.6836 -7599.0027 301.2783 457.3140 506.3543 30749.8238 13.8908 67.2950
TCL: Running FEP window   7: Lambda1 0.6999999999999997 Lambda2 0.6499999999999997 [dLambda -0.050000000000000044]
TCL: Setting parameter firsttimestep to 0
TCL: Setting parameter alchLambda to 0.6999999999999997
Info: NONBONDED TABLE R-SQUARED SPACING: 0.0625
Info: NONBONDED TABLE SIZE: 705 POINTS
TCL: Setting parameter alchLambda2 to 0.6499999999999997
Info: NONBONDED TABLE R-SQUARED SPACING: 0.0625
Info: NONBONDED TABLE SIZE: 705 POINTS
TCL: Running for 1500000 steps
ETITLE: TS BOND ANGLE DIHED IMPRP ELECT VDW BOUNDARY MISC KINETIC TOTAL TEMP POTENTIAL TOTALAVG TEMPAVG PRESSURE GPRESSURE VOLUME PRESSAVG GPRESSAVG
ENERGY: 0 0.7226 3.2360 4.5322 0.0000 -11059.1137 1548.3338 0.0000 0.0000 1789.6774 -7712.6118 301.1055 -9502.2892 -7712.6118 301.1055 428.4147 510.2274 30749.8238 428.4147 510.2274
ENERGY: 300000 0.5570 2.7862 3.3927 0.0000 -10847.2673 1499.0112 0.0000 0.0000 1809.4165 -7532.1038 304.4265 -9341.5203 -7623.6464 299.9395 447.3549 548.4300 30636.8139 135.1643 232.9738
ENERGY: 600000 1.4589 4.2102 7.5301 0.0000 -10786.0847 1353.8134 0.0000 0.0000 1803.2375 -7615.8347 303.3870 -9419.0722 -7631.9910 299.7803 -882.7361 -846.3870 30866.6514 -102.5027 -14.6806
ENERGY: 900000 2.8355 3.0510 4.0408 0.0000 -10906.9763 1481.2804 0.0000 0.0000 1815.8278 -7599.9409 305.5052 -9415.7686 -7631.2974 300.1531 288.9576 345.0100 30329.8279 -13.6179 71.0224
ENERGY: 1200000 3.7689 4.4669 3.6840 0.0000 -10785.8853 1383.1976 0.0000 0.0000 1824.5890 -7566.1790 306.9793 -9390.7680 -7611.1402 301.8748 -649.4899 -516.2785 30566.9609 -55.4028 28.5168
ENERGY: 1500000 0.5774 2.5396 2.7969 0.0000 -10877.9405 1457.1755 0.0000 0.0000 1773.3875 -7641.4636 298.3648 -9414.8511 -7612.5774 301.8791 -231.0641 -173.2676 30950.4245 -59.8109 16.4636
TCL: Running FEP window   8: Lambda1 0.6499999999999997 Lambda2 0.5999999999999996 [dLambda -0.050000000000000044]
TCL: Setting parameter firsttimestep to 0
TCL: Setting parameter alchLambda to 0.6499999999999997
Info: NONBONDED TABLE R-SQUARED SPACING: 0.0625
Info: NONBONDED TABLE SIZE: 705 POINTS
TCL: Setting parameter alchLambda2 to 0.5999999999999996
Info: NONBONDED TABLE R-SQUARED SPACING: 0.0625
Info: NONBONDED TABLE SIZE: 705 POINTS
TCL: Running for 1500000 steps
ETITLE: TS BOND ANGLE DIHED IMPRP ELECT VDW BOUNDARY MISC KINETIC TOTAL TEMP POTENTIAL TOTALAVG TEMPAVG PRESSURE GPRESSURE VOLUME PRESSAVG GPRESSAVG
ENERGY: 0 0.5774 2.5396 2.7969 0.0000 -10876.0907 1456.7745 0.0000 0.0000 1772.5056 -7640.8967 298.2164 -9413.4023 -7640.8967 298.2164 -246.2176 -178.9640 30950.4245 -246.2176 -178.9640
ENERGY: 300000 1.4276 4.5543 3.5003 0.0000 -10874.9301 1541.6353 0.0000 0.0000 1809.1385 -7514.6741 304.3798 -9323.8126 -7592.6104 301.4579 876.7260 936.9106 30672.7253 206.0026 294.6813
ENERGY: 600000 3.5027 4.4399 3.3013 0.0000 -10875.9171 1547.7855 0.0000 0.0000 1739.3939 -7577.4939 292.6455 -9316.8878 -7613.6370 299.5010 995.5924 1045.1295 30489.3111 414.2000 479.6722
ENERGY: 900000 0.7831 2.9043 5.5691 0.0000 -10872.4948 1492.8303 0.0000 0.0000 1790.6900 -7579.7181 301.2759 -9370.4081 -7591.1412 300.6925 88.2661 111.9402 31084.5260 212.3600 277.4351
ENERGY: 1200000 1.3614 3.8829 3.7539 0.0000 -10972.4933 1506.3799 0.0000 0.0000 1746.0287 -7711.0866 293.7618 -9457.1153 -7607.6013 299.2252 179.4286 259.5408 30741.4684 149.9450 215.0695
ENERGY: 1500000 4.2778 2.4541 3.2164 0.0000 -10813.7981 1465.6805 0.0000 0.0000 1732.9857 -7605.1835 291.5674 -9338.1692 -7601.6053 299.6886 281.7096 346.3275 30884.1046 170.2227 235.0532
TCL: Running FEP window   9: Lambda1 0.5999999999999996 Lambda2 0.5499999999999996 [dLambda -0.050000000000000044]
TCL: Setting parameter firsttimestep to 0
TCL: Setting parameter alchLambda to 0.5999999999999996
Info: NONBONDED TABLE R-SQUARED SPACING: 0.0625
Info: NONBONDED TABLE SIZE: 705 POINTS
TCL: Setting parameter alchLambda2 to 0.5499999999999996
Info: NONBONDED TABLE R-SQUARED SPACING: 0.0625
Info: NONBONDED TABLE SIZE: 705 POINTS
TCL: Running for 1500000 steps
ETITLE: TS BOND ANGLE DIHED IMPRP ELECT VDW BOUNDARY MISC KINETIC TOTAL TEMP POTENTIAL TOTALAVG TEMPAVG PRESSURE GPRESSURE VOLUME PRESSAVG GPRESSAVG
ENERGY: 0 4.2778 2.4541 3.2164 0.0000 -10813.7120 1466.0830 0.0000 0.0000 1732.0529 -7605.6277 291.4105 -9337.6806 -7605.6277 291.4105 269.4354 347.2571 30884.1046 269.4354 347.2571
ENERGY: 300000 5.9291 2.2189 2.3243 0.0000 -10822.2010 1425.9324 0.0000 0.0000 1778.2796 -7607.5167 299.1879 -9385.7963 -7616.8714 298.6522 -386.9420 -351.8323 30884.4962 -259.3310 -211.3397
ENERGY: 600000 3.1205 2.3785 4.0381 0.0000 -10688.7438 1438.5822 0.0000 0.0000 1798.4908 -7442.1335 302.5883 -9240.6243 -7602.9513 298.6892 -237.3459 -167.6385 31367.3720 -217.3885 -168.0633
ENERGY: 900000 1.2990 3.2267 3.4660 0.0000 -10829.7456 1443.8363 0.0000 0.0000 1739.3027 -7638.6148 292.6302 -9377.9175 -7601.4557 298.9962 -165.3038 -126.6821 30669.3575 -152.3980 -110.1020
ENERGY: 1200000 2.0100 2.8989 5.2413 0.0000 -10695.8597 1385.6455 0.0000 0.0000 1716.1996 -7583.8643 288.7432 -9300.0639 -7600.7403 298.4901 -350.6703 -262.0437 30996.8273 -141.1842 -94.0532
ENERGY: 1500000 6.1489 4.2455 3.4391 0.0000 -10775.0979 1396.2866 0.0000 0.0000 1832.1728 -7532.8050 308.2552 -9364.9778 -7589.4274 299.7470 -731.7133 -707.2652 30854.5990 -103.3740 -62.4014
TCL: Running FEP window  10: Lambda1 0.5499999999999996 Lambda2 0.4999999999999996 [dLambda -0.04999999999999999]
TCL: Setting parameter firsttimestep to 0
TCL: Setting parameter alchLambda to 0.5499999999999996
Info: NONBONDED TABLE R-SQUARED SPACING: 0.0625
Info: NONBONDED TABLE SIZE: 705 POINTS
TCL: Setting parameter alchLambda2 to 0.4999999999999996
Info: NONBONDED TABLE R-SQUARED SPACING: 0.0625
Info: NONBONDED TABLE SIZE: 705 POINTS
TCL: Running for 1500000 steps
ETITLE: TS BOND ANGLE DIHED IMPRP ELECT VDW BOUNDARY MISC KINETIC TOTAL TEMP POTENTIAL TOTALAVG TEMPAVG PRESSURE GPRESSURE VOLUME PRESSAVG GPRESSAVG
ENERGY: 0 6.1489 4.2455 3.4391 0.0000 -10774.6457 1396.9627 0.0000 0.0000 1831.3036 -7532.5459 308.1090 -9363.8495 -7532.5459 308.1090 -784.9040 -705.9354 30854.5990 -784.9040 -705.9354
ENERGY: 300000 1.7864 2.7563 4.9080 0.0000 -10902.1603 1504.9380 0.0000 0.0000 1834.0758 -7553.6957 308.5754 -9387.7715 -7583.7559 303.0551 328.6125 433.0051 30523.1985 -99.9682 -30.8718
ENERGY: 600000 3.4495 3.5604 7.4347 0.0000 -10806.4968 1460.5152 0.0000 0.0000 1755.3586 -7576.1784 295.3315 -9331.5370 -7590.8446 301.3889 -36.2550 50.9663 31248.6916 -150.1676 -86.6742
ENERGY: 900000 2.4550 3.5042 1.0204 0.0000 -10952.1743 1515.8293 0.0000 0.0000 1769.6390 -7659.7263 297.7341 -9429.3653 -7584.5948 301.2558 177.1787 258.2932 30880.8065 -164.7687 -107.4130
ENERGY: 1200000 2.8360 3.4359 3.3978 0.0000 -10781.6798 1430.8670 0.0000 0.0000 1784.4929 -7556.6501 300.2333 -9341.1430 -7581.7676 300.7277 -527.6256 -446.5831 31550.5443 -234.0511 -171.4710
ENERGY: 1500000 3.1361 3.1526 3.6006 0.0000 -10754.0807 1367.6323 0.0000 0.0000 1802.9172 -7573.6419 303.3331 -9376.5590 -7586.3630 301.1317 -879.6478 -794.6378 31223.2358 -263.8547 -208.4526
TCL: Running FEP window  11: Lambda1 0.4999999999999996 Lambda2 0.4499999999999996 [dLambda -0.04999999999999999]
TCL: Setting parameter firsttimestep to 0
TCL: Setting parameter alchLambda to 0.4999999999999996
Info: NONBONDED TABLE R-SQUARED SPACING: 0.0625
Info: NONBONDED TABLE SIZE: 705 POINTS
TCL: Setting parameter alchLambda2 to 0.4499999999999996
Info: NONBONDED TABLE R-SQUARED SPACING: 0.0625
Info: NONBONDED TABLE SIZE: 705 POINTS
TCL: Running for 1500000 steps
ETITLE: TS BOND ANGLE DIHED IMPRP ELECT VDW BOUNDARY MISC KINETIC TOTAL TEMP POTENTIAL TOTALAVG TEMPAVG PRESSURE GPRESSURE VOLUME PRESSAVG GPRESSAVG
ENERGY: 0 3.1361 3.1526 3.6006 0.0000 -10753.5580 1367.9357 0.0000 0.0000 1802.0152 -7573.7178 303.1813 -9375.7329 -7573.7178 303.1813 -883.0092 -794.9874 31223.2358 -883.0092 -794.9874
ENERGY: 300000 0.9163 3.0285 5.6892 0.0000 -10787.1015 1429.1342 0.0000 0.0000 1794.3519 -7553.9815 301.8920 -9348.3334 -7545.3588 303.6473 -203.8776 -58.9480 30771.0046 -252.2253 -155.0196
ENERGY: 600000 2.8959 3.1143 2.4112 0.0000 -10854.3415 1428.6640 0.0000 0.0000 1758.4948 -7658.7613 295.8592 -9417.2560 -7580.9712 301.3519 -682.1716 -582.6640 31193.8805 -308.4908 -216.6272
ENERGY: 900000 4.8291 8.2145 3.9285 0.0000 -10944.2323 1539.8809 0.0000 0.0000 1784.1400 -7603.2393 300.1739 -9387.3793 -7579.9611 301.8172 667.9266 727.6042 30529.3326 -104.5233 -28.8125
ENERGY: 1200000 5.7068 5.4238 1.4918 0.0000 -10910.7767 1432.3805 0.0000 0.0000 1788.9347 -7676.8390 300.9806 -9465.7738 -7589.0860 301.5646 -156.6501 -73.2569 30375.1555 -97.2791 -22.1150
ENERGY: 1500000 1.5368 5.6837 3.8932 0.0000 -10850.9093 1486.8927 0.0000 0.0000 1782.2332 -7570.6697 299.8531 -9352.9029 -7593.1742 301.0901 -103.2898 16.4689 31120.3119 -77.4668 1.6776
TCL: Running FEP window  12: Lambda1 0.4499999999999996 Lambda2 0.39999999999999963 [dLambda -0.04999999999999999]
TCL: Setting parameter firsttimestep to 0
TCL: Setting parameter alchLambda to 0.4499999999999996
Info: NONBONDED TABLE R-SQUARED SPACING: 0.0625
Info: NONBONDED TABLE SIZE: 705 POINTS
TCL: Setting parameter alchLambda2 to 0.39999999999999963
Info: NONBONDED TABLE R-SQUARED SPACING: 0.0625
Info: NONBONDED TABLE SIZE: 705 POINTS
TCL: Running for 1500000 steps
ETITLE: TS BOND ANGLE DIHED IMPRP ELECT VDW BOUNDARY MISC KINETIC TOTAL TEMP POTENTIAL TOTALAVG TEMPAVG PRESSURE GPRESSURE VOLUME PRESSAVG GPRESSAVG
ENERGY: 0 1.5368 5.6837 3.8932 0.0000 -10850.9098 1487.0615 0.0000 0.0000 1781.3467 -7571.3879 299.7039 -9352.7346 -7571.3879 299.7039 -75.5127 9.6184 31120.3119 -75.5127 9.6184
ENERGY: 300000 3.1690 2.6237 2.9872 0.0000 -10810.4511 1397.4017 0.0000 0.0000 1785.9394 -7618.3300 300.4766 -9404.2695 -7579.1211 300.6116 -444.3273 -329.7517 30456.7993 -407.9320 -317.0295
ENERGY: 600000 3.3253 4.7943 1.8483 0.0000 -10872.1263 1454.0703 0.0000 0.0000 1762.0610 -7646.0271 296.4592 -9408.0881 -7578.4634 299.3889 -200.1103 -62.8784 30608.5999 -340.2885 -252.1533
ENERGY: 900000 4.3662 4.5514 2.3678 0.0000 -10814.3628 1411.0169 0.0000 0.0000 1810.1782 -7581.8823 304.5547 -9392.0605 -7588.2489 298.9868 -310.7204 -282.6902 30659.8576 -365.5976 -289.3671
ENERGY: 1200000 3.8280 3.0766 3.3498 0.0000 -10843.3906 1424.3778 0.0000 0.0000 1826.0957 -7582.6627 307.2327 -9408.7584 -7590.5674 299.2940 -185.8046 -137.8251 30534.5965 -304.7633 -237.0411
ENERGY: 1500000 3.5384 4.5782 5.7038 0.0000 -10778.6435 1412.8138 0.0000 0.0000 1813.8418 -7538.1674 305.1711 -9352.0092 -7579.7218 300.6759 -314.6705 -269.0860 30677.4967 -257.2717 -195.3019
TCL: Running FEP window  13: Lambda1 0.39999999999999963 Lambda2 0.34999999999999964 [dLambda -0.04999999999999999]
TCL: Setting parameter firsttimestep to 0
TCL: Setting parameter alchLambda to 0.39999999999999963
Info: NONBONDED TABLE R-SQUARED SPACING: 0.0625
Info: NONBONDED TABLE SIZE: 705 POINTS
TCL: Setting parameter alchLambda2 to 0.34999999999999964
Info: NONBONDED TABLE R-SQUARED SPACING: 0.0625
Info: NONBONDED TABLE SIZE: 705 POINTS
TCL: Running for 1500000 steps
ETITLE: TS BOND ANGLE DIHED IMPRP ELECT VDW BOUNDARY MISC KINETIC TOTAL TEMP POTENTIAL TOTALAVG TEMPAVG PRESSURE GPRESSURE VOLUME PRESSAVG GPRESSAVG
ENERGY: 0 3.5384 4.5782 5.7038 0.0000 -10778.6445 1412.9000 0.0000 0.0000 1812.9590 -7538.9651 305.0226 -9351.9241 -7538.9651 305.0226 -345.2630 -274.0188 30677.4967 -345.2630 -274.0188
ENERGY: 300000 3.0443 2.3460 4.2436 0.0000 -10908.1639 1472.8320 0.0000 0.0000 1808.2074 -7617.4907 304.2231 -9425.6980 -7561.1366 305.5475 113.0407 163.1788 30496.4999 -158.4306 -87.0832
ENERGY: 600000 3.5375 2.1675 7.0047 0.0000 -10788.6425 1427.8949 0.0000 0.0000 1773.9460 -7574.0919 298.4588 -9348.0379 -7573.0828 303.6406 -128.9560 -45.9937 30863.9886 -111.8617 -59.5491
ENERGY: 900000 4.1762 3.7685 2.8284 0.0000 -10786.1891 1440.5425 0.0000 0.0000 1770.1126 -7564.7609 297.8138 -9334.8735 -7568.3128 302.7261 -217.3217 -162.4803 30938.8343 -105.2543 -53.1098
ENERGY: 1200000 3.6344 5.6870 1.9135 0.0000 -10983.8468 1555.4723 0.0000 0.0000 1783.1824 -7633.9572 300.0128 -9417.1396 -7577.0539 301.7242 708.8356 747.2597 30528.0232 -25.4173 25.2722
ENERGY: 1500000 1.2146 2.1183 3.7551 0.0000 -10758.0527 1406.9377 0.0000 0.0000 1810.6043 -7533.4227 304.6264 -9344.0270 -7572.4050 300.9763 -247.0955 -268.1564 31139.7837 -55.0371 -9.5355
TCL: Running FEP window  14: Lambda1 0.34999999999999964 Lambda2 0.29999999999999966 [dLambda -0.04999999999999999]
TCL: Setting parameter firsttimestep to 0
TCL: Setting parameter alchLambda to 0.34999999999999964
Info: NONBONDED TABLE R-SQUARED SPACING: 0.0625
Info: NONBONDED TABLE SIZE: 705 POINTS
TCL: Setting parameter alchLambda2 to 0.29999999999999966
Info: NONBONDED TABLE R-SQUARED SPACING: 0.0625
Info: NONBONDED TABLE SIZE: 705 POINTS
TCL: Running for 1500000 steps
ETITLE: TS BOND ANGLE DIHED IMPRP ELECT VDW BOUNDARY MISC KINETIC TOTAL TEMP POTENTIAL TOTALAVG TEMPAVG PRESSURE GPRESSURE VOLUME PRESSAVG GPRESSAVG
ENERGY: 0 1.2146 2.1183 3.7551 0.0000 -10758.0518 1407.3750 0.0000 0.0000 1809.7032 -7533.8856 304.4748 -9343.5887 -7533.8856 304.4748 -339.3914 -265.5155 31139.7837 -339.3914 -265.5155
ENERGY: 300000 4.4394 2.2756 6.0976 0.0000 -10942.1067 1521.7479 0.0000 0.0000 1770.6567 -7636.8896 297.9054 -9407.5463 -7595.9457 300.7646 97.5597 170.5453 30884.4078 -46.2433 21.0617
ENERGY: 600000 5.6772 2.3939 6.2209 0.0000 -10833.3546 1422.6014 0.0000 0.0000 1797.1570 -7599.3042 302.3639 -9396.4612 -7621.4948 299.7234 -495.7517 -435.8882 30981.7153 -81.7759 -27.5042
ENERGY: 900000 1.6515 4.2158 4.6313 0.0000 -10815.8809 1455.1001 0.0000 0.0000 1785.4879 -7564.7943 300.4007 -9350.2823 -7624.3784 299.0465 -51.9401 -60.6649 31052.7809 37.7667 93.9736
ENERGY: 1200000 4.1055 10.1223 5.1200 0.0000 -10946.2321 1564.5903 0.0000 0.0000 1814.9557 -7547.3383 305.3585 -9362.2941 -7613.4532 299.5569 894.6761 946.5983 30750.2641 99.4926 153.6561
ENERGY: 1500000 3.0886 1.0914 3.3061 0.0000 -10723.0491 1294.1449 0.0000 0.0000 1804.8874 -7616.5307 303.6645 -9421.4181 -7613.1271 299.9207 -1518.7815 -1452.0567 30960.0869 49.8423 109.7151
TCL: Running FEP window  15: Lambda1 0.29999999999999966 Lambda2 0.24999999999999967 [dLambda -0.04999999999999999]
TCL: Setting parameter firsttimestep to 0
TCL: Setting parameter alchLambda to 0.29999999999999966
Info: NONBONDED TABLE R-SQUARED SPACING: 0.0625
Info: NONBONDED TABLE SIZE: 705 POINTS
TCL: Setting parameter alchLambda2 to 0.24999999999999967
Info: NONBONDED TABLE R-SQUARED SPACING: 0.0625
Info: NONBONDED TABLE SIZE: 705 POINTS
TCL: Running for 1500000 steps
ETITLE: TS BOND ANGLE DIHED IMPRP ELECT VDW BOUNDARY MISC KINETIC TOTAL TEMP POTENTIAL TOTALAVG TEMPAVG PRESSURE GPRESSURE VOLUME PRESSAVG GPRESSAVG
ENERGY: 0 3.0886 1.0914 3.3061 0.0000 -10723.0494 1293.6682 0.0000 0.0000 1803.9911 -7617.9039 303.5138 -9421.8951 -7617.9039 303.5138 -1541.4193 -1461.0058 30960.0869 -1541.4193 -1461.0058
ENERGY: 300000 0.5316 3.0567 2.2478 0.0000 -10785.5366 1467.5669 0.0000 0.0000 1783.4214 -7528.7124 300.0530 -9312.1337 -7584.1104 297.0526 33.7370 88.9807 31249.5718 -509.5063 -464.6460
ENERGY: 600000 0.9342 3.6321 3.5202 0.0000 -11001.9087 1602.9866 0.0000 0.0000 1809.0080 -7581.8276 304.3578 -9390.8356 -7590.6006 299.4503 1244.4317 1330.6390 30372.4054 -109.7492 -65.1034
ENERGY: 900000 1.8850 3.0637 2.4157 0.0000 -10816.5029 1416.2639 0.0000 0.0000 1761.4170 -7631.4576 296.3508 -9392.8746 -7594.1002 299.6304 -743.8556 -703.6924 31411.8042 -231.9732 -185.0349
ENERGY: 1200000 1.5397 4.6705 3.6330 0.0000 -10879.9674 1504.9133 0.0000 0.0000 1774.9327 -7590.2782 298.6248 -9365.2109 -7583.1891 300.0861 190.7818 301.3446 31044.8988 -231.5266 -177.7347
ENERGY: 1500000 0.9726 2.2969 1.4127 0.0000 -10804.9754 1440.7861 0.0000 0.0000 1801.5390 -7557.9681 303.1012 -9359.5071 -7578.9431 300.9272 -287.1547 -193.8417 30911.9249 -201.3122 -148.5408
TCL: Running FEP window  16: Lambda1 0.24999999999999967 Lambda2 0.19999999999999968 [dLambda -0.04999999999999999]
TCL: Setting parameter firsttimestep to 0
TCL: Setting parameter alchLambda to 0.24999999999999967
Info: NONBONDED TABLE R-SQUARED SPACING: 0.0625
Info: NONBONDED TABLE SIZE: 705 POINTS
TCL: Setting parameter alchLambda2 to 0.19999999999999968
Info: NONBONDED TABLE R-SQUARED SPACING: 0.0625
Info: NONBONDED TABLE SIZE: 705 POINTS
TCL: Running for 1500000 steps
ETITLE: TS BOND ANGLE DIHED IMPRP ELECT VDW BOUNDARY MISC KINETIC TOTAL TEMP POTENTIAL TOTALAVG TEMPAVG PRESSURE GPRESSURE VOLUME PRESSAVG GPRESSAVG
ENERGY: 0 0.9726 2.2969 1.4127 0.0000 -10804.9753 1440.7999 0.0000 0.0000 1800.6338 -7558.8593 302.9489 -9359.4932 -7558.8593 302.9489 -281.6979 -200.6286 30911.9249 -281.6979 -200.6286
ENERGY: 300000 1.0091 3.1921 3.4353 0.0000 -10844.1523 1443.6579 0.0000 0.0000 1825.1395 -7567.7184 307.0719 -9392.8579 -7617.3815 299.4170 -7.1354 0.3880 30722.6718 44.3045 94.7903
ENERGY: 600000 1.2978 3.7037 3.2928 0.0000 -10671.4526 1343.8881 0.0000 0.0000 1783.2520 -7536.0181 300.0245 -9319.2701 -7596.1755 298.7441 -506.1370 -428.0630 30420.3395 -253.5730 -190.3084
ENERGY: 900000 3.3518 3.3490 7.6203 0.0000 -10902.1637 1487.2000 0.0000 0.0000 1777.2118 -7623.4307 299.0083 -9400.6425 -7595.2259 298.2816 217.6799 267.5878 30713.2346 -240.3657 -179.5540
ENERGY: 1200000 4.4306 3.2700 7.0549 0.0000 -10854.2987 1414.2593 0.0000 0.0000 1739.6880 -7685.5959 292.6950 -9425.2840 -7607.0830 297.7716 -402.7053 -296.6129 30393.9843 -238.0337 -173.2055
ENERGY: 1500000 3.0279 3.8820 3.2864 0.0000 -10724.1636 1374.3956 0.0000 0.0000 1831.0333 -7508.5384 308.0635 -9339.5717 -7600.3206 299.4369 -666.4406 -576.3669 30652.0796 -230.5251 -169.4169
TCL: Running FEP window  17: Lambda1 0.19999999999999968 Lambda2 0.1499999999999997 [dLambda -0.04999999999999999]
TCL: Setting parameter firsttimestep to 0
TCL: Setting parameter alchLambda to 0.19999999999999968
Info: NONBONDED TABLE R-SQUARED SPACING: 0.0625
Info: NONBONDED TABLE SIZE: 705 POINTS
TCL: Setting parameter alchLambda2 to 0.1499999999999997
Info: NONBONDED TABLE R-SQUARED SPACING: 0.0625
Info: NONBONDED TABLE SIZE: 705 POINTS
TCL: Running for 1500000 steps
ETITLE: TS BOND ANGLE DIHED IMPRP ELECT VDW BOUNDARY MISC KINETIC TOTAL TEMP POTENTIAL TOTALAVG TEMPAVG PRESSURE GPRESSURE VOLUME PRESSAVG GPRESSAVG
ENERGY: 0 3.0279 3.8820 3.2864 0.0000 -10724.1622 1374.4031 0.0000 0.0000 1830.1383 -7509.4245 307.9129 -9339.5628 -7509.4245 307.9129 -671.6864 -578.7286 30652.0796 -671.6864 -578.7286
ENERGY: 300000 9.1312 4.4384 3.7550 0.0000 -10736.1246 1398.9588 0.0000 0.0000 1773.6731 -7546.1681 298.4129 -9319.8412 -7535.6195 304.4986 -342.0420 -294.0912 30639.6754 -631.7407 -564.0474
ENERGY: 600000 4.0579 3.2328 4.8702 0.0000 -10906.5065 1424.5041 0.0000 0.0000 1728.8874 -7740.9541 290.8779 -9469.8415 -7568.0325 302.2366 -560.3148 -506.4609 30384.9534 -362.0795 -308.7916
ENERGY: 900000 0.6929 1.7996 4.7648 0.0000 -10873.7708 1494.5081 0.0000 0.0000 1837.6702 -7534.3352 309.1801 -9372.0053 -7575.7441 302.4268 136.9636 241.2602 30913.8023 -279.9381 -212.8943
ENERGY: 1200000 1.4711 4.1882 2.2096 0.0000 -10940.0899 1433.5637 0.0000 0.0000 1785.8192 -7712.8382 300.4564 -9498.6573 -7580.3746 302.3979 -763.7689 -730.2018 31135.2000 -293.2758 -237.7348
ENERGY: 1500000 5.6550 2.2466 3.9553 0.0000 -10754.1506 1423.9150 0.0000 0.0000 1804.5408 -7513.8379 303.6062 -9318.3787 -7587.7244 301.7852 -456.3727 -420.0110 31022.7913 -239.0967 -183.5138
TCL: Running FEP window  18: Lambda1 0.1499999999999997 Lambda2 0.09999999999999969 [dLambda -0.05 ]
TCL: Setting parameter firsttimestep to 0
TCL: Setting parameter alchLambda to 0.1499999999999997
Info: NONBONDED TABLE R-SQUARED SPACING: 0.0625
Info: NONBONDED TABLE SIZE: 705 POINTS
TCL: Setting parameter alchLambda2 to 0.09999999999999969
Info: NONBONDED TABLE R-SQUARED SPACING: 0.0625
Info: NONBONDED TABLE SIZE: 705 POINTS
TCL: Running for 1500000 steps
ETITLE: TS BOND ANGLE DIHED IMPRP ELECT VDW BOUNDARY MISC KINETIC TOTAL TEMP POTENTIAL TOTALAVG TEMPAVG PRESSURE GPRESSURE VOLUME PRESSAVG GPRESSAVG
ENERGY: 0 5.6550 2.2466 3.9553 0.0000 -10754.1483 1423.0687 0.0000 0.0000 1803.6710 -7515.5517 303.4599 -9319.2226 -7515.5517 303.4599 -509.6454 -431.8602 31022.7913 -509.6454 -431.8602
ENERGY: 300000 0.7807 1.5135 3.4441 0.0000 -10942.5012 1472.4639 0.0000 0.0000 1784.5747 -7679.7242 300.2470 -9464.2989 -7597.0879 301.9776 -15.8201 47.5676 30437.9681 -33.6144 48.1590
ENERGY: 600000 0.8420 4.5895 4.6230 0.0000 -10741.8946 1423.3607 0.0000 0.0000 1794.0154 -7514.4640 301.8354 -9308.4794 -7572.6159 302.2614 -100.4369 -43.0607 30791.5738 -19.2577 52.0239
ENERGY: 900000 0.5430 4.1929 3.8213 0.0000 -10795.0440 1423.1902 0.0000 0.0000 1775.9195 -7587.3772 298.7908 -9363.2966 -7572.0996 302.6673 -329.9313 -198.8376 30659.0462 -63.5786 13.3376
ENERGY: 1200000 1.1799 3.7146 2.8142 0.0000 -10812.3961 1428.0215 0.0000 0.0000 1798.3439 -7578.3220 302.5636 -9376.6659 -7573.1602 302.3667 -398.1070 -353.3431 31167.3215 23.4461 89.6795
ENERGY: 1500000 3.0492 5.4655 5.0151 0.0000 -10831.4157 1418.5406 0.0000 0.0000 1760.1007 -7639.2445 296.1294 -9399.3453 -7577.7278 301.1359 -731.9250 -632.3714 31109.2792 -65.1811 5.4562
TCL: Running FEP window  19: Lambda1 0.09999999999999969 Lambda2 0.049999999999999684 [dLambda -0.05 ]
TCL: Setting parameter firsttimestep to 0
TCL: Setting parameter alchLambda to 0.09999999999999969
Info: NONBONDED TABLE R-SQUARED SPACING: 0.0625
Info: NONBONDED TABLE SIZE: 705 POINTS
TCL: Setting parameter alchLambda2 to 0.049999999999999684
Info: NONBONDED TABLE R-SQUARED SPACING: 0.0625
Info: NONBONDED TABLE SIZE: 705 POINTS
TCL: Running for 1500000 steps
ETITLE: TS BOND ANGLE DIHED IMPRP ELECT VDW BOUNDARY MISC KINETIC TOTAL TEMP POTENTIAL TOTALAVG TEMPAVG PRESSURE GPRESSURE VOLUME PRESSAVG GPRESSAVG
ENERGY: 0 3.0492 5.4655 5.0151 0.0000 -10831.4164 1418.3844 0.0000 0.0000 1759.2198 -7640.2823 295.9812 -9399.5021 -7640.2823 295.9812 -724.9516 -634.6044 31109.2792 -724.9516 -634.6044
ENERGY: 300000 3.0847 3.3416 2.3147 0.0000 -10816.8953 1389.0877 0.0000 0.0000 1792.0523 -7627.0144 301.5051 -9419.0667 -7600.1058 298.6457 -534.6884 -447.3259 30277.1822 -285.3003 -205.8526
ENERGY: 600000 2.0326 7.1967 2.2361 0.0000 -10835.9624 1421.7001 0.0000 0.0000 1797.2959 -7605.5009 302.3873 -9402.7968 -7597.3402 298.9632 -465.2716 -342.9277 30606.8284 -326.0876 -237.8228
ENERGY: 900000 4.2728 4.0577 1.7784 0.0000 -10947.3819 1485.4297 0.0000 0.0000 1786.2718 -7665.5714 300.5325 -9451.8432 -7599.0695 300.4698 -131.3922 -55.5450 30510.6576 -342.4107 -268.8946
ENERGY: 1200000 4.3021 3.9167 3.3867 0.0000 -10850.1410 1484.2936 0.0000 0.0000 1772.5984 -7581.6435 298.2321 -9354.2419 -7595.1127 300.5217 353.1435 417.0487 30232.2151 -295.9442 -226.4703
ENERGY: 1500000 1.8079 4.3472 5.3712 0.0000 -10837.1789 1485.9317 0.0000 0.0000 1749.4996 -7590.2212 294.3458 -9339.7208 -7592.7844 300.5574 -14.6543 37.0799 31169.1789 -200.2702 -128.3389
TCL: Running FEP window  20: Lambda1 0.049999999999999684 Lambda2 0.0    [dLambda -0.049999999999999684]
TCL: Setting parameter firsttimestep to 0
TCL: Setting parameter alchLambda to 0.049999999999999684
Info: NONBONDED TABLE R-SQUARED SPACING: 0.0625
Info: NONBONDED TABLE SIZE: 705 POINTS
TCL: Setting parameter alchLambda2 to 0.0
Info: NONBONDED TABLE R-SQUARED SPACING: 0.0625
Info: NONBONDED TABLE SIZE: 705 POINTS
TCL: Running for 1500000 steps
ETITLE: TS BOND ANGLE DIHED IMPRP ELECT VDW BOUNDARY MISC KINETIC TOTAL TEMP POTENTIAL TOTALAVG TEMPAVG PRESSURE GPRESSURE VOLUME PRESSAVG GPRESSAVG
ENERGY: 0 1.8079 4.3472 5.3712 0.0000 -10837.1783 1485.4182 0.0000 0.0000 1748.5928 -7591.6410 294.1932 -9340.2337 -7591.6410 294.1932 -34.7646 34.2225 31169.1789 -34.7646 34.2225
ENERGY: 300000 1.6741 2.2969 1.9906 0.0000 -10818.2032 1413.5119 0.0000 0.0000 1788.1472 -7610.5825 300.8481 -9398.7297 -7610.5216 299.5045 -607.8984 -609.0363 31117.4426 -232.6389 -177.3065
ENERGY: 600000 1.4508 4.2979 4.6095 0.0000 -10924.7527 1511.5012 0.0000 0.0000 1802.5827 -7600.3106 303.2768 -9402.8933 -7605.3272 299.5989 247.3586 275.6294 30723.1711 -81.1009 -21.3970
ENERGY: 900000 1.2469 2.8530 9.5917 0.0000 -10743.3804 1421.1261 0.0000 0.0000 1795.8417 -7512.7210 302.1426 -9308.5627 -7602.4425 301.0846 -367.8464 -299.5146 31096.1463 -59.7916 0.0860
ENERGY: 1200000 1.1000 4.5515 2.9840 0.0000 -10958.3021 1540.0979 0.0000 0.0000 1820.4056 -7589.1631 306.2754 -9409.5687 -7605.2698 300.5063 614.3662 663.1860 30615.8521 -68.9289 -9.0343
ENERGY: 1500000 2.2029 3.6659 1.9305 0.0000 -10783.5940 1442.3718 0.0000 0.0000 1780.6297 -7552.7932 299.5833 -9333.4229 -7603.3933 300.4276 -537.9374 -437.6335 31180.2106 -106.0728 -37.1662
TCL: Exiting due to exit command.
