Info: SIMULATION PARAMETERS:
Info: TIMESTEP               2
Info: NUMBER OF STEPS        0
Info: STEPS PER CYCLE        10
Info: PERIODIC CELL BASIS 1  32.1139 0 0
Info: PERIODIC CELL BASIS 2  0 30.3251 0
Info: PERIODIC CELL BASIS 3  0 0 31.774
Info: PERIODIC CELL CENTER   0 0 0
Info: WRAPPING WATERS AROUND PERIODIC BOUNDARIES ON OUTPUT.
Info: WRAPPING ALL CLUSTERS AROUND PERIODIC BOUNDARIES ON OUTPUT.
Info: FIRST LDB TIMESTEP     50
Info: LAST LDB TIMESTEP     -1
Info: HOM BACKGROUND SCALING 1
Info: PME BACKGROUND SCALING 1
Info: MIN ATOMS PER PATCH    40
Info: EMPTY PATCH LOAD       40 ATOMS
Info: VELOCITY FILE          mobley_1987439_equil.vel
Info: CENTER OF MASS MOVING INITIALLY? NO
Info: DIELECTRIC             1
Info: EXCLUDE                SCALED ONE-FOUR
Info: 1-4 ELECTROSTATICS SCALED BY 0.833333
Info: MODIFIED 1-4 VDW PARAMETERS WILL BE USED
Info: DCD FILENAME           mobley_1987439_prod.dcd
Info: DCD FREQUENCY          100000
Info: DCD FIRST STEP         100000
Info: DCD FILE WILL CONTAIN UNIT CELL DATA
Info: XST FILENAME           mobley_1987439_prod.xst
Info: XST FREQUENCY          100000
Info: NO VELOCITY DCD OUTPUT
Info: NO FORCE DCD OUTPUT
Info: OUTPUT FILENAME        mobley_1987439_prod
Info: BINARY OUTPUT FILES WILL BE USED
Info: RESTART FILENAME       mobley_1987439_prod.restart
Info: RESTART FREQUENCY      100000
Info: BINARY RESTART FILES WILL BE USED
Info: CUTOFF                 9
Info: PAIRLIST DISTANCE      11
Info: PAIRLIST SHRINK RATE   0.01
Info: PAIRLIST GROW RATE     0.01
Info: PAIRLIST TRIGGER       0.3
Info: PAIRLISTS PER CYCLE    2
Info: PAIRLISTS ENABLED
Info: MARGIN                 2
Info: HYDROGEN GROUP CUTOFF  2.5
Info: PATCH DIMENSION        15.5
Info: ENERGY OUTPUT STEPS    100000
Info: ENERGY EVALUATION STEPS    100000
Info: OUTPUT ENERGY PRECISION 4
Info: CROSSTERM ENERGY INCLUDED IN DIHEDRAL
Info: TIMING OUTPUT STEPS    1000000
Info: PRESSURE OUTPUT STEPS  100000
Info: ALCHEMICAL FEP ON
Info: FEP CURRENT LAMBDA VALUE     1
Info: FEP COMPARISON LAMBDA VALUE  0.95
Info: FEP INTRA-ALCHEMICAL NON-BONDED INTERACTIONS WILL BE RETAINED
Info: FEP INTRA-ALCHEMICAL BONDED INTERACTIONS WILL BE RETAINED
Info: FEP VDW SHIFTING COEFFICIENT 5
Info: FEP ELEC. ACTIVE FOR ANNIHILATED PARTICLES BETWEEN LAMBDA = 0 AND LAMBDA = 0.5
Info: FEP ELEC. ACTIVE FOR EXNIHILATED PARTICLES BETWEEN LAMBDA = 0.5 AND LAMBDA = 1
Info: FEP VDW ACTIVE FOR ANNIHILATED PARTICLES BETWEEN LAMBDA = 0 AND LAMBDA = 1
Info: FEP VDW ACTIVE FOR EXNIHILATED PARTICLES BETWEEN LAMBDA = 0 AND LAMBDA = 1
Info: FEP BOND ACTIVE FOR ANNIHILATED PARTICLES BETWEEN LAMBDA = 1 AND LAMBDA = 1
Info: FEP BOND ACTIVE FOR EXNIHILATED PARTICLES BETWEEN LAMBDA = 0 AND LAMBDA = 0
Info: LANGEVIN DYNAMICS ACTIVE
Info: LANGEVIN TEMPERATURE   300
Info: LANGEVIN USING BBK INTEGRATOR
Info: LANGEVIN DAMPING COEFFICIENT IS 1 INVERSE PS
Info: LANGEVIN DYNAMICS APPLIED TO HYDROGENS
Info: LANGEVIN PISTON PRESSURE CONTROL ACTIVE
Info:        TARGET PRESSURE IS 1.01325 BAR
Info:     OSCILLATION PERIOD IS 50 FS
Info:             DECAY TIME IS 25 FS
Info:     PISTON TEMPERATURE IS 300 K
Info:       PRESSURE CONTROL IS GROUP-BASED
Info:    INITIAL STRAIN RATE IS -0.000286163 -0.000286163 -0.000286163
Info:       CELL FLUCTUATION IS ISOTROPIC
Info: PARTICLE MESH EWALD (PME) ACTIVE
Info: PME TOLERANCE               1e-06
Info: PME EWALD COEFFICIENT       0.348832
Info: PME INTERPOLATION ORDER     4
Info: PME GRID DIMENSIONS         36 32 32
Info: PME MAXIMUM GRID SPACING    1
Info: PME CALCULATION WILL BE PERFORMED ON GPU
Info: FULL ELECTROSTATIC EVALUATION FREQUENCY      2
Info: USING VERLET I (r-RESPA) MTS SCHEME.
Info: C1 SPLITTING OF LONG RANGE ELECTROSTATICS
Info: PLACING ATOMS IN PATCHES BY HYDROGEN GROUPS
Info: RIGID BONDS TO HYDROGEN : ALL
Info:         ERROR TOLERANCE : 1e-08
Info:          MAX ITERATIONS : 100
Info: RIGID WATER USING SETTLE ALGORITHM
Info: RANDOM NUMBER SEED     1743636919
Info: USE HYDROGEN BONDS?    NO
Info: Using AMBER format force field!
Info: AMBER PARM FILE        mobley_1987439.prmtop
Info: COORDINATE PDB         mobley_1987439.pdb
Info: Exclusions will be read from PARM file!
Info: SCNB (VDW SCALING)     2
Info: USING ARITHMETIC MEAN TO COMBINE L-J SIGMA PARAMETERS
Info: BINARY COORDINATES     mobley_1987439_equil.coor
Info: SUMMARY OF PARAMETERS:
Info: 6 BONDS
Info: 5 ANGLES
Info:   5 HARMONIC
Info:   0 COSINE-BASED
Info: 3 DIHEDRAL
Info: 0 IMPROPER
Info: 0 CROSSTERM
Info: 0 VDW
Info: 21 VDW_PAIRS
Info: 0 NBTHOLE_PAIRS
Info: To read alchdata from file: mobley_1987439.pdb
Info: To read alchflag data from column: 5
Info: STRUCTURE SUMMARY:
Info: 2958 ATOMS
Info: 2958 BONDS
Info: 36 ANGLES
Info: 48 DIHEDRALS
Info: 0 IMPROPERS
Info: 0 CROSSTERMS
Info: 3033 EXCLUSIONS
Info: 2949 RIGID BONDS
Info: ALCH: 0 ATOMS TO DISAPPEAR IN FINAL STATE
Info: ALCH: 21 ATOMS TO APPEAR IN FINAL STATE
Info: 5925 DEGREES OF FREEDOM
Info: 988 HYDROGEN GROUPS
Info: 4 ATOMS IN LARGEST HYDROGEN GROUP
Info: 988 MIGRATION GROUPS
Info: 4 ATOMS IN LARGEST MIGRATION GROUP
Info: TOTAL MASS = 17757.9 amu
Info: TOTAL CHARGE = 0.000400022 e
Info: MASS DENSITY = 0.952976 g/cm^3
Info: ATOM DENSITY = 0.095594 atoms/A^3
Info: ADDED 0 IMPLICIT EXCLUSIONS
Info: NONBONDED TABLE R-SQUARED SPACING: 0.0625
Info: NONBONDED TABLE SIZE: 705 POINTS
Info: REMOVING COM VELOCITY -0.121461 0.0366976 -0.0206522
Info: Use 3D box decompostion in PME FFT.
Info: Updated CUDA force table with 4096 elements.
Info: Updated CUDA LJ table with 6 x 6 elements.
Info: Found 24 unique exclusion lists needing 68 bytes
TCL: Running for 1500000 steps
ETITLE: TS BOND ANGLE DIHED IMPRP ELECT VDW BOUNDARY MISC KINETIC TOTAL TEMP POTENTIAL TOTALAVG TEMPAVG PRESSURE GPRESSURE VOLUME PRESSAVG GPRESSAVG
ENERGY: 0 2.2748 6.6833 2.2055 0.0000 -10486.7864 1315.2549 0.0000 0.0000 1728.7376 -7431.6303 293.6507 -9160.3679 -7431.6303 293.6507 -776.9727 -693.7758 30943.3762 -776.9727 -693.7758
ENERGY: 300000 2.8561 5.3378 1.4759 0.0000 -10754.9761 1464.6053 0.0000 0.0000 1749.6773 -7531.0237 297.2077 -9280.7010 -7488.0341 297.7365 369.7791 386.3294 30268.1095 103.0848 169.4812
ENERGY: 600000 2.7339 10.5792 1.5805 0.0000 -10629.1148 1348.6884 0.0000 0.0000 1796.0894 -7469.4434 305.0914 -9265.5329 -7494.1885 299.2303 -610.9539 -559.1702 30558.1132 -101.8567 -40.1699
ENERGY: 900000 4.3850 6.4504 1.9061 0.0000 -10671.1508 1463.7246 0.0000 0.0000 1766.8026 -7427.8821 300.1166 -9194.6847 -7488.8071 300.1133 184.5349 260.1017 30691.2495 -1.4868 61.6181
ENERGY: 1200000 4.5171 3.9843 1.7684 0.0000 -10771.4116 1480.1444 0.0000 0.0000 1734.6602 -7546.3373 294.6568 -9280.9975 -7494.4959 299.4808 -99.9768 -51.8438 30941.4006 168.8005 229.0552
ENERGY: 1500000 3.1524 8.7706 2.7840 0.0000 -10641.4466 1403.8915 0.0000 0.0000 1765.1088 -7457.7392 299.8289 -9222.8481 -7494.6226 298.8889 -175.9688 -52.0854 30552.4710 130.9530 197.2289
TCL: Running FEP window   2: Lambda1 0.95   Lambda2 0.8999999999999999 [dLambda -0.050000000000000044]
TCL: Setting parameter firsttimestep to 0
TCL: Setting parameter alchLambda to 0.95
Info: NONBONDED TABLE R-SQUARED SPACING: 0.0625
Info: NONBONDED TABLE SIZE: 705 POINTS
TCL: Setting parameter alchLambda2 to 0.8999999999999999
Info: NONBONDED TABLE R-SQUARED SPACING: 0.0625
Info: NONBONDED TABLE SIZE: 705 POINTS
TCL: Running for 1500000 steps
ETITLE: TS BOND ANGLE DIHED IMPRP ELECT VDW BOUNDARY MISC KINETIC TOTAL TEMP POTENTIAL TOTALAVG TEMPAVG PRESSURE GPRESSURE VOLUME PRESSAVG GPRESSAVG
ENERGY: 0 3.1524 8.7706 2.7840 0.0000 -10640.5959 1403.6071 0.0000 0.0000 1764.2009 -7458.0809 299.6747 -9222.2818 -7458.0809 299.6747 -147.1960 -72.0073 30552.4710 -147.1960 -72.0073
ENERGY: 300000 4.7843 9.0354 4.0025 0.0000 -10609.1954 1470.6643 0.0000 0.0000 1729.1675 -7391.5414 293.7238 -9120.7089 -7462.9818 298.3238 401.9246 478.2718 30899.6744 -194.3502 -120.2198
ENERGY: 600000 3.0564 10.0564 2.7257 0.0000 -10928.9994 1497.0393 0.0000 0.0000 1801.7164 -7614.4052 306.0472 -9416.1216 -7470.9682 301.0330 163.7236 247.6649 30061.8863 -161.3125 -96.6977
ENERGY: 900000 4.9203 6.9456 2.4237 0.0000 -10651.3007 1455.6164 0.0000 0.0000 1683.2503 -7498.1444 285.9241 -9181.3948 -7479.4288 299.0590 -99.5780 -20.6766 30748.2400 20.2118 74.2863
ENERGY: 1200000 4.4113 5.8716 2.8544 0.0000 -10670.7773 1407.0414 0.0000 0.0000 1750.0573 -7500.5413 297.2722 -9250.5986 -7477.9994 299.4426 -304.4658 -170.3525 30190.2122 73.7442 131.9443
ENERGY: 1500000 3.3989 5.1588 3.5421 0.0000 -10595.7578 1371.6690 0.0000 0.0000 1752.2475 -7459.7414 297.6442 -9211.9889 -7486.6779 298.2579 -547.1051 -482.6244 30349.3443 -11.9214 47.4381
TCL: Running FEP window   3: Lambda1 0.8999999999999999 Lambda2 0.8499999999999999 [dLambda -0.050000000000000044]
TCL: Setting parameter firsttimestep to 0
TCL: Setting parameter alchLambda to 0.8999999999999999
Info: NONBONDED TABLE R-SQUARED SPACING: 0.0625
Info: NONBONDED TABLE SIZE: 705 POINTS
TCL: Setting parameter alchLambda2 to 0.8499999999999999
Info: NONBONDED TABLE R-SQUARED SPACING: 0.0625
Info: NONBONDED TABLE SIZE: 705 POINTS
TCL: Running for 1500000 steps
ETITLE: TS BOND ANGLE DIHED IMPRP ELECT VDW BOUNDARY MISC KINETIC TOTAL TEMP POTENTIAL TOTALAVG TEMPAVG PRESSURE GPRESSURE VOLUME PRESSAVG GPRESSAVG
ENERGY: 0 3.3989 5.1588 3.5421 0.0000 -10595.3495 1372.1830 0.0000 0.0000 1751.3884 -7459.6783 297.4983 -9211.0667 -7459.6783 297.4983 -575.1578 -486.3202 30349.3443 -575.1578 -486.3202
ENERGY: 300000 2.5921 6.6107 1.9106 0.0000 -10737.8484 1399.7129 0.0000 0.0000 1793.4743 -7533.5479 304.6472 -9327.0222 -7486.0312 300.7855 -195.7448 -200.3842 29829.7200 -174.5066 -142.0365
ENERGY: 600000 3.0432 8.8585 1.6324 0.0000 -10732.0140 1452.2925 0.0000 0.0000 1754.9367 -7511.2507 298.1010 -9266.1874 -7482.5930 302.4185 22.6397 56.3612 30419.5089 -325.1880 -271.1301
ENERGY: 900000 3.4951 7.0996 1.7935 0.0000 -10696.3090 1438.9657 0.0000 0.0000 1749.3663 -7495.5888 297.1548 -9244.9552 -7487.6651 301.6942 2.4510 15.6618 30280.3949 -198.5824 -156.6231
ENERGY: 1200000 2.9596 17.2757 3.3930 0.0000 -10622.3313 1440.3032 0.0000 0.0000 1792.1247 -7366.2751 304.4180 -9158.3998 -7477.8699 301.4683 144.5558 210.4308 30428.3045 -103.7798 -51.7278
ENERGY: 1500000 1.7030 6.6676 2.9609 0.0000 -10734.8420 1472.4888 0.0000 0.0000 1767.7318 -7483.2897 300.2745 -9251.0215 -7483.2088 300.4346 359.5489 406.6005 30258.2918 -3.5293 47.2284
TCL: Running FEP window   4: Lambda1 0.8499999999999999 Lambda2 0.7999999999999998 [dLambda -0.050000000000000044]
TCL: Setting parameter firsttimestep to 0
TCL: Setting parameter alchLambda to 0.8499999999999999
Info: NONBONDED TABLE R-SQUARED SPACING: 0.0625
Info: NONBONDED TABLE SIZE: 705 POINTS
TCL: Setting parameter alchLambda2 to 0.7999999999999998
Info: NONBONDED TABLE R-SQUARED SPACING: 0.0625
Info: NONBONDED TABLE SIZE: 705 POINTS
TCL: Running for 1500000 steps
ETITLE: TS BOND ANGLE DIHED IMPRP ELECT VDW BOUNDARY MISC KINETIC TOTAL TEMP POTENTIAL TOTALAVG TEMPAVG PRESSURE GPRESSURE VOLUME PRESSAVG GPRESSAVG
ENERGY: 0 1.7030 6.6676 2.9609 0.0000 -10734.5228 1473.1861 0.0000 0.0000 1766.8411 -7483.1640 300.1232 -9250.0051 -7483.1640 300.1232 335.7988 405.4905 30258.2918 335.7988 405.4905
ENERGY: 300000 2.2461 5.8549 6.9565 0.0000 -10762.2978 1460.1480 0.0000 0.0000 1787.9598 -7499.1324 303.7105 -9287.0923 -7479.1083 301.2883 115.5650 188.1810 30350.1873 93.5054 141.6885
ENERGY: 600000 5.9899 11.5771 2.2596 0.0000 -10505.5488 1290.1423 0.0000 0.0000 1736.3657 -7459.2142 294.9465 -9195.5799 -7486.1343 298.8389 -1191.0484 -1170.5921 30871.2379 -97.9589 -52.0550
ENERGY: 900000 1.7719 9.7130 0.7513 0.0000 -10673.0734 1411.0992 0.0000 0.0000 1662.7944 -7586.9436 282.4494 -9249.7380 -7487.0819 298.4153 -276.5172 -265.9997 30605.2482 -160.0124 -110.6015
ENERGY: 1200000 1.1516 5.9566 1.6514 0.0000 -10645.9358 1435.4759 0.0000 0.0000 1769.3218 -7432.3786 300.5446 -9201.7005 -7478.5375 298.1505 60.1608 90.7315 30806.5646 -54.1339 -4.1475
ENERGY: 1500000 1.2144 8.8542 4.6592 0.0000 -10840.0508 1520.2941 0.0000 0.0000 1750.1885 -7554.8404 297.2945 -9305.0289 -7486.8957 297.6788 515.7618 592.2202 30402.0967 -20.1424 36.9555
TCL: Running FEP window   5: Lambda1 0.7999999999999998 Lambda2 0.7499999999999998 [dLambda -0.050000000000000044]
TCL: Setting parameter firsttimestep to 0
TCL: Setting parameter alchLambda to 0.7999999999999998
Info: NONBONDED TABLE R-SQUARED SPACING: 0.0625
Info: NONBONDED TABLE SIZE: 705 POINTS
TCL: Setting parameter alchLambda2 to 0.7499999999999998
Info: NONBONDED TABLE R-SQUARED SPACING: 0.0625
Info: NONBONDED TABLE SIZE: 705 POINTS
TCL: Running for 1500000 steps
ETITLE: TS BOND ANGLE DIHED IMPRP ELECT VDW BOUNDARY MISC KINETIC TOTAL TEMP POTENTIAL TOTALAVG TEMPAVG PRESSURE GPRESSURE VOLUME PRESSAVG GPRESSAVG
ENERGY: 0 1.2144 8.8542 4.6592 0.0000 -10839.8756 1520.2718 0.0000 0.0000 1749.3262 -7555.5497 297.1480 -9304.8759 -7555.5497 297.1480 502.1743 579.3925 30402.0967 502.1743 579.3925
ENERGY: 300000 2.5698 6.9834 3.0647 0.0000 -10572.2030 1384.0967 0.0000 0.0000 1778.2597 -7397.2287 302.0628 -9175.4884 -7504.3176 300.3103 -270.2497 -174.4019 30328.5532 164.5327 226.6593
ENERGY: 600000 3.1476 6.7712 1.0858 0.0000 -10696.7874 1428.2634 0.0000 0.0000 1756.6385 -7500.8809 298.3901 -9257.5194 -7500.6369 301.3152 209.6044 268.4773 29942.8225 96.6179 152.5650
ENERGY: 900000 1.6847 9.3471 5.2259 0.0000 -10822.7995 1526.7793 0.0000 0.0000 1736.5838 -7543.1786 294.9835 -9279.7624 -7498.5014 300.3583 390.3616 393.9897 30741.1065 87.8581 142.3237
ENERGY: 1200000 4.0073 6.6049 6.3572 0.0000 -10683.1620 1446.0630 0.0000 0.0000 1757.0115 -7463.1181 298.4535 -9220.1296 -7486.1830 300.5996 52.9357 159.4053 30476.8520 110.0402 172.1431
ENERGY: 1500000 1.1806 6.9903 1.1405 0.0000 -10741.5688 1482.0030 0.0000 0.0000 1818.2539 -7432.0005 308.8564 -9250.2543 -7475.3893 300.6847 437.7526 502.1551 30319.6227 48.5094 119.8167
TCL: Running FEP window   6: Lambda1 0.7499999999999998 Lambda2 0.6999999999999997 [dLambda -0.050000000000000044]
TCL: Setting parameter firsttimestep to 0
TCL: Setting parameter alchLambda to 0.7499999999999998
Info: NONBONDED TABLE R-SQUARED SPACING: 0.0625
Info: NONBONDED TABLE SIZE: 705 POINTS
TCL: Setting parameter alchLambda2 to 0.6999999999999997
Info: NONBONDED TABLE R-SQUARED SPACING: 0.0625
Info: NONBONDED TABLE SIZE: 705 POINTS
TCL: Running for 1500000 steps
ETITLE: TS BOND ANGLE DIHED IMPRP ELECT VDW BOUNDARY MISC KINETIC TOTAL TEMP POTENTIAL TOTALAVG TEMPAVG PRESSURE GPRESSURE VOLUME PRESSAVG GPRESSAVG
ENERGY: 0 1.1806 6.9903 1.1405 0.0000 -10741.3498 1482.4935 0.0000 0.0000 1817.3957 -7432.1492 308.7106 -9249.5448 -7432.1492 308.7106 406.0631 497.9699 30319.6227 406.0631 497.9699
ENERGY: 300000 3.2071 5.8547 1.4258 0.0000 -10610.2558 1388.7399 0.0000 0.0000 1771.8912 -7439.1372 300.9810 -9211.0283 -7467.5820 300.6956 -59.2414 -32.9798 30387.8563 122.3582 192.4848
ENERGY: 600000 1.5970 5.2646 1.8993 0.0000 -10761.0872 1467.3108 0.0000 0.0000 1816.6822 -7468.3333 308.5894 -9285.0155 -7495.3428 301.8316 265.9140 295.1958 30376.0962 209.5575 270.8100
ENERGY: 900000 3.2060 6.9953 2.8973 0.0000 -10896.4091 1549.4831 0.0000 0.0000 1760.1457 -7573.6817 298.9859 -9333.8274 -7495.5610 301.9532 474.9952 501.1897 30418.7306 99.7199 160.3780
ENERGY: 1200000 2.7956 5.1928 1.3910 0.0000 -10710.5639 1490.1752 0.0000 0.0000 1753.3601 -7457.6493 297.8332 -9211.0094 -7488.6912 301.5127 707.1865 780.3101 30282.0363 105.8793 162.7049
ENERGY: 1500000 3.2997 9.5821 2.5748 0.0000 -10658.5405 1408.4950 0.0000 0.0000 1768.7136 -7465.8753 300.4412 -9234.5889 -7478.7545 301.8780 -8.5096 81.1005 30105.3516 135.0732 189.5714
TCL: Running FEP window   7: Lambda1 0.6999999999999997 Lambda2 0.6499999999999997 [dLambda -0.050000000000000044]
TCL: Setting parameter firsttimestep to 0
TCL: Setting parameter alchLambda to 0.6999999999999997
Info: NONBONDED TABLE R-SQUARED SPACING: 0.0625
Info: NONBONDED TABLE SIZE: 705 POINTS
TCL: Setting parameter alchLambda2 to 0.6499999999999997
Info: NONBONDED TABLE R-SQUARED SPACING: 0.0625
Info: NONBONDED TABLE SIZE: 705 POINTS
TCL: Running for 1500000 steps
ETITLE: TS BOND ANGLE DIHED IMPRP ELECT VDW BOUNDARY MISC KINETIC TOTAL TEMP POTENTIAL TOTALAVG TEMPAVG PRESSURE GPRESSURE VOLUME PRESSAVG GPRESSAVG
ENERGY: 0 3.2996 9.5821 2.5748 0.0000 -10657.5423 1408.5233 0.0000 0.0000 1767.8123 -7465.7501 300.2881 -9233.5624 -7465.7501 300.2881 -24.9467 74.1092 30105.3516 -24.9467 74.1092
ENERGY: 300000 4.1345 8.2394 4.8458 0.0000 -10654.4209 1400.3572 0.0000 0.0000 1780.2166 -7456.6273 302.3952 -9236.8439 -7441.0220 301.8704 -400.6595 -366.4007 30549.2689 -35.8226 30.5664
ENERGY: 600000 3.9633 6.3441 2.2638 0.0000 -10577.5756 1387.1874 0.0000 0.0000 1822.7532 -7355.0638 309.6206 -9177.8170 -7435.0450 303.5047 -441.0700 -360.7753 30898.1356 -101.1379 -35.5692
ENERGY: 900000 5.0211 6.5021 5.5343 0.0000 -10681.8030 1416.0386 0.0000 0.0000 1768.6021 -7480.1049 300.4223 -9248.7070 -7443.7965 301.6554 -156.8076 -115.0294 30130.8554 -89.2438 -27.8561
ENERGY: 1200000 2.4059 7.6948 1.0871 0.0000 -10660.7713 1464.8025 0.0000 0.0000 1743.6199 -7441.1612 296.1787 -9184.7811 -7438.5800 302.7734 189.3813 231.9478 30653.0081 -110.8783 -44.0189
ENERGY: 1500000 3.2538 4.3078 3.0254 0.0000 -10614.3990 1384.7556 0.0000 0.0000 1724.2054 -7494.8510 292.8809 -9219.0564 -7447.9517 301.6267 -921.1129 -812.9692 30973.2190 -141.6097 -75.2505
TCL: Running FEP window   8: Lambda1 0.6499999999999997 Lambda2 0.5999999999999996 [dLambda -0.050000000000000044]
TCL: Setting parameter firsttimestep to 0
TCL: Setting parameter alchLambda to 0.6499999999999997
Info: NONBONDED TABLE R-SQUARED SPACING: 0.0625
Info: NONBONDED TABLE SIZE: 705 POINTS
TCL: Setting parameter alchLambda2 to 0.5999999999999996
Info: NONBONDED TABLE R-SQUARED SPACING: 0.0625
Info: NONBONDED TABLE SIZE: 705 POINTS
TCL: Running for 1500000 steps
ETITLE: TS BOND ANGLE DIHED IMPRP ELECT VDW BOUNDARY MISC KINETIC TOTAL TEMP POTENTIAL TOTALAVG TEMPAVG PRESSURE GPRESSURE VOLUME PRESSAVG GPRESSAVG
ENERGY: 0 3.2538 4.3078 3.0254 0.0000 -10613.9323 1385.0526 0.0000 0.0000 1723.3155 -7494.9772 292.7297 -9218.2927 -7494.9772 292.7297 -908.3990 -816.8870 30973.2190 -908.3990 -816.8870
ENERGY: 300000 7.1711 6.8956 1.4761 0.0000 -10644.8476 1475.0309 0.0000 0.0000 1749.7328 -7404.5410 297.2171 -9154.2739 -7488.2998 294.0780 375.0591 510.9622 30318.4355 57.6782 164.7081
ENERGY: 600000 1.9412 5.2832 3.6524 0.0000 -10748.2331 1449.1911 0.0000 0.0000 1846.3788 -7441.7863 313.6338 -9288.1651 -7475.4660 300.0283 -123.7905 -70.1996 30351.9952 56.9828 139.4916
ENERGY: 900000 3.4211 4.4656 3.0374 0.0000 -10746.4010 1445.8380 0.0000 0.0000 1790.1776 -7499.4613 304.0872 -9289.6388 -7475.1317 300.6659 -3.1132 67.9443 30111.7865 -7.3789 65.9995
ENERGY: 1200000 2.1088 13.4038 1.0810 0.0000 -10486.0725 1324.7790 0.0000 0.0000 1722.8426 -7421.8573 292.6494 -9144.7000 -7481.6153 298.8815 -777.9220 -769.0826 30847.0771 -232.2228 -165.8501
ENERGY: 1500000 1.8992 8.1254 3.8257 0.0000 -10788.3675 1438.8429 0.0000 0.0000 1786.4070 -7549.2674 303.4467 -9335.6744 -7495.7927 299.1184 -357.2022 -269.5639 30354.3215 -217.3143 -152.1201
TCL: Running FEP window   9: Lambda1 0.5999999999999996 Lambda2 0.5499999999999996 [dLambda -0.050000000000000044]
TCL: Setting parameter firsttimestep to 0
TCL: Setting parameter alchLambda to 0.5999999999999996
Info: NONBONDED TABLE R-SQUARED SPACING: 0.0625
Info: NONBONDED TABLE SIZE: 705 POINTS
TCL: Setting parameter alchLambda2 to 0.5499999999999996
Info: NONBONDED TABLE R-SQUARED SPACING: 0.0625
Info: NONBONDED TABLE SIZE: 705 POINTS
TCL: Running for 1500000 steps
ETITLE: TS BOND ANGLE DIHED IMPRP ELECT VDW BOUNDARY MISC KINETIC TOTAL TEMP POTENTIAL TOTALAVG TEMPAVG PRESSURE GPRESSURE VOLUME PRESSAVG GPRESSAVG
ENERGY: 0 1.8992 8.1254 3.8257 0.0000 -10788.1905 1439.2094 0.0000 0.0000 1785.5245 -7549.6063 303.2968 -9335.1308 -7549.6063 303.2968 -358.1590 -271.6240 30354.3215 -358.1590 -271.6240
ENERGY: 300000 3.1434 6.6753 2.3467 0.0000 -10607.1506 1388.6243 0.0000 0.0000 1818.7958 -7387.5650 308.9484 -9206.3608 -7439.7535 304.5296 24.5212 66.6871 30280.4618 -143.9762 -98.1888
ENERGY: 600000 2.5761 7.3352 4.2115 0.0000 -10670.0846 1397.4505 0.0000 0.0000 1734.5709 -7523.9403 294.6416 -9258.5112 -7464.9242 300.9988 -248.9143 -202.8018 30106.8502 -207.3580 -153.5552
ENERGY: 900000 1.9760 7.4115 2.5605 0.0000 -10675.6010 1443.6444 0.0000 0.0000 1769.3398 -7450.6689 300.5476 -9220.0087 -7470.9546 301.3531 -2.3725 73.6654 30499.2031 -198.6843 -147.1645
ENERGY: 1200000 2.4289 7.9630 0.8474 0.0000 -10696.8171 1429.8560 0.0000 0.0000 1749.9401 -7505.7816 297.2523 -9255.7217 -7477.1473 301.3189 -42.6936 32.0144 30330.3238 -145.0935 -88.2377
ENERGY: 1500000 1.7780 8.4418 2.3940 0.0000 -10654.4358 1454.2273 0.0000 0.0000 1826.1359 -7361.4588 310.1952 -9187.5947 -7471.4689 301.7973 257.6973 317.2267 30462.5357 -137.0507 -85.5247
TCL: Running FEP window  10: Lambda1 0.5499999999999996 Lambda2 0.4999999999999996 [dLambda -0.04999999999999999]
TCL: Setting parameter firsttimestep to 0
TCL: Setting parameter alchLambda to 0.5499999999999996
Info: NONBONDED TABLE R-SQUARED SPACING: 0.0625
Info: NONBONDED TABLE SIZE: 705 POINTS
TCL: Setting parameter alchLambda2 to 0.4999999999999996
Info: NONBONDED TABLE R-SQUARED SPACING: 0.0625
Info: NONBONDED TABLE SIZE: 705 POINTS
TCL: Running for 1500000 steps
ETITLE: TS BOND ANGLE DIHED IMPRP ELECT VDW BOUNDARY MISC KINETIC TOTAL TEMP POTENTIAL TOTALAVG TEMPAVG PRESSURE GPRESSURE VOLUME PRESSAVG GPRESSAVG
ENERGY: 0 1.7780 8.4418 2.3940 0.0000 -10653.7075 1453.6996 0.0000 0.0000 1825.2589 -7362.1353 310.0463 -9187.3942 -7362.1353 310.0463 222.5655 303.7190 30462.5357 222.5655 303.7190
ENERGY: 300000 2.8285 7.5672 2.0593 0.0000 -10744.5618 1455.1391 0.0000 0.0000 1784.1814 -7492.7862 303.0687 -9276.9676 -7430.7906 303.3332 -46.1539 41.7301 30431.4914 -104.5530 -53.5367
ENERGY: 600000 1.3049 7.9320 2.3343 0.0000 -10817.0397 1563.0620 0.0000 0.0000 1786.4356 -7455.9709 303.4516 -9242.4065 -7438.0609 302.2036 901.2013 980.8444 30313.4984 -62.2316 -10.0287
ENERGY: 900000 4.0847 13.5684 2.2382 0.0000 -10763.5324 1466.5902 0.0000 0.0000 1803.1345 -7473.9165 306.2881 -9277.0510 -7465.3701 302.0855 135.5996 208.9526 30486.0277 19.1674 74.1118
ENERGY: 1200000 1.3998 9.6593 3.3160 0.0000 -10771.8225 1507.9888 0.0000 0.0000 1794.1165 -7455.3421 304.7563 -9249.4586 -7469.1285 301.8727 533.7646 595.7809 30285.7811 78.9987 137.0333
ENERGY: 1500000 3.8263 6.3200 3.7281 0.0000 -10535.8840 1330.6707 0.0000 0.0000 1791.0498 -7400.2891 304.2354 -9191.3389 -7465.7842 301.8284 -663.0753 -560.7172 30469.9685 -15.0817 43.9480
TCL: Running FEP window  11: Lambda1 0.4999999999999996 Lambda2 0.4499999999999996 [dLambda -0.04999999999999999]
TCL: Setting parameter firsttimestep to 0
TCL: Setting parameter alchLambda to 0.4999999999999996
Info: NONBONDED TABLE R-SQUARED SPACING: 0.0625
Info: NONBONDED TABLE SIZE: 705 POINTS
TCL: Setting parameter alchLambda2 to 0.4499999999999996
Info: NONBONDED TABLE R-SQUARED SPACING: 0.0625
Info: NONBONDED TABLE SIZE: 705 POINTS
TCL: Running for 1500000 steps
ETITLE: TS BOND ANGLE DIHED IMPRP ELECT VDW BOUNDARY MISC KINETIC TOTAL TEMP POTENTIAL TOTALAVG TEMPAVG PRESSURE GPRESSURE VOLUME PRESSAVG GPRESSAVG
ENERGY: 0 3.8263 6.3200 3.7281 0.0000 -10535.7069 1330.3629 0.0000 0.0000 1790.1659 -7401.3037 304.0852 -9191.4695 -7401.3037 304.0852 -679.1223 -572.6091 30469.9685 -679.1223 -572.6091
ENERGY: 300000 3.1843 6.5168 2.0020 0.0000 -10821.0287 1483.4111 0.0000 0.0000 1749.4083 -7576.5062 297.1620 -9325.9145 -7475.0923 300.7003 70.0063 127.9869 30214.4522 35.4842 110.5639
ENERGY: 600000 3.5996 8.5951 1.9950 0.0000 -10768.9361 1506.6562 0.0000 0.0000 1720.3362 -7527.7540 292.2236 -9248.0902 -7484.9777 298.6878 552.4226 669.2869 30066.8246 191.2716 268.0187
ENERGY: 900000 1.8030 8.0843 2.0754 0.0000 -10558.0678 1375.1819 0.0000 0.0000 1777.4659 -7393.4573 301.9279 -9170.9232 -7472.6003 299.3542 -415.0421 -321.7919 30354.1479 64.5963 151.2661
ENERGY: 1200000 3.2243 6.1660 4.6036 0.0000 -10689.5947 1407.0011 0.0000 0.0000 1748.5479 -7520.0518 297.0158 -9268.5997 -7477.1692 299.6637 -502.4975 -463.4970 30476.4533 36.6020 121.0761
ENERGY: 1500000 1.5036 6.4121 1.9076 0.0000 -10740.5280 1512.4327 0.0000 0.0000 1780.6385 -7437.6335 302.4669 -9218.2720 -7477.5280 299.5981 918.1563 953.5924 30197.3638 -11.4767 69.9593
TCL: Running FEP window  12: Lambda1 0.4499999999999996 Lambda2 0.39999999999999963 [dLambda -0.04999999999999999]
TCL: Setting parameter firsttimestep to 0
TCL: Setting parameter alchLambda to 0.4499999999999996
Info: NONBONDED TABLE R-SQUARED SPACING: 0.0625
Info: NONBONDED TABLE SIZE: 705 POINTS
TCL: Setting parameter alchLambda2 to 0.39999999999999963
Info: NONBONDED TABLE R-SQUARED SPACING: 0.0625
Info: NONBONDED TABLE SIZE: 705 POINTS
TCL: Running for 1500000 steps
ETITLE: TS BOND ANGLE DIHED IMPRP ELECT VDW BOUNDARY MISC KINETIC TOTAL TEMP POTENTIAL TOTALAVG TEMPAVG PRESSURE GPRESSURE VOLUME PRESSAVG GPRESSAVG
ENERGY: 0 1.5036 6.4121 1.9076 0.0000 -10740.5283 1512.3203 0.0000 0.0000 1779.7592 -7438.6254 302.3175 -9218.3846 -7438.6254 302.3175 865.3609 945.6685 30197.3638 865.3609 945.6685
ENERGY: 300000 2.9917 6.4643 0.8079 0.0000 -10617.3552 1413.5666 0.0000 0.0000 1770.7036 -7422.8211 300.7793 -9193.5247 -7452.7156 303.4767 -42.9465 -3.5898 30786.9735 327.6329 390.0071
ENERGY: 600000 1.1468 7.3222 3.3267 0.0000 -10577.5274 1411.2314 0.0000 0.0000 1739.8804 -7414.6199 295.5435 -9154.5002 -7464.6387 299.8983 -186.3398 -153.5444 30808.0304 220.3957 281.9701
ENERGY: 900000 4.7443 6.1328 4.3020 0.0000 -10630.9582 1379.7024 0.0000 0.0000 1810.6420 -7425.4347 307.5634 -9236.0767 -7461.8954 301.4379 -767.0015 -713.3526 30677.9786 225.2583 281.7349
ENERGY: 1200000 3.6896 5.7077 3.6146 0.0000 -10543.6946 1335.2313 0.0000 0.0000 1747.3849 -7448.0665 296.8183 -9195.4513 -7462.6558 301.2209 -677.4236 -667.3457 30564.5984 119.4384 170.6631
ENERGY: 1500000 3.1706 10.7883 1.2669 0.0000 -10709.7917 1418.9022 0.0000 0.0000 1769.0836 -7506.5801 300.5041 -9275.6637 -7468.8938 301.5499 -131.3662 -159.5296 30252.3634 30.5932 70.4472
TCL: Running FEP window  13: Lambda1 0.39999999999999963 Lambda2 0.34999999999999964 [dLambda -0.04999999999999999]
TCL: Setting parameter firsttimestep to 0
TCL: Setting parameter alchLambda to 0.39999999999999963
Info: NONBONDED TABLE R-SQUARED SPACING: 0.0625
Info: NONBONDED TABLE SIZE: 705 POINTS
TCL: Setting parameter alchLambda2 to 0.34999999999999964
Info: NONBONDED TABLE R-SQUARED SPACING: 0.0625
Info: NONBONDED TABLE SIZE: 705 POINTS
TCL: Running for 1500000 steps
ETITLE: TS BOND ANGLE DIHED IMPRP ELECT VDW BOUNDARY MISC KINETIC TOTAL TEMP POTENTIAL TOTALAVG TEMPAVG PRESSURE GPRESSURE VOLUME PRESSAVG GPRESSAVG
ENERGY: 0 3.1705 10.7883 1.2669 0.0000 -10709.7911 1418.7129 0.0000 0.0000 1768.1882 -7507.6642 300.3520 -9275.8524 -7507.6642 300.3520 -242.0184 -166.1633 30252.3634 -242.0184 -166.1633
ENERGY: 300000 2.2973 6.7224 1.9225 0.0000 -10653.8033 1450.7469 0.0000 0.0000 1797.7981 -7394.3161 305.3817 -9192.1142 -7478.0337 301.0598 172.5950 150.8051 30552.7824 -121.7221 -68.3628
ENERGY: 600000 1.9060 9.1275 3.9307 0.0000 -10644.6763 1365.5820 0.0000 0.0000 1774.6991 -7489.4311 301.4580 -9264.1302 -7491.4185 300.3969 -632.0351 -598.0670 30068.3952 -170.6067 -122.4930
ENERGY: 900000 1.8475 4.7921 1.2169 0.0000 -10635.8629 1395.8736 0.0000 0.0000 1695.8364 -7536.2963 288.0620 -9232.1327 -7483.0861 299.5490 -414.6200 -363.3205 30496.1494 -155.0723 -115.8231
ENERGY: 1200000 6.1618 5.4667 1.6419 0.0000 -10712.1155 1436.0967 0.0000 0.0000 1832.1546 -7430.5937 311.2176 -9262.7483 -7474.1257 301.2126 -28.4001 73.4869 30098.0456 -41.0219 0.4188
ENERGY: 1500000 2.2395 5.5407 3.8438 0.0000 -10730.3396 1457.6964 0.0000 0.0000 1756.5299 -7504.4892 298.3717 -9261.0191 -7475.0037 300.1386 210.6799 171.8361 30630.6104 10.0953 51.8315
TCL: Running FEP window  14: Lambda1 0.34999999999999964 Lambda2 0.29999999999999966 [dLambda -0.04999999999999999]
TCL: Setting parameter firsttimestep to 0
TCL: Setting parameter alchLambda to 0.34999999999999964
Info: NONBONDED TABLE R-SQUARED SPACING: 0.0625
Info: NONBONDED TABLE SIZE: 705 POINTS
TCL: Setting parameter alchLambda2 to 0.29999999999999966
Info: NONBONDED TABLE R-SQUARED SPACING: 0.0625
Info: NONBONDED TABLE SIZE: 705 POINTS
TCL: Running for 1500000 steps
ETITLE: TS BOND ANGLE DIHED IMPRP ELECT VDW BOUNDARY MISC KINETIC TOTAL TEMP POTENTIAL TOTALAVG TEMPAVG PRESSURE GPRESSURE VOLUME PRESSAVG GPRESSAVG
ENERGY: 0 2.2395 5.5407 3.8438 0.0000 -10730.3395 1458.2611 0.0000 0.0000 1755.6640 -7504.7903 298.2246 -9260.4543 -7504.7903 298.2246 81.4353 170.0894 30630.6104 81.4353 170.0894
ENERGY: 300000 1.9055 9.5060 2.1789 0.0000 -10735.8317 1441.4482 0.0000 0.0000 1710.8862 -7569.9069 290.6184 -9280.7932 -7484.4628 298.9753 -217.8434 -139.6439 30315.0394 101.3101 144.1918
ENERGY: 600000 3.1439 9.5106 2.9644 0.0000 -10665.7594 1425.9021 0.0000 0.0000 1797.6867 -7426.5517 305.3627 -9224.2384 -7479.0092 300.9490 87.6427 16.0093 30046.0167 124.3277 162.9148
ENERGY: 900000 1.6715 7.0978 4.3717 0.0000 -10712.9619 1454.6414 0.0000 0.0000 1749.2428 -7495.9367 297.1338 -9245.1795 -7485.0926 299.2147 239.0948 253.3015 30062.3849 -96.9811 -57.9108
ENERGY: 1200000 1.7043 6.0908 2.4562 0.0000 -10637.8809 1365.5686 0.0000 0.0000 1790.7465 -7471.3146 304.1838 -9262.0610 -7478.8243 300.2459 -542.8798 -483.4997 30435.1157 -55.6121 -6.5922
ENERGY: 1500000 1.9890 8.9966 2.2290 0.0000 -10712.9468 1423.3010 0.0000 0.0000 1744.7546 -7531.6764 296.3715 -9276.4311 -7484.4653 299.3838 -341.9887 -269.7695 30373.6358 -41.9572 14.0240
TCL: Running FEP window  15: Lambda1 0.29999999999999966 Lambda2 0.24999999999999967 [dLambda -0.04999999999999999]
TCL: Setting parameter firsttimestep to 0
TCL: Setting parameter alchLambda to 0.29999999999999966
Info: NONBONDED TABLE R-SQUARED SPACING: 0.0625
Info: NONBONDED TABLE SIZE: 705 POINTS
TCL: Setting parameter alchLambda2 to 0.24999999999999967
Info: NONBONDED TABLE R-SQUARED SPACING: 0.0625
Info: NONBONDED TABLE SIZE: 705 POINTS
TCL: Running for 1500000 steps
ETITLE: TS BOND ANGLE DIHED IMPRP ELECT VDW BOUNDARY MISC KINETIC TOTAL TEMP POTENTIAL TOTALAVG TEMPAVG PRESSURE GPRESSURE VOLUME PRESSAVG GPRESSAVG
ENERGY: 0 1.9890 8.9966 2.2290 0.0000 -10712.9462 1423.2813 0.0000 0.0000 1743.8815 -7532.5688 296.2231 -9276.4502 -7532.5688 296.2231 -353.2268 -273.6523 30373.6358 -353.2268 -273.6523
ENERGY: 300000 3.2572 8.8903 1.5513 0.0000 -10727.1225 1379.1864 0.0000 0.0000 1832.4634 -7501.7739 311.2701 -9334.2373 -7490.6417 303.9967 -808.8837 -670.9683 30209.5755 -80.8299 11.2579
ENERGY: 600000 3.2060 9.2664 3.2497 0.0000 -10750.0673 1481.9837 0.0000 0.0000 1798.0870 -7454.2745 305.4307 -9252.3614 -7479.0364 301.7513 573.2885 607.3135 30208.0292 21.8251 102.8210
ENERGY: 900000 1.8356 7.5992 2.3676 0.0000 -10759.5694 1478.4625 0.0000 0.0000 1758.3000 -7511.0045 298.6723 -9269.3045 -7483.5735 302.0133 241.7257 289.0182 30588.0568 17.1423 106.8295
ENERGY: 1200000 2.2296 8.7238 5.7165 0.0000 -10707.9975 1466.2588 0.0000 0.0000 1790.5709 -7434.4979 304.1540 -9225.0688 -7474.5514 302.1892 219.6488 310.0239 30224.9341 43.0139 120.2695
ENERGY: 1500000 3.0119 3.7566 3.7737 0.0000 -10675.5019 1478.6677 0.0000 0.0000 1777.1694 -7409.1227 301.8776 -9186.2921 -7467.1857 302.0557 425.4752 492.7655 30459.3561 86.1509 157.4307
TCL: Running FEP window  16: Lambda1 0.24999999999999967 Lambda2 0.19999999999999968 [dLambda -0.04999999999999999]
TCL: Setting parameter firsttimestep to 0
TCL: Setting parameter alchLambda to 0.24999999999999967
Info: NONBONDED TABLE R-SQUARED SPACING: 0.0625
Info: NONBONDED TABLE SIZE: 705 POINTS
TCL: Setting parameter alchLambda2 to 0.19999999999999968
Info: NONBONDED TABLE R-SQUARED SPACING: 0.0625
Info: NONBONDED TABLE SIZE: 705 POINTS
TCL: Running for 1500000 steps
ETITLE: TS BOND ANGLE DIHED IMPRP ELECT VDW BOUNDARY MISC KINETIC TOTAL TEMP POTENTIAL TOTALAVG TEMPAVG PRESSURE GPRESSURE VOLUME PRESSAVG GPRESSAVG
ENERGY: 0 3.0119 3.7566 3.7737 0.0000 -10675.5020 1478.9367 0.0000 0.0000 1776.2721 -7409.7510 301.7252 -9186.0231 -7409.7510 301.7252 408.7988 489.6783 30459.3561 408.7988 489.6783
ENERGY: 300000 1.5680 8.8926 1.4485 0.0000 -10651.8702 1391.4372 0.0000 0.0000 1788.6571 -7459.8668 303.8289 -9248.5239 -7446.9993 299.1071 -313.9054 -320.9764 30398.4981 -7.4923 45.8892
ENERGY: 600000 3.2687 6.3452 1.8508 0.0000 -10652.4774 1376.8739 0.0000 0.0000 1741.2221 -7522.9167 295.7714 -9264.1388 -7469.0681 299.6307 -604.6948 -491.7735 30272.4771 -54.9115 7.7749
ENERGY: 900000 3.1890 6.3384 3.3382 0.0000 -10734.5212 1445.6141 0.0000 0.0000 1808.0141 -7468.0274 307.1170 -9276.0415 -7460.4080 301.0398 131.7072 133.2736 30149.5761 13.1426 72.2191
ENERGY: 1200000 4.4468 9.1551 2.0038 0.0000 -10510.4069 1300.4058 0.0000 0.0000 1738.6950 -7455.7004 295.3422 -9194.3954 -7453.9940 301.2093 -983.1597 -888.2380 30567.0057 -87.8344 -30.6093
ENERGY: 1500000 4.9642 9.6280 3.5153 0.0000 -10608.2360 1409.2713 0.0000 0.0000 1789.6925 -7391.1647 304.0048 -9180.8571 -7448.8987 301.5786 -242.8185 -200.0257 30718.6950 -60.3006 -3.3641
TCL: Running FEP window  17: Lambda1 0.19999999999999968 Lambda2 0.1499999999999997 [dLambda -0.04999999999999999]
TCL: Setting parameter firsttimestep to 0
TCL: Setting parameter alchLambda to 0.19999999999999968
Info: NONBONDED TABLE R-SQUARED SPACING: 0.0625
Info: NONBONDED TABLE SIZE: 705 POINTS
TCL: Setting parameter alchLambda2 to 0.1499999999999997
Info: NONBONDED TABLE R-SQUARED SPACING: 0.0625
Info: NONBONDED TABLE SIZE: 705 POINTS
TCL: Running for 1500000 steps
ETITLE: TS BOND ANGLE DIHED IMPRP ELECT VDW BOUNDARY MISC KINETIC TOTAL TEMP POTENTIAL TOTALAVG TEMPAVG PRESSURE GPRESSURE VOLUME PRESSAVG GPRESSAVG
ENERGY: 0 4.9642 9.6280 3.5153 0.0000 -10608.2344 1408.8813 0.0000 0.0000 1788.7916 -7392.4539 303.8518 -9181.2455 -7392.4539 303.8518 -275.4584 -207.5792 30718.6950 -275.4584 -207.5792
ENERGY: 300000 1.4680 10.7456 1.2021 0.0000 -10823.6274 1514.4041 0.0000 0.0000 1746.7062 -7549.1014 296.7030 -9295.8076 -7456.5498 302.6412 351.2685 467.6675 30207.1791 101.3141 175.5074
ENERGY: 600000 2.9908 6.4078 0.9838 0.0000 -10661.4061 1478.7242 0.0000 0.0000 1815.9869 -7356.3126 308.4713 -9172.2995 -7454.6924 302.6887 367.2684 447.3803 30775.9449 197.6404 266.2561
ENERGY: 900000 2.6699 3.9987 1.1348 0.0000 -10738.8149 1467.5557 0.0000 0.0000 1794.9213 -7468.5345 304.8930 -9263.4558 -7465.0447 301.6872 117.5211 171.5515 30172.5630 87.3108 160.7689
ENERGY: 1200000 2.0502 10.4289 1.3786 0.0000 -10665.2489 1418.9804 0.0000 0.0000 1776.6578 -7455.7530 301.7907 -9232.4108 -7464.5675 301.6882 -313.3475 -257.2785 30574.0764 98.3362 167.3320
ENERGY: 1500000 3.2124 10.4970 0.7595 0.0000 -10592.1740 1393.4306 0.0000 0.0000 1762.1505 -7422.1240 299.3264 -9184.2745 -7465.9903 300.4919 -268.4125 -188.0206 30526.9981 55.2238 117.0976
TCL: Running FEP window  18: Lambda1 0.1499999999999997 Lambda2 0.09999999999999969 [dLambda -0.05 ]
TCL: Setting parameter firsttimestep to 0
TCL: Setting parameter alchLambda to 0.1499999999999997
Info: NONBONDED TABLE R-SQUARED SPACING: 0.0625
Info: NONBONDED TABLE SIZE: 705 POINTS
TCL: Setting parameter alchLambda2 to 0.09999999999999969
Info: NONBONDED TABLE R-SQUARED SPACING: 0.0625
Info: NONBONDED TABLE SIZE: 705 POINTS
TCL: Running for 1500000 steps
ETITLE: TS BOND ANGLE DIHED IMPRP ELECT VDW BOUNDARY MISC KINETIC TOTAL TEMP POTENTIAL TOTALAVG TEMPAVG PRESSURE GPRESSURE VOLUME PRESSAVG GPRESSAVG
ENERGY: 0 3.2124 10.4970 0.7595 0.0000 -10592.1733 1393.1520 0.0000 0.0000 1761.2837 -7423.2686 299.1792 -9184.5524 -7423.2686 299.1792 -270.8117 -193.7812 30526.9981 -270.8117 -193.7812
ENERGY: 300000 1.6937 7.4264 1.5800 0.0000 -10699.7522 1455.3592 0.0000 0.0000 1790.7682 -7442.9248 304.1875 -9233.6929 -7465.5448 301.8929 258.9540 327.5189 30417.8163 276.0634 327.6716
ENERGY: 600000 2.7346 6.6669 2.1235 0.0000 -10628.0470 1361.5153 0.0000 0.0000 1770.9397 -7484.0669 300.8194 -9255.0066 -7477.0551 302.8238 -525.7625 -483.4994 30323.7346 -83.2258 -32.1548
ENERGY: 900000 2.3171 5.0763 0.8744 0.0000 -10671.7644 1444.3409 0.0000 0.0000 1719.7672 -7499.3885 292.1270 -9219.1557 -7485.1081 301.5548 101.0164 181.6466 30310.3862 -56.2170 -1.5970
ENERGY: 1200000 3.5113 8.9109 2.2519 0.0000 -10566.2152 1328.6897 0.0000 0.0000 1767.7071 -7455.1443 300.2703 -9222.8514 -7484.2009 301.5672 -816.0023 -807.0533 30283.4884 -130.5848 -73.4013
ENERGY: 1500000 3.4147 9.0537 0.5748 0.0000 -10695.9845 1471.0009 0.0000 0.0000 1795.0635 -7416.8770 304.9171 -9211.9404 -7487.7375 301.1055 277.0421 383.9921 30063.8939 -59.7574 5.1804
TCL: Running FEP window  19: Lambda1 0.09999999999999969 Lambda2 0.049999999999999684 [dLambda -0.05 ]
TCL: Setting parameter firsttimestep to 0
TCL: Setting parameter alchLambda to 0.09999999999999969
Info: NONBONDED TABLE R-SQUARED SPACING: 0.0625
Info: NONBONDED TABLE SIZE: 705 POINTS
TCL: Setting parameter alchLambda2 to 0.049999999999999684
Info: NONBONDED TABLE R-SQUARED SPACING: 0.0625
Info: NONBONDED TABLE SIZE: 705 POINTS
TCL: Running for 1500000 steps
ETITLE: TS BOND ANGLE DIHED IMPRP ELECT VDW BOUNDARY MISC KINETIC TOTAL TEMP POTENTIAL TOTALAVG TEMPAVG PRESSURE GPRESSURE VOLUME PRESSAVG GPRESSAVG
ENERGY: 0 3.4147 9.0537 0.5748 0.0000 -10695.9857 1470.7899 0.0000 0.0000 1794.1553 -7417.9974 304.7629 -9212.1527 -7417.9974 304.7629 287.9670 380.3262 30063.8939 287.9670 380.3262
ENERGY: 300000 2.2511 5.5134 3.4263 0.0000 -10892.2921 1510.9213 0.0000 0.0000 1775.3538 -7594.8263 301.5692 -9370.1801 -7470.1058 299.5355 260.5036 349.4199 29811.9896 135.1378 190.2881
ENERGY: 600000 1.8361 5.9639 1.2195 0.0000 -10681.8656 1462.0965 0.0000 0.0000 1797.6257 -7413.1240 305.3524 -9210.7497 -7467.3257 300.2585 162.5829 213.4985 30439.6844 -47.3315 8.5317
ENERGY: 900000 2.6542 8.7406 3.3620 0.0000 -10655.6419 1374.6150 0.0000 0.0000 1810.9989 -7455.2711 307.6240 -9266.2700 -7474.2895 301.2041 -487.9626 -413.7374 29973.8882 -100.4983 -52.1948
ENERGY: 1200000 2.0206 7.6314 3.4676 0.0000 -10441.1889 1283.5165 0.0000 0.0000 1755.5999 -7388.9529 298.2137 -9144.5528 -7463.4948 300.4325 -1042.1035 -994.1363 30625.1588 -166.7435 -119.2946
ENERGY: 1500000 3.0726 10.0434 2.2761 0.0000 -10767.1257 1530.8633 0.0000 0.0000 1782.8501 -7438.0202 302.8425 -9220.8703 -7463.7091 300.1347 792.0322 844.0471 30242.5206 -9.2960 41.8039
TCL: Running FEP window  20: Lambda1 0.049999999999999684 Lambda2 0.0    [dLambda -0.049999999999999684]
TCL: Setting parameter firsttimestep to 0
TCL: Setting parameter alchLambda to 0.049999999999999684
Info: NONBONDED TABLE R-SQUARED SPACING: 0.0625
Info: NONBONDED TABLE SIZE: 705 POINTS
TCL: Setting parameter alchLambda2 to 0.0
Info: NONBONDED TABLE R-SQUARED SPACING: 0.0625
Info: NONBONDED TABLE SIZE: 705 POINTS
TCL: Running for 1500000 steps
ETITLE: TS BOND ANGLE DIHED IMPRP ELECT VDW BOUNDARY MISC KINETIC TOTAL TEMP POTENTIAL TOTALAVG TEMPAVG PRESSURE GPRESSURE VOLUME PRESSAVG GPRESSAVG
ENERGY: 0 3.0726 10.0434 2.2761 0.0000 -10767.1260 1530.8496 0.0000 0.0000 1781.9844 -7438.8999 302.6955 -9220.8843 -7438.8999 302.6955 757.5395 838.5460 30242.5206 757.5395 838.5460
ENERGY: 300000 6.1442 6.3826 5.7712 0.0000 -10647.6969 1373.8987 0.0000 0.0000 1731.8752 -7523.6250 294.1837 -9255.5002 -7451.9037 300.2451 -632.9312 -594.4737 30052.5205 -141.6947 -79.2341
ENERGY: 600000 3.7378 9.7441 3.5890 0.0000 -10767.9349 1487.2302 0.0000 0.0000 1744.7085 -7518.9254 296.3636 -9263.6339 -7500.3200 296.2529 141.2862 225.8128 30280.3784 -129.9040 -64.4653
ENERGY: 900000 3.0342 8.5204 2.2765 0.0000 -10620.8683 1307.8267 0.0000 0.0000 1757.0881 -7542.1224 298.4665 -9299.2105 -7510.0995 296.9337 -1311.4350 -1231.0451 30346.4291 -215.4755 -153.7681
ENERGY: 1200000 4.4066 7.2441 1.0701 0.0000 -10730.2093 1481.0758 0.0000 0.0000 1760.0720 -7476.3406 298.9733 -9236.4127 -7499.4908 298.3268 325.7765 312.1061 30209.3322 -157.7839 -113.4413
ENERGY: 1500000 5.3513 7.1674 1.8919 0.0000 -10759.6121 1471.6778 0.0000 0.0000 1745.3448 -7528.1789 296.4717 -9273.5237 -7502.0962 298.0109 138.1818 199.2871 30105.3177 -137.2028 -89.1603
TCL: Exiting due to exit command.
