Info: SIMULATION PARAMETERS:
Info: TIMESTEP               2
Info: NUMBER OF STEPS        0
Info: STEPS PER CYCLE        10
Info: PERIODIC CELL BASIS 1  31.8503 0 0
Info: PERIODIC CELL BASIS 2  0 29.7666 0
Info: PERIODIC CELL BASIS 3  0 0 33.0084
Info: PERIODIC CELL CENTER   0 0 0
Info: WRAPPING WATERS AROUND PERIODIC BOUNDARIES ON OUTPUT.
Info: WRAPPING ALL CLUSTERS AROUND PERIODIC BOUNDARIES ON OUTPUT.
Info: FIRST LDB TIMESTEP     50
Info: LAST LDB TIMESTEP     -1
Info: HOM BACKGROUND SCALING 1
Info: PME BACKGROUND SCALING 1
Info: MIN ATOMS PER PATCH    40
Info: EMPTY PATCH LOAD       40 ATOMS
Info: VELOCITY FILE          mobley_3169935_equil.vel
Info: CENTER OF MASS MOVING INITIALLY? NO
Info: DIELECTRIC             1
Info: EXCLUDE                SCALED ONE-FOUR
Info: 1-4 ELECTROSTATICS SCALED BY 0.833333
Info: MODIFIED 1-4 VDW PARAMETERS WILL BE USED
Info: DCD FILENAME           mobley_3169935_prod.dcd
Info: DCD FREQUENCY          100000
Info: DCD FIRST STEP         100000
Info: DCD FILE WILL CONTAIN UNIT CELL DATA
Info: XST FILENAME           mobley_3169935_prod.xst
Info: XST FREQUENCY          100000
Info: NO VELOCITY DCD OUTPUT
Info: NO FORCE DCD OUTPUT
Info: OUTPUT FILENAME        mobley_3169935_prod
Info: BINARY OUTPUT FILES WILL BE USED
Info: RESTART FILENAME       mobley_3169935_prod.restart
Info: RESTART FREQUENCY      100000
Info: BINARY RESTART FILES WILL BE USED
Info: CUTOFF                 9
Info: PAIRLIST DISTANCE      11
Info: PAIRLIST SHRINK RATE   0.01
Info: PAIRLIST GROW RATE     0.01
Info: PAIRLIST TRIGGER       0.3
Info: PAIRLISTS PER CYCLE    2
Info: PAIRLISTS ENABLED
Info: MARGIN                 2
Info: HYDROGEN GROUP CUTOFF  2.5
Info: PATCH DIMENSION        15.5
Info: ENERGY OUTPUT STEPS    100000
Info: ENERGY EVALUATION STEPS    100000
Info: OUTPUT ENERGY PRECISION 4
Info: CROSSTERM ENERGY INCLUDED IN DIHEDRAL
Info: TIMING OUTPUT STEPS    1000000
Info: PRESSURE OUTPUT STEPS  100000
Info: ALCHEMICAL FEP ON
Info: FEP CURRENT LAMBDA VALUE     1
Info: FEP COMPARISON LAMBDA VALUE  0.95
Info: FEP INTRA-ALCHEMICAL NON-BONDED INTERACTIONS WILL BE RETAINED
Info: FEP INTRA-ALCHEMICAL BONDED INTERACTIONS WILL BE RETAINED
Info: FEP VDW SHIFTING COEFFICIENT 5
Info: FEP ELEC. ACTIVE FOR ANNIHILATED PARTICLES BETWEEN LAMBDA = 0 AND LAMBDA = 0.5
Info: FEP ELEC. ACTIVE FOR EXNIHILATED PARTICLES BETWEEN LAMBDA = 0.5 AND LAMBDA = 1
Info: FEP VDW ACTIVE FOR ANNIHILATED PARTICLES BETWEEN LAMBDA = 0 AND LAMBDA = 1
Info: FEP VDW ACTIVE FOR EXNIHILATED PARTICLES BETWEEN LAMBDA = 0 AND LAMBDA = 1
Info: FEP BOND ACTIVE FOR ANNIHILATED PARTICLES BETWEEN LAMBDA = 1 AND LAMBDA = 1
Info: FEP BOND ACTIVE FOR EXNIHILATED PARTICLES BETWEEN LAMBDA = 0 AND LAMBDA = 0
Info: LANGEVIN DYNAMICS ACTIVE
Info: LANGEVIN TEMPERATURE   300
Info: LANGEVIN USING BBK INTEGRATOR
Info: LANGEVIN DAMPING COEFFICIENT IS 1 INVERSE PS
Info: LANGEVIN DYNAMICS APPLIED TO HYDROGENS
Info: LANGEVIN PISTON PRESSURE CONTROL ACTIVE
Info:        TARGET PRESSURE IS 1.01325 BAR
Info:     OSCILLATION PERIOD IS 50 FS
Info:             DECAY TIME IS 25 FS
Info:     PISTON TEMPERATURE IS 300 K
Info:       PRESSURE CONTROL IS GROUP-BASED
Info:    INITIAL STRAIN RATE IS 9.2781e-05 9.2781e-05 9.2781e-05
Info:       CELL FLUCTUATION IS ISOTROPIC
Info: PARTICLE MESH EWALD (PME) ACTIVE
Info: PME TOLERANCE               1e-06
Info: PME EWALD COEFFICIENT       0.348832
Info: PME INTERPOLATION ORDER     4
Info: PME GRID DIMENSIONS         32 32 36
Info: PME MAXIMUM GRID SPACING    1
Info: PME CALCULATION WILL BE PERFORMED ON GPU
Info: FULL ELECTROSTATIC EVALUATION FREQUENCY      2
Info: USING VERLET I (r-RESPA) MTS SCHEME.
Info: C1 SPLITTING OF LONG RANGE ELECTROSTATICS
Info: PLACING ATOMS IN PATCHES BY HYDROGEN GROUPS
Info: RIGID BONDS TO HYDROGEN : ALL
Info:         ERROR TOLERANCE : 1e-08
Info:          MAX ITERATIONS : 100
Info: RIGID WATER USING SETTLE ALGORITHM
Info: RANDOM NUMBER SEED     1743575680
Info: USE HYDROGEN BONDS?    NO
Info: Using AMBER format force field!
Info: AMBER PARM FILE        mobley_3169935.prmtop
Info: COORDINATE PDB         mobley_3169935.pdb
Info: Exclusions will be read from PARM file!
Info: SCNB (VDW SCALING)     2
Info: USING ARITHMETIC MEAN TO COMBINE L-J SIGMA PARAMETERS
Info: BINARY COORDINATES     mobley_3169935_equil.coor
Info: SUMMARY OF PARAMETERS:
Info: 7 BONDS
Info: 6 ANGLES
Info:   6 HARMONIC
Info:   0 COSINE-BASED
Info: 3 DIHEDRAL
Info: 0 IMPROPER
Info: 0 CROSSTERM
Info: 0 VDW
Info: 28 VDW_PAIRS
Info: 0 NBTHOLE_PAIRS
Info: To read alchdata from file: mobley_3169935.pdb
Info: To read alchflag data from column: 5
Info: STRUCTURE SUMMARY:
Info: 2996 ATOMS
Info: 2996 BONDS
Info: 21 ANGLES
Info: 35 DIHEDRALS
Info: 0 IMPROPERS
Info: 0 CROSSTERMS
Info: 3042 EXCLUSIONS
Info: 2988 RIGID BONDS
Info: ALCH: 0 ATOMS TO DISAPPEAR IN FINAL STATE
Info: ALCH: 14 ATOMS TO APPEAR IN FINAL STATE
Info: 6000 DEGREES OF FREEDOM
Info: 1002 HYDROGEN GROUPS
Info: 3 ATOMS IN LARGEST HYDROGEN GROUP
Info: 1002 MIGRATION GROUPS
Info: 3 ATOMS IN LARGEST MIGRATION GROUP
Info: TOTAL MASS = 18035.5 amu
Info: TOTAL CHARGE = 0.000100028 e
Info: MASS DENSITY = 0.957014 g/cm^3
Info: ATOM DENSITY = 0.0957355 atoms/A^3
Info: ADDED 0 IMPLICIT EXCLUSIONS
Info: NONBONDED TABLE R-SQUARED SPACING: 0.0625
Info: NONBONDED TABLE SIZE: 705 POINTS
Info: REMOVING COM VELOCITY 0.030678 0.113915 -0.0335539
Info: Use 3D box decompostion in PME FFT.
Info: Updated CUDA force table with 4096 elements.
Info: Updated CUDA LJ table with 7 x 7 elements.
Info: Found 16 unique exclusion lists needing 32 bytes
TCL: Running for 1500000 steps
ETITLE: TS BOND ANGLE DIHED IMPRP ELECT VDW BOUNDARY MISC KINETIC TOTAL TEMP POTENTIAL TOTALAVG TEMPAVG PRESSURE GPRESSURE VOLUME PRESSAVG GPRESSAVG
ENERGY: 0 5.4570 2.2168 2.5038 0.0000 -10714.5480 1337.7280 0.0000 0.0000 1849.7704 -7516.8721 310.2823 -9366.6425 -7516.8721 310.2823 -1244.5392 -1153.2567 31294.5441 -1244.5392 -1153.2567
ENERGY: 300000 1.1558 2.9739 1.4449 0.0000 -10801.1835 1425.8636 0.0000 0.0000 1784.5654 -7585.1800 299.3447 -9369.7454 -7604.4121 300.6615 -197.3792 -102.5815 30880.4622 -416.0537 -348.0690
ENERGY: 600000 2.2647 2.8246 2.0532 0.0000 -10906.5295 1482.5747 0.0000 0.0000 1795.5335 -7621.2789 301.1845 -9416.8124 -7580.9170 300.9513 61.4526 147.4685 30884.2970 -372.6809 -314.9685
ENERGY: 900000 1.2049 4.7251 4.1421 0.0000 -10982.3269 1501.3922 0.0000 0.0000 1814.2034 -7656.6592 304.3162 -9470.8626 -7609.6661 300.5849 304.0977 489.1474 30456.8176 -240.1697 -170.9732
ENERGY: 1200000 1.4317 8.6767 5.0429 0.0000 -10802.3224 1446.4636 0.0000 0.0000 1801.5597 -7539.1476 302.1954 -9340.7073 -7607.1646 300.8308 -84.4540 -9.5576 31162.6849 -127.6242 -54.7247
ENERGY: 1500000 1.8193 3.4572 4.3990 0.0000 -10846.3488 1459.7935 0.0000 0.0000 1754.9776 -7621.9022 294.3816 -9376.8798 -7615.7235 299.6887 -192.5360 -42.1850 30858.4132 -73.1730 0.7826
TCL: Running FEP window   2: Lambda1 0.95   Lambda2 0.8999999999999999 [dLambda -0.050000000000000044]
TCL: Setting parameter firsttimestep to 0
TCL: Setting parameter alchLambda to 0.95
Info: NONBONDED TABLE R-SQUARED SPACING: 0.0625
Info: NONBONDED TABLE SIZE: 705 POINTS
TCL: Setting parameter alchLambda2 to 0.8999999999999999
Info: NONBONDED TABLE R-SQUARED SPACING: 0.0625
Info: NONBONDED TABLE SIZE: 705 POINTS
TCL: Running for 1500000 steps
ETITLE: TS BOND ANGLE DIHED IMPRP ELECT VDW BOUNDARY MISC KINETIC TOTAL TEMP POTENTIAL TOTALAVG TEMPAVG PRESSURE GPRESSURE VOLUME PRESSAVG GPRESSAVG
ENERGY: 0 1.8193 3.4573 4.3990 0.0000 -10845.6041 1460.3943 0.0000 0.0000 1754.0684 -7621.4659 294.2291 -9375.5343 -7621.4659 294.2291 -126.8466 -44.2025 30858.4132 -126.8466 -44.2025
ENERGY: 300000 2.4513 6.1048 2.3388 0.0000 -10888.9291 1475.9149 0.0000 0.0000 1777.1596 -7624.9597 298.1025 -9402.1193 -7587.3556 300.2300 207.9477 282.4121 30578.7865 67.9148 151.2349
ENERGY: 600000 0.5304 1.6388 5.2594 0.0000 -11004.8145 1520.0818 0.0000 0.0000 1727.2175 -7750.0865 289.7251 -9477.3040 -7611.1351 298.5183 178.2288 231.8723 30875.2999 -48.1423 35.9644
ENERGY: 900000 1.3526 3.2371 5.5521 0.0000 -10800.5230 1371.7237 0.0000 0.0000 1772.2771 -7646.3804 297.2835 -9418.6575 -7601.0806 299.5389 -757.8443 -701.9116 30962.3697 -77.0146 2.7185
ENERGY: 1200000 2.2680 2.7737 1.7917 0.0000 -10861.9778 1482.4466 0.0000 0.0000 1800.0744 -7572.6234 301.9462 -9372.6979 -7595.8421 300.0897 468.5531 560.7127 30700.0010 -7.2188 76.2960
ENERGY: 1500000 6.0194 5.7348 2.5332 0.0000 -10785.1305 1410.4317 0.0000 0.0000 1762.0356 -7598.3757 295.5656 -9360.4114 -7600.9330 299.6787 -372.4091 -308.6080 30924.4948 -20.4853 60.8891
TCL: Running FEP window   3: Lambda1 0.8999999999999999 Lambda2 0.8499999999999999 [dLambda -0.050000000000000044]
TCL: Setting parameter firsttimestep to 0
TCL: Setting parameter alchLambda to 0.8999999999999999
Info: NONBONDED TABLE R-SQUARED SPACING: 0.0625
Info: NONBONDED TABLE SIZE: 705 POINTS
TCL: Setting parameter alchLambda2 to 0.8499999999999999
Info: NONBONDED TABLE R-SQUARED SPACING: 0.0625
Info: NONBONDED TABLE SIZE: 705 POINTS
TCL: Running for 1500000 steps
ETITLE: TS BOND ANGLE DIHED IMPRP ELECT VDW BOUNDARY MISC KINETIC TOTAL TEMP POTENTIAL TOTALAVG TEMPAVG PRESSURE GPRESSURE VOLUME PRESSAVG GPRESSAVG
ENERGY: 0 6.0194 5.7348 2.5332 0.0000 -10784.0502 1409.8331 0.0000 0.0000 1761.1317 -7598.7979 295.4139 -9359.9297 -7598.7979 295.4139 -420.8244 -325.9890 30924.4948 -420.8244 -325.9890
ENERGY: 300000 3.1913 2.6621 2.5639 0.0000 -10812.6718 1488.5531 0.0000 0.0000 1880.8190 -7434.8825 315.4904 -9315.7014 -7550.2525 304.0436 508.7950 523.6739 30985.0229 318.6112 376.1290
ENERGY: 600000 0.8529 6.8333 3.4371 0.0000 -10905.5975 1475.7977 0.0000 0.0000 1820.3009 -7598.3756 305.3390 -9418.6765 -7571.9786 303.0957 -4.8918 107.6661 30999.4698 160.8424 219.2685
ENERGY: 900000 0.7057 3.9810 4.6957 0.0000 -10752.5587 1445.7545 0.0000 0.0000 1836.7159 -7460.7060 308.0925 -9297.4218 -7577.8387 301.6676 130.3951 151.6721 31294.6357 219.0902 279.1324
ENERGY: 1200000 1.4651 3.2456 8.6165 0.0000 -10627.9890 1320.0372 0.0000 0.0000 1787.3568 -7507.2678 299.8130 -9294.6246 -7574.8486 302.1667 -682.8718 -599.2083 30747.4247 150.1197 215.0273
ENERGY: 1500000 1.8208 6.0772 5.6569 0.0000 -10921.6922 1453.0086 0.0000 0.0000 1783.6084 -7671.5203 299.1842 -9455.1287 -7579.9868 302.4452 -190.7770 -145.8983 30965.7069 175.1990 240.3737
TCL: Running FEP window   4: Lambda1 0.8499999999999999 Lambda2 0.7999999999999998 [dLambda -0.050000000000000044]
TCL: Setting parameter firsttimestep to 0
TCL: Setting parameter alchLambda to 0.8499999999999999
Info: NONBONDED TABLE R-SQUARED SPACING: 0.0625
Info: NONBONDED TABLE SIZE: 705 POINTS
TCL: Setting parameter alchLambda2 to 0.7999999999999998
Info: NONBONDED TABLE R-SQUARED SPACING: 0.0625
Info: NONBONDED TABLE SIZE: 705 POINTS
TCL: Running for 1500000 steps
ETITLE: TS BOND ANGLE DIHED IMPRP ELECT VDW BOUNDARY MISC KINETIC TOTAL TEMP POTENTIAL TOTALAVG TEMPAVG PRESSURE GPRESSURE VOLUME PRESSAVG GPRESSAVG
ENERGY: 0 1.8208 6.0772 5.6569 0.0000 -10919.6650 1453.2067 0.0000 0.0000 1782.7178 -7670.1857 299.0348 -9452.9034 -7670.1857 299.0348 -225.8958 -148.9815 30965.7069 -225.8958 -148.9815
ENERGY: 300000 1.6712 4.3957 6.0097 0.0000 -10796.3989 1450.3833 0.0000 0.0000 1823.8322 -7510.1069 305.9314 -9333.9390 -7598.6507 300.2669 230.3616 333.7072 31012.8162 -54.8256 31.5500
ENERGY: 600000 3.8217 3.2678 2.1810 0.0000 -10775.8756 1394.6531 0.0000 0.0000 1790.6405 -7581.3115 300.3638 -9371.9520 -7572.0136 301.4480 -631.0457 -593.8887 31390.4660 -147.2717 -70.5028
ENERGY: 900000 2.8066 1.9511 4.5260 0.0000 -10957.1424 1475.8709 0.0000 0.0000 1759.8769 -7712.1108 295.2034 -9471.9877 -7587.7158 301.9729 190.5529 199.6450 30423.7670 -69.2719 -2.7942
ENERGY: 1200000 2.5316 5.3523 3.9639 0.0000 -10873.8133 1493.5776 0.0000 0.0000 1789.5315 -7578.8564 300.1777 -9368.3879 -7576.0047 303.0681 370.1862 386.7738 30905.4328 -91.8198 -25.3255
ENERGY: 1500000 3.3077 8.0956 4.6011 0.0000 -10908.6018 1425.1378 0.0000 0.0000 1774.7491 -7692.7105 297.6981 -9467.4596 -7586.7378 302.1556 -261.6794 -194.0654 30623.2604 -124.4576 -53.7353
TCL: Running FEP window   5: Lambda1 0.7999999999999998 Lambda2 0.7499999999999998 [dLambda -0.050000000000000044]
TCL: Setting parameter firsttimestep to 0
TCL: Setting parameter alchLambda to 0.7999999999999998
Info: NONBONDED TABLE R-SQUARED SPACING: 0.0625
Info: NONBONDED TABLE SIZE: 705 POINTS
TCL: Setting parameter alchLambda2 to 0.7499999999999998
Info: NONBONDED TABLE R-SQUARED SPACING: 0.0625
Info: NONBONDED TABLE SIZE: 705 POINTS
TCL: Running for 1500000 steps
ETITLE: TS BOND ANGLE DIHED IMPRP ELECT VDW BOUNDARY MISC KINETIC TOTAL TEMP POTENTIAL TOTALAVG TEMPAVG PRESSURE GPRESSURE VOLUME PRESSAVG GPRESSAVG
ENERGY: 0 3.3078 8.0956 4.6011 0.0000 -10907.7118 1425.6750 0.0000 0.0000 1773.8496 -7692.1828 297.5472 -9466.0324 -7692.1828 297.5472 -270.0404 -197.5034 30623.2604 -270.0404 -197.5034
ENERGY: 300000 1.0890 1.9855 2.5740 0.0000 -10887.9225 1504.0895 0.0000 0.0000 1779.2330 -7598.9515 298.4503 -9378.1845 -7616.9908 299.5593 482.1207 494.0532 30988.5969 -73.0950 13.8765
ENERGY: 600000 4.1945 4.0889 2.8254 0.0000 -11087.5027 1514.1452 0.0000 0.0000 1764.6107 -7797.6382 295.9975 -9562.2488 -7661.1392 298.6441 157.7866 203.2289 30469.1159 24.9267 105.2185
ENERGY: 900000 2.9588 4.2190 4.0645 0.0000 -10882.9859 1461.0596 0.0000 0.0000 1739.9732 -7670.7108 291.8648 -9410.6840 -7655.5319 298.9362 110.4363 183.3542 30672.3752 53.1838 125.2725
ENERGY: 1200000 3.8055 4.9899 8.9384 0.0000 -11005.4424 1481.9240 0.0000 0.0000 1745.0942 -7760.6904 292.7238 -9505.7846 -7663.6639 297.4308 -210.6593 -151.6377 30557.5758 -101.9255 -25.5976
ENERGY: 1500000 1.5195 2.5681 3.3431 0.0000 -11039.7513 1529.3037 0.0000 0.0000 1775.4834 -7727.5334 297.8213 -9503.0168 -7666.3189 298.0512 488.2155 567.5921 30293.1824 -65.1124 11.3547
TCL: Running FEP window   6: Lambda1 0.7499999999999998 Lambda2 0.6999999999999997 [dLambda -0.050000000000000044]
TCL: Setting parameter firsttimestep to 0
TCL: Setting parameter alchLambda to 0.7499999999999998
Info: NONBONDED TABLE R-SQUARED SPACING: 0.0625
Info: NONBONDED TABLE SIZE: 705 POINTS
TCL: Setting parameter alchLambda2 to 0.6999999999999997
Info: NONBONDED TABLE R-SQUARED SPACING: 0.0625
Info: NONBONDED TABLE SIZE: 705 POINTS
TCL: Running for 1500000 steps
ETITLE: TS BOND ANGLE DIHED IMPRP ELECT VDW BOUNDARY MISC KINETIC TOTAL TEMP POTENTIAL TOTALAVG TEMPAVG PRESSURE GPRESSURE VOLUME PRESSAVG GPRESSAVG
ENERGY: 0 1.5195 2.5681 3.3431 0.0000 -11039.2046 1529.8191 0.0000 0.0000 1774.5688 -7727.3858 297.6679 -9501.9547 -7727.3858 297.6679 477.7013 563.8265 30293.1824 477.7013 563.8265
ENERGY: 300000 2.0574 2.8137 4.0096 0.0000 -10881.7447 1454.6553 0.0000 0.0000 1787.6360 -7630.5727 299.8598 -9418.2087 -7636.1792 297.9089 248.2785 224.4909 30435.2572 177.7571 240.5876
ENERGY: 600000 2.8237 3.1054 3.3562 0.0000 -10983.6940 1525.2178 0.0000 0.0000 1810.9200 -7638.2709 303.7655 -9449.1908 -7637.4580 299.1335 580.4975 630.2819 30579.0028 156.8545 216.5810
ENERGY: 900000 1.3396 4.2436 6.4178 0.0000 -10909.1821 1510.6607 0.0000 0.0000 1805.8450 -7580.6755 302.9142 -9386.5205 -7627.2099 299.3561 542.3930 557.9104 30887.0109 89.1956 146.2732
ENERGY: 1200000 2.4064 4.4726 8.7687 0.0000 -10940.2276 1497.5628 0.0000 0.0000 1818.3718 -7608.6453 305.0154 -9427.0171 -7623.3606 300.5571 465.5824 448.6585 30306.7018 86.8031 137.7907
ENERGY: 1500000 2.5982 4.2890 2.4986 0.0000 -10824.6694 1438.6439 0.0000 0.0000 1783.4318 -7593.2079 299.1546 -9376.6397 -7623.3338 300.3380 160.9327 227.2262 30542.4974 5.9322 61.1078
TCL: Running FEP window   7: Lambda1 0.6999999999999997 Lambda2 0.6499999999999997 [dLambda -0.050000000000000044]
TCL: Setting parameter firsttimestep to 0
TCL: Setting parameter alchLambda to 0.6999999999999997
Info: NONBONDED TABLE R-SQUARED SPACING: 0.0625
Info: NONBONDED TABLE SIZE: 705 POINTS
TCL: Setting parameter alchLambda2 to 0.6499999999999997
Info: NONBONDED TABLE R-SQUARED SPACING: 0.0625
Info: NONBONDED TABLE SIZE: 705 POINTS
TCL: Running for 1500000 steps
ETITLE: TS BOND ANGLE DIHED IMPRP ELECT VDW BOUNDARY MISC KINETIC TOTAL TEMP POTENTIAL TOTALAVG TEMPAVG PRESSURE GPRESSURE VOLUME PRESSAVG GPRESSAVG
ENERGY: 0 2.5982 4.2890 2.4986 0.0000 -10824.1842 1438.5425 0.0000 0.0000 1782.5242 -7593.7316 299.0023 -9376.2559 -7593.7316 299.0023 146.4500 217.5652 30542.4974 146.4500 217.5652
ENERGY: 300000 3.0194 3.4875 1.9049 0.0000 -10765.0575 1340.3172 0.0000 0.0000 1876.1900 -7540.1386 314.7139 -9416.3287 -7581.8029 305.8680 -565.9260 -556.5382 30494.5915 -368.7726 -324.2579
ENERGY: 600000 2.8993 3.8552 3.6302 0.0000 -10814.6967 1426.7369 0.0000 0.0000 1805.4206 -7572.1545 302.8430 -9377.5751 -7589.1710 304.5708 -626.5681 -558.7938 31594.1416 -288.2355 -233.8857
ENERGY: 900000 2.3234 3.8758 1.1493 0.0000 -10806.7912 1433.0329 0.0000 0.0000 1779.9150 -7586.4949 298.5647 -9366.4099 -7601.4423 302.8159 -143.8568 -107.4956 30681.7425 -318.0437 -263.0542
ENERGY: 1200000 1.0536 2.9450 3.1599 0.0000 -10691.4896 1334.7220 0.0000 0.0000 1804.0574 -7545.5516 302.6143 -9349.6091 -7612.4306 301.1223 -748.4659 -678.3555 30792.6262 -261.5578 -204.5024
ENERGY: 1500000 2.1082 5.4362 7.0168 0.0000 -10863.2397 1403.7905 0.0000 0.0000 1770.8190 -7674.0690 297.0389 -9444.8880 -7615.6718 301.2426 -583.0887 -495.9828 30765.4984 -214.9751 -153.8838
TCL: Running FEP window   8: Lambda1 0.6499999999999997 Lambda2 0.5999999999999996 [dLambda -0.050000000000000044]
TCL: Setting parameter firsttimestep to 0
TCL: Setting parameter alchLambda to 0.6499999999999997
Info: NONBONDED TABLE R-SQUARED SPACING: 0.0625
Info: NONBONDED TABLE SIZE: 705 POINTS
TCL: Setting parameter alchLambda2 to 0.5999999999999996
Info: NONBONDED TABLE R-SQUARED SPACING: 0.0625
Info: NONBONDED TABLE SIZE: 705 POINTS
TCL: Running for 1500000 steps
ETITLE: TS BOND ANGLE DIHED IMPRP ELECT VDW BOUNDARY MISC KINETIC TOTAL TEMP POTENTIAL TOTALAVG TEMPAVG PRESSURE GPRESSURE VOLUME PRESSAVG GPRESSAVG
ENERGY: 0 2.1082 5.4362 7.0168 0.0000 -10863.1695 1403.9209 0.0000 0.0000 1769.9499 -7674.7374 296.8931 -9444.6873 -7674.7374 296.8931 -574.8160 -500.6853 30765.4984 -574.8160 -500.6853
ENERGY: 300000 2.2868 6.0357 3.1193 0.0000 -10830.7551 1470.6506 0.0000 0.0000 1812.1138 -7536.5488 303.9657 -9348.6626 -7597.6051 303.4388 71.8641 109.8487 31317.8081 -109.1387 -55.0421
ENERGY: 600000 2.1900 3.4616 3.8991 0.0000 -10807.4657 1439.4028 0.0000 0.0000 1785.9884 -7572.5237 299.5834 -9358.5121 -7598.4126 303.0190 -81.9435 -33.5853 31112.6140 -25.4396 28.8874
ENERGY: 900000 1.6230 4.0641 3.1175 0.0000 -10746.5851 1377.3572 0.0000 0.0000 1774.2545 -7586.1688 297.6152 -9360.4233 -7598.6469 301.2467 -342.0241 -261.9158 30693.2474 -80.9213 -28.8074
ENERGY: 1200000 3.9567 2.4861 4.2684 0.0000 -10877.7166 1535.9401 0.0000 0.0000 1769.7260 -7561.3392 296.8555 -9331.0652 -7588.2475 301.0884 742.7634 765.3610 30380.6852 12.8035 62.5563
ENERGY: 1500000 3.6468 5.2686 5.1482 0.0000 -10838.4790 1460.7468 0.0000 0.0000 1796.1341 -7567.5345 301.2853 -9363.6685 -7586.2437 301.1710 199.0522 242.3024 30470.2876 21.0254 72.3573
TCL: Running FEP window   9: Lambda1 0.5999999999999996 Lambda2 0.5499999999999996 [dLambda -0.050000000000000044]
TCL: Setting parameter firsttimestep to 0
TCL: Setting parameter alchLambda to 0.5999999999999996
Info: NONBONDED TABLE R-SQUARED SPACING: 0.0625
Info: NONBONDED TABLE SIZE: 705 POINTS
TCL: Setting parameter alchLambda2 to 0.5499999999999996
Info: NONBONDED TABLE R-SQUARED SPACING: 0.0625
Info: NONBONDED TABLE SIZE: 705 POINTS
TCL: Running for 1500000 steps
ETITLE: TS BOND ANGLE DIHED IMPRP ELECT VDW BOUNDARY MISC KINETIC TOTAL TEMP POTENTIAL TOTALAVG TEMPAVG PRESSURE GPRESSURE VOLUME PRESSAVG GPRESSAVG
ENERGY: 0 3.6468 5.2686 5.1482 0.0000 -10838.6064 1461.1935 0.0000 0.0000 1795.2588 -7568.0904 301.1384 -9363.3492 -7568.0904 301.1384 157.1226 237.0877 30470.2876 157.1226 237.0877
ENERGY: 300000 0.9018 3.9739 1.6999 0.0000 -10853.7657 1466.8415 0.0000 0.0000 1802.0940 -7578.2546 302.2850 -9380.3486 -7604.4655 299.3109 73.7146 141.6542 30849.8664 161.8932 238.4981
ENERGY: 600000 1.9595 2.8651 1.5239 0.0000 -11012.3355 1496.0475 0.0000 0.0000 1830.9960 -7678.9434 307.1330 -9509.9394 -7616.6685 300.5611 165.1204 262.0521 30485.3423 55.2197 136.2392
ENERGY: 900000 2.5109 4.9673 2.8150 0.0000 -10794.3896 1393.3189 0.0000 0.0000 1777.9753 -7612.8023 298.2393 -9390.7775 -7628.9311 299.1991 -628.8755 -598.0936 31025.3951 22.5622 91.0128
ENERGY: 1200000 2.4390 4.9443 4.8437 0.0000 -10873.3013 1474.9127 0.0000 0.0000 1775.1263 -7611.0353 297.7614 -9386.1616 -7615.7936 300.3069 134.4152 313.9361 30576.1387 -23.1896 48.1938
ENERGY: 1500000 2.9465 6.7786 1.8033 0.0000 -10847.4055 1447.9754 0.0000 0.0000 1752.0694 -7635.8323 293.8938 -9387.9017 -7614.1204 300.1982 -216.6055 -190.4553 30897.8722 -8.5154 60.8566
TCL: Running FEP window  10: Lambda1 0.5499999999999996 Lambda2 0.4999999999999996 [dLambda -0.04999999999999999]
TCL: Setting parameter firsttimestep to 0
TCL: Setting parameter alchLambda to 0.5499999999999996
Info: NONBONDED TABLE R-SQUARED SPACING: 0.0625
Info: NONBONDED TABLE SIZE: 705 POINTS
TCL: Setting parameter alchLambda2 to 0.4999999999999996
Info: NONBONDED TABLE R-SQUARED SPACING: 0.0625
Info: NONBONDED TABLE SIZE: 705 POINTS
TCL: Running for 1500000 steps
ETITLE: TS BOND ANGLE DIHED IMPRP ELECT VDW BOUNDARY MISC KINETIC TOTAL TEMP POTENTIAL TOTALAVG TEMPAVG PRESSURE GPRESSURE VOLUME PRESSAVG GPRESSAVG
ENERGY: 0 2.9465 6.7786 1.8033 0.0000 -10847.3820 1447.9931 0.0000 0.0000 1751.1815 -7636.6790 293.7449 -9387.8604 -7636.6790 293.7449 -293.5739 -199.7381 30897.8722 -293.5739 -199.7381
ENERGY: 300000 3.3349 3.4461 3.6415 0.0000 -10972.9612 1549.2186 0.0000 0.0000 1773.2965 -7640.0237 297.4545 -9413.3202 -7595.7627 300.6113 637.5605 711.0390 30855.5127 265.4696 358.2633
ENERGY: 600000 3.5720 1.9034 4.1479 0.0000 -10791.7671 1406.6015 0.0000 0.0000 1762.7322 -7612.8101 295.6824 -9375.5423 -7599.1394 299.7997 -162.5617 -63.2299 30499.2431 65.7575 159.7237
ENERGY: 900000 4.0124 3.7388 3.3092 0.0000 -10978.2560 1517.2905 0.0000 0.0000 1758.3569 -7691.5482 294.9485 -9449.9051 -7613.0079 298.9257 147.4168 141.2954 30929.9104 104.2074 191.1609
ENERGY: 1200000 1.4359 4.6449 3.3561 0.0000 -10936.9807 1505.5800 0.0000 0.0000 1736.8774 -7685.0864 291.3455 -9421.9639 -7628.1296 297.4476 497.1570 511.9645 30520.6440 181.2935 261.9772
ENERGY: 1500000 1.2518 5.1647 2.1943 0.0000 -10802.2692 1365.2203 0.0000 0.0000 1807.6087 -7620.8293 303.2100 -9428.4380 -7633.6250 297.5495 -638.3124 -599.1000 30694.8873 101.3187 171.0251
TCL: Running FEP window  11: Lambda1 0.4999999999999996 Lambda2 0.4499999999999996 [dLambda -0.04999999999999999]
TCL: Setting parameter firsttimestep to 0
TCL: Setting parameter alchLambda to 0.4999999999999996
Info: NONBONDED TABLE R-SQUARED SPACING: 0.0625
Info: NONBONDED TABLE SIZE: 705 POINTS
TCL: Setting parameter alchLambda2 to 0.4499999999999996
Info: NONBONDED TABLE R-SQUARED SPACING: 0.0625
Info: NONBONDED TABLE SIZE: 705 POINTS
TCL: Running for 1500000 steps
ETITLE: TS BOND ANGLE DIHED IMPRP ELECT VDW BOUNDARY MISC KINETIC TOTAL TEMP POTENTIAL TOTALAVG TEMPAVG PRESSURE GPRESSURE VOLUME PRESSAVG GPRESSAVG
ENERGY: 0 1.2518 5.1647 2.1943 0.0000 -10802.2134 1365.5119 0.0000 0.0000 1806.7274 -7621.3632 303.0622 -9428.0907 -7621.3632 303.0622 -684.8068 -602.9046 30694.8873 -684.8068 -602.9046
ENERGY: 300000 4.6948 2.7253 2.1338 0.0000 -10764.3796 1442.1865 0.0000 0.0000 1761.4158 -7551.2233 295.4616 -9312.6391 -7576.7540 299.6137 -80.1974 43.4691 31374.0540 -322.2979 -242.3976
ENERGY: 600000 1.3588 4.1199 2.4903 0.0000 -10809.9050 1443.4660 0.0000 0.0000 1776.2773 -7582.1928 297.9545 -9358.4701 -7611.0187 299.4431 -175.6559 -114.5835 30962.4011 -207.3674 -129.6626
ENERGY: 900000 2.4091 3.0413 4.1663 0.0000 -11049.1422 1573.7120 0.0000 0.0000 1737.7775 -7728.0359 291.4965 -9465.8135 -7619.0716 299.2939 481.2147 516.9670 31020.2110 -141.2110 -70.8277
ENERGY: 1200000 1.0826 6.5084 2.0510 0.0000 -10894.5421 1504.1322 0.0000 0.0000 1756.5509 -7624.2170 294.6455 -9380.7679 -7624.4493 299.2937 389.9131 450.0329 30945.2181 -48.5131 20.9806
ENERGY: 1500000 1.3650 3.7504 2.0079 0.0000 -11037.6856 1496.2559 0.0000 0.0000 1783.9395 -7750.3669 299.2397 -9534.3064 -7632.0158 299.3359 -102.2030 15.6207 30540.5457 -3.1207 67.7346
TCL: Running FEP window  12: Lambda1 0.4499999999999996 Lambda2 0.39999999999999963 [dLambda -0.04999999999999999]
TCL: Setting parameter firsttimestep to 0
TCL: Setting parameter alchLambda to 0.4499999999999996
Info: NONBONDED TABLE R-SQUARED SPACING: 0.0625
Info: NONBONDED TABLE SIZE: 705 POINTS
TCL: Setting parameter alchLambda2 to 0.39999999999999963
Info: NONBONDED TABLE R-SQUARED SPACING: 0.0625
Info: NONBONDED TABLE SIZE: 705 POINTS
TCL: Running for 1500000 steps
ETITLE: TS BOND ANGLE DIHED IMPRP ELECT VDW BOUNDARY MISC KINETIC TOTAL TEMP POTENTIAL TOTALAVG TEMPAVG PRESSURE GPRESSURE VOLUME PRESSAVG GPRESSAVG
ENERGY: 0 1.3650 3.7505 2.0079 0.0000 -11037.6866 1496.4579 0.0000 0.0000 1783.0413 -7751.0640 299.0891 -9534.1053 -7751.0640 299.0891 -80.2197 11.0638 30540.5457 -80.2197 11.0638
ENERGY: 300000 2.2323 1.1864 3.5970 0.0000 -10946.9825 1565.1378 0.0000 0.0000 1807.0104 -7567.8187 303.1097 -9374.8290 -7654.8092 299.8221 831.7428 928.1162 30905.3915 -23.1377 52.7065
ENERGY: 600000 2.8755 1.8493 7.0432 0.0000 -10943.4728 1447.6198 0.0000 0.0000 1789.0770 -7695.0080 300.1015 -9484.0850 -7662.9050 297.1031 -403.1652 -313.8148 30615.0204 -42.1269 37.0323
ENERGY: 900000 1.7860 3.5518 3.7700 0.0000 -10880.0554 1476.9586 0.0000 0.0000 1776.6004 -7617.3887 298.0087 -9393.9891 -7650.4746 298.3632 2.1014 22.5558 31112.4358 -30.8220 38.6691
ENERGY: 1200000 0.7215 2.8742 2.7032 0.0000 -10645.7646 1308.2507 0.0000 0.0000 1800.9295 -7530.2856 302.0896 -9331.2150 -7631.0532 299.1925 -1181.5671 -1144.8902 31404.2079 -104.6366 -34.0827
ENERGY: 1500000 1.2275 3.4104 4.3355 0.0000 -11031.3784 1547.6781 0.0000 0.0000 1766.6854 -7708.0416 296.3455 -9474.7269 -7638.7549 298.9884 422.0719 509.4944 30678.4846 -148.7331 -79.6150
TCL: Running FEP window  13: Lambda1 0.39999999999999963 Lambda2 0.34999999999999964 [dLambda -0.04999999999999999]
TCL: Setting parameter firsttimestep to 0
TCL: Setting parameter alchLambda to 0.39999999999999963
Info: NONBONDED TABLE R-SQUARED SPACING: 0.0625
Info: NONBONDED TABLE SIZE: 705 POINTS
TCL: Setting parameter alchLambda2 to 0.34999999999999964
Info: NONBONDED TABLE R-SQUARED SPACING: 0.0625
Info: NONBONDED TABLE SIZE: 705 POINTS
TCL: Running for 1500000 steps
ETITLE: TS BOND ANGLE DIHED IMPRP ELECT VDW BOUNDARY MISC KINETIC TOTAL TEMP POTENTIAL TOTALAVG TEMPAVG PRESSURE GPRESSURE VOLUME PRESSAVG GPRESSAVG
ENERGY: 0 1.2275 3.4104 4.3355 0.0000 -11031.3771 1548.0204 0.0000 0.0000 1765.7825 -7708.6008 296.1941 -9474.3833 -7708.6008 296.1941 427.1049 508.6227 30678.4846 427.1049 508.6227
ENERGY: 300000 3.0456 3.2234 7.7042 0.0000 -10929.2871 1523.2705 0.0000 0.0000 1764.8017 -7627.2418 296.0295 -9392.0434 -7620.3848 299.1416 637.4621 713.2016 30445.2852 190.8488 268.6507
ENERGY: 600000 4.2149 4.8058 4.1952 0.0000 -10809.5688 1390.3074 0.0000 0.0000 1808.2670 -7597.7784 303.3205 -9406.0454 -7601.2714 300.9800 -741.5312 -688.4552 31115.1324 -65.5514 8.0149
ENERGY: 900000 2.1679 5.4261 3.1616 0.0000 -10831.1343 1432.0585 0.0000 0.0000 1785.8230 -7602.4972 299.5557 -9388.3202 -7609.3984 300.2098 -284.3337 -193.7430 30615.8724 -51.9290 22.9237
ENERGY: 1200000 1.7519 5.2108 3.4512 0.0000 -10873.6662 1459.0954 0.0000 0.0000 1746.2931 -7657.8638 292.9249 -9404.1569 -7599.5044 300.2163 -194.4065 -62.5084 30901.8192 -163.3731 -74.5897
ENERGY: 1500000 1.7230 3.6832 4.9249 0.0000 -10861.7203 1448.6108 0.0000 0.0000 1775.2917 -7627.4867 297.7891 -9402.7784 -7597.4452 300.9753 -164.5794 -89.7953 30976.7788 -84.8517 2.1913
TCL: Running FEP window  14: Lambda1 0.34999999999999964 Lambda2 0.29999999999999966 [dLambda -0.04999999999999999]
TCL: Setting parameter firsttimestep to 0
TCL: Setting parameter alchLambda to 0.34999999999999964
Info: NONBONDED TABLE R-SQUARED SPACING: 0.0625
Info: NONBONDED TABLE SIZE: 705 POINTS
TCL: Setting parameter alchLambda2 to 0.29999999999999966
Info: NONBONDED TABLE R-SQUARED SPACING: 0.0625
Info: NONBONDED TABLE SIZE: 705 POINTS
TCL: Running for 1500000 steps
ETITLE: TS BOND ANGLE DIHED IMPRP ELECT VDW BOUNDARY MISC KINETIC TOTAL TEMP POTENTIAL TOTALAVG TEMPAVG PRESSURE GPRESSURE VOLUME PRESSAVG GPRESSAVG
ENERGY: 0 1.7230 3.6832 4.9249 0.0000 -10861.7204 1448.8707 0.0000 0.0000 1774.4423 -7628.0762 297.6467 -9402.5185 -7628.0762 297.6467 -170.4137 -93.3990 30976.7788 -170.4137 -93.3990
ENERGY: 300000 5.9417 3.7742 3.9003 0.0000 -10749.6590 1345.7828 0.0000 0.0000 1775.8907 -7614.3693 297.8896 -9390.2600 -7643.9666 298.7103 -1101.8772 -1057.0380 30867.4081 -465.1808 -396.0882
ENERGY: 600000 3.0879 2.7640 1.9809 0.0000 -10813.9038 1383.8975 0.0000 0.0000 1777.3589 -7644.8147 298.1359 -9422.1735 -7648.5980 300.0369 -920.7792 -874.8511 31017.3183 -398.1293 -344.5128
ENERGY: 900000 3.1757 1.5852 4.4301 0.0000 -10713.7476 1398.7029 0.0000 0.0000 1738.3599 -7567.4938 291.5942 -9305.8538 -7645.6038 298.5408 -271.7089 -247.4048 30920.2323 -318.5616 -273.9968
ENERGY: 1200000 2.9571 3.1488 4.6290 0.0000 -10756.7716 1432.9809 0.0000 0.0000 1771.7292 -7541.3266 297.1916 -9313.0558 -7636.4502 298.5887 -87.5930 -23.0109 30917.3934 -265.3768 -217.6712
ENERGY: 1500000 3.2997 3.5565 3.6817 0.0000 -10797.2036 1396.6551 0.0000 0.0000 1796.3381 -7593.6725 301.3195 -9390.0106 -7634.9081 299.1001 -648.2724 -574.7857 31176.8284 -214.8192 -164.9123
TCL: Running FEP window  15: Lambda1 0.29999999999999966 Lambda2 0.24999999999999967 [dLambda -0.04999999999999999]
TCL: Setting parameter firsttimestep to 0
TCL: Setting parameter alchLambda to 0.29999999999999966
Info: NONBONDED TABLE R-SQUARED SPACING: 0.0625
Info: NONBONDED TABLE SIZE: 705 POINTS
TCL: Setting parameter alchLambda2 to 0.24999999999999967
Info: NONBONDED TABLE R-SQUARED SPACING: 0.0625
Info: NONBONDED TABLE SIZE: 705 POINTS
TCL: Running for 1500000 steps
ETITLE: TS BOND ANGLE DIHED IMPRP ELECT VDW BOUNDARY MISC KINETIC TOTAL TEMP POTENTIAL TOTALAVG TEMPAVG PRESSURE GPRESSURE VOLUME PRESSAVG GPRESSAVG
ENERGY: 0 3.2998 3.5565 3.6817 0.0000 -10797.2031 1397.2284 0.0000 0.0000 1795.4346 -7594.0021 301.1679 -9389.4367 -7594.0021 301.1679 -646.7647 -574.1722 31176.8284 -646.7647 -574.1722
ENERGY: 300000 1.8605 7.7402 3.0944 0.0000 -10718.9905 1403.8548 0.0000 0.0000 1810.1569 -7492.2836 303.6375 -9302.4406 -7577.8322 299.6625 -267.6402 -259.8235 31302.4166 -481.5210 -436.3898
ENERGY: 600000 4.6711 5.4079 3.0752 0.0000 -10902.5461 1463.2024 0.0000 0.0000 1779.5135 -7646.6760 298.4973 -9426.1895 -7596.7168 298.8832 -236.2526 -213.7459 30822.6068 -342.1772 -282.4281
ENERGY: 900000 0.8138 1.7737 3.5224 0.0000 -10820.1468 1499.7310 0.0000 0.0000 1814.8310 -7499.4750 304.4215 -9314.3060 -7589.0719 299.4403 421.0079 500.0924 30990.1351 -204.8293 -146.4071
ENERGY: 1200000 2.8684 5.4693 6.1623 0.0000 -10871.1723 1429.3051 0.0000 0.0000 1786.9055 -7640.4617 299.7372 -9427.3671 -7605.6355 298.9038 -447.9292 -456.8429 31079.2726 -152.4265 -95.5182
ENERGY: 1500000 2.8668 5.1067 5.8375 0.0000 -11027.3315 1566.1046 0.0000 0.0000 1744.9447 -7702.4712 292.6987 -9447.4160 -7613.2730 299.1636 841.5496 863.6572 30295.4054 -91.9710 -34.9589
TCL: Running FEP window  16: Lambda1 0.24999999999999967 Lambda2 0.19999999999999968 [dLambda -0.04999999999999999]
TCL: Setting parameter firsttimestep to 0
TCL: Setting parameter alchLambda to 0.24999999999999967
Info: NONBONDED TABLE R-SQUARED SPACING: 0.0625
Info: NONBONDED TABLE SIZE: 705 POINTS
TCL: Setting parameter alchLambda2 to 0.19999999999999968
Info: NONBONDED TABLE R-SQUARED SPACING: 0.0625
Info: NONBONDED TABLE SIZE: 705 POINTS
TCL: Running for 1500000 steps
ETITLE: TS BOND ANGLE DIHED IMPRP ELECT VDW BOUNDARY MISC KINETIC TOTAL TEMP POTENTIAL TOTALAVG TEMPAVG PRESSURE GPRESSURE VOLUME PRESSAVG GPRESSAVG
ENERGY: 0 2.8668 5.1067 5.8375 0.0000 -11027.3316 1565.3433 0.0000 0.0000 1744.0643 -7704.1130 292.5510 -9448.1774 -7704.1130 292.5510 775.5764 856.9672 30295.4054 775.5764 856.9672
ENERGY: 300000 2.7362 5.6107 5.2492 0.0000 -10970.8383 1511.3708 0.0000 0.0000 1786.4294 -7659.4419 299.6574 -9445.8714 -7652.7708 297.9284 342.2390 424.1182 30267.8740 321.4591 397.2706
ENERGY: 600000 3.0051 4.4007 2.6088 0.0000 -10876.7167 1481.9789 0.0000 0.0000 1777.3243 -7607.3989 298.1301 -9384.7232 -7630.8593 298.4257 183.3215 217.8012 30866.1307 88.2334 163.1064
ENERGY: 900000 1.0890 3.3429 4.8109 0.0000 -11036.6184 1569.1095 0.0000 0.0000 1813.3454 -7644.9207 304.1723 -9458.2661 -7631.6570 300.0562 784.4965 847.5772 30547.6577 148.7150 216.9558
ENERGY: 1200000 3.0035 1.6014 3.4426 0.0000 -10779.9031 1398.5121 0.0000 0.0000 1825.8482 -7547.4953 306.2695 -9373.3435 -7622.0893 300.9452 -591.0310 -474.1506 31203.0785 121.5510 182.0521
ENERGY: 1500000 2.7440 4.9721 5.0705 0.0000 -10928.4779 1549.8029 0.0000 0.0000 1800.9722 -7564.9162 302.0968 -9365.8884 -7617.5523 301.0937 828.5157 823.3523 30925.4344 116.7518 170.6532
TCL: Running FEP window  17: Lambda1 0.19999999999999968 Lambda2 0.1499999999999997 [dLambda -0.04999999999999999]
TCL: Setting parameter firsttimestep to 0
TCL: Setting parameter alchLambda to 0.19999999999999968
Info: NONBONDED TABLE R-SQUARED SPACING: 0.0625
Info: NONBONDED TABLE SIZE: 705 POINTS
TCL: Setting parameter alchLambda2 to 0.1499999999999997
Info: NONBONDED TABLE R-SQUARED SPACING: 0.0625
Info: NONBONDED TABLE SIZE: 705 POINTS
TCL: Running for 1500000 steps
ETITLE: TS BOND ANGLE DIHED IMPRP ELECT VDW BOUNDARY MISC KINETIC TOTAL TEMP POTENTIAL TOTALAVG TEMPAVG PRESSURE GPRESSURE VOLUME PRESSAVG GPRESSAVG
ENERGY: 0 2.7440 4.9721 5.0705 0.0000 -10928.4770 1549.9869 0.0000 0.0000 1800.1048 -7565.5985 301.9513 -9365.7034 -7565.5985 301.9513 747.8044 821.2639 30925.4344 747.8044 821.2639
ENERGY: 300000 2.1273 5.1870 5.3269 0.0000 -11039.7260 1569.5816 0.0000 0.0000 1796.8705 -7660.6327 301.4088 -9457.5032 -7621.0567 298.0656 791.4777 855.5088 30449.4725 275.3297 331.0071
ENERGY: 600000 0.8035 5.9489 3.0239 0.0000 -11177.9470 1617.8418 0.0000 0.0000 1817.4574 -7732.8715 304.8620 -9550.3288 -7641.8210 299.4379 1008.0590 1048.8759 30394.2951 179.5741 239.8842
ENERGY: 900000 3.5530 1.6065 8.4934 0.0000 -10767.0043 1395.3990 0.0000 0.0000 1815.6070 -7542.3453 304.5517 -9357.9523 -7622.9856 299.8283 19.1752 -5.0772 30052.7474 113.0403 159.3243
ENERGY: 1200000 2.0172 5.1908 5.1202 0.0000 -10883.0171 1475.9897 0.0000 0.0000 1773.0143 -7621.6848 297.4071 -9394.6992 -7617.9597 299.5836 277.4365 346.2305 30619.4967 96.5732 149.2779
ENERGY: 1500000 2.8193 1.4650 5.9183 0.0000 -10796.4216 1466.0075 0.0000 0.0000 1800.2366 -7519.9750 301.9734 -9320.2116 -7608.8730 299.7034 229.4579 293.5026 30891.2224 48.3634 101.8485
TCL: Running FEP window  18: Lambda1 0.1499999999999997 Lambda2 0.09999999999999969 [dLambda -0.05 ]
TCL: Setting parameter firsttimestep to 0
TCL: Setting parameter alchLambda to 0.1499999999999997
Info: NONBONDED TABLE R-SQUARED SPACING: 0.0625
Info: NONBONDED TABLE SIZE: 705 POINTS
TCL: Setting parameter alchLambda2 to 0.09999999999999969
Info: NONBONDED TABLE R-SQUARED SPACING: 0.0625
Info: NONBONDED TABLE SIZE: 705 POINTS
TCL: Running for 1500000 steps
ETITLE: TS BOND ANGLE DIHED IMPRP ELECT VDW BOUNDARY MISC KINETIC TOTAL TEMP POTENTIAL TOTALAVG TEMPAVG PRESSURE GPRESSURE VOLUME PRESSAVG GPRESSAVG
ENERGY: 0 2.8193 1.4650 5.9183 0.0000 -10796.4214 1466.2830 0.0000 0.0000 1799.3386 -7520.5972 301.8228 -9319.9358 -7520.5972 301.8228 196.5166 291.1024 30891.2224 196.5166 291.1024
ENERGY: 300000 3.2115 5.4683 5.2831 0.0000 -10861.1804 1405.6841 0.0000 0.0000 1789.5439 -7651.9896 300.1798 -9441.5335 -7591.7560 300.1267 -668.0101 -585.7864 31131.0816 -127.6915 -49.9717
ENERGY: 600000 3.6680 1.5427 4.8315 0.0000 -10770.9694 1391.3355 0.0000 0.0000 1773.9284 -7595.6632 297.5605 -9369.5916 -7590.9653 300.4693 -396.7741 -387.4737 30618.8527 -88.1849 -26.8768
ENERGY: 900000 4.0312 3.0916 6.6690 0.0000 -10850.9491 1506.9354 0.0000 0.0000 1812.5280 -7517.6938 304.0352 -9330.2218 -7581.4201 301.9296 355.0311 417.5089 30956.7576 -93.1373 -31.4675
ENERGY: 1200000 2.1854 3.8280 4.0999 0.0000 -10920.6638 1473.9974 0.0000 0.0000 1818.3726 -7618.1806 305.0156 -9436.5533 -7591.4653 301.2895 -164.1172 -94.4821 30691.8369 -41.8845 14.6689
ENERGY: 1500000 1.9336 2.6105 1.3897 0.0000 -10940.1320 1527.8882 0.0000 0.0000 1724.6827 -7681.6273 289.2999 -9406.3101 -7600.6373 299.9123 227.6818 386.5093 30900.4708 -59.7800 6.0541
TCL: Running FEP window  19: Lambda1 0.09999999999999969 Lambda2 0.049999999999999684 [dLambda -0.05 ]
TCL: Setting parameter firsttimestep to 0
TCL: Setting parameter alchLambda to 0.09999999999999969
Info: NONBONDED TABLE R-SQUARED SPACING: 0.0625
Info: NONBONDED TABLE SIZE: 705 POINTS
TCL: Setting parameter alchLambda2 to 0.049999999999999684
Info: NONBONDED TABLE R-SQUARED SPACING: 0.0625
Info: NONBONDED TABLE SIZE: 705 POINTS
TCL: Running for 1500000 steps
ETITLE: TS BOND ANGLE DIHED IMPRP ELECT VDW BOUNDARY MISC KINETIC TOTAL TEMP POTENTIAL TOTALAVG TEMPAVG PRESSURE GPRESSURE VOLUME PRESSAVG GPRESSAVG
ENERGY: 0 1.9336 2.6105 1.3897 0.0000 -10940.1307 1526.6609 0.0000 0.0000 1723.7946 -7683.7414 289.1510 -9407.5360 -7683.7414 289.1510 287.2818 382.6260 30900.4708 287.2818 382.6260
ENERGY: 300000 4.2683 2.4858 4.5006 0.0000 -10830.1047 1428.7467 0.0000 0.0000 1822.5890 -7567.5143 305.7228 -9390.1033 -7592.7394 302.4939 -428.0072 -356.5758 30963.3229 95.3984 169.5672
ENERGY: 600000 2.0319 3.6817 2.3347 0.0000 -10844.9921 1451.0201 0.0000 0.0000 1750.5176 -7635.4062 293.6335 -9385.9238 -7605.5408 301.0261 76.7112 138.0954 30521.0444 169.3709 251.6167
ENERGY: 900000 0.5686 4.6633 3.8644 0.0000 -10856.2104 1473.1037 0.0000 0.0000 1833.5212 -7540.4893 307.5566 -9374.0104 -7592.9390 301.5697 22.7848 97.0055 30745.9756 175.7499 237.9022
ENERGY: 1200000 1.7373 3.7809 2.4317 0.0000 -10883.1150 1504.7381 0.0000 0.0000 1767.1186 -7603.3082 296.4182 -9370.4269 -7599.3351 299.8104 546.3422 607.9829 30266.6099 191.0796 252.0199
ENERGY: 1500000 2.5264 2.1844 4.1185 0.0000 -10746.5959 1407.4224 0.0000 0.0000 1801.5994 -7528.7448 302.2020 -9330.3442 -7595.7089 299.9247 -315.0626 -280.1376 31010.0536 76.2681 128.5183
TCL: Running FEP window  20: Lambda1 0.049999999999999684 Lambda2 0.0    [dLambda -0.049999999999999684]
TCL: Setting parameter firsttimestep to 0
TCL: Setting parameter alchLambda to 0.049999999999999684
Info: NONBONDED TABLE R-SQUARED SPACING: 0.0625
Info: NONBONDED TABLE SIZE: 705 POINTS
TCL: Setting parameter alchLambda2 to 0.0
Info: NONBONDED TABLE R-SQUARED SPACING: 0.0625
Info: NONBONDED TABLE SIZE: 705 POINTS
TCL: Running for 1500000 steps
ETITLE: TS BOND ANGLE DIHED IMPRP ELECT VDW BOUNDARY MISC KINETIC TOTAL TEMP POTENTIAL TOTALAVG TEMPAVG PRESSURE GPRESSURE VOLUME PRESSAVG GPRESSAVG
ENERGY: 0 2.5264 2.1844 4.1185 0.0000 -10746.5953 1407.5123 0.0000 0.0000 1800.6904 -7529.5632 302.0495 -9330.2536 -7529.5632 302.0495 -359.2818 -283.3099 31010.0536 -359.2818 -283.3099
ENERGY: 300000 2.2861 3.7394 4.0941 0.0000 -10925.6703 1506.2496 0.0000 0.0000 1768.1050 -7641.1962 296.5836 -9409.3011 -7573.7121 299.8906 415.0024 466.1258 30456.6577 125.0514 190.3732
ENERGY: 600000 2.7995 2.8697 3.1172 0.0000 -10700.1004 1361.1794 0.0000 0.0000 1775.0374 -7555.0972 297.7465 -9330.1346 -7581.8686 299.2140 -1102.6911 -1029.6834 31516.0508 -39.0563 17.7928
ENERGY: 900000 2.0129 4.8104 2.0228 0.0000 -10754.2614 1427.4803 0.0000 0.0000 1812.2965 -7505.6385 303.9964 -9317.9350 -7575.6146 300.0785 -245.8877 -167.5296 30960.5205 -121.6820 -55.8498
ENERGY: 1200000 3.3918 5.4298 1.7772 0.0000 -10939.0040 1508.7403 0.0000 0.0000 1848.3482 -7571.3167 310.0437 -9419.6649 -7582.9653 300.3009 369.6424 468.0289 30930.3598 -44.0530 23.1003
ENERGY: 1500000 2.7852 2.8014 4.9186 0.0000 -10942.2722 1515.9502 0.0000 0.0000 1797.1051 -7618.7117 301.4481 -9415.8168 -7589.8206 300.0631 44.6931 135.5453 30956.2863 -4.5223 59.3365
TCL: Exiting due to exit command.
