Info: SIMULATION PARAMETERS:
Info: TIMESTEP               2
Info: NUMBER OF STEPS        0
Info: STEPS PER CYCLE        10
Info: PERIODIC CELL BASIS 1  31.5513 0 0
Info: PERIODIC CELL BASIS 2  0 30.5017 0
Info: PERIODIC CELL BASIS 3  0 0 31.3351
Info: PERIODIC CELL CENTER   0 0 0
Info: WRAPPING WATERS AROUND PERIODIC BOUNDARIES ON OUTPUT.
Info: WRAPPING ALL CLUSTERS AROUND PERIODIC BOUNDARIES ON OUTPUT.
Info: FIRST LDB TIMESTEP     50
Info: LAST LDB TIMESTEP     -1
Info: HOM BACKGROUND SCALING 1
Info: PME BACKGROUND SCALING 1
Info: MIN ATOMS PER PATCH    40
Info: EMPTY PATCH LOAD       40 ATOMS
Info: VELOCITY FILE          mobley_511661_equil.vel
Info: CENTER OF MASS MOVING INITIALLY? NO
Info: DIELECTRIC             1
Info: EXCLUDE                SCALED ONE-FOUR
Info: 1-4 ELECTROSTATICS SCALED BY 0.833333
Info: MODIFIED 1-4 VDW PARAMETERS WILL BE USED
Info: DCD FILENAME           mobley_511661_prod.dcd
Info: DCD FREQUENCY          100000
Info: DCD FIRST STEP         100000
Info: DCD FILE WILL CONTAIN UNIT CELL DATA
Info: XST FILENAME           mobley_511661_prod.xst
Info: XST FREQUENCY          100000
Info: NO VELOCITY DCD OUTPUT
Info: NO FORCE DCD OUTPUT
Info: OUTPUT FILENAME        mobley_511661_prod
Info: BINARY OUTPUT FILES WILL BE USED
Info: RESTART FILENAME       mobley_511661_prod.restart
Info: RESTART FREQUENCY      100000
Info: BINARY RESTART FILES WILL BE USED
Info: CUTOFF                 9
Info: PAIRLIST DISTANCE      11
Info: PAIRLIST SHRINK RATE   0.01
Info: PAIRLIST GROW RATE     0.01
Info: PAIRLIST TRIGGER       0.3
Info: PAIRLISTS PER CYCLE    2
Info: PAIRLISTS ENABLED
Info: MARGIN                 2
Info: HYDROGEN GROUP CUTOFF  2.5
Info: PATCH DIMENSION        15.5
Info: ENERGY OUTPUT STEPS    100000
Info: ENERGY EVALUATION STEPS    100000
Info: OUTPUT ENERGY PRECISION 4
Info: CROSSTERM ENERGY INCLUDED IN DIHEDRAL
Info: TIMING OUTPUT STEPS    1000000
Info: PRESSURE OUTPUT STEPS  100000
Info: ALCHEMICAL FEP ON
Info: FEP CURRENT LAMBDA VALUE     0
Info: FEP COMPARISON LAMBDA VALUE  0.05
Info: FEP INTRA-ALCHEMICAL NON-BONDED INTERACTIONS WILL BE RETAINED
Info: FEP INTRA-ALCHEMICAL BONDED INTERACTIONS WILL BE RETAINED
Info: FEP VDW SHIFTING COEFFICIENT 5
Info: FEP ELEC. ACTIVE FOR ANNIHILATED PARTICLES BETWEEN LAMBDA = 0 AND LAMBDA = 0.5
Info: FEP ELEC. ACTIVE FOR EXNIHILATED PARTICLES BETWEEN LAMBDA = 0.5 AND LAMBDA = 1
Info: FEP VDW ACTIVE FOR ANNIHILATED PARTICLES BETWEEN LAMBDA = 0 AND LAMBDA = 1
Info: FEP VDW ACTIVE FOR EXNIHILATED PARTICLES BETWEEN LAMBDA = 0 AND LAMBDA = 1
Info: FEP BOND ACTIVE FOR ANNIHILATED PARTICLES BETWEEN LAMBDA = 1 AND LAMBDA = 1
Info: FEP BOND ACTIVE FOR EXNIHILATED PARTICLES BETWEEN LAMBDA = 0 AND LAMBDA = 0
Info: LANGEVIN DYNAMICS ACTIVE
Info: LANGEVIN TEMPERATURE   300
Info: LANGEVIN USING BBK INTEGRATOR
Info: LANGEVIN DAMPING COEFFICIENT IS 1 INVERSE PS
Info: LANGEVIN DYNAMICS APPLIED TO HYDROGENS
Info: LANGEVIN PISTON PRESSURE CONTROL ACTIVE
Info:        TARGET PRESSURE IS 1.01325 BAR
Info:     OSCILLATION PERIOD IS 50 FS
Info:             DECAY TIME IS 25 FS
Info:     PISTON TEMPERATURE IS 300 K
Info:       PRESSURE CONTROL IS GROUP-BASED
Info:    INITIAL STRAIN RATE IS -0.000614788 -0.000614788 -0.000614788
Info:       CELL FLUCTUATION IS ISOTROPIC
Info: PARTICLE MESH EWALD (PME) ACTIVE
Info: PME TOLERANCE               1e-06
Info: PME EWALD COEFFICIENT       0.348832
Info: PME INTERPOLATION ORDER     4
Info: PME GRID DIMENSIONS         32 32 32
Info: PME MAXIMUM GRID SPACING    1
Info: PME CALCULATION WILL BE PERFORMED ON GPU
Info: FULL ELECTROSTATIC EVALUATION FREQUENCY      2
Info: USING VERLET I (r-RESPA) MTS SCHEME.
Info: C1 SPLITTING OF LONG RANGE ELECTROSTATICS
Info: PLACING ATOMS IN PATCHES BY HYDROGEN GROUPS
Info: RIGID BONDS TO HYDROGEN : ALL
Info:         ERROR TOLERANCE : 1e-08
Info:          MAX ITERATIONS : 100
Info: RIGID WATER USING SETTLE ALGORITHM
Info: RANDOM NUMBER SEED     1743675878
Info: USE HYDROGEN BONDS?    NO
Info: Using AMBER format force field!
Info: AMBER PARM FILE        mobley_511661.prmtop
Info: COORDINATE PDB         mobley_511661.pdb
Info: Exclusions will be read from PARM file!
Info: SCNB (VDW SCALING)     2
Info: USING ARITHMETIC MEAN TO COMBINE L-J SIGMA PARAMETERS
Info: BINARY COORDINATES     mobley_511661_equil.coor
Info: SUMMARY OF PARAMETERS:
Info: 6 BONDS
Info: 5 ANGLES
Info:   5 HARMONIC
Info:   0 COSINE-BASED
Info: 3 DIHEDRAL
Info: 0 IMPROPER
Info: 0 CROSSTERM
Info: 0 VDW
Info: 10 VDW_PAIRS
Info: 0 NBTHOLE_PAIRS
Info: To read alchdata from file: mobley_511661.pdb
Info: To read alchflag data from column: 5
Info: STRUCTURE SUMMARY:
Info: 2929 ATOMS
Info: 2928 BONDS
Info: 12 ANGLES
Info: 16 DIHEDRALS
Info: 0 IMPROPERS
Info: 0 CROSSTERMS
Info: 2952 EXCLUSIONS
Info: 2925 RIGID BONDS
Info: ALCH: 0 ATOMS TO DISAPPEAR IN FINAL STATE
Info: ALCH: 10 ATOMS TO APPEAR IN FINAL STATE
Info: 5862 DEGREES OF FREEDOM
Info: 977 HYDROGEN GROUPS
Info: 3 ATOMS IN LARGEST HYDROGEN GROUP
Info: 977 MIGRATION GROUPS
Info: 3 ATOMS IN LARGEST MIGRATION GROUP
Info: TOTAL MASS = 17583.7 amu
Info: TOTAL CHARGE = -1.49012e-08 e
Info: MASS DENSITY = 0.968272 g/cm^3
Info: ATOM DENSITY = 0.0971288 atoms/A^3
Info: ADDED 0 IMPLICIT EXCLUSIONS
Info: NONBONDED TABLE R-SQUARED SPACING: 0.0625
Info: NONBONDED TABLE SIZE: 705 POINTS
Info: REMOVING COM VELOCITY 0.193439 0.0623097 0.0266494
Info: Use 3D box decompostion in PME FFT.
Info: Updated CUDA force table with 4096 elements.
Info: Updated CUDA LJ table with 4 x 4 elements.
Info: Found 12 unique exclusion lists needing 16 bytes
TCL: Running for 1500000 steps
ETITLE: TS BOND ANGLE DIHED IMPRP ELECT VDW BOUNDARY MISC KINETIC TOTAL TEMP POTENTIAL TOTALAVG TEMPAVG PRESSURE GPRESSURE VOLUME PRESSAVG GPRESSAVG
ENERGY: 0 0.0797 1.1177 3.7069 0.0000 -10773.6824 1505.0130 0.0000 0.0000 1772.2919 -7491.4734 304.2845 -9263.7652 -7491.4734 304.2845 274.9921 357.1124 30155.8258 274.9921 357.1124
ENERGY: 300000 2.6965 6.5929 0.4566 0.0000 -10557.3020 1406.2377 0.0000 0.0000 1728.2569 -7413.0613 296.7241 -9141.3182 -7423.5194 303.0988 -277.1788 -203.1797 30446.3784 233.7593 289.1573
ENERGY: 600000 2.4889 4.5545 2.4358 0.0000 -10675.6898 1503.1303 0.0000 0.0000 1753.3390 -7409.7414 301.0305 -9163.0804 -7434.2923 301.6896 574.6391 596.6933 29794.0333 133.7909 194.9948
ENERGY: 900000 0.2859 1.9996 3.4148 0.0000 -10601.3305 1361.8149 0.0000 0.0000 1807.5779 -7426.2373 310.3427 -9233.8152 -7437.3374 302.3465 -583.4587 -558.3696 30139.8501 52.6403 118.3681
ENERGY: 1200000 0.7704 1.2952 1.3064 0.0000 -10499.8613 1340.1661 0.0000 0.0000 1727.3306 -7428.9926 296.5651 -9156.3232 -7436.0298 301.7381 -825.9353 -758.6639 30713.5383 -51.4534 13.4839
ENERGY: 1500000 1.3033 3.7964 1.7782 0.0000 -10534.3667 1414.4928 0.0000 0.0000 1707.6176 -7405.3784 293.1806 -9112.9959 -7433.4315 301.2518 -55.4245 -23.8458 30336.4242 -79.0762 -18.6887
TCL: Running FEP window   2: Lambda1 0.05   Lambda2 0.1    [dLambda 0.05  ]
TCL: Setting parameter firsttimestep to 0
TCL: Setting parameter alchLambda to 0.05
Info: NONBONDED TABLE R-SQUARED SPACING: 0.0625
Info: NONBONDED TABLE SIZE: 705 POINTS
TCL: Setting parameter alchLambda2 to 0.1
Info: NONBONDED TABLE R-SQUARED SPACING: 0.0625
Info: NONBONDED TABLE SIZE: 705 POINTS
TCL: Running for 1500000 steps
ETITLE: TS BOND ANGLE DIHED IMPRP ELECT VDW BOUNDARY MISC KINETIC TOTAL TEMP POTENTIAL TOTALAVG TEMPAVG PRESSURE GPRESSURE VOLUME PRESSAVG GPRESSAVG
ENERGY: 0 1.3033 3.7964 1.7782 0.0000 -10534.3664 1416.5060 0.0000 0.0000 1706.7748 -7404.2077 293.0359 -9110.9825 -7404.2077 293.0359 -108.3965 -19.7331 30336.4242 -108.3965 -19.7331
ENERGY: 300000 0.1067 1.2391 3.6097 0.0000 -10580.1920 1367.3802 0.0000 0.0000 1789.0351 -7418.8212 307.1591 -9207.8563 -7436.3480 300.6053 -699.5415 -614.9100 30568.7609 -314.3238 -249.2828
ENERGY: 600000 2.6648 2.5853 0.6897 0.0000 -10451.0781 1353.1277 0.0000 0.0000 1728.7752 -7363.2354 296.8131 -9092.0106 -7437.3191 299.0456 -440.7042 -343.6311 30399.7218 -103.0565 -28.7645
ENERGY: 900000 0.4231 2.9567 2.2619 0.0000 -10629.9145 1415.7371 0.0000 0.0000 1790.8516 -7417.6841 307.4710 -9208.5358 -7430.4075 300.6467 -156.9174 -97.0371 30169.9219 73.8304 146.7774
ENERGY: 1200000 0.7998 1.8867 2.2219 0.0000 -10672.0069 1492.0374 0.0000 0.0000 1781.4499 -7393.6112 305.8568 -9175.0611 -7433.7008 301.8296 517.6163 531.4009 29974.4887 42.2490 102.2172
ENERGY: 1500000 0.7246 2.8605 4.8799 0.0000 -10408.7710 1354.4017 0.0000 0.0000 1728.9882 -7316.9161 296.8497 -9045.9043 -7426.0165 301.0549 -48.7665 -15.6229 30102.2904 -25.0689 32.6420
TCL: Running FEP window   3: Lambda1 0.1    Lambda2 0.15000000000000002 [dLambda 0.05000000000000002]
TCL: Setting parameter firsttimestep to 0
TCL: Setting parameter alchLambda to 0.1
Info: NONBONDED TABLE R-SQUARED SPACING: 0.0625
Info: NONBONDED TABLE SIZE: 705 POINTS
TCL: Setting parameter alchLambda2 to 0.15000000000000002
Info: NONBONDED TABLE R-SQUARED SPACING: 0.0625
Info: NONBONDED TABLE SIZE: 705 POINTS
TCL: Running for 1500000 steps
ETITLE: TS BOND ANGLE DIHED IMPRP ELECT VDW BOUNDARY MISC KINETIC TOTAL TEMP POTENTIAL TOTALAVG TEMPAVG PRESSURE GPRESSURE VOLUME PRESSAVG GPRESSAVG
ENERGY: 0 0.7246 2.8605 4.8799 0.0000 -10408.7707 1354.7651 0.0000 0.0000 1728.1130 -7317.4276 296.6994 -9045.5406 -7317.4276 296.6994 -97.4816 -12.7776 30102.2904 -97.4816 -12.7776
ENERGY: 300000 0.5098 1.2290 3.9384 0.0000 -10636.3043 1434.5576 0.0000 0.0000 1746.0862 -7449.9833 299.7852 -9196.0696 -7437.3452 298.1324 89.7779 129.8627 30066.2856 -201.8194 -148.1856
ENERGY: 600000 1.2746 4.1867 2.3615 0.0000 -10704.2252 1459.2798 0.0000 0.0000 1688.3717 -7548.7509 289.8762 -9237.1225 -7465.0523 296.6658 47.7060 143.5358 29853.8194 -197.3382 -132.0874
ENERGY: 900000 1.1274 2.7554 2.9585 0.0000 -10717.2186 1501.9934 0.0000 0.0000 1715.5272 -7492.8566 294.5386 -9208.3838 -7480.3974 295.6679 348.3472 376.2104 30250.7757 -103.1586 -40.3254
ENERGY: 1200000 0.8636 5.6024 2.4499 0.0000 -10715.2447 1475.4117 0.0000 0.0000 1783.5720 -7447.3450 306.2212 -9230.9170 -7476.7379 297.5477 130.1567 162.7658 30213.2583 20.0909 82.6577
ENERGY: 1500000 0.8283 1.0381 1.1014 0.0000 -10652.5519 1473.8429 0.0000 0.0000 1740.4996 -7435.2416 298.8261 -9175.7412 -7466.3488 298.2504 394.3554 364.2697 30090.8113 25.1315 84.6631
TCL: Running FEP window   4: Lambda1 0.15000000000000002 Lambda2 0.2    [dLambda 0.04999999999999999]
TCL: Setting parameter firsttimestep to 0
TCL: Setting parameter alchLambda to 0.15000000000000002
Info: NONBONDED TABLE R-SQUARED SPACING: 0.0625
Info: NONBONDED TABLE SIZE: 705 POINTS
TCL: Setting parameter alchLambda2 to 0.2
Info: NONBONDED TABLE R-SQUARED SPACING: 0.0625
Info: NONBONDED TABLE SIZE: 705 POINTS
TCL: Running for 1500000 steps
ETITLE: TS BOND ANGLE DIHED IMPRP ELECT VDW BOUNDARY MISC KINETIC TOTAL TEMP POTENTIAL TOTALAVG TEMPAVG PRESSURE GPRESSURE VOLUME PRESSAVG GPRESSAVG
ENERGY: 0 0.8283 1.0381 1.1014 0.0000 -10652.5537 1474.0171 0.0000 0.0000 1739.5931 -7435.9757 298.6704 -9175.5688 -7435.9757 298.6704 294.7755 364.9906 30090.8113 294.7755 364.9906
ENERGY: 300000 0.8597 2.2861 2.9337 0.0000 -10651.6149 1372.5579 0.0000 0.0000 1772.5608 -7500.4167 304.3307 -9272.9776 -7418.6450 304.7764 -609.8021 -535.9918 29882.0534 -72.6764 -15.9889
ENERGY: 600000 2.5604 1.9013 3.4978 0.0000 -10718.3572 1493.4229 0.0000 0.0000 1734.7994 -7482.1755 297.8474 -9216.9749 -7444.6552 304.3724 364.1261 396.0645 29980.8990 -108.8418 -56.3605
ENERGY: 900000 0.8524 3.0498 2.4663 0.0000 -10669.0502 1464.4639 0.0000 0.0000 1655.7334 -7542.4844 284.2726 -9198.2178 -7462.3561 300.9687 348.0524 395.7188 29768.7945 -67.2180 -23.0534
ENERGY: 1200000 0.3465 1.9615 3.1224 0.0000 -10615.2447 1430.5596 0.0000 0.0000 1722.4808 -7456.7739 295.7324 -9179.2547 -7457.6478 300.6756 146.5908 164.9239 29905.5493 51.3429 93.9037
ENERGY: 1500000 0.5940 1.0871 3.1493 0.0000 -10634.7787 1398.6202 0.0000 0.0000 1735.1823 -7496.1458 297.9132 -9231.3281 -7453.6628 299.8078 -472.6556 -430.2496 30017.5060 -32.3374 7.2726
TCL: Running FEP window   5: Lambda1 0.2    Lambda2 0.25   [dLambda 0.04999999999999999]
TCL: Setting parameter firsttimestep to 0
TCL: Setting parameter alchLambda to 0.2
Info: NONBONDED TABLE R-SQUARED SPACING: 0.0625
Info: NONBONDED TABLE SIZE: 705 POINTS
TCL: Setting parameter alchLambda2 to 0.25
Info: NONBONDED TABLE R-SQUARED SPACING: 0.0625
Info: NONBONDED TABLE SIZE: 705 POINTS
TCL: Running for 1500000 steps
ETITLE: TS BOND ANGLE DIHED IMPRP ELECT VDW BOUNDARY MISC KINETIC TOTAL TEMP POTENTIAL TOTALAVG TEMPAVG PRESSURE GPRESSURE VOLUME PRESSAVG GPRESSAVG
ENERGY: 0 0.5940 1.0871 3.1493 0.0000 -10634.7779 1399.2717 0.0000 0.0000 1734.2931 -7496.3827 297.7605 -9230.6758 -7496.3827 297.7605 -496.3224 -423.1708 30017.5060 -496.3224 -423.1708
ENERGY: 300000 0.3176 2.8320 1.3836 0.0000 -10639.7110 1418.7208 0.0000 0.0000 1773.2816 -7443.1753 304.4544 -9216.4569 -7409.2757 304.6426 -150.9404 -99.5986 30315.1558 -137.3497 -84.0013
ENERGY: 600000 2.3684 3.1068 1.3461 0.0000 -10673.1675 1449.5274 0.0000 0.0000 1767.9416 -7448.8772 303.5376 -9216.8188 -7433.7457 302.0221 -159.3734 -138.9699 30211.2122 -174.1786 -118.2504
ENERGY: 900000 2.3883 2.3650 2.0490 0.0000 -10657.5233 1474.1566 0.0000 0.0000 1704.5092 -7472.0553 292.6469 -9176.5645 -7433.0693 300.4094 -61.9395 12.9905 30421.9558 -203.0794 -131.9227
ENERGY: 1200000 0.8583 2.7223 2.3471 0.0000 -10624.3314 1412.8408 0.0000 0.0000 1748.4439 -7457.1190 300.1900 -9205.5629 -7418.2539 301.5615 -22.6373 33.5167 29456.0713 -116.3664 -47.5332
ENERGY: 1500000 0.4938 4.1432 1.4815 0.0000 -10627.1277 1458.5702 0.0000 0.0000 1759.0168 -7403.4224 302.0053 -9162.4391 -7422.6899 301.5610 310.2115 338.6063 29950.5903 -80.3826 -17.7947
TCL: Running FEP window   6: Lambda1 0.25   Lambda2 0.3    [dLambda 0.04999999999999999]
TCL: Setting parameter firsttimestep to 0
TCL: Setting parameter alchLambda to 0.25
Info: NONBONDED TABLE R-SQUARED SPACING: 0.0625
Info: NONBONDED TABLE SIZE: 705 POINTS
TCL: Setting parameter alchLambda2 to 0.3
Info: NONBONDED TABLE R-SQUARED SPACING: 0.0625
Info: NONBONDED TABLE SIZE: 705 POINTS
TCL: Running for 1500000 steps
ETITLE: TS BOND ANGLE DIHED IMPRP ELECT VDW BOUNDARY MISC KINETIC TOTAL TEMP POTENTIAL TOTALAVG TEMPAVG PRESSURE GPRESSURE VOLUME PRESSAVG GPRESSAVG
ENERGY: 0 0.4938 4.1432 1.4815 0.0000 -10627.1282 1460.5386 0.0000 0.0000 1758.1597 -7402.3115 301.8581 -9160.4712 -7402.3115 301.8581 276.9231 347.3416 29950.5903 276.9231 347.3416
ENERGY: 300000 1.0922 1.8193 1.1232 0.0000 -10607.4628 1371.7060 0.0000 0.0000 1769.6728 -7462.0492 303.8348 -9231.7220 -7431.8278 298.1558 -661.8503 -624.5705 30132.0088 -24.7740 25.0106
ENERGY: 600000 0.8232 1.6727 1.0072 0.0000 -10602.5665 1475.8048 0.0000 0.0000 1729.7029 -7393.5555 296.9724 -9123.2584 -7408.2238 299.3406 401.7248 475.5681 30117.7818 -70.2185 -23.9367
ENERGY: 900000 0.5081 1.2373 2.1367 0.0000 -10626.3152 1463.0432 0.0000 0.0000 1770.8031 -7388.5867 304.0289 -9159.3898 -7412.5873 299.6789 145.1248 223.4114 30422.6084 -91.3417 -45.8687
ENERGY: 1200000 0.7835 2.6458 1.2864 0.0000 -10584.9243 1381.1551 0.0000 0.0000 1768.5270 -7430.5265 303.6381 -9199.0535 -7415.0590 299.9247 -527.6849 -430.4633 30127.8696 -115.1657 -65.3457
ENERGY: 1500000 0.4520 1.7346 3.2054 0.0000 -10763.5393 1490.3707 0.0000 0.0000 1737.3082 -7530.4684 298.2781 -9267.7766 -7425.0038 299.6949 101.5984 213.1311 29855.6346 -95.1833 -37.2631
TCL: Running FEP window   7: Lambda1 0.3    Lambda2 0.35   [dLambda 0.04999999999999999]
TCL: Setting parameter firsttimestep to 0
TCL: Setting parameter alchLambda to 0.3
Info: NONBONDED TABLE R-SQUARED SPACING: 0.0625
Info: NONBONDED TABLE SIZE: 705 POINTS
TCL: Setting parameter alchLambda2 to 0.35
Info: NONBONDED TABLE R-SQUARED SPACING: 0.0625
Info: NONBONDED TABLE SIZE: 705 POINTS
TCL: Running for 1500000 steps
ETITLE: TS BOND ANGLE DIHED IMPRP ELECT VDW BOUNDARY MISC KINETIC TOTAL TEMP POTENTIAL TOTALAVG TEMPAVG PRESSURE GPRESSURE VOLUME PRESSAVG GPRESSAVG
ENERGY: 0 0.4520 1.7346 3.2054 0.0000 -10763.5405 1490.4039 0.0000 0.0000 1736.4205 -7531.3241 298.1257 -9267.7446 -7531.3241 298.1257 116.0584 213.2820 29855.6346 116.0584 213.2820
ENERGY: 300000 1.0638 0.5439 1.5665 0.0000 -10797.7966 1525.0326 0.0000 0.0000 1741.1961 -7528.3937 298.9457 -9269.5897 -7501.5157 300.7375 298.0416 440.1317 29926.8757 303.2607 405.2541
ENERGY: 600000 0.0646 1.2211 3.7849 0.0000 -10692.4261 1517.9060 0.0000 0.0000 1708.1020 -7461.3475 293.2637 -9169.4495 -7485.2725 297.8235 745.2001 820.9006 29929.2499 387.7790 466.8576
ENERGY: 900000 1.7632 1.9238 1.7833 0.0000 -10604.7873 1435.3546 0.0000 0.0000 1741.5078 -7422.4545 298.9992 -9163.9623 -7462.5658 299.4502 76.9067 136.7906 29977.9995 167.8047 239.7710
ENERGY: 1200000 1.9987 3.6697 2.7183 0.0000 -10500.8471 1371.0456 0.0000 0.0000 1729.7056 -7391.7092 296.9729 -9121.4148 -7462.4886 297.8744 -684.2840 -636.7787 31125.8598 100.0131 166.6576
ENERGY: 1500000 1.9955 1.7923 0.3044 0.0000 -10650.1381 1451.0211 0.0000 0.0000 1781.5691 -7413.4556 305.8773 -9195.0247 -7452.8162 298.6113 350.1214 359.3695 29901.4659 11.2002 74.9805
TCL: Running FEP window   8: Lambda1 0.35   Lambda2 0.39999999999999997 [dLambda 0.04999999999999999]
TCL: Setting parameter firsttimestep to 0
TCL: Setting parameter alchLambda to 0.35
Info: NONBONDED TABLE R-SQUARED SPACING: 0.0625
Info: NONBONDED TABLE SIZE: 705 POINTS
TCL: Setting parameter alchLambda2 to 0.39999999999999997
Info: NONBONDED TABLE R-SQUARED SPACING: 0.0625
Info: NONBONDED TABLE SIZE: 705 POINTS
TCL: Running for 1500000 steps
ETITLE: TS BOND ANGLE DIHED IMPRP ELECT VDW BOUNDARY MISC KINETIC TOTAL TEMP POTENTIAL TOTALAVG TEMPAVG PRESSURE GPRESSURE VOLUME PRESSAVG GPRESSAVG
ENERGY: 0 1.9955 1.7923 0.3044 0.0000 -10650.1382 1451.0275 0.0000 0.0000 1780.6691 -7414.3493 305.7228 -9195.0184 -7414.3493 305.7228 271.0532 365.2944 29901.4659 271.0532 365.2944
ENERGY: 300000 2.8738 1.0483 1.4814 0.0000 -10668.0391 1451.1405 0.0000 0.0000 1772.3927 -7439.1025 304.3018 -9211.4951 -7447.0071 302.2345 231.6573 222.9723 29866.8414 71.0437 133.8355
ENERGY: 600000 2.4918 1.8551 1.5366 0.0000 -10630.0802 1384.2446 0.0000 0.0000 1710.8655 -7529.0867 293.7382 -9239.9521 -7448.6282 300.1511 -368.7068 -365.4033 29784.6731 40.4671 87.5681
ENERGY: 900000 0.2787 1.8340 3.4928 0.0000 -10792.9264 1531.6118 0.0000 0.0000 1758.2599 -7497.4491 301.8753 -9255.7090 -7453.6992 300.8970 570.4470 698.0901 30014.3264 62.2984 118.7181
ENERGY: 1200000 2.5405 2.3937 1.5941 0.0000 -10594.5707 1421.9323 0.0000 0.0000 1750.5154 -7415.5946 300.5457 -9166.1101 -7445.1304 301.6734 -67.8529 41.3175 29938.0695 37.3361 94.5164
ENERGY: 1500000 0.8357 3.8598 3.7004 0.0000 -10577.4392 1402.4757 0.0000 0.0000 1752.3003 -7414.2672 300.8521 -9166.5676 -7442.1975 301.9674 -217.0529 -145.7247 30230.2257 18.4629 80.5695
TCL: Running FEP window   9: Lambda1 0.39999999999999997 Lambda2 0.44999999999999996 [dLambda 0.04999999999999999]
TCL: Setting parameter firsttimestep to 0
TCL: Setting parameter alchLambda to 0.39999999999999997
Info: NONBONDED TABLE R-SQUARED SPACING: 0.0625
Info: NONBONDED TABLE SIZE: 705 POINTS
TCL: Setting parameter alchLambda2 to 0.44999999999999996
Info: NONBONDED TABLE R-SQUARED SPACING: 0.0625
Info: NONBONDED TABLE SIZE: 705 POINTS
TCL: Running for 1500000 steps
ETITLE: TS BOND ANGLE DIHED IMPRP ELECT VDW BOUNDARY MISC KINETIC TOTAL TEMP POTENTIAL TOTALAVG TEMPAVG PRESSURE GPRESSURE VOLUME PRESSAVG GPRESSAVG
ENERGY: 0 0.8357 3.8598 3.7004 0.0000 -10577.4387 1402.6925 0.0000 0.0000 1751.4359 -7414.9142 300.7037 -9166.3502 -7414.9142 300.7037 -219.8897 -140.4669 30230.2257 -219.8897 -140.4669
ENERGY: 300000 0.3840 2.2115 2.9457 0.0000 -10517.6902 1420.5307 0.0000 0.0000 1781.3598 -7310.2585 305.8414 -9091.6183 -7408.7984 301.1118 133.7881 181.6112 30206.1715 -7.1472 68.0813
ENERGY: 600000 2.8721 2.2082 4.3020 0.0000 -10703.2118 1440.2925 0.0000 0.0000 1701.6472 -7551.8899 292.1555 -9253.5371 -7428.3104 299.0334 -207.8266 -120.0428 29936.9085 57.3434 122.1178
ENERGY: 900000 1.8024 0.5519 0.8962 0.0000 -10493.2523 1341.7271 0.0000 0.0000 1727.5066 -7420.7680 296.5953 -9148.2746 -7429.9871 297.9828 -659.9095 -631.7276 30118.5732 -60.7005 -2.4572
ENERGY: 1200000 2.8681 2.5499 4.2374 0.0000 -10617.2271 1433.0053 0.0000 0.0000 1764.2785 -7410.2879 302.9087 -9174.5663 -7422.6478 299.1334 183.3613 225.7056 30150.7507 -135.4324 -77.7702
ENERGY: 1500000 0.5188 4.2694 1.0237 0.0000 -10540.4713 1410.6897 0.0000 0.0000 1791.7062 -7332.2635 307.6177 -9123.9697 -7406.2792 299.7639 -172.7563 -135.1309 30438.6806 -163.8702 -109.1045
TCL: Running FEP window  10: Lambda1 0.44999999999999996 Lambda2 0.49999999999999994 [dLambda 0.04999999999999999]
TCL: Setting parameter firsttimestep to 0
TCL: Setting parameter alchLambda to 0.44999999999999996
Info: NONBONDED TABLE R-SQUARED SPACING: 0.0625
Info: NONBONDED TABLE SIZE: 705 POINTS
TCL: Setting parameter alchLambda2 to 0.49999999999999994
Info: NONBONDED TABLE R-SQUARED SPACING: 0.0625
Info: NONBONDED TABLE SIZE: 705 POINTS
TCL: Running for 1500000 steps
ETITLE: TS BOND ANGLE DIHED IMPRP ELECT VDW BOUNDARY MISC KINETIC TOTAL TEMP POTENTIAL TOTALAVG TEMPAVG PRESSURE GPRESSURE VOLUME PRESSAVG GPRESSAVG
ENERGY: 0 0.5188 4.2694 1.0237 0.0000 -10540.4706 1411.6684 0.0000 0.0000 1790.8273 -7332.1631 307.4668 -9122.9904 -7332.1631 307.4668 -204.0231 -125.7736 30438.6806 -204.0231 -125.7736
ENERGY: 300000 1.1757 2.0094 1.7828 0.0000 -10606.5498 1422.5374 0.0000 0.0000 1721.2346 -7457.8100 295.5185 -9179.0446 -7434.1043 297.3809 -299.7207 -276.4108 30563.4764 -315.2919 -256.1634
ENERGY: 600000 0.8301 2.3143 1.8033 0.0000 -10643.0958 1473.5755 0.0000 0.0000 1793.7280 -7370.8446 307.9649 -9164.5726 -7413.5831 300.2179 594.4315 658.9768 29794.1473 -168.6425 -111.0412
ENERGY: 900000 0.2083 2.6232 2.2841 0.0000 -10521.3369 1395.6250 0.0000 0.0000 1783.0995 -7337.4967 306.1401 -9120.5962 -7405.4202 301.3186 -248.6760 -184.5966 30319.1855 -94.6338 -42.6031
ENERGY: 1200000 1.8021 2.3432 1.2726 0.0000 -10715.6933 1511.3881 0.0000 0.0000 1736.9579 -7461.9295 298.2180 -9198.8874 -7408.8580 300.9761 654.7166 693.3962 30149.4702 7.7349 61.8711
ENERGY: 1500000 0.8289 1.7340 0.5873 0.0000 -10500.0898 1361.9705 0.0000 0.0000 1692.1604 -7442.8088 290.5267 -9134.9691 -7412.0742 299.4163 -527.9680 -461.9727 30273.9546 -82.0747 -22.7244
TCL: Running FEP window  11: Lambda1 0.49999999999999994 Lambda2 0.5499999999999999 [dLambda 0.04999999999999999]
TCL: Setting parameter firsttimestep to 0
TCL: Setting parameter alchLambda to 0.49999999999999994
Info: NONBONDED TABLE R-SQUARED SPACING: 0.0625
Info: NONBONDED TABLE SIZE: 705 POINTS
TCL: Setting parameter alchLambda2 to 0.5499999999999999
Info: NONBONDED TABLE R-SQUARED SPACING: 0.0625
Info: NONBONDED TABLE SIZE: 705 POINTS
TCL: Running for 1500000 steps
ETITLE: TS BOND ANGLE DIHED IMPRP ELECT VDW BOUNDARY MISC KINETIC TOTAL TEMP POTENTIAL TOTALAVG TEMPAVG PRESSURE GPRESSURE VOLUME PRESSAVG GPRESSAVG
ENERGY: 0 0.8289 1.7340 0.5873 0.0000 -10500.0896 1361.7365 0.0000 0.0000 1691.2262 -7443.9766 290.3663 -9135.2029 -7443.9766 290.3663 -554.4168 -460.6944 30273.9546 -554.4168 -460.6944
ENERGY: 300000 1.3527 4.3319 2.9455 0.0000 -10600.0849 1468.1968 0.0000 0.0000 1829.8303 -7293.4278 314.1633 -9123.2581 -7403.6558 302.8145 469.7647 584.5752 29761.2745 -47.8643 20.6295
ENERGY: 600000 0.2278 1.4100 2.0923 0.0000 -10557.0663 1430.0937 0.0000 0.0000 1723.9951 -7399.2472 295.9924 -9123.2423 -7415.6098 300.8566 152.3212 240.5800 30188.3330 -63.8555 7.6848
ENERGY: 900000 1.2846 1.3436 4.7927 0.0000 -10485.1161 1347.3039 0.0000 0.0000 1746.4073 -7383.9840 299.8404 -9130.3913 -7416.3091 300.1581 -560.2287 -462.8202 30103.4459 -18.3528 57.6726
ENERGY: 1200000 1.0899 6.1311 2.7340 0.0000 -10643.9755 1439.0833 0.0000 0.0000 1747.3313 -7447.6058 299.9990 -9194.9371 -7427.6611 300.4725 162.1451 241.6840 29930.2773 60.1488 135.8169
ENERGY: 1500000 0.4563 3.6866 2.6072 0.0000 -10604.9192 1418.2395 0.0000 0.0000 1766.1492 -7413.7804 303.2299 -9179.9296 -7429.0442 299.4173 -316.3368 -261.0382 30706.4288 34.1564 105.6908
TCL: Running FEP window  12: Lambda1 0.5499999999999999 Lambda2 0.6    [dLambda 0.050000000000000044]
TCL: Setting parameter firsttimestep to 0
TCL: Setting parameter alchLambda to 0.5499999999999999
Info: NONBONDED TABLE R-SQUARED SPACING: 0.0625
Info: NONBONDED TABLE SIZE: 705 POINTS
TCL: Setting parameter alchLambda2 to 0.6
Info: NONBONDED TABLE R-SQUARED SPACING: 0.0625
Info: NONBONDED TABLE SIZE: 705 POINTS
TCL: Running for 1500000 steps
ETITLE: TS BOND ANGLE DIHED IMPRP ELECT VDW BOUNDARY MISC KINETIC TOTAL TEMP POTENTIAL TOTALAVG TEMPAVG PRESSURE GPRESSURE VOLUME PRESSAVG GPRESSAVG
ENERGY: 0 0.4563 3.6866 2.6072 0.0000 -10604.5313 1417.9136 0.0000 0.0000 1765.3197 -7414.5479 303.0874 -9179.8676 -7414.5479 303.0874 -337.4456 -258.8660 30706.4288 -337.4456 -258.8660
ENERGY: 300000 1.1594 3.2660 1.5915 0.0000 -10535.0318 1415.9949 0.0000 0.0000 1701.5405 -7411.4796 292.1372 -9113.0201 -7416.8155 301.7341 -137.6663 -37.7493 30580.4592 -363.1153 -295.7958
ENERGY: 600000 1.2863 2.0977 2.0016 0.0000 -10591.5031 1411.6324 0.0000 0.0000 1677.6164 -7496.8687 288.0297 -9174.4851 -7434.9791 300.9838 -478.8083 -430.2178 30584.4871 -269.3260 -213.6422
ENERGY: 900000 1.3327 6.5191 0.9475 0.0000 -10656.5576 1459.7487 0.0000 0.0000 1736.7595 -7451.2501 298.1839 -9188.0096 -7444.0768 300.4145 429.9725 463.7870 29674.0047 -113.3190 -57.3062
ENERGY: 1200000 0.2545 2.7722 0.9989 0.0000 -10775.9417 1528.0181 0.0000 0.0000 1757.0649 -7486.8331 301.6702 -9243.8980 -7447.9215 300.1136 647.3610 657.4748 29966.8253 -34.7018 20.7963
ENERGY: 1500000 0.9733 2.9155 2.1878 0.0000 -10528.0811 1374.8463 0.0000 0.0000 1686.8942 -7460.2641 289.6226 -9147.1583 -7446.3494 299.9055 -483.4968 -427.3533 30375.5959 -33.7656 20.7236
TCL: Running FEP window  13: Lambda1 0.6    Lambda2 0.65   [dLambda 0.050000000000000044]
TCL: Setting parameter firsttimestep to 0
TCL: Setting parameter alchLambda to 0.6
Info: NONBONDED TABLE R-SQUARED SPACING: 0.0625
Info: NONBONDED TABLE SIZE: 705 POINTS
TCL: Setting parameter alchLambda2 to 0.65
Info: NONBONDED TABLE R-SQUARED SPACING: 0.0625
Info: NONBONDED TABLE SIZE: 705 POINTS
TCL: Running for 1500000 steps
ETITLE: TS BOND ANGLE DIHED IMPRP ELECT VDW BOUNDARY MISC KINETIC TOTAL TEMP POTENTIAL TOTALAVG TEMPAVG PRESSURE GPRESSURE VOLUME PRESSAVG GPRESSAVG
ENERGY: 0 0.9733 2.9155 2.1878 0.0000 -10528.3371 1375.3732 0.0000 0.0000 1686.0060 -7460.8812 289.4701 -9146.8873 -7460.8812 289.4701 -517.0042 -417.3106 30375.5959 -517.0042 -417.3106
ENERGY: 300000 0.2651 2.2893 5.8060 0.0000 -10645.0456 1475.1481 0.0000 0.0000 1733.2368 -7428.3004 297.5791 -9161.5372 -7465.6922 291.8858 348.2587 417.6858 30230.7525 -100.7189 -37.8595
ENERGY: 600000 1.0342 1.6373 1.7303 0.0000 -10540.0248 1339.3618 0.0000 0.0000 1703.7014 -7492.5597 292.5082 -9196.2611 -7468.0376 295.7025 -734.1149 -632.2798 29917.7835 -204.4239 -126.3317
ENERGY: 900000 1.4219 2.4294 3.6247 0.0000 -10555.0620 1337.2136 0.0000 0.0000 1717.7290 -7492.6434 294.9166 -9210.3724 -7480.4712 296.0035 -609.2677 -495.9735 29766.4146 -139.5046 -64.2856
ENERGY: 1200000 0.2946 2.5578 0.5770 0.0000 -10587.7686 1433.6991 0.0000 0.0000 1723.8553 -7426.7847 295.9684 -9150.6400 -7474.8110 296.8243 -40.8571 78.6628 30423.9955 -125.7319 -45.8705
ENERGY: 1500000 0.1817 2.8227 1.2405 0.0000 -10623.9431 1426.4679 0.0000 0.0000 1828.3099 -7364.9204 313.9022 -9193.2303 -7456.6768 298.7326 11.8442 29.2565 30287.8479 -57.5673 13.5542
TCL: Running FEP window  14: Lambda1 0.65   Lambda2 0.7000000000000001 [dLambda 0.050000000000000044]
TCL: Setting parameter firsttimestep to 0
TCL: Setting parameter alchLambda to 0.65
Info: NONBONDED TABLE R-SQUARED SPACING: 0.0625
Info: NONBONDED TABLE SIZE: 705 POINTS
TCL: Setting parameter alchLambda2 to 0.7000000000000001
Info: NONBONDED TABLE R-SQUARED SPACING: 0.0625
Info: NONBONDED TABLE SIZE: 705 POINTS
TCL: Running for 1500000 steps
ETITLE: TS BOND ANGLE DIHED IMPRP ELECT VDW BOUNDARY MISC KINETIC TOTAL TEMP POTENTIAL TOTALAVG TEMPAVG PRESSURE GPRESSURE VOLUME PRESSAVG GPRESSAVG
ENERGY: 0 0.1817 2.8227 1.2405 0.0000 -10624.0476 1426.7317 0.0000 0.0000 1827.4267 -7365.6443 313.7506 -9193.0710 -7365.6443 313.7506 -53.4402 37.0840 30287.8479 -53.4402 37.0840
ENERGY: 300000 1.3571 2.1507 1.7243 0.0000 -10471.5035 1394.4976 0.0000 0.0000 1730.5709 -7341.2028 297.1214 -9071.7737 -7361.5824 305.7939 115.8737 136.1444 29896.7852 41.2899 99.5517
ENERGY: 600000 2.5544 3.2920 2.5424 0.0000 -10450.0800 1387.2347 0.0000 0.0000 1755.4161 -7299.0405 301.3871 -9054.4566 -7362.2001 303.7931 92.0829 116.9478 30336.6716 9.5755 62.0738
ENERGY: 900000 0.5555 3.4083 0.6256 0.0000 -10760.4313 1486.7664 0.0000 0.0000 1818.8849 -7450.1905 312.2840 -9269.0754 -7391.2268 303.6132 146.2598 228.5769 30311.6095 28.5641 73.5749
ENERGY: 1200000 0.0680 0.7725 1.8373 0.0000 -10627.4345 1460.5196 0.0000 0.0000 1709.4633 -7454.7738 293.4975 -9164.2371 -7398.7445 302.6060 224.1043 379.2032 30461.5920 104.0467 161.8447
ENERGY: 1500000 1.8058 4.7848 2.8015 0.0000 -10574.4999 1460.3384 0.0000 0.0000 1756.6851 -7348.0844 301.6050 -9104.7695 -7398.9004 302.6087 226.3775 282.1264 30749.5372 68.8929 130.4148
TCL: Running FEP window  15: Lambda1 0.7000000000000001 Lambda2 0.7500000000000001 [dLambda 0.050000000000000044]
TCL: Setting parameter firsttimestep to 0
TCL: Setting parameter alchLambda to 0.7000000000000001
Info: NONBONDED TABLE R-SQUARED SPACING: 0.0625
Info: NONBONDED TABLE SIZE: 705 POINTS
TCL: Setting parameter alchLambda2 to 0.7500000000000001
Info: NONBONDED TABLE R-SQUARED SPACING: 0.0625
Info: NONBONDED TABLE SIZE: 705 POINTS
TCL: Running for 1500000 steps
ETITLE: TS BOND ANGLE DIHED IMPRP ELECT VDW BOUNDARY MISC KINETIC TOTAL TEMP POTENTIAL TOTALAVG TEMPAVG PRESSURE GPRESSURE VOLUME PRESSAVG GPRESSAVG
ENERGY: 0 1.8058 4.7848 2.8015 0.0000 -10574.7616 1461.0505 0.0000 0.0000 1755.7869 -7348.5322 301.4508 -9104.3191 -7348.5322 301.4508 182.5316 295.3382 30749.5372 182.5316 295.3382
ENERGY: 300000 0.3071 2.9783 1.1826 0.0000 -10587.6171 1383.4317 0.0000 0.0000 1723.7481 -7475.9694 295.9500 -9199.7175 -7397.3711 300.7096 -177.0463 -86.3525 29902.1999 -34.4050 28.0229
ENERGY: 600000 0.2559 3.3994 2.5280 0.0000 -10692.6026 1468.1696 0.0000 0.0000 1726.1314 -7492.1184 296.3592 -9218.2497 -7424.0063 299.6238 99.8990 184.6024 30313.4643 105.1185 159.8686
ENERGY: 900000 1.1401 3.9294 1.3979 0.0000 -10508.0611 1373.6904 0.0000 0.0000 1707.4519 -7420.4515 293.1521 -9127.9034 -7423.9093 299.1318 -247.5410 -220.3515 30173.0269 18.9913 71.7244
ENERGY: 1200000 0.2962 1.5639 1.6052 0.0000 -10719.2849 1415.6308 0.0000 0.0000 1727.3837 -7572.8051 296.5742 -9300.1887 -7444.8330 299.2827 -365.5969 -256.0329 29935.7124 -1.3080 58.3594
ENERGY: 1500000 0.3473 2.6674 0.3991 0.0000 -10656.6456 1406.8152 0.0000 0.0000 1830.6653 -7415.7514 314.3066 -9246.4167 -7450.5543 299.9693 -15.9676 16.1959 29815.4366 -23.0233 34.8461
TCL: Running FEP window  16: Lambda1 0.7500000000000001 Lambda2 0.8000000000000002 [dLambda 0.050000000000000044]
TCL: Setting parameter firsttimestep to 0
TCL: Setting parameter alchLambda to 0.7500000000000001
Info: NONBONDED TABLE R-SQUARED SPACING: 0.0625
Info: NONBONDED TABLE SIZE: 705 POINTS
TCL: Setting parameter alchLambda2 to 0.8000000000000002
Info: NONBONDED TABLE R-SQUARED SPACING: 0.0625
Info: NONBONDED TABLE SIZE: 705 POINTS
TCL: Running for 1500000 steps
ETITLE: TS BOND ANGLE DIHED IMPRP ELECT VDW BOUNDARY MISC KINETIC TOTAL TEMP POTENTIAL TOTALAVG TEMPAVG PRESSURE GPRESSURE VOLUME PRESSAVG GPRESSAVG
ENERGY: 0 0.3473 2.6674 0.3991 0.0000 -10656.8443 1406.9841 0.0000 0.0000 1829.7976 -7416.6489 314.1576 -9246.4465 -7416.6489 314.1576 -64.6199 22.5011 29815.4366 -64.6199 22.5011
ENERGY: 300000 0.9544 1.9314 2.3027 0.0000 -10647.0750 1475.5240 0.0000 0.0000 1749.8384 -7416.5241 300.4295 -9166.3624 -7417.3080 304.0738 377.0986 462.7524 30388.1746 150.5169 232.2832
ENERGY: 600000 0.7400 2.1011 0.7123 0.0000 -10520.9460 1362.7943 0.0000 0.0000 1818.9498 -7335.6487 312.2952 -9154.5985 -7437.7814 301.4168 -98.9432 -43.0305 29829.8155 -50.6979 15.7637
ENERGY: 900000 0.4639 2.4152 2.8882 0.0000 -10578.1860 1372.9656 0.0000 0.0000 1759.9500 -7439.5032 302.1655 -9199.4532 -7434.2809 301.7050 -397.1438 -324.3414 30314.8610 -167.6477 -99.3749
ENERGY: 1200000 1.3690 2.5018 2.6356 0.0000 -10610.6677 1439.9309 0.0000 0.0000 1802.0935 -7362.1370 309.4011 -9164.2305 -7427.3182 301.6908 -44.1440 81.2165 30221.4499 -206.2918 -132.7538
ENERGY: 1500000 0.2553 6.2067 5.5929 0.0000 -10727.4032 1444.9455 0.0000 0.0000 1723.5355 -7546.8673 295.9135 -9270.4028 -7439.0059 300.4614 -101.1421 36.6612 29900.5597 -123.2686 -46.4088
TCL: Running FEP window  17: Lambda1 0.8000000000000002 Lambda2 0.8500000000000002 [dLambda 0.050000000000000044]
TCL: Setting parameter firsttimestep to 0
TCL: Setting parameter alchLambda to 0.8000000000000002
Info: NONBONDED TABLE R-SQUARED SPACING: 0.0625
Info: NONBONDED TABLE SIZE: 705 POINTS
TCL: Setting parameter alchLambda2 to 0.8500000000000002
Info: NONBONDED TABLE R-SQUARED SPACING: 0.0625
Info: NONBONDED TABLE SIZE: 705 POINTS
TCL: Running for 1500000 steps
ETITLE: TS BOND ANGLE DIHED IMPRP ELECT VDW BOUNDARY MISC KINETIC TOTAL TEMP POTENTIAL TOTALAVG TEMPAVG PRESSURE GPRESSURE VOLUME PRESSAVG GPRESSAVG
ENERGY: 0 0.2553 6.2067 5.5929 0.0000 -10727.7729 1445.8605 0.0000 0.0000 1722.6388 -7547.2187 295.7596 -9269.8575 -7547.2187 295.7596 -21.8250 51.8622 29900.5597 -21.8250 51.8622
ENERGY: 300000 0.0647 1.5432 1.7006 0.0000 -10464.1349 1303.7738 0.0000 0.0000 1743.9645 -7413.0882 299.4210 -9157.0527 -7459.9472 299.7560 -849.1068 -795.8806 30372.1798 -261.3661 -195.9910
ENERGY: 600000 0.4449 1.4768 3.4346 0.0000 -10578.1608 1444.0609 0.0000 0.0000 1740.7282 -7388.0155 298.8653 -9128.7436 -7441.9165 298.5412 157.0788 273.2818 30336.7715 -198.3868 -118.5333
ENERGY: 900000 2.2377 0.8774 3.3017 0.0000 -10571.5424 1439.8214 0.0000 0.0000 1796.2357 -7329.0685 308.3954 -9125.3042 -7417.0617 300.7113 297.8901 372.0135 30058.1838 -120.0846 -52.8031
ENERGY: 1200000 0.8649 1.6080 1.3053 0.0000 -10733.2843 1508.3575 0.0000 0.0000 1766.2711 -7454.8774 303.2508 -9221.1485 -7422.7870 300.3189 414.6542 578.1148 30189.7000 -85.5138 -11.9751
ENERGY: 1500000 0.2554 2.7085 1.8053 0.0000 -10574.2533 1428.0194 0.0000 0.0000 1752.0305 -7389.4342 300.8058 -9141.4648 -7420.8414 300.6493 -55.0427 88.3402 30532.4351 -73.6008 4.5687
TCL: Running FEP window  18: Lambda1 0.8500000000000002 Lambda2 0.9000000000000002 [dLambda 0.050000000000000044]
TCL: Setting parameter firsttimestep to 0
TCL: Setting parameter alchLambda to 0.8500000000000002
Info: NONBONDED TABLE R-SQUARED SPACING: 0.0625
Info: NONBONDED TABLE SIZE: 705 POINTS
TCL: Setting parameter alchLambda2 to 0.9000000000000002
Info: NONBONDED TABLE R-SQUARED SPACING: 0.0625
Info: NONBONDED TABLE SIZE: 705 POINTS
TCL: Running for 1500000 steps
ETITLE: TS BOND ANGLE DIHED IMPRP ELECT VDW BOUNDARY MISC KINETIC TOTAL TEMP POTENTIAL TOTALAVG TEMPAVG PRESSURE GPRESSURE VOLUME PRESSAVG GPRESSAVG
ENERGY: 0 0.2554 2.7085 1.8053 0.0000 -10574.2819 1428.3269 0.0000 0.0000 1751.1188 -7390.0669 300.6493 -9141.1857 -7390.0669 300.6493 7.3266 96.9589 30532.4351 7.3266 96.9589
ENERGY: 300000 1.9546 2.9728 1.6039 0.0000 -10495.6621 1330.1731 0.0000 0.0000 1830.6191 -7328.3386 314.2987 -9158.9577 -7385.3081 307.5485 -822.5589 -804.5098 30549.5847 -264.4586 -187.0944
ENERGY: 600000 2.6660 1.0361 3.3936 0.0000 -10650.0167 1446.4756 0.0000 0.0000 1770.6273 -7425.8180 303.9987 -9196.4453 -7384.1872 305.1108 231.6374 275.6882 29745.6981 -219.0046 -152.1144
ENERGY: 900000 2.6733 1.0690 1.1261 0.0000 -10534.7551 1393.7001 0.0000 0.0000 1723.1738 -7413.0129 295.8514 -9136.1867 -7388.8731 303.8112 -312.9643 -259.7800 30355.9242 -199.7083 -133.3406
ENERGY: 1200000 1.7215 3.5068 2.2676 0.0000 -10634.5108 1415.7229 0.0000 0.0000 1775.5924 -7435.6996 304.8512 -9211.2920 -7405.3064 303.8898 -56.8110 -6.8316 29847.5945 -228.8552 -168.2958
ENERGY: 1500000 0.2407 4.5781 0.2850 0.0000 -10608.6155 1366.9263 0.0000 0.0000 1727.1136 -7509.4718 296.5278 -9236.5854 -7411.0707 303.0426 -674.1719 -617.9334 30453.5339 -253.5833 -192.0031
TCL: Running FEP window  19: Lambda1 0.9000000000000002 Lambda2 0.9500000000000003 [dLambda 0.050000000000000044]
TCL: Setting parameter firsttimestep to 0
TCL: Setting parameter alchLambda to 0.9000000000000002
Info: NONBONDED TABLE R-SQUARED SPACING: 0.0625
Info: NONBONDED TABLE SIZE: 705 POINTS
TCL: Setting parameter alchLambda2 to 0.9500000000000003
Info: NONBONDED TABLE R-SQUARED SPACING: 0.0625
Info: NONBONDED TABLE SIZE: 705 POINTS
TCL: Running for 1500000 steps
ETITLE: TS BOND ANGLE DIHED IMPRP ELECT VDW BOUNDARY MISC KINETIC TOTAL TEMP POTENTIAL TOTALAVG TEMPAVG PRESSURE GPRESSURE VOLUME PRESSAVG GPRESSAVG
ENERGY: 0 0.2407 4.5781 0.2850 0.0000 -10608.6840 1367.2004 0.0000 0.0000 1726.2400 -7510.1398 296.3778 -9236.3798 -7510.1398 296.3778 -690.4833 -611.2300 30453.5339 -690.4833 -611.2300
ENERGY: 300000 1.1020 4.1155 2.4104 0.0000 -10612.9293 1401.8900 0.0000 0.0000 1664.1002 -7539.3111 285.7091 -9203.4113 -7469.0239 298.9160 -515.5544 -505.5795 30497.1458 -83.1325 -43.8483
ENERGY: 600000 0.2151 2.6373 3.6934 0.0000 -10768.8219 1557.7402 0.0000 0.0000 1721.3291 -7483.2068 295.5347 -9204.5359 -7453.2234 299.7154 841.2449 898.4473 30153.4380 135.8916 182.3200
ENERGY: 900000 0.6809 1.7319 4.2954 0.0000 -10585.9090 1355.2620 0.0000 0.0000 1722.5662 -7501.3726 295.7471 -9223.9388 -7467.2652 299.3859 -577.6984 -526.7099 29749.5015 22.4398 74.4813
ENERGY: 1200000 0.8214 1.6470 2.6021 0.0000 -10788.7896 1485.4282 0.0000 0.0000 1727.9373 -7570.3534 296.6693 -9298.2907 -7468.6605 299.0419 -12.0042 -16.1719 30205.0993 50.5275 99.8091
ENERGY: 1500000 0.4956 1.9994 1.6744 0.0000 -10692.5638 1454.6617 0.0000 0.0000 1764.0134 -7469.7192 302.8632 -9233.7325 -7460.9418 299.6731 304.7385 316.6925 29987.8199 -66.6893 -15.8020
TCL: Running FEP window  20: Lambda1 0.9500000000000003 Lambda2 1.0    [dLambda 0.04999999999999971]
TCL: Setting parameter firsttimestep to 0
TCL: Setting parameter alchLambda to 0.9500000000000003
Info: NONBONDED TABLE R-SQUARED SPACING: 0.0625
Info: NONBONDED TABLE SIZE: 705 POINTS
TCL: Setting parameter alchLambda2 to 1.0
Info: NONBONDED TABLE R-SQUARED SPACING: 0.0625
Info: NONBONDED TABLE SIZE: 705 POINTS
TCL: Running for 1500000 steps
ETITLE: TS BOND ANGLE DIHED IMPRP ELECT VDW BOUNDARY MISC KINETIC TOTAL TEMP POTENTIAL TOTALAVG TEMPAVG PRESSURE GPRESSURE VOLUME PRESSAVG GPRESSAVG
ENERGY: 0 0.4956 1.9994 1.6744 0.0000 -10692.6236 1454.7472 0.0000 0.0000 1763.1363 -7470.5705 302.7126 -9233.7069 -7470.5705 302.7126 241.5901 325.4639 29987.8199 241.5901 325.4639
ENERGY: 300000 1.0059 1.8550 2.2702 0.0000 -10631.1362 1416.9921 0.0000 0.0000 1710.9413 -7498.0717 293.7512 -9209.0130 -7501.5459 296.9237 -47.2164 32.9430 30092.3174 -115.3789 -39.0879
ENERGY: 600000 0.3198 0.3872 1.1044 0.0000 -10607.1777 1372.9219 0.0000 0.0000 1810.9909 -7421.4534 310.9287 -9232.4444 -7474.9700 300.5585 -620.2449 -559.1322 30445.4236 -400.2635 -320.3328
ENERGY: 900000 0.1080 4.3462 1.1535 0.0000 -10747.0668 1521.0353 0.0000 0.0000 1730.8570 -7489.5669 297.1705 -9220.4239 -7461.4444 299.2539 652.7057 737.9865 30012.7023 -312.9999 -226.0840
ENERGY: 1200000 1.0932 3.2786 1.3108 0.0000 -10671.1774 1431.4000 0.0000 0.0000 1700.9072 -7533.1876 292.0285 -9234.0948 -7464.6455 299.1204 -237.3067 -169.4666 30272.7896 -321.2979 -246.6198
ENERGY: 1500000 1.2206 3.1578 1.5158 0.0000 -10710.5429 1486.6130 0.0000 0.0000 1785.9986 -7432.0371 306.6378 -9218.0358 -7469.1418 299.1612 397.3685 459.9066 30044.4804 -169.6013 -98.4585
TCL: Exiting due to exit command.
