Info: SIMULATION PARAMETERS:
Info: TIMESTEP               2
Info: NUMBER OF STEPS        0
Info: STEPS PER CYCLE        10
Info: PERIODIC CELL BASIS 1  31.7121 0 0
Info: PERIODIC CELL BASIS 2  0 31.5729 0
Info: PERIODIC CELL BASIS 3  0 0 30.5451
Info: PERIODIC CELL CENTER   0 0 0
Info: WRAPPING WATERS AROUND PERIODIC BOUNDARIES ON OUTPUT.
Info: WRAPPING ALL CLUSTERS AROUND PERIODIC BOUNDARIES ON OUTPUT.
Info: FIRST LDB TIMESTEP     50
Info: LAST LDB TIMESTEP     -1
Info: HOM BACKGROUND SCALING 1
Info: PME BACKGROUND SCALING 1
Info: MIN ATOMS PER PATCH    40
Info: EMPTY PATCH LOAD       40 ATOMS
Info: VELOCITY FILE          mobley_2493732_equil.vel
Info: CENTER OF MASS MOVING INITIALLY? NO
Info: DIELECTRIC             1
Info: EXCLUDE                SCALED ONE-FOUR
Info: 1-4 ELECTROSTATICS SCALED BY 0.833333
Info: MODIFIED 1-4 VDW PARAMETERS WILL BE USED
Info: DCD FILENAME           mobley_2493732_prod.dcd
Info: DCD FREQUENCY          100000
Info: DCD FIRST STEP         100000
Info: DCD FILE WILL CONTAIN UNIT CELL DATA
Info: XST FILENAME           mobley_2493732_prod.xst
Info: XST FREQUENCY          100000
Info: NO VELOCITY DCD OUTPUT
Info: NO FORCE DCD OUTPUT
Info: OUTPUT FILENAME        mobley_2493732_prod
Info: BINARY OUTPUT FILES WILL BE USED
Info: RESTART FILENAME       mobley_2493732_prod.restart
Info: RESTART FREQUENCY      100000
Info: BINARY RESTART FILES WILL BE USED
Info: CUTOFF                 9
Info: PAIRLIST DISTANCE      11
Info: PAIRLIST SHRINK RATE   0.01
Info: PAIRLIST GROW RATE     0.01
Info: PAIRLIST TRIGGER       0.3
Info: PAIRLISTS PER CYCLE    2
Info: PAIRLISTS ENABLED
Info: MARGIN                 2
Info: HYDROGEN GROUP CUTOFF  2.5
Info: PATCH DIMENSION        15.5
Info: ENERGY OUTPUT STEPS    100000
Info: ENERGY EVALUATION STEPS    100000
Info: OUTPUT ENERGY PRECISION 4
Info: CROSSTERM ENERGY INCLUDED IN DIHEDRAL
Info: TIMING OUTPUT STEPS    1000000
Info: PRESSURE OUTPUT STEPS  100000
Info: ALCHEMICAL FEP ON
Info: FEP CURRENT LAMBDA VALUE     1
Info: FEP COMPARISON LAMBDA VALUE  0.95
Info: FEP INTRA-ALCHEMICAL NON-BONDED INTERACTIONS WILL BE RETAINED
Info: FEP INTRA-ALCHEMICAL BONDED INTERACTIONS WILL BE RETAINED
Info: FEP VDW SHIFTING COEFFICIENT 5
Info: FEP ELEC. ACTIVE FOR ANNIHILATED PARTICLES BETWEEN LAMBDA = 0 AND LAMBDA = 0.5
Info: FEP ELEC. ACTIVE FOR EXNIHILATED PARTICLES BETWEEN LAMBDA = 0.5 AND LAMBDA = 1
Info: FEP VDW ACTIVE FOR ANNIHILATED PARTICLES BETWEEN LAMBDA = 0 AND LAMBDA = 1
Info: FEP VDW ACTIVE FOR EXNIHILATED PARTICLES BETWEEN LAMBDA = 0 AND LAMBDA = 1
Info: FEP BOND ACTIVE FOR ANNIHILATED PARTICLES BETWEEN LAMBDA = 1 AND LAMBDA = 1
Info: FEP BOND ACTIVE FOR EXNIHILATED PARTICLES BETWEEN LAMBDA = 0 AND LAMBDA = 0
Info: LANGEVIN DYNAMICS ACTIVE
Info: LANGEVIN TEMPERATURE   300
Info: LANGEVIN USING BBK INTEGRATOR
Info: LANGEVIN DAMPING COEFFICIENT IS 1 INVERSE PS
Info: LANGEVIN DYNAMICS APPLIED TO HYDROGENS
Info: LANGEVIN PISTON PRESSURE CONTROL ACTIVE
Info:        TARGET PRESSURE IS 1.01325 BAR
Info:     OSCILLATION PERIOD IS 50 FS
Info:             DECAY TIME IS 25 FS
Info:     PISTON TEMPERATURE IS 300 K
Info:       PRESSURE CONTROL IS GROUP-BASED
Info:    INITIAL STRAIN RATE IS 0.000152889 0.000152889 0.000152889
Info:       CELL FLUCTUATION IS ISOTROPIC
Info: PARTICLE MESH EWALD (PME) ACTIVE
Info: PME TOLERANCE               1e-06
Info: PME EWALD COEFFICIENT       0.348832
Info: PME INTERPOLATION ORDER     4
Info: PME GRID DIMENSIONS         32 32 32
Info: PME MAXIMUM GRID SPACING    1
Info: PME CALCULATION WILL BE PERFORMED ON GPU
Info: FULL ELECTROSTATIC EVALUATION FREQUENCY      2
Info: USING VERLET I (r-RESPA) MTS SCHEME.
Info: C1 SPLITTING OF LONG RANGE ELECTROSTATICS
Info: PLACING ATOMS IN PATCHES BY HYDROGEN GROUPS
Info: RIGID BONDS TO HYDROGEN : ALL
Info:         ERROR TOLERANCE : 1e-08
Info:          MAX ITERATIONS : 100
Info: RIGID WATER USING SETTLE ALGORITHM
Info: RANDOM NUMBER SEED     1743484131
Info: USE HYDROGEN BONDS?    NO
Info: Using AMBER format force field!
Info: AMBER PARM FILE        mobley_2493732.prmtop
Info: COORDINATE PDB         mobley_2493732.pdb
Info: Exclusions will be read from PARM file!
Info: SCNB (VDW SCALING)     2
Info: USING ARITHMETIC MEAN TO COMBINE L-J SIGMA PARAMETERS
Info: BINARY COORDINATES     mobley_2493732_equil.coor
Info: SUMMARY OF PARAMETERS:
Info: 5 BONDS
Info: 4 ANGLES
Info:   4 HARMONIC
Info:   0 COSINE-BASED
Info: 2 DIHEDRAL
Info: 0 IMPROPER
Info: 0 CROSSTERM
Info: 0 VDW
Info: 15 VDW_PAIRS
Info: 0 NBTHOLE_PAIRS
Info: To read alchdata from file: mobley_2493732.pdb
Info: To read alchflag data from column: 5
Info: STRUCTURE SUMMARY:
Info: 2940 ATOMS
Info: 2939 BONDS
Info: 6 ANGLES
Info: 6 DIHEDRALS
Info: 0 IMPROPERS
Info: 0 CROSSTERMS
Info: 2949 EXCLUSIONS
Info: 2936 RIGID BONDS
Info: ALCH: 0 ATOMS TO DISAPPEAR IN FINAL STATE
Info: ALCH: 6 ATOMS TO APPEAR IN FINAL STATE
Info: 5884 DEGREES OF FREEDOM
Info: 982 HYDROGEN GROUPS
Info: 3 ATOMS IN LARGEST HYDROGEN GROUP
Info: 982 MIGRATION GROUPS
Info: 3 ATOMS IN LARGEST MIGRATION GROUP
Info: TOTAL MASS = 17716.6 amu
Info: TOTAL CHARGE = 0.000100017 e
Info: MASS DENSITY = 0.961961 g/cm^3
Info: ATOM DENSITY = 0.0961315 atoms/A^3
Info: ADDED 0 IMPLICIT EXCLUSIONS
Info: NONBONDED TABLE R-SQUARED SPACING: 0.0625
Info: NONBONDED TABLE SIZE: 705 POINTS
Info: REDUCING NUMBER OF PATCHES TO IMPROVE LOAD BALANCE
Info: REMOVING COM VELOCITY -0.12391 0.102671 -0.0549985
Info: Use 3D box decompostion in PME FFT.
Info: Updated CUDA force table with 4096 elements.
Info: Updated CUDA LJ table with 5 x 5 elements.
Info: Found 9 unique exclusion lists needing 12 bytes
TCL: Running for 1500000 steps
ETITLE: TS BOND ANGLE DIHED IMPRP ELECT VDW BOUNDARY MISC KINETIC TOTAL TEMP POTENTIAL TOTALAVG TEMPAVG PRESSURE GPRESSURE VOLUME PRESSAVG GPRESSAVG
ENERGY: 0 1.4279 0.3894 0.3999 0.0000 -10594.4596 1390.6010 0.0000 0.0000 1727.0248 -7474.6166 295.4040 -9201.6414 -7474.6166 295.4040 -383.3020 -303.4334 30583.1047 -383.3020 -303.4334
ENERGY: 300000 0.4967 0.4941 1.1358 0.0000 -10601.0043 1426.6404 0.0000 0.0000 1764.9826 -7407.2547 301.8965 -9172.2373 -7442.4552 297.9146 88.4250 161.1089 30694.0355 -327.3212 -255.8129
ENERGY: 600000 0.1489 0.7706 1.3770 0.0000 -10621.6593 1397.0837 0.0000 0.0000 1744.5512 -7477.7279 298.4018 -9222.2791 -7435.9683 299.4168 -263.6187 -138.0843 30231.6005 -247.6908 -160.5608
ENERGY: 900000 0.6814 2.1239 0.3643 0.0000 -10689.9113 1412.8530 0.0000 0.0000 1728.9137 -7544.9749 295.7270 -9273.8886 -7468.6537 298.0504 -235.7932 -97.9339 30334.9004 -133.9332 -53.2802
ENERGY: 1200000 1.0126 0.8739 1.9266 0.0000 -10599.7770 1359.5418 0.0000 0.0000 1737.3950 -7499.0270 297.1778 -9236.4220 -7471.4459 298.4784 -589.9951 -541.9151 30759.6321 -190.7003 -113.1064
ENERGY: 1500000 0.9586 0.9831 0.4516 0.0000 -10531.4393 1310.1994 0.0000 0.0000 1728.2403 -7490.6063 295.6119 -9218.8466 -7483.7689 298.6673 -1225.6042 -1109.6699 30992.0759 -250.5377 -172.1866
TCL: Running FEP window   2: Lambda1 0.95   Lambda2 0.8999999999999999 [dLambda -0.050000000000000044]
TCL: Setting parameter firsttimestep to 0
TCL: Setting parameter alchLambda to 0.95
Info: NONBONDED TABLE R-SQUARED SPACING: 0.0625
Info: NONBONDED TABLE SIZE: 705 POINTS
TCL: Setting parameter alchLambda2 to 0.8999999999999999
Info: NONBONDED TABLE R-SQUARED SPACING: 0.0625
Info: NONBONDED TABLE SIZE: 705 POINTS
TCL: Running for 1500000 steps
ETITLE: TS BOND ANGLE DIHED IMPRP ELECT VDW BOUNDARY MISC KINETIC TOTAL TEMP POTENTIAL TOTALAVG TEMPAVG PRESSURE GPRESSURE VOLUME PRESSAVG GPRESSAVG
ENERGY: 0 0.9586 0.9831 0.4516 0.0000 -10531.2483 1310.3588 0.0000 0.0000 1727.3618 -7491.1345 295.4616 -9218.4963 -7491.1345 295.4616 -1202.5461 -1114.2280 30992.0759 -1202.5461 -1114.2280
ENERGY: 300000 2.0982 0.4982 0.8589 0.0000 -10769.6583 1453.7216 0.0000 0.0000 1675.2121 -7637.2693 286.5415 -9312.4814 -7529.2460 297.3984 -401.6043 -274.9161 30437.4689 -404.5034 -313.8068
ENERGY: 600000 0.4901 0.8603 0.5248 0.0000 -10665.3302 1433.0456 0.0000 0.0000 1761.4185 -7468.9909 301.2869 -9230.4094 -7506.4220 298.7323 280.8069 269.8148 30106.5781 -425.7555 -366.0089
ENERGY: 900000 3.3271 0.5903 0.5209 0.0000 -10712.5119 1452.9147 0.0000 0.0000 1744.1790 -7510.9798 298.3381 -9255.1589 -7494.7861 298.8194 -128.2422 -97.6648 30915.4789 -376.1445 -326.1057
ENERGY: 1200000 0.4323 2.0311 3.2957 0.0000 -10535.9559 1337.8616 0.0000 0.0000 1792.7709 -7399.5642 306.6497 -9192.3351 -7489.5846 298.9808 -683.8127 -649.7786 30740.9470 -379.4039 -328.0366
ENERGY: 1500000 1.5440 0.9964 0.1712 0.0000 -10809.2652 1477.9813 0.0000 0.0000 1746.8285 -7581.7438 298.7913 -9328.5723 -7496.3886 298.9691 150.4153 171.3889 30128.9842 -305.2339 -254.7622
TCL: Running FEP window   3: Lambda1 0.8999999999999999 Lambda2 0.8499999999999999 [dLambda -0.050000000000000044]
TCL: Setting parameter firsttimestep to 0
TCL: Setting parameter alchLambda to 0.8999999999999999
Info: NONBONDED TABLE R-SQUARED SPACING: 0.0625
Info: NONBONDED TABLE SIZE: 705 POINTS
TCL: Setting parameter alchLambda2 to 0.8499999999999999
Info: NONBONDED TABLE R-SQUARED SPACING: 0.0625
Info: NONBONDED TABLE SIZE: 705 POINTS
TCL: Running for 1500000 steps
ETITLE: TS BOND ANGLE DIHED IMPRP ELECT VDW BOUNDARY MISC KINETIC TOTAL TEMP POTENTIAL TOTALAVG TEMPAVG PRESSURE GPRESSURE VOLUME PRESSAVG GPRESSAVG
ENERGY: 0 1.5440 0.9964 0.1712 0.0000 -10809.1657 1477.4832 0.0000 0.0000 1745.9922 -7582.9788 298.6483 -9328.9710 -7582.9788 298.6483 79.3678 154.3939 30128.9842 79.3678 154.3939
ENERGY: 300000 0.5816 0.5804 0.2762 0.0000 -10591.9177 1366.1386 0.0000 0.0000 1757.8864 -7466.4544 300.6828 -9224.3409 -7533.1366 300.7764 -583.8541 -488.3857 30443.4261 56.9152 132.1552
ENERGY: 600000 0.4914 0.4909 0.9914 0.0000 -10717.6369 1498.8858 0.0000 0.0000 1747.4769 -7469.3004 298.9022 -9216.7773 -7507.3257 299.9244 637.0304 707.4218 30618.6113 119.2930 192.0443
ENERGY: 900000 0.1402 2.0718 0.2824 0.0000 -10788.8973 1430.6727 0.0000 0.0000 1778.8941 -7576.8362 304.2761 -9355.7303 -7507.4937 300.4357 -246.2519 -191.4387 30127.0619 -17.2733 58.1017
ENERGY: 1200000 1.5979 2.2189 0.9758 0.0000 -10685.4508 1410.5477 0.0000 0.0000 1715.5632 -7554.5473 293.4435 -9270.1105 -7504.4480 300.2742 -143.3378 -78.0857 30226.5527 63.0136 130.4401
ENERGY: 1500000 2.1705 0.2785 1.2290 0.0000 -10672.2744 1362.0744 0.0000 0.0000 1746.9408 -7559.5812 298.8105 -9306.5220 -7504.4984 300.0499 -729.5414 -726.5014 30052.6844 6.3553 65.2394
TCL: Running FEP window   4: Lambda1 0.8499999999999999 Lambda2 0.7999999999999998 [dLambda -0.050000000000000044]
TCL: Setting parameter firsttimestep to 0
TCL: Setting parameter alchLambda to 0.8499999999999999
Info: NONBONDED TABLE R-SQUARED SPACING: 0.0625
Info: NONBONDED TABLE SIZE: 705 POINTS
TCL: Setting parameter alchLambda2 to 0.7999999999999998
Info: NONBONDED TABLE R-SQUARED SPACING: 0.0625
Info: NONBONDED TABLE SIZE: 705 POINTS
TCL: Running for 1500000 steps
ETITLE: TS BOND ANGLE DIHED IMPRP ELECT VDW BOUNDARY MISC KINETIC TOTAL TEMP POTENTIAL TOTALAVG TEMPAVG PRESSURE GPRESSURE VOLUME PRESSAVG GPRESSAVG
ENERGY: 0 2.1705 0.2785 1.2290 0.0000 -10672.1851 1362.1282 0.0000 0.0000 1746.0259 -7560.3530 298.6540 -9306.3789 -7560.3530 298.6540 -827.1134 -733.5869 30052.6844 -827.1134 -733.5869
ENERGY: 300000 1.1244 0.0802 0.0369 0.0000 -10672.2603 1468.6885 0.0000 0.0000 1705.6339 -7496.6963 291.7451 -9202.3303 -7489.2338 297.8255 128.7520 184.6529 30885.4448 -307.1382 -243.5107
ENERGY: 600000 0.5200 2.2264 1.2938 0.0000 -10718.9372 1478.8129 0.0000 0.0000 1750.5480 -7485.5362 299.4275 -9236.0841 -7492.9668 298.3057 324.9811 295.6657 30457.2528 -93.9748 -47.4703
ENERGY: 900000 0.8475 0.4732 0.2973 0.0000 -10561.0098 1346.2516 0.0000 0.0000 1805.0744 -7408.0658 308.7542 -9213.1402 -7489.1962 300.1807 -865.9221 -738.9937 30894.7183 -243.1833 -185.5441
ENERGY: 1200000 0.7451 1.0368 2.0385 0.0000 -10788.9577 1452.1462 0.0000 0.0000 1742.1456 -7590.8456 297.9903 -9332.9912 -7499.4328 299.9250 36.3196 108.3436 30091.6224 -252.1998 -185.7464
ENERGY: 1500000 1.7503 3.8379 0.1064 0.0000 -10689.2034 1408.7857 0.0000 0.0000 1765.0339 -7509.6891 301.9053 -9274.7230 -7497.0096 299.9965 -215.5814 -113.5684 30295.6561 -198.5506 -127.5579
TCL: Running FEP window   5: Lambda1 0.7999999999999998 Lambda2 0.7499999999999998 [dLambda -0.050000000000000044]
TCL: Setting parameter firsttimestep to 0
TCL: Setting parameter alchLambda to 0.7999999999999998
Info: NONBONDED TABLE R-SQUARED SPACING: 0.0625
Info: NONBONDED TABLE SIZE: 705 POINTS
TCL: Setting parameter alchLambda2 to 0.7499999999999998
Info: NONBONDED TABLE R-SQUARED SPACING: 0.0625
Info: NONBONDED TABLE SIZE: 705 POINTS
TCL: Running for 1500000 steps
ETITLE: TS BOND ANGLE DIHED IMPRP ELECT VDW BOUNDARY MISC KINETIC TOTAL TEMP POTENTIAL TOTALAVG TEMPAVG PRESSURE GPRESSURE VOLUME PRESSAVG GPRESSAVG
ENERGY: 0 1.7503 3.8379 0.1064 0.0000 -10688.9515 1408.9165 0.0000 0.0000 1764.1470 -7510.1934 301.7536 -9274.3404 -7510.1934 301.7536 -211.3325 -119.0138 30295.6561 -211.3325 -119.0138
ENERGY: 300000 1.7916 2.4426 0.4238 0.0000 -10597.2712 1360.4455 0.0000 0.0000 1763.6606 -7468.5071 301.6704 -9232.1677 -7519.5268 301.1946 -690.4495 -636.4195 30759.9378 -695.5688 -636.7822
ENERGY: 600000 1.0824 0.8856 2.4570 0.0000 -10498.1870 1304.0007 0.0000 0.0000 1744.1621 -7445.5991 298.3353 -9189.7613 -7487.9337 299.9952 -882.2134 -761.4988 30476.9318 -558.1966 -513.3191
ENERGY: 900000 0.4489 2.4503 1.2126 0.0000 -10614.5406 1367.7883 0.0000 0.0000 1783.9462 -7458.6942 305.1402 -9242.6404 -7488.0397 301.0627 -499.0234 -417.6105 30363.4427 -505.4058 -460.8137
ENERGY: 1200000 0.2974 0.1706 0.7754 0.0000 -10677.4760 1473.6290 0.0000 0.0000 1699.3137 -7503.2897 290.6640 -9202.6034 -7489.6529 299.6225 425.9032 478.2587 30441.5393 -369.8898 -320.0560
ENERGY: 1500000 1.3530 1.5735 1.5501 0.0000 -10650.3040 1463.1651 0.0000 0.0000 1768.1166 -7414.5457 302.4326 -9182.6623 -7487.1940 299.1628 324.9706 439.6966 30349.4392 -400.1897 -338.5242
TCL: Running FEP window   6: Lambda1 0.7499999999999998 Lambda2 0.6999999999999997 [dLambda -0.050000000000000044]
TCL: Setting parameter firsttimestep to 0
TCL: Setting parameter alchLambda to 0.7499999999999998
Info: NONBONDED TABLE R-SQUARED SPACING: 0.0625
Info: NONBONDED TABLE SIZE: 705 POINTS
TCL: Setting parameter alchLambda2 to 0.6999999999999997
Info: NONBONDED TABLE R-SQUARED SPACING: 0.0625
Info: NONBONDED TABLE SIZE: 705 POINTS
TCL: Running for 1500000 steps
ETITLE: TS BOND ANGLE DIHED IMPRP ELECT VDW BOUNDARY MISC KINETIC TOTAL TEMP POTENTIAL TOTALAVG TEMPAVG PRESSURE GPRESSURE VOLUME PRESSAVG GPRESSAVG
ENERGY: 0 1.3530 1.5735 1.5501 0.0000 -10650.3008 1463.1110 0.0000 0.0000 1767.2243 -7415.4889 302.2800 -9182.7132 -7415.4889 302.2800 333.5504 431.7724 30349.4392 333.5504 431.7724
ENERGY: 300000 0.4928 2.9694 2.2016 0.0000 -10669.0371 1421.8657 0.0000 0.0000 1739.1743 -7502.3334 297.4821 -9241.5077 -7452.6422 301.8999 -200.5183 -164.2508 30532.2057 23.6707 74.5445
ENERGY: 600000 0.7470 0.1815 0.8897 0.0000 -10651.3435 1374.0602 0.0000 0.0000 1760.9680 -7514.4971 301.2099 -9275.4651 -7486.3280 298.6101 -661.3448 -605.9881 30389.9106 0.5816 54.6516
ENERGY: 900000 0.7547 1.1752 1.4686 0.0000 -10628.3729 1409.1150 0.0000 0.0000 1765.5785 -7450.2810 301.9985 -9215.8595 -7483.6309 298.4708 -202.5579 -126.2733 30529.7929 0.3195 52.7966
ENERGY: 1200000 1.4395 0.6139 0.2320 0.0000 -10551.9359 1336.1655 0.0000 0.0000 1748.0900 -7465.3950 299.0071 -9213.4850 -7486.1927 297.9033 -981.0597 -901.4521 30643.7039 -211.0052 -154.9690
ENERGY: 1500000 0.6849 1.6079 0.5963 0.0000 -10831.2958 1580.5777 0.0000 0.0000 1722.8995 -7524.9296 294.6983 -9247.8291 -7497.1901 297.0313 1242.0391 1279.5673 29892.1458 -117.7857 -66.7825
TCL: Running FEP window   7: Lambda1 0.6999999999999997 Lambda2 0.6499999999999997 [dLambda -0.050000000000000044]
TCL: Setting parameter firsttimestep to 0
TCL: Setting parameter alchLambda to 0.6999999999999997
Info: NONBONDED TABLE R-SQUARED SPACING: 0.0625
Info: NONBONDED TABLE SIZE: 705 POINTS
TCL: Setting parameter alchLambda2 to 0.6499999999999997
Info: NONBONDED TABLE R-SQUARED SPACING: 0.0625
Info: NONBONDED TABLE SIZE: 705 POINTS
TCL: Running for 1500000 steps
ETITLE: TS BOND ANGLE DIHED IMPRP ELECT VDW BOUNDARY MISC KINETIC TOTAL TEMP POTENTIAL TOTALAVG TEMPAVG PRESSURE GPRESSURE VOLUME PRESSAVG GPRESSAVG
ENERGY: 0 0.6849 1.6079 0.5963 0.0000 -10831.3895 1581.0629 0.0000 0.0000 1722.0234 -7525.4141 294.5485 -9247.4375 -7525.4141 294.5485 1202.6690 1277.8988 29892.1458 1202.6690 1277.8988
ENERGY: 300000 1.6226 1.2481 0.9412 0.0000 -10635.7761 1419.0658 0.0000 0.0000 1691.7181 -7521.1804 289.3648 -9212.8985 -7502.1206 295.6314 -67.4831 -53.8668 30399.4149 359.7817 441.0553
ENERGY: 600000 1.6738 0.6485 0.2621 0.0000 -10791.9956 1472.0593 0.0000 0.0000 1758.2835 -7559.0684 300.7507 -9317.3519 -7488.8437 297.4972 393.9942 433.7780 29892.6234 268.8800 341.5084
ENERGY: 900000 1.5599 0.8164 0.3961 0.0000 -10521.5810 1312.9016 0.0000 0.0000 1754.0310 -7451.8759 300.0233 -9205.9069 -7489.8433 298.0727 -879.5811 -843.9160 30667.1582 -3.3722 52.5927
ENERGY: 1200000 0.0665 0.4887 1.3810 0.0000 -10608.3201 1443.7719 0.0000 0.0000 1781.3646 -7381.2472 304.6987 -9162.6118 -7472.0829 298.6708 82.9318 89.6999 30893.1635 -15.2022 38.3093
ENERGY: 1500000 0.4830 1.1177 1.1297 0.0000 -10790.3138 1510.8908 0.0000 0.0000 1729.2040 -7547.4886 295.7767 -9276.6926 -7477.3684 298.6841 614.7355 611.2870 30008.5516 58.1384 104.0570
TCL: Running FEP window   8: Lambda1 0.6499999999999997 Lambda2 0.5999999999999996 [dLambda -0.050000000000000044]
TCL: Setting parameter firsttimestep to 0
TCL: Setting parameter alchLambda to 0.6499999999999997
Info: NONBONDED TABLE R-SQUARED SPACING: 0.0625
Info: NONBONDED TABLE SIZE: 705 POINTS
TCL: Setting parameter alchLambda2 to 0.5999999999999996
Info: NONBONDED TABLE R-SQUARED SPACING: 0.0625
Info: NONBONDED TABLE SIZE: 705 POINTS
TCL: Running for 1500000 steps
ETITLE: TS BOND ANGLE DIHED IMPRP ELECT VDW BOUNDARY MISC KINETIC TOTAL TEMP POTENTIAL TOTALAVG TEMPAVG PRESSURE GPRESSURE VOLUME PRESSAVG GPRESSAVG
ENERGY: 0 0.4830 1.1177 1.1297 0.0000 -10790.1207 1510.9556 0.0000 0.0000 1728.3498 -7548.0848 295.6306 -9276.4346 -7548.0848 295.6306 517.3009 608.3766 30008.5516 517.3009 608.3766
ENERGY: 300000 1.5328 0.3691 1.3081 0.0000 -10635.5659 1375.4524 0.0000 0.0000 1744.7353 -7512.1680 298.4333 -9256.9033 -7493.6544 295.7462 -505.9230 -454.5569 30312.3548 -32.6750 35.1872
ENERGY: 600000 2.2929 0.8387 1.5223 0.0000 -10761.0919 1517.1519 0.0000 0.0000 1697.1276 -7542.1585 290.2901 -9239.2862 -7503.0009 294.6499 636.0990 753.9535 30064.0476 41.8797 115.8421
ENERGY: 900000 0.3158 1.0392 0.2607 0.0000 -10652.5839 1375.3240 0.0000 0.0000 1790.2156 -7485.4287 306.2126 -9275.6442 -7506.7059 297.0760 -684.7975 -590.6177 30535.9688 -28.6053 42.6920
ENERGY: 1200000 1.1411 1.0453 0.9789 0.0000 -10759.0650 1486.0166 0.0000 0.0000 1711.6504 -7558.2326 292.7742 -9269.8830 -7510.1085 296.5730 336.7967 372.2222 30111.0867 13.0697 80.0363
ENERGY: 1500000 0.7229 0.6980 1.3046 0.0000 -10643.4681 1371.4314 0.0000 0.0000 1742.8649 -7526.4463 298.1134 -9269.3112 -7506.6454 297.4533 -624.0351 -537.0492 30196.7468 3.4538 66.9336
TCL: Running FEP window   9: Lambda1 0.5999999999999996 Lambda2 0.5499999999999996 [dLambda -0.050000000000000044]
TCL: Setting parameter firsttimestep to 0
TCL: Setting parameter alchLambda to 0.5999999999999996
Info: NONBONDED TABLE R-SQUARED SPACING: 0.0625
Info: NONBONDED TABLE SIZE: 705 POINTS
TCL: Setting parameter alchLambda2 to 0.5499999999999996
Info: NONBONDED TABLE R-SQUARED SPACING: 0.0625
Info: NONBONDED TABLE SIZE: 705 POINTS
TCL: Running for 1500000 steps
ETITLE: TS BOND ANGLE DIHED IMPRP ELECT VDW BOUNDARY MISC KINETIC TOTAL TEMP POTENTIAL TOTALAVG TEMPAVG PRESSURE GPRESSURE VOLUME PRESSAVG GPRESSAVG
ENERGY: 0 0.7229 0.6980 1.3046 0.0000 -10643.3862 1371.6522 0.0000 0.0000 1742.0091 -7526.9994 297.9670 -9269.0085 -7526.9994 297.9670 -624.2358 -542.3035 30196.7468 -624.2358 -542.3035
ENERGY: 300000 0.3665 1.5799 0.3429 0.0000 -10700.9966 1438.4542 0.0000 0.0000 1751.6655 -7508.5875 299.6187 -9260.2530 -7495.7309 301.5977 -177.4832 -98.3336 30387.7531 -85.9553 -11.2008
ENERGY: 600000 1.3075 1.0392 0.7832 0.0000 -10629.8257 1413.0507 0.0000 0.0000 1724.7068 -7488.9382 295.0075 -9213.6450 -7478.2627 300.5663 -74.6943 0.2517 30093.4824 -45.4874 38.4097
ENERGY: 900000 0.1291 2.3561 2.2933 0.0000 -10711.6415 1434.2805 0.0000 0.0000 1719.6488 -7552.9337 294.1423 -9272.5825 -7484.7310 299.9821 -10.4930 63.8354 29746.7206 -91.3063 -4.8219
ENERGY: 1200000 0.2342 0.1477 0.0645 0.0000 -10722.7926 1472.6464 0.0000 0.0000 1762.4953 -7487.2045 301.4711 -9249.6998 -7494.9395 300.6977 232.3685 322.3098 30260.9343 -27.4726 64.3668
ENERGY: 1500000 2.8774 0.3675 0.7294 0.0000 -10706.1934 1439.5830 0.0000 0.0000 1756.6339 -7506.0022 300.4685 -9262.6361 -7496.8264 301.0920 -13.8236 103.4253 30210.3111 -60.3890 33.0957
TCL: Running FEP window  10: Lambda1 0.5499999999999996 Lambda2 0.4999999999999996 [dLambda -0.04999999999999999]
TCL: Setting parameter firsttimestep to 0
TCL: Setting parameter alchLambda to 0.5499999999999996
Info: NONBONDED TABLE R-SQUARED SPACING: 0.0625
Info: NONBONDED TABLE SIZE: 705 POINTS
TCL: Setting parameter alchLambda2 to 0.4999999999999996
Info: NONBONDED TABLE R-SQUARED SPACING: 0.0625
Info: NONBONDED TABLE SIZE: 705 POINTS
TCL: Running for 1500000 steps
ETITLE: TS BOND ANGLE DIHED IMPRP ELECT VDW BOUNDARY MISC KINETIC TOTAL TEMP POTENTIAL TOTALAVG TEMPAVG PRESSURE GPRESSURE VOLUME PRESSAVG GPRESSAVG
ENERGY: 0 2.8774 0.3675 0.7294 0.0000 -10706.1362 1440.0201 0.0000 0.0000 1755.7579 -7506.3839 300.3187 -9262.1418 -7506.3839 300.3187 23.2913 105.5016 30210.3111 23.2913 105.5016
ENERGY: 300000 1.0835 1.0648 0.2118 0.0000 -10639.9651 1448.0837 0.0000 0.0000 1788.9956 -7400.5257 306.0039 -9189.5213 -7496.3555 302.9118 206.7395 254.8626 30444.2870 -113.4877 -56.6927
ENERGY: 600000 1.4291 0.5304 0.3642 0.0000 -10800.5767 1427.1705 0.0000 0.0000 1766.1328 -7604.9497 302.0933 -9371.0824 -7525.9661 300.6215 -472.3785 -406.6299 30387.1145 -337.3494 -275.0816
ENERGY: 900000 0.1426 0.9794 1.5328 0.0000 -10605.7847 1353.0425 0.0000 0.0000 1780.7997 -7469.2877 304.6020 -9250.0875 -7516.3794 300.9187 -574.0018 -486.4724 30179.1924 -305.7120 -239.2651
ENERGY: 1200000 0.2884 0.6733 0.4174 0.0000 -10838.7020 1531.3642 0.0000 0.0000 1746.3141 -7559.6445 298.7033 -9305.9586 -7520.2403 300.6645 680.2667 702.6307 29887.9553 -110.0217 -48.7064
ENERGY: 1500000 0.3215 0.9507 0.7575 0.0000 -10754.1829 1507.7955 0.0000 0.0000 1754.5617 -7489.7960 300.1141 -9244.3577 -7507.9024 300.9087 465.1273 594.5251 30292.8289 -50.1663 13.8661
TCL: Running FEP window  11: Lambda1 0.4999999999999996 Lambda2 0.4499999999999996 [dLambda -0.04999999999999999]
TCL: Setting parameter firsttimestep to 0
TCL: Setting parameter alchLambda to 0.4999999999999996
Info: NONBONDED TABLE R-SQUARED SPACING: 0.0625
Info: NONBONDED TABLE SIZE: 705 POINTS
TCL: Setting parameter alchLambda2 to 0.4499999999999996
Info: NONBONDED TABLE R-SQUARED SPACING: 0.0625
Info: NONBONDED TABLE SIZE: 705 POINTS
TCL: Running for 1500000 steps
ETITLE: TS BOND ANGLE DIHED IMPRP ELECT VDW BOUNDARY MISC KINETIC TOTAL TEMP POTENTIAL TOTALAVG TEMPAVG PRESSURE GPRESSURE VOLUME PRESSAVG GPRESSAVG
ENERGY: 0 0.3215 0.9507 0.7575 0.0000 -10754.1224 1508.1242 0.0000 0.0000 1753.7197 -7490.2488 299.9701 -9243.9685 -7490.2488 299.9701 518.8293 596.3870 30292.8289 518.8293 596.3870
ENERGY: 300000 2.8542 0.9994 2.8366 0.0000 -10682.2133 1435.3323 0.0000 0.0000 1795.6166 -7444.5742 307.1364 -9240.1908 -7481.6755 303.5833 120.9701 213.5113 29991.1507 108.4525 176.8276
ENERGY: 600000 0.2812 0.1345 1.1483 0.0000 -10736.2258 1434.6594 0.0000 0.0000 1780.3186 -7519.6839 304.5197 -9300.0025 -7485.5700 302.4051 -73.2155 -58.3870 30024.4696 -19.3284 37.9350
ENERGY: 900000 0.2915 1.1120 1.0022 0.0000 -10610.3318 1409.9193 0.0000 0.0000 1779.1263 -7418.8805 304.3158 -9198.0068 -7483.1416 300.5502 -84.0677 -53.6949 30698.4323 -81.4105 -23.5761
ENERGY: 1200000 1.0917 0.2872 0.3455 0.0000 -10647.6730 1366.7208 0.0000 0.0000 1741.4844 -7537.7434 297.8772 -9279.2279 -7487.1202 300.7623 -743.4537 -687.1585 30212.1785 -117.3651 -54.6640
ENERGY: 1500000 2.0425 0.5375 0.0225 0.0000 -10674.2342 1470.8510 0.0000 0.0000 1742.2455 -7458.5352 298.0074 -9200.7808 -7479.5204 300.7807 571.5542 605.1335 30079.3257 -27.2121 32.1600
TCL: Running FEP window  12: Lambda1 0.4499999999999996 Lambda2 0.39999999999999963 [dLambda -0.04999999999999999]
TCL: Setting parameter firsttimestep to 0
TCL: Setting parameter alchLambda to 0.4499999999999996
Info: NONBONDED TABLE R-SQUARED SPACING: 0.0625
Info: NONBONDED TABLE SIZE: 705 POINTS
TCL: Setting parameter alchLambda2 to 0.39999999999999963
Info: NONBONDED TABLE R-SQUARED SPACING: 0.0625
Info: NONBONDED TABLE SIZE: 705 POINTS
TCL: Running for 1500000 steps
ETITLE: TS BOND ANGLE DIHED IMPRP ELECT VDW BOUNDARY MISC KINETIC TOTAL TEMP POTENTIAL TOTALAVG TEMPAVG PRESSURE GPRESSURE VOLUME PRESSAVG GPRESSAVG
ENERGY: 0 2.0425 0.5375 0.0225 0.0000 -10674.2337 1470.7857 0.0000 0.0000 1741.3946 -7459.4510 297.8619 -9200.8456 -7459.4510 297.8619 525.5962 603.8171 30079.3257 525.5962 603.8171
ENERGY: 300000 2.0845 3.1725 1.7279 0.0000 -10596.2054 1404.4075 0.0000 0.0000 1765.3805 -7419.4325 301.9646 -9184.8130 -7477.5779 301.4637 53.9760 82.8289 30596.2025 211.8377 265.4537
ENERGY: 600000 0.5983 2.0025 0.3179 0.0000 -10675.4600 1540.3929 0.0000 0.0000 1762.2399 -7369.9086 301.4274 -9132.1485 -7454.3584 302.6310 959.9770 1040.4355 30494.6025 122.0061 177.8271
ENERGY: 900000 1.2914 0.1085 0.5330 0.0000 -10672.8600 1399.2142 0.0000 0.0000 1721.4018 -7550.3111 294.4421 -9271.7129 -7474.0758 301.4561 -245.5784 -194.1741 29919.0066 19.3002 71.6795
ENERGY: 1200000 0.6493 0.9519 0.4022 0.0000 -10717.5447 1464.6148 0.0000 0.0000 1761.3196 -7489.6069 301.2700 -9250.9265 -7485.6308 301.7411 154.1122 208.5662 30195.0590 -8.5974 45.3082
ENERGY: 1500000 0.8522 2.1904 1.3538 0.0000 -10760.1399 1449.5788 0.0000 0.0000 1768.2461 -7537.9186 302.4548 -9306.1647 -7491.9260 301.6871 -0.1434 92.5151 30065.8275 37.9206 91.5907
TCL: Running FEP window  13: Lambda1 0.39999999999999963 Lambda2 0.34999999999999964 [dLambda -0.04999999999999999]
TCL: Setting parameter firsttimestep to 0
TCL: Setting parameter alchLambda to 0.39999999999999963
Info: NONBONDED TABLE R-SQUARED SPACING: 0.0625
Info: NONBONDED TABLE SIZE: 705 POINTS
TCL: Setting parameter alchLambda2 to 0.34999999999999964
Info: NONBONDED TABLE R-SQUARED SPACING: 0.0625
Info: NONBONDED TABLE SIZE: 705 POINTS
TCL: Running for 1500000 steps
ETITLE: TS BOND ANGLE DIHED IMPRP ELECT VDW BOUNDARY MISC KINETIC TOTAL TEMP POTENTIAL TOTALAVG TEMPAVG PRESSURE GPRESSURE VOLUME PRESSAVG GPRESSAVG
ENERGY: 0 0.8522 2.1904 1.3538 0.0000 -10760.1393 1449.6372 0.0000 0.0000 1767.3808 -7538.7249 302.3068 -9306.1057 -7538.7249 302.3068 3.8926 86.7953 30065.8275 3.8926 86.7953
ENERGY: 300000 1.8725 1.6769 0.9857 0.0000 -10620.1255 1381.3289 0.0000 0.0000 1746.6884 -7487.5731 298.7674 -9234.2615 -7495.1961 301.1912 -545.7759 -529.8112 30276.5453 -259.9485 -209.3440
ENERGY: 600000 2.3282 0.8774 1.0975 0.0000 -10840.9447 1496.6441 0.0000 0.0000 1749.4448 -7590.5527 299.2388 -9339.9975 -7518.4359 300.2382 417.5860 501.6993 29732.3047 -144.3541 -96.3573
ENERGY: 900000 2.1492 0.8421 1.9155 0.0000 -10726.9581 1427.3879 0.0000 0.0000 1819.7021 -7474.9613 311.2562 -9294.6634 -7515.4615 300.6582 -390.9202 -271.8280 30808.6522 -109.9236 -51.8557
ENERGY: 1200000 1.1478 0.6788 1.1117 0.0000 -10691.9627 1401.1141 0.0000 0.0000 1763.4870 -7524.4234 301.6407 -9287.9104 -7515.4766 301.2926 -371.8751 -360.7535 30302.7400 -95.2150 -37.1404
ENERGY: 1500000 2.9515 1.5600 0.7114 0.0000 -10591.4124 1424.2509 0.0000 0.0000 1787.5338 -7374.4048 305.7539 -9161.9386 -7494.7996 301.4807 206.9487 223.1207 30411.5241 -10.2480 48.1180
TCL: Running FEP window  14: Lambda1 0.34999999999999964 Lambda2 0.29999999999999966 [dLambda -0.04999999999999999]
TCL: Setting parameter firsttimestep to 0
TCL: Setting parameter alchLambda to 0.34999999999999964
Info: NONBONDED TABLE R-SQUARED SPACING: 0.0625
Info: NONBONDED TABLE SIZE: 705 POINTS
TCL: Setting parameter alchLambda2 to 0.29999999999999966
Info: NONBONDED TABLE R-SQUARED SPACING: 0.0625
Info: NONBONDED TABLE SIZE: 705 POINTS
TCL: Running for 1500000 steps
ETITLE: TS BOND ANGLE DIHED IMPRP ELECT VDW BOUNDARY MISC KINETIC TOTAL TEMP POTENTIAL TOTALAVG TEMPAVG PRESSURE GPRESSURE VOLUME PRESSAVG GPRESSAVG
ENERGY: 0 2.9515 1.5600 0.7114 0.0000 -10591.4125 1424.3316 0.0000 0.0000 1786.6730 -7375.1849 305.6067 -9161.8580 -7375.1849 305.6067 139.3751 219.9880 30411.5241 139.3751 219.9880
ENERGY: 300000 0.5586 3.4794 0.3900 0.0000 -10733.7702 1512.0176 0.0000 0.0000 1777.5834 -7439.7412 304.0519 -9217.3246 -7484.1317 301.0979 756.3415 780.5559 30050.3468 -105.2321 -40.1003
ENERGY: 600000 0.0435 0.9390 0.6132 0.0000 -10621.1291 1438.7365 0.0000 0.0000 1791.4814 -7389.3154 306.4291 -9180.7968 -7486.9090 301.7279 -27.9778 33.6838 30780.0987 -128.8420 -54.5845
ENERGY: 900000 1.3041 1.1364 1.1250 0.0000 -10623.3722 1402.6888 0.0000 0.0000 1714.9873 -7502.1305 293.3450 -9217.1179 -7486.0773 300.2316 -327.8872 -240.1490 30253.9349 -201.7712 -121.6206
ENERGY: 1200000 0.1525 2.5472 0.2891 0.0000 -10652.7792 1437.0907 0.0000 0.0000 1732.6846 -7480.0149 296.3721 -9212.6996 -7482.6756 299.7451 97.5551 261.0311 30139.6110 -157.4094 -77.1931
ENERGY: 1500000 1.3793 1.5096 0.6858 0.0000 -10728.9950 1404.0453 0.0000 0.0000 1762.9766 -7558.3984 301.5534 -9321.3750 -7497.9534 299.0690 -749.9695 -677.9105 30487.9590 -119.6286 -46.3182
TCL: Running FEP window  15: Lambda1 0.29999999999999966 Lambda2 0.24999999999999967 [dLambda -0.04999999999999999]
TCL: Setting parameter firsttimestep to 0
TCL: Setting parameter alchLambda to 0.29999999999999966
Info: NONBONDED TABLE R-SQUARED SPACING: 0.0625
Info: NONBONDED TABLE SIZE: 705 POINTS
TCL: Setting parameter alchLambda2 to 0.24999999999999967
Info: NONBONDED TABLE R-SQUARED SPACING: 0.0625
Info: NONBONDED TABLE SIZE: 705 POINTS
TCL: Running for 1500000 steps
ETITLE: TS BOND ANGLE DIHED IMPRP ELECT VDW BOUNDARY MISC KINETIC TOTAL TEMP POTENTIAL TOTALAVG TEMPAVG PRESSURE GPRESSURE VOLUME PRESSAVG GPRESSAVG
ENERGY: 0 1.3793 1.5096 0.6858 0.0000 -10728.9960 1404.4143 0.0000 0.0000 1762.1343 -7558.8727 301.4094 -9321.0070 -7558.8727 301.4094 -757.0493 -679.6531 30487.9590 -757.0493 -679.6531
ENERGY: 300000 1.3306 0.6026 0.6591 0.0000 -10760.8208 1528.8418 0.0000 0.0000 1751.1251 -7478.2616 299.5262 -9229.3867 -7488.9710 302.5722 547.6188 538.5016 30577.8096 136.4857 198.9686
ENERGY: 600000 1.0290 0.7005 0.1478 0.0000 -10577.4688 1378.2801 0.0000 0.0000 1751.8709 -7445.4404 299.6538 -9197.3114 -7468.8996 301.6068 -427.1898 -315.0565 30286.6424 -98.0673 -41.6391
ENERGY: 900000 0.9163 0.6039 0.3158 0.0000 -10600.8822 1368.4662 0.0000 0.0000 1778.4583 -7452.1216 304.2015 -9230.5800 -7456.6862 301.8780 -446.9272 -362.4765 30136.7173 -232.5750 -172.5996
ENERGY: 1200000 0.7411 2.3805 1.5955 0.0000 -10504.8168 1328.8357 0.0000 0.0000 1824.8839 -7346.3802 312.1425 -9171.2641 -7457.1333 301.9425 -626.6828 -603.0214 30155.8377 -292.5968 -235.9844
ENERGY: 1500000 0.8148 0.7814 0.4884 0.0000 -10750.9588 1447.0513 0.0000 0.0000 1741.5435 -7560.2794 297.8873 -9301.8228 -7465.8362 301.3160 -106.0327 -43.2320 30080.7259 -268.3827 -208.4292
TCL: Running FEP window  16: Lambda1 0.24999999999999967 Lambda2 0.19999999999999968 [dLambda -0.04999999999999999]
TCL: Setting parameter firsttimestep to 0
TCL: Setting parameter alchLambda to 0.24999999999999967
Info: NONBONDED TABLE R-SQUARED SPACING: 0.0625
Info: NONBONDED TABLE SIZE: 705 POINTS
TCL: Setting parameter alchLambda2 to 0.19999999999999968
Info: NONBONDED TABLE R-SQUARED SPACING: 0.0625
Info: NONBONDED TABLE SIZE: 705 POINTS
TCL: Running for 1500000 steps
ETITLE: TS BOND ANGLE DIHED IMPRP ELECT VDW BOUNDARY MISC KINETIC TOTAL TEMP POTENTIAL TOTALAVG TEMPAVG PRESSURE GPRESSURE VOLUME PRESSAVG GPRESSAVG
ENERGY: 0 0.8148 0.7814 0.4884 0.0000 -10750.9586 1446.5425 0.0000 0.0000 1740.6764 -7561.6551 297.7390 -9302.3315 -7561.6551 297.7390 -133.9160 -50.4351 30080.7259 -133.9160 -50.4351
ENERGY: 300000 1.5333 0.8521 1.5195 0.0000 -10621.6878 1337.0199 0.0000 0.0000 1759.7144 -7521.0486 300.9954 -9280.7630 -7497.5196 301.9678 -785.5260 -761.9540 30408.2822 -31.9858 39.8761
ENERGY: 600000 0.3428 0.7497 0.2497 0.0000 -10750.2815 1446.6462 0.0000 0.0000 1775.4034 -7526.8897 303.6790 -9302.2932 -7487.5143 301.8216 -106.1257 -48.5373 30135.5223 -110.3414 -32.6237
ENERGY: 900000 2.4598 2.4770 1.1912 0.0000 -10656.0354 1451.9150 0.0000 0.0000 1755.9536 -7442.0388 300.3521 -9197.9924 -7496.6183 301.1291 162.3814 190.3606 30234.7863 -14.1484 61.5069
ENERGY: 1200000 0.4393 0.5996 2.7458 0.0000 -10614.6317 1380.3096 0.0000 0.0000 1820.4559 -7410.0815 311.3851 -9230.5374 -7496.1407 301.3211 -293.3792 -250.8193 30104.8033 3.8947 76.4296
ENERGY: 1500000 0.6406 1.2549 1.0951 0.0000 -10806.7989 1543.0684 0.0000 0.0000 1731.9642 -7528.7757 296.2488 -9260.7398 -7496.1087 301.1935 565.6924 549.3275 30584.3747 53.2473 123.6809
TCL: Running FEP window  17: Lambda1 0.19999999999999968 Lambda2 0.1499999999999997 [dLambda -0.04999999999999999]
TCL: Setting parameter firsttimestep to 0
TCL: Setting parameter alchLambda to 0.19999999999999968
Info: NONBONDED TABLE R-SQUARED SPACING: 0.0625
Info: NONBONDED TABLE SIZE: 705 POINTS
TCL: Setting parameter alchLambda2 to 0.1499999999999997
Info: NONBONDED TABLE R-SQUARED SPACING: 0.0625
Info: NONBONDED TABLE SIZE: 705 POINTS
TCL: Running for 1500000 steps
ETITLE: TS BOND ANGLE DIHED IMPRP ELECT VDW BOUNDARY MISC KINETIC TOTAL TEMP POTENTIAL TOTALAVG TEMPAVG PRESSURE GPRESSURE VOLUME PRESSAVG GPRESSAVG
ENERGY: 0 0.6406 1.2549 1.0951 0.0000 -10806.7992 1543.3942 0.0000 0.0000 1731.0482 -7529.3661 296.0921 -9260.4144 -7529.3661 296.0921 462.5801 548.5891 30584.3747 462.5801 548.5891
ENERGY: 300000 0.3046 0.6189 1.3649 0.0000 -10772.8273 1454.1470 0.0000 0.0000 1783.7866 -7532.6053 305.1129 -9316.3920 -7489.3670 301.7558 -79.7925 -41.1833 30361.9459 4.6714 57.4441
ENERGY: 600000 0.2927 0.7861 0.6923 0.0000 -10671.3722 1406.7158 0.0000 0.0000 1735.3783 -7527.5070 296.8328 -9262.8853 -7485.9673 301.3411 -478.0011 -348.2843 30320.7510 -57.5083 17.5326
ENERGY: 900000 0.8740 1.0434 2.1394 0.0000 -10703.3937 1436.7093 0.0000 0.0000 1746.2227 -7516.4048 298.6877 -9262.6275 -7474.2829 301.3133 -175.0063 -137.5820 30360.2644 -69.3136 -4.0799
ENERGY: 1200000 1.5981 0.6658 0.5557 0.0000 -10633.0576 1411.8497 0.0000 0.0000 1716.3404 -7502.0480 293.5764 -9218.3883 -7479.5234 300.1460 -286.2667 -242.5107 30671.2990 -52.5089 4.0847
ENERGY: 1500000 1.4998 2.6015 0.8451 0.0000 -10904.2597 1559.9115 0.0000 0.0000 1752.8133 -7586.5886 299.8150 -9339.4018 -7485.7971 300.3565 622.9875 647.7627 30295.8645 -27.9112 22.4419
TCL: Running FEP window  18: Lambda1 0.1499999999999997 Lambda2 0.09999999999999969 [dLambda -0.05 ]
TCL: Setting parameter firsttimestep to 0
TCL: Setting parameter alchLambda to 0.1499999999999997
Info: NONBONDED TABLE R-SQUARED SPACING: 0.0625
Info: NONBONDED TABLE SIZE: 705 POINTS
TCL: Setting parameter alchLambda2 to 0.09999999999999969
Info: NONBONDED TABLE R-SQUARED SPACING: 0.0625
Info: NONBONDED TABLE SIZE: 705 POINTS
TCL: Running for 1500000 steps
ETITLE: TS BOND ANGLE DIHED IMPRP ELECT VDW BOUNDARY MISC KINETIC TOTAL TEMP POTENTIAL TOTALAVG TEMPAVG PRESSURE GPRESSURE VOLUME PRESSAVG GPRESSAVG
ENERGY: 0 1.4998 2.6015 0.8451 0.0000 -10904.2613 1560.0598 0.0000 0.0000 1751.9491 -7587.3060 299.6672 -9339.2551 -7587.3060 299.6672 562.1536 644.7573 30295.8645 562.1536 644.7573
ENERGY: 300000 0.1118 1.3920 0.7000 0.0000 -10611.9086 1317.0852 0.0000 0.0000 1730.8445 -7561.7752 296.0573 -9292.6197 -7537.9098 300.1035 -1174.7423 -1151.2543 30535.2117 -128.8842 -75.7248
ENERGY: 600000 2.5442 0.5638 0.4053 0.0000 -10706.6994 1501.0573 0.0000 0.0000 1739.3654 -7462.7634 297.5148 -9202.1288 -7509.3256 300.6244 509.4384 610.2344 30496.3439 10.0163 74.1061
ENERGY: 900000 0.3124 0.7954 2.2911 0.0000 -10861.2377 1550.8557 0.0000 0.0000 1771.7003 -7535.2827 303.0456 -9306.9831 -7499.2514 300.7633 900.6696 959.0491 29740.9654 -64.6294 -3.9937
ENERGY: 1200000 2.2358 1.4063 2.4366 0.0000 -10757.9519 1494.2911 0.0000 0.0000 1764.9496 -7492.6325 301.8909 -9257.5821 -7504.4925 299.4435 435.2830 493.8433 29956.5968 -39.9711 21.5300
ENERGY: 1500000 1.4538 2.6444 0.5223 0.0000 -10540.3535 1314.1280 0.0000 0.0000 1775.7602 -7445.8447 303.7400 -9221.6049 -7499.3983 299.8928 -812.0256 -800.8567 30398.8076 -59.3066 -2.3208
TCL: Running FEP window  19: Lambda1 0.09999999999999969 Lambda2 0.049999999999999684 [dLambda -0.05 ]
TCL: Setting parameter firsttimestep to 0
TCL: Setting parameter alchLambda to 0.09999999999999969
Info: NONBONDED TABLE R-SQUARED SPACING: 0.0625
Info: NONBONDED TABLE SIZE: 705 POINTS
TCL: Setting parameter alchLambda2 to 0.049999999999999684
Info: NONBONDED TABLE R-SQUARED SPACING: 0.0625
Info: NONBONDED TABLE SIZE: 705 POINTS
TCL: Running for 1500000 steps
ETITLE: TS BOND ANGLE DIHED IMPRP ELECT VDW BOUNDARY MISC KINETIC TOTAL TEMP POTENTIAL TOTALAVG TEMPAVG PRESSURE GPRESSURE VOLUME PRESSAVG GPRESSAVG
ENERGY: 0 1.4538 2.6444 0.5223 0.0000 -10540.3544 1313.8205 0.0000 0.0000 1774.8923 -7447.0211 303.5916 -9221.9134 -7447.0211 303.5916 -888.1123 -804.3117 30398.8076 -888.1123 -804.3117
ENERGY: 300000 0.5808 0.6070 1.2100 0.0000 -10575.7723 1377.4203 0.0000 0.0000 1791.6216 -7404.3326 306.4531 -9195.9542 -7426.9448 304.4827 -451.9820 -381.4321 30688.7723 -381.2239 -291.2562
ENERGY: 600000 0.6141 0.5901 0.7334 0.0000 -10717.4712 1447.4817 0.0000 0.0000 1782.7943 -7485.2576 304.9432 -9268.0519 -7463.1606 302.4724 59.4597 145.8133 30155.9436 -305.6250 -216.6436
ENERGY: 900000 1.5890 0.9694 2.2512 0.0000 -10677.7320 1425.5665 0.0000 0.0000 1745.1297 -7502.2262 298.5007 -9247.3559 -7452.7645 302.3233 -313.0548 -200.4064 30163.7010 -250.7945 -160.5963
ENERGY: 1200000 3.1715 0.5714 0.8423 0.0000 -10711.6864 1459.0465 0.0000 0.0000 1741.8720 -7506.1826 297.9435 -9248.0547 -7457.5139 301.2091 65.6249 80.4881 30346.0615 -258.4868 -175.7923
ENERGY: 1500000 1.5390 2.1237 1.6951 0.0000 -10671.5971 1427.4983 0.0000 0.0000 1789.0591 -7449.6819 306.0148 -9238.7410 -7469.3577 301.4738 -119.7543 -28.2741 30519.7543 -150.8668 -66.9591
TCL: Running FEP window  20: Lambda1 0.049999999999999684 Lambda2 0.0    [dLambda -0.049999999999999684]
TCL: Setting parameter firsttimestep to 0
TCL: Setting parameter alchLambda to 0.049999999999999684
Info: NONBONDED TABLE R-SQUARED SPACING: 0.0625
Info: NONBONDED TABLE SIZE: 705 POINTS
TCL: Setting parameter alchLambda2 to 0.0
Info: NONBONDED TABLE R-SQUARED SPACING: 0.0625
Info: NONBONDED TABLE SIZE: 705 POINTS
TCL: Running for 1500000 steps
ETITLE: TS BOND ANGLE DIHED IMPRP ELECT VDW BOUNDARY MISC KINETIC TOTAL TEMP POTENTIAL TOTALAVG TEMPAVG PRESSURE GPRESSURE VOLUME PRESSAVG GPRESSAVG
ENERGY: 0 1.5390 2.1237 1.6951 0.0000 -10671.5970 1426.8363 0.0000 0.0000 1788.1485 -7451.2545 305.8590 -9239.4029 -7451.2545 305.8590 -117.9609 -33.9909 30519.7543 -117.9609 -33.9909
ENERGY: 300000 1.1223 0.6125 0.4160 0.0000 -10699.9862 1447.1166 0.0000 0.0000 1722.9301 -7527.7888 294.7036 -9250.7188 -7474.3208 296.1676 -123.6042 -27.5385 30223.3431 -81.7324 2.7614
ENERGY: 600000 1.1309 0.8443 2.5103 0.0000 -10860.9752 1545.2717 0.0000 0.0000 1735.8994 -7575.3187 296.9219 -9311.2181 -7494.8851 297.2400 737.0565 729.4634 29904.8850 -22.8982 42.0915
ENERGY: 900000 0.1256 0.6195 2.3271 0.0000 -10592.6389 1391.0694 0.0000 0.0000 1781.4620 -7417.0353 304.7153 -9198.4973 -7494.4581 297.4553 -330.5575 -334.5852 30556.5447 -23.1090 34.7392
ENERGY: 1200000 0.1284 0.3619 1.6239 0.0000 -10540.5672 1386.4204 0.0000 0.0000 1739.6565 -7412.3761 297.5646 -9152.0326 -7491.5651 297.3805 -36.3922 66.6875 30036.0175 -46.6533 9.5939
ENERGY: 1500000 0.2249 1.8163 0.9247 0.0000 -10613.2841 1417.7890 0.0000 0.0000 1759.9679 -7432.5613 301.0388 -9192.5293 -7493.2067 297.1455 -46.7890 1.7829 30193.7601 -1.1919 54.9573
TCL: Exiting due to exit command.
