Info: SIMULATION PARAMETERS:
Info: TIMESTEP               2
Info: NUMBER OF STEPS        0
Info: STEPS PER CYCLE        10
Info: PERIODIC CELL BASIS 1  33.0748 0 0
Info: PERIODIC CELL BASIS 2  0 30.3142 0
Info: PERIODIC CELL BASIS 3  0 0 30.2867
Info: PERIODIC CELL CENTER   0 0 0
Info: WRAPPING WATERS AROUND PERIODIC BOUNDARIES ON OUTPUT.
Info: WRAPPING ALL CLUSTERS AROUND PERIODIC BOUNDARIES ON OUTPUT.
Info: FIRST LDB TIMESTEP     50
Info: LAST LDB TIMESTEP     -1
Info: HOM BACKGROUND SCALING 1
Info: PME BACKGROUND SCALING 1
Info: MIN ATOMS PER PATCH    40
Info: EMPTY PATCH LOAD       40 ATOMS
Info: VELOCITY FILE          mobley_4371692_equil.vel
Info: CENTER OF MASS MOVING INITIALLY? NO
Info: DIELECTRIC             1
Info: EXCLUDE                SCALED ONE-FOUR
Info: 1-4 ELECTROSTATICS SCALED BY 0.833333
Info: MODIFIED 1-4 VDW PARAMETERS WILL BE USED
Info: DCD FILENAME           mobley_4371692_prod.dcd
Info: DCD FREQUENCY          100000
Info: DCD FIRST STEP         100000
Info: DCD FILE WILL CONTAIN UNIT CELL DATA
Info: XST FILENAME           mobley_4371692_prod.xst
Info: XST FREQUENCY          100000
Info: NO VELOCITY DCD OUTPUT
Info: NO FORCE DCD OUTPUT
Info: OUTPUT FILENAME        mobley_4371692_prod
Info: BINARY OUTPUT FILES WILL BE USED
Info: RESTART FILENAME       mobley_4371692_prod.restart
Info: RESTART FREQUENCY      100000
Info: BINARY RESTART FILES WILL BE USED
Info: CUTOFF                 9
Info: PAIRLIST DISTANCE      11
Info: PAIRLIST SHRINK RATE   0.01
Info: PAIRLIST GROW RATE     0.01
Info: PAIRLIST TRIGGER       0.3
Info: PAIRLISTS PER CYCLE    2
Info: PAIRLISTS ENABLED
Info: MARGIN                 2
Info: HYDROGEN GROUP CUTOFF  2.5
Info: PATCH DIMENSION        15.5
Info: ENERGY OUTPUT STEPS    100000
Info: ENERGY EVALUATION STEPS    100000
Info: OUTPUT ENERGY PRECISION 4
Info: CROSSTERM ENERGY INCLUDED IN DIHEDRAL
Info: TIMING OUTPUT STEPS    1000000
Info: PRESSURE OUTPUT STEPS  100000
Info: ALCHEMICAL FEP ON
Info: FEP CURRENT LAMBDA VALUE     0
Info: FEP COMPARISON LAMBDA VALUE  0.05
Info: FEP INTRA-ALCHEMICAL NON-BONDED INTERACTIONS WILL BE RETAINED
Info: FEP INTRA-ALCHEMICAL BONDED INTERACTIONS WILL BE RETAINED
Info: FEP VDW SHIFTING COEFFICIENT 5
Info: FEP ELEC. ACTIVE FOR ANNIHILATED PARTICLES BETWEEN LAMBDA = 0 AND LAMBDA = 0.5
Info: FEP ELEC. ACTIVE FOR EXNIHILATED PARTICLES BETWEEN LAMBDA = 0.5 AND LAMBDA = 1
Info: FEP VDW ACTIVE FOR ANNIHILATED PARTICLES BETWEEN LAMBDA = 0 AND LAMBDA = 1
Info: FEP VDW ACTIVE FOR EXNIHILATED PARTICLES BETWEEN LAMBDA = 0 AND LAMBDA = 1
Info: FEP BOND ACTIVE FOR ANNIHILATED PARTICLES BETWEEN LAMBDA = 1 AND LAMBDA = 1
Info: FEP BOND ACTIVE FOR EXNIHILATED PARTICLES BETWEEN LAMBDA = 0 AND LAMBDA = 0
Info: LANGEVIN DYNAMICS ACTIVE
Info: LANGEVIN TEMPERATURE   300
Info: LANGEVIN USING BBK INTEGRATOR
Info: LANGEVIN DAMPING COEFFICIENT IS 1 INVERSE PS
Info: LANGEVIN DYNAMICS APPLIED TO HYDROGENS
Info: LANGEVIN PISTON PRESSURE CONTROL ACTIVE
Info:        TARGET PRESSURE IS 1.01325 BAR
Info:     OSCILLATION PERIOD IS 50 FS
Info:             DECAY TIME IS 25 FS
Info:     PISTON TEMPERATURE IS 300 K
Info:       PRESSURE CONTROL IS GROUP-BASED
Info:    INITIAL STRAIN RATE IS 0.000877465 0.000877465 0.000877465
Info:       CELL FLUCTUATION IS ISOTROPIC
Info: PARTICLE MESH EWALD (PME) ACTIVE
Info: PME TOLERANCE               1e-06
Info: PME EWALD COEFFICIENT       0.348832
Info: PME INTERPOLATION ORDER     4
Info: PME GRID DIMENSIONS         36 32 32
Info: PME MAXIMUM GRID SPACING    1
Info: PME CALCULATION WILL BE PERFORMED ON GPU
Info: FULL ELECTROSTATIC EVALUATION FREQUENCY      2
Info: USING VERLET I (r-RESPA) MTS SCHEME.
Info: C1 SPLITTING OF LONG RANGE ELECTROSTATICS
Info: PLACING ATOMS IN PATCHES BY HYDROGEN GROUPS
Info: RIGID BONDS TO HYDROGEN : ALL
Info:         ERROR TOLERANCE : 1e-08
Info:          MAX ITERATIONS : 100
Info: RIGID WATER USING SETTLE ALGORITHM
Info: RANDOM NUMBER SEED     1743664731
Info: USE HYDROGEN BONDS?    NO
Info: Using AMBER format force field!
Info: AMBER PARM FILE        mobley_4371692.prmtop
Info: COORDINATE PDB         mobley_4371692.pdb
Info: Exclusions will be read from PARM file!
Info: SCNB (VDW SCALING)     2
Info: USING ARITHMETIC MEAN TO COMBINE L-J SIGMA PARAMETERS
Info: BINARY COORDINATES     mobley_4371692_equil.coor
Info: SUMMARY OF PARAMETERS:
Info: 10 BONDS
Info: 10 ANGLES
Info:   10 HARMONIC
Info:   0 COSINE-BASED
Info: 6 DIHEDRAL
Info: 0 IMPROPER
Info: 0 CROSSTERM
Info: 0 VDW
Info: 36 VDW_PAIRS
Info: 0 NBTHOLE_PAIRS
Info: To read alchdata from file: mobley_4371692.pdb
Info: To read alchflag data from column: 5
Info: STRUCTURE SUMMARY:
Info: 2949 ATOMS
Info: 2951 BONDS
Info: 46 ANGLES
Info: 85 DIHEDRALS
Info: 0 IMPROPERS
Info: 0 CROSSTERMS
Info: 3058 EXCLUSIONS
Info: 2931 RIGID BONDS
Info: ALCH: 0 ATOMS TO DISAPPEAR IN FINAL STATE
Info: ALCH: 27 ATOMS TO APPEAR IN FINAL STATE
Info: 5916 DEGREES OF FREEDOM
Info: 992 HYDROGEN GROUPS
Info: 3 ATOMS IN LARGEST HYDROGEN GROUP
Info: 992 MIGRATION GROUPS
Info: 3 ATOMS IN LARGEST MIGRATION GROUP
Info: TOTAL MASS = 17786.8 amu
Info: TOTAL CHARGE = 0.000100076 e
Info: MASS DENSITY = 0.972661 g/cm^3
Info: ATOM DENSITY = 0.0971134 atoms/A^3
Info: ADDED 0 IMPLICIT EXCLUSIONS
Info: NONBONDED TABLE R-SQUARED SPACING: 0.0625
Info: NONBONDED TABLE SIZE: 705 POINTS
Info: REMOVING COM VELOCITY -0.159398 0.0636132 0.0369451
Info: Use 3D box decompostion in PME FFT.
Info: Updated CUDA force table with 4096 elements.
Info: Updated CUDA LJ table with 8 x 8 elements.
Info: Found 28 unique exclusion lists needing 92 bytes
TCL: Running for 1500000 steps
ETITLE: TS BOND ANGLE DIHED IMPRP ELECT VDW BOUNDARY MISC KINETIC TOTAL TEMP POTENTIAL TOTALAVG TEMPAVG PRESSURE GPRESSURE VOLUME PRESSAVG GPRESSAVG
ENERGY: 0 3.8829 8.8574 14.3726 0.0000 -10649.4128 1422.8263 0.0000 0.0000 1786.9700 -7412.5036 304.0041 -9199.4736 -7412.5036 304.0041 -325.2474 -242.1909 30366.5557 -325.2474 -242.1909
ENERGY: 300000 9.5208 7.5995 9.2181 0.0000 -10728.7842 1472.8097 0.0000 0.0000 1728.0025 -7501.6336 293.9724 -9229.6361 -7464.3550 298.2592 -102.5977 -106.9658 30260.5721 -412.3673 -353.8430
ENERGY: 600000 6.7265 6.6189 4.4454 0.0000 -10807.6802 1534.5739 0.0000 0.0000 1745.2795 -7510.0360 296.9116 -9255.3155 -7459.2091 298.2612 732.2455 803.0600 29745.6378 -129.3487 -69.6288
ENERGY: 900000 4.9190 6.1088 8.2583 0.0000 -10795.8954 1548.6370 0.0000 0.0000 1773.1479 -7454.8244 301.6527 -9227.9723 -7446.4859 299.4169 938.8178 935.3163 30126.4955 -17.2476 37.5589
ENERGY: 1200000 10.4637 7.8420 5.5237 0.0000 -10612.0129 1363.2029 0.0000 0.0000 1782.8661 -7442.1146 303.3060 -9224.9806 -7437.1654 300.7025 -1031.0619 -1015.8859 30304.7586 -77.4582 -23.2063
ENERGY: 1500000 7.2928 8.3055 7.8163 0.0000 -10769.8123 1442.5874 0.0000 0.0000 1743.3918 -7560.4185 296.5905 -9303.8103 -7441.9775 300.3056 -501.4905 -444.1231 30028.5490 -133.0812 -77.1805
TCL: Running FEP window   2: Lambda1 0.05   Lambda2 0.1    [dLambda 0.05  ]
TCL: Setting parameter firsttimestep to 0
TCL: Setting parameter alchLambda to 0.05
Info: NONBONDED TABLE R-SQUARED SPACING: 0.0625
Info: NONBONDED TABLE SIZE: 705 POINTS
TCL: Setting parameter alchLambda2 to 0.1
Info: NONBONDED TABLE R-SQUARED SPACING: 0.0625
Info: NONBONDED TABLE SIZE: 705 POINTS
TCL: Running for 1500000 steps
ETITLE: TS BOND ANGLE DIHED IMPRP ELECT VDW BOUNDARY MISC KINETIC TOTAL TEMP POTENTIAL TOTALAVG TEMPAVG PRESSURE GPRESSURE VOLUME PRESSAVG GPRESSAVG
ENERGY: 0 7.2928 8.3055 7.8163 0.0000 -10769.8149 1445.6721 0.0000 0.0000 1742.5048 -7558.2234 296.4396 -9300.7282 -7558.2234 296.4396 -504.8235 -433.0285 30028.5490 -504.8235 -433.0285
ENERGY: 300000 11.0367 6.2087 8.5643 0.0000 -10524.9961 1363.8889 0.0000 0.0000 1773.9911 -7361.3063 301.7961 -9135.2974 -7446.5572 300.1550 -650.7513 -631.7861 30131.5012 -474.3922 -427.0609
ENERGY: 600000 8.8237 8.7691 7.8897 0.0000 -10468.2285 1329.6340 0.0000 0.0000 1825.0893 -7288.0227 310.4891 -9113.1120 -7428.6286 299.8575 -766.9796 -726.0561 30445.0213 -430.0629 -368.6817
ENERGY: 900000 8.0062 8.9540 5.5759 0.0000 -10688.2551 1514.1226 0.0000 0.0000 1775.8988 -7375.6976 302.1207 -9151.5965 -7422.4608 300.7982 577.2932 647.9027 30063.7916 -207.6618 -144.4008
ENERGY: 1200000 4.9874 11.5331 9.5302 0.0000 -10538.3995 1406.8450 0.0000 0.0000 1678.7188 -7426.7850 285.5881 -9105.5038 -7427.9688 299.4027 -456.1269 -419.2499 30516.9373 -207.2402 -144.3749
ENERGY: 1500000 12.9712 5.1854 4.1391 0.0000 -10687.0315 1506.7470 0.0000 0.0000 1740.0724 -7417.9165 296.0258 -9157.9889 -7419.9889 299.7445 332.0738 324.2895 30171.4538 -240.6186 -182.8925
TCL: Running FEP window   3: Lambda1 0.1    Lambda2 0.15000000000000002 [dLambda 0.05000000000000002]
TCL: Setting parameter firsttimestep to 0
TCL: Setting parameter alchLambda to 0.1
Info: NONBONDED TABLE R-SQUARED SPACING: 0.0625
Info: NONBONDED TABLE SIZE: 705 POINTS
TCL: Setting parameter alchLambda2 to 0.15000000000000002
Info: NONBONDED TABLE R-SQUARED SPACING: 0.0625
Info: NONBONDED TABLE SIZE: 705 POINTS
TCL: Running for 1500000 steps
ETITLE: TS BOND ANGLE DIHED IMPRP ELECT VDW BOUNDARY MISC KINETIC TOTAL TEMP POTENTIAL TOTALAVG TEMPAVG PRESSURE GPRESSURE VOLUME PRESSAVG GPRESSAVG
ENERGY: 0 12.9712 5.1854 4.1391 0.0000 -10687.0330 1510.6263 0.0000 0.0000 1739.2095 -7414.9016 295.8790 -9154.1111 -7414.9016 295.8790 269.3729 341.7834 30171.4538 269.3729 341.7834
ENERGY: 300000 4.2236 9.5348 12.6512 0.0000 -10666.2716 1429.1093 0.0000 0.0000 1774.2374 -7436.5152 301.8380 -9210.7526 -7402.0049 302.1106 -225.9324 -196.6083 30152.3145 42.2466 126.0559
ENERGY: 600000 8.5731 10.7492 5.4428 0.0000 -10581.9513 1445.5580 0.0000 0.0000 1755.4241 -7356.2042 298.6374 -9111.6282 -7380.1204 302.3893 -59.8238 2.1976 30406.1089 24.4863 96.6105
ENERGY: 900000 8.9616 6.7655 6.6102 0.0000 -10553.5312 1401.2765 0.0000 0.0000 1788.3170 -7341.6005 304.2333 -9129.9175 -7385.7775 303.2753 -181.1074 -65.5612 29814.0903 59.9206 136.7817
ENERGY: 1200000 5.8530 6.9468 5.4028 0.0000 -10712.0043 1467.0953 0.0000 0.0000 1772.8648 -7453.8416 301.6045 -9226.7065 -7397.9093 302.1750 30.3233 49.9670 30143.7047 28.6193 99.2772
ENERGY: 1500000 6.2364 10.2402 4.9877 0.0000 -10547.3387 1391.3707 0.0000 0.0000 1802.8211 -7331.6827 306.7008 -9134.5037 -7394.3319 302.0071 -450.6233 -380.0857 30660.8287 -98.8954 -23.6170
TCL: Running FEP window   4: Lambda1 0.15000000000000002 Lambda2 0.2    [dLambda 0.04999999999999999]
TCL: Setting parameter firsttimestep to 0
TCL: Setting parameter alchLambda to 0.15000000000000002
Info: NONBONDED TABLE R-SQUARED SPACING: 0.0625
Info: NONBONDED TABLE SIZE: 705 POINTS
TCL: Setting parameter alchLambda2 to 0.2
Info: NONBONDED TABLE R-SQUARED SPACING: 0.0625
Info: NONBONDED TABLE SIZE: 705 POINTS
TCL: Running for 1500000 steps
ETITLE: TS BOND ANGLE DIHED IMPRP ELECT VDW BOUNDARY MISC KINETIC TOTAL TEMP POTENTIAL TOTALAVG TEMPAVG PRESSURE GPRESSURE VOLUME PRESSAVG GPRESSAVG
ENERGY: 0 6.2364 10.2401 4.9877 0.0000 -10547.3382 1391.9129 0.0000 0.0000 1801.9685 -7331.9925 306.5557 -9133.9610 -7331.9925 306.5557 -454.2335 -372.2622 30660.8287 -454.2335 -372.2622
ENERGY: 300000 6.1566 9.0347 6.7002 0.0000 -10519.0981 1313.2732 0.0000 0.0000 1740.4421 -7443.4914 296.0887 -9183.9335 -7440.9296 299.7480 -1310.3337 -1223.2645 30254.6496 -482.5171 -405.1555
ENERGY: 600000 6.4033 6.5211 6.1688 0.0000 -10689.3643 1483.0771 0.0000 0.0000 1807.9129 -7379.2811 307.5670 -9187.1939 -7424.7254 300.8741 665.7060 669.3195 29712.7808 -29.0789 28.1383
ENERGY: 900000 11.9151 11.8809 6.0460 0.0000 -10509.8163 1319.8733 0.0000 0.0000 1729.4136 -7430.6875 294.2125 -9160.1011 -7427.9135 300.4902 -1099.9694 -1033.6740 30203.4616 -129.9218 -67.5686
ENERGY: 1200000 12.1761 5.2002 9.6805 0.0000 -10636.9520 1410.3773 0.0000 0.0000 1823.2428 -7376.2752 310.1749 -9199.5180 -7419.8664 302.0195 91.9839 87.6964 29835.9050 -227.4617 -169.5780
ENERGY: 1500000 9.3022 13.6693 11.5952 0.0000 -10669.6951 1412.5925 0.0000 0.0000 1834.3115 -7388.2245 312.0580 -9222.5360 -7420.7530 302.5340 -395.9999 -368.7853 30057.9059 -184.8453 -125.8354
TCL: Running FEP window   5: Lambda1 0.2    Lambda2 0.25   [dLambda 0.04999999999999999]
TCL: Setting parameter firsttimestep to 0
TCL: Setting parameter alchLambda to 0.2
Info: NONBONDED TABLE R-SQUARED SPACING: 0.0625
Info: NONBONDED TABLE SIZE: 705 POINTS
TCL: Setting parameter alchLambda2 to 0.25
Info: NONBONDED TABLE R-SQUARED SPACING: 0.0625
Info: NONBONDED TABLE SIZE: 705 POINTS
TCL: Running for 1500000 steps
ETITLE: TS BOND ANGLE DIHED IMPRP ELECT VDW BOUNDARY MISC KINETIC TOTAL TEMP POTENTIAL TOTALAVG TEMPAVG PRESSURE GPRESSURE VOLUME PRESSAVG GPRESSAVG
ENERGY: 0 9.3021 13.6693 11.5952 0.0000 -10669.6984 1413.3727 0.0000 0.0000 1833.4052 -7388.3538 311.9038 -9221.7591 -7388.3538 311.9038 -428.7586 -359.6143 30057.9059 -428.7586 -359.6143
ENERGY: 300000 6.7719 8.2472 8.9336 0.0000 -10757.4787 1542.8412 0.0000 0.0000 1763.9211 -7426.7639 300.0830 -9190.6849 -7407.2118 304.6197 500.7070 643.8898 30346.4576 402.9144 478.1811
ENERGY: 600000 5.4325 5.7281 8.2014 0.0000 -10656.2296 1414.4099 0.0000 0.0000 1785.9898 -7436.4678 303.8374 -9222.4576 -7432.9623 303.7794 -609.9965 -542.0070 30756.2206 27.5122 79.6296
ENERGY: 900000 6.0885 7.5902 5.4520 0.0000 -10790.3614 1537.5382 0.0000 0.0000 1749.5229 -7484.1696 297.6335 -9233.6925 -7439.1094 301.2240 411.6253 471.9140 30347.2574 -37.4644 16.9153
ENERGY: 1200000 5.9583 8.2102 14.9759 0.0000 -10706.4782 1461.4185 0.0000 0.0000 1795.9048 -7420.0105 305.5241 -9215.9152 -7427.1919 302.3583 -85.2693 10.3095 30306.4392 77.6929 138.3463
ENERGY: 1500000 5.1681 8.3265 8.8096 0.0000 -10693.0344 1452.0201 0.0000 0.0000 1718.1005 -7500.6097 292.2879 -9218.7102 -7424.7908 302.1409 106.0361 116.5714 30308.1588 59.9359 117.1220
TCL: Running FEP window   6: Lambda1 0.25   Lambda2 0.3    [dLambda 0.04999999999999999]
TCL: Setting parameter firsttimestep to 0
TCL: Setting parameter alchLambda to 0.25
Info: NONBONDED TABLE R-SQUARED SPACING: 0.0625
Info: NONBONDED TABLE SIZE: 705 POINTS
TCL: Setting parameter alchLambda2 to 0.3
Info: NONBONDED TABLE R-SQUARED SPACING: 0.0625
Info: NONBONDED TABLE SIZE: 705 POINTS
TCL: Running for 1500000 steps
ETITLE: TS BOND ANGLE DIHED IMPRP ELECT VDW BOUNDARY MISC KINETIC TOTAL TEMP POTENTIAL TOTALAVG TEMPAVG PRESSURE GPRESSURE VOLUME PRESSAVG GPRESSAVG
ENERGY: 0 5.1681 8.3265 8.8096 0.0000 -10693.0341 1452.5136 0.0000 0.0000 1717.1927 -7501.0236 292.1334 -9218.2163 -7501.0236 292.1334 48.2940 124.3102 30308.1588 48.2940 124.3102
ENERGY: 300000 6.1719 8.7098 4.7015 0.0000 -10771.7657 1492.7919 0.0000 0.0000 1735.2289 -7524.1617 295.2018 -9259.3906 -7474.1046 294.6469 225.0341 234.3331 30026.0179 83.6259 125.9308
ENERGY: 600000 11.9850 8.8711 8.7069 0.0000 -10816.1110 1529.2922 0.0000 0.0000 1727.8413 -7529.4145 293.9450 -9257.2558 -7465.5530 295.9944 738.0840 808.4589 29774.0468 313.0254 355.8861
ENERGY: 900000 6.1602 11.9452 6.1919 0.0000 -10692.9575 1442.7329 0.0000 0.0000 1799.7608 -7426.1664 306.1801 -9225.9273 -7456.1533 297.9500 81.6693 181.0820 29851.8411 309.3774 361.1488
ENERGY: 1200000 14.1449 5.2886 7.9297 0.0000 -10552.3696 1385.4396 0.0000 0.0000 1776.4910 -7363.0758 302.2214 -9139.5668 -7448.4576 298.3098 -537.8220 -470.5026 30557.9557 170.1656 221.6717
ENERGY: 1500000 7.1665 10.5759 9.0003 0.0000 -10665.5471 1497.7950 0.0000 0.0000 1775.8881 -7365.1212 302.1188 -9141.0094 -7431.8879 298.4595 281.6021 414.0178 30434.3133 86.9307 148.5030
TCL: Running FEP window   7: Lambda1 0.3    Lambda2 0.35   [dLambda 0.04999999999999999]
TCL: Setting parameter firsttimestep to 0
TCL: Setting parameter alchLambda to 0.3
Info: NONBONDED TABLE R-SQUARED SPACING: 0.0625
Info: NONBONDED TABLE SIZE: 705 POINTS
TCL: Setting parameter alchLambda2 to 0.35
Info: NONBONDED TABLE R-SQUARED SPACING: 0.0625
Info: NONBONDED TABLE SIZE: 705 POINTS
TCL: Running for 1500000 steps
ETITLE: TS BOND ANGLE DIHED IMPRP ELECT VDW BOUNDARY MISC KINETIC TOTAL TEMP POTENTIAL TOTALAVG TEMPAVG PRESSURE GPRESSURE VOLUME PRESSAVG GPRESSAVG
ENERGY: 0 7.1665 10.5759 9.0003 0.0000 -10665.5473 1499.2996 0.0000 0.0000 1775.0151 -7364.4898 301.9703 -9139.5049 -7364.4898 301.9703 343.4790 432.8286 30434.3133 343.4790 432.8286
ENERGY: 300000 6.2005 6.0897 5.6807 0.0000 -10553.8474 1430.3064 0.0000 0.0000 1806.3291 -7299.2410 307.2975 -9105.5700 -7404.4177 300.6648 -34.8545 96.8786 30487.7733 -80.7268 -5.0914
ENERGY: 600000 7.8712 4.5312 7.4608 0.0000 -10739.3930 1467.4542 0.0000 0.0000 1728.7069 -7523.3688 294.0922 -9252.0756 -7413.1695 300.6990 141.5102 183.0431 29754.5478 -26.0590 41.4331
ENERGY: 900000 10.1330 5.5383 9.8657 0.0000 -10510.2299 1385.5472 0.0000 0.0000 1749.7951 -7349.3506 297.6798 -9099.1457 -7413.6471 300.1844 -477.9332 -380.3087 30591.3051 -152.7001 -89.4203
ENERGY: 1200000 4.8317 7.4326 10.2383 0.0000 -10615.8830 1472.0774 0.0000 0.0000 1777.0477 -7344.2553 302.3161 -9121.3030 -7404.1611 300.3281 271.8983 365.6127 30592.4275 -105.6254 -43.7000
ENERGY: 1500000 7.1378 8.0063 6.2166 0.0000 -10555.9836 1388.7223 0.0000 0.0000 1764.6699 -7381.2307 300.2104 -9145.9005 -7405.8950 300.4762 -544.8858 -461.1847 30554.1361 -158.9517 -95.8212
TCL: Running FEP window   8: Lambda1 0.35   Lambda2 0.39999999999999997 [dLambda 0.04999999999999999]
TCL: Setting parameter firsttimestep to 0
TCL: Setting parameter alchLambda to 0.35
Info: NONBONDED TABLE R-SQUARED SPACING: 0.0625
Info: NONBONDED TABLE SIZE: 705 POINTS
TCL: Setting parameter alchLambda2 to 0.39999999999999997
Info: NONBONDED TABLE R-SQUARED SPACING: 0.0625
Info: NONBONDED TABLE SIZE: 705 POINTS
TCL: Running for 1500000 steps
ETITLE: TS BOND ANGLE DIHED IMPRP ELECT VDW BOUNDARY MISC KINETIC TOTAL TEMP POTENTIAL TOTALAVG TEMPAVG PRESSURE GPRESSURE VOLUME PRESSAVG GPRESSAVG
ENERGY: 0 7.1378 8.0063 6.2166 0.0000 -10555.9825 1388.7827 0.0000 0.0000 1763.8356 -7382.0035 300.0684 -9145.8391 -7382.0035 300.0684 -526.9302 -455.0033 30554.1361 -526.9302 -455.0033
ENERGY: 300000 6.7242 10.1971 4.3838 0.0000 -10676.8117 1405.1703 0.0000 0.0000 1789.0863 -7461.2500 304.3642 -9250.3363 -7378.1122 303.0561 -555.4941 -452.6770 30109.2801 46.4218 97.9673
ENERGY: 600000 6.2528 6.2897 12.5391 0.0000 -10589.2473 1360.1820 0.0000 0.0000 1760.4212 -7443.5626 299.4876 -9203.9838 -7397.4275 300.9567 -640.6068 -611.7620 30289.2298 -108.7036 -50.9991
ENERGY: 900000 10.6876 7.4841 5.3163 0.0000 -10635.6396 1453.3303 0.0000 0.0000 1748.3810 -7410.4403 297.4393 -9158.8214 -7398.1141 300.3434 -155.2456 -49.0390 30188.1747 28.0576 88.2231
ENERGY: 1200000 5.8385 5.1993 7.7673 0.0000 -10606.3962 1424.6814 0.0000 0.0000 1746.1541 -7416.7555 297.0604 -9162.9096 -7405.9454 299.6444 43.5294 119.9977 30093.1545 -64.8727 0.7008
ENERGY: 1500000 8.9350 6.4628 10.0249 0.0000 -10592.9223 1442.3725 0.0000 0.0000 1733.8005 -7391.3266 294.9588 -9125.1271 -7403.4063 299.5261 139.1480 177.9933 30280.2536 -71.5826 -7.5954
TCL: Running FEP window   9: Lambda1 0.39999999999999997 Lambda2 0.44999999999999996 [dLambda 0.04999999999999999]
TCL: Setting parameter firsttimestep to 0
TCL: Setting parameter alchLambda to 0.39999999999999997
Info: NONBONDED TABLE R-SQUARED SPACING: 0.0625
Info: NONBONDED TABLE SIZE: 705 POINTS
TCL: Setting parameter alchLambda2 to 0.44999999999999996
Info: NONBONDED TABLE R-SQUARED SPACING: 0.0625
Info: NONBONDED TABLE SIZE: 705 POINTS
TCL: Running for 1500000 steps
ETITLE: TS BOND ANGLE DIHED IMPRP ELECT VDW BOUNDARY MISC KINETIC TOTAL TEMP POTENTIAL TOTALAVG TEMPAVG PRESSURE GPRESSURE VOLUME PRESSAVG GPRESSAVG
ENERGY: 0 8.9350 6.4628 10.0249 0.0000 -10592.9234 1442.6088 0.0000 0.0000 1732.9124 -7391.9795 294.8077 -9124.8920 -7391.9795 294.8077 99.7467 188.0783 30280.2536 99.7467 188.0783
ENERGY: 300000 7.7312 10.3320 9.3443 0.0000 -10564.6837 1365.4453 0.0000 0.0000 1777.0456 -7394.7854 302.3158 -9171.8310 -7428.5820 298.9138 -787.2060 -738.2016 30537.9047 190.3774 261.5753
ENERGY: 600000 7.9749 6.3658 7.2445 0.0000 -10620.4780 1433.7372 0.0000 0.0000 1783.2937 -7381.8618 303.3787 -9165.1555 -7396.2218 299.8597 -204.3459 -197.4256 30618.0889 64.6613 126.1339
ENERGY: 900000 5.8442 7.2120 6.2549 0.0000 -10556.1244 1346.3366 0.0000 0.0000 1785.4344 -7405.0422 303.7429 -9190.4766 -7411.8608 300.0760 -897.4459 -809.4245 30406.6191 -142.3233 -79.8632
ENERGY: 1200000 5.2785 6.0448 3.1263 0.0000 -10588.8102 1419.2520 0.0000 0.0000 1775.9783 -7379.1303 302.1342 -9155.1086 -7409.4850 300.0909 -36.5580 -54.6729 30414.0555 -110.0362 -59.3269
ENERGY: 1500000 6.6945 6.5103 5.6781 0.0000 -10725.4752 1449.7676 0.0000 0.0000 1731.1404 -7525.6844 294.5062 -9256.8247 -7413.8673 299.8265 -68.7746 19.2343 30133.0320 -101.0565 -48.2274
TCL: Running FEP window  10: Lambda1 0.44999999999999996 Lambda2 0.49999999999999994 [dLambda 0.04999999999999999]
TCL: Setting parameter firsttimestep to 0
TCL: Setting parameter alchLambda to 0.44999999999999996
Info: NONBONDED TABLE R-SQUARED SPACING: 0.0625
Info: NONBONDED TABLE SIZE: 705 POINTS
TCL: Setting parameter alchLambda2 to 0.49999999999999994
Info: NONBONDED TABLE R-SQUARED SPACING: 0.0625
Info: NONBONDED TABLE SIZE: 705 POINTS
TCL: Running for 1500000 steps
ETITLE: TS BOND ANGLE DIHED IMPRP ELECT VDW BOUNDARY MISC KINETIC TOTAL TEMP POTENTIAL TOTALAVG TEMPAVG PRESSURE GPRESSURE VOLUME PRESSAVG GPRESSAVG
ENERGY: 0 6.6945 6.5103 5.6781 0.0000 -10725.4756 1449.1871 0.0000 0.0000 1730.2990 -7527.1065 294.3631 -9257.4056 -7527.1065 294.3631 -56.4046 24.0366 30133.0320 -56.4046 24.0366
ENERGY: 300000 6.2271 7.9684 8.1403 0.0000 -10652.8019 1503.2401 0.0000 0.0000 1809.0063 -7318.2197 307.7530 -9127.2260 -7419.6801 299.7422 561.0947 662.0781 30206.4165 40.8085 143.2482
ENERGY: 600000 7.5184 11.8303 6.0939 0.0000 -10764.5189 1562.7193 0.0000 0.0000 1760.5755 -7415.7816 299.5138 -9176.3571 -7401.0950 301.1433 817.9308 892.4021 30488.6041 252.4093 332.8789
ENERGY: 900000 5.5652 11.9331 5.3481 0.0000 -10610.2568 1478.8771 0.0000 0.0000 1757.4221 -7351.1114 298.9774 -9108.5334 -7392.3937 300.8618 404.3454 401.4388 30578.8896 162.9362 226.6062
ENERGY: 1200000 6.4395 12.3116 6.4470 0.0000 -10679.6393 1448.4082 0.0000 0.0000 1756.3468 -7449.6861 298.7944 -9206.0330 -7400.4952 300.8236 -71.0056 -1.1534 30387.5390 52.3105 109.8723
ENERGY: 1500000 5.7724 6.9110 8.1008 0.0000 -10654.6904 1404.8437 0.0000 0.0000 1731.8843 -7497.1782 294.6328 -9229.0625 -7413.4123 299.8259 -441.9399 -349.7510 30239.3256 38.8260 98.5120
TCL: Running FEP window  11: Lambda1 0.49999999999999994 Lambda2 0.5499999999999999 [dLambda 0.04999999999999999]
TCL: Setting parameter firsttimestep to 0
TCL: Setting parameter alchLambda to 0.49999999999999994
Info: NONBONDED TABLE R-SQUARED SPACING: 0.0625
Info: NONBONDED TABLE SIZE: 705 POINTS
TCL: Setting parameter alchLambda2 to 0.5499999999999999
Info: NONBONDED TABLE R-SQUARED SPACING: 0.0625
Info: NONBONDED TABLE SIZE: 705 POINTS
TCL: Running for 1500000 steps
ETITLE: TS BOND ANGLE DIHED IMPRP ELECT VDW BOUNDARY MISC KINETIC TOTAL TEMP POTENTIAL TOTALAVG TEMPAVG PRESSURE GPRESSURE VOLUME PRESSAVG GPRESSAVG
ENERGY: 0 5.7724 6.9110 8.1008 0.0000 -10654.6891 1405.8141 0.0000 0.0000 1730.9784 -7497.1124 294.4787 -9228.0908 -7497.1124 294.4787 -426.7986 -330.4643 30239.3256 -426.7986 -330.4643
ENERGY: 300000 11.6269 9.1638 5.5474 0.0000 -10584.0801 1358.3444 0.0000 0.0000 1794.1441 -7405.2535 305.2246 -9199.3976 -7389.9616 302.9502 -1080.4101 -952.7952 30651.0271 -428.5061 -358.2804
ENERGY: 600000 8.3352 8.6929 6.2689 0.0000 -10614.4312 1429.1521 0.0000 0.0000 1729.6243 -7432.3577 294.2483 -9161.9820 -7400.4526 301.2708 -196.7839 -124.8583 30596.2527 -298.2887 -231.6017
ENERGY: 900000 4.9848 10.2801 10.0809 0.0000 -10644.6426 1407.5128 0.0000 0.0000 1776.9558 -7434.8281 302.3005 -9211.7840 -7404.6538 301.7325 -305.1178 -172.1483 30451.6223 -321.1606 -250.1530
ENERGY: 1200000 6.9144 7.1236 7.8309 0.0000 -10509.2888 1398.1637 0.0000 0.0000 1709.1117 -7380.1444 290.7587 -9089.2561 -7396.0601 301.1135 -92.2210 -6.4717 30423.8354 -193.7372 -126.7617
ENERGY: 1500000 6.1468 11.1942 7.5504 0.0000 -10422.2769 1322.9523 0.0000 0.0000 1741.6937 -7332.7395 296.3016 -9074.4332 -7391.7145 301.3547 -702.8764 -626.9837 30584.5421 -209.5202 -138.3950
TCL: Running FEP window  12: Lambda1 0.5499999999999999 Lambda2 0.6    [dLambda 0.050000000000000044]
TCL: Setting parameter firsttimestep to 0
TCL: Setting parameter alchLambda to 0.5499999999999999
Info: NONBONDED TABLE R-SQUARED SPACING: 0.0625
Info: NONBONDED TABLE SIZE: 705 POINTS
TCL: Setting parameter alchLambda2 to 0.6
Info: NONBONDED TABLE R-SQUARED SPACING: 0.0625
Info: NONBONDED TABLE SIZE: 705 POINTS
TCL: Running for 1500000 steps
ETITLE: TS BOND ANGLE DIHED IMPRP ELECT VDW BOUNDARY MISC KINETIC TOTAL TEMP POTENTIAL TOTALAVG TEMPAVG PRESSURE GPRESSURE VOLUME PRESSAVG GPRESSAVG
ENERGY: 0 6.1468 11.1942 7.5504 0.0000 -10422.7007 1322.3571 0.0000 0.0000 1740.8008 -7334.6514 296.1497 -9075.4522 -7334.6514 296.1497 -707.8640 -622.2321 30584.5421 -707.8640 -622.2321
ENERGY: 300000 6.8753 6.3434 12.7908 0.0000 -10718.2194 1391.4100 0.0000 0.0000 1763.6799 -7537.1201 300.0419 -9300.7999 -7441.6771 299.2413 -666.9398 -637.7469 30396.5121 -526.8040 -491.7548
ENERGY: 600000 6.7661 7.6786 8.2948 0.0000 -10761.9706 1517.2965 0.0000 0.0000 1727.6192 -7494.3154 293.9072 -9221.9345 -7440.0664 298.1506 553.9017 641.7825 29932.8690 -273.8557 -219.7084
ENERGY: 900000 9.5136 9.8584 5.9752 0.0000 -10422.6513 1316.2171 0.0000 0.0000 1765.7265 -7315.3604 300.3901 -9081.0869 -7431.7116 299.1114 -975.6833 -905.2836 30409.4997 -250.3523 -199.8021
ENERGY: 1200000 6.1043 9.5486 8.7119 0.0000 -10686.8697 1476.5460 0.0000 0.0000 1831.9468 -7354.0121 311.6557 -9185.9589 -7423.8015 300.6515 289.5573 316.6128 30249.8537 -182.5027 -133.5305
ENERGY: 1500000 6.5476 7.4458 5.5174 0.0000 -10682.2874 1411.0484 0.0000 0.0000 1737.4120 -7514.3163 295.5732 -9251.7283 -7432.2288 299.1114 -339.6298 -292.1695 30428.7599 -104.6551 -57.8629
TCL: Running FEP window  13: Lambda1 0.6    Lambda2 0.65   [dLambda 0.050000000000000044]
TCL: Setting parameter firsttimestep to 0
TCL: Setting parameter alchLambda to 0.6
Info: NONBONDED TABLE R-SQUARED SPACING: 0.0625
Info: NONBONDED TABLE SIZE: 705 POINTS
TCL: Setting parameter alchLambda2 to 0.65
Info: NONBONDED TABLE R-SQUARED SPACING: 0.0625
Info: NONBONDED TABLE SIZE: 705 POINTS
TCL: Running for 1500000 steps
ETITLE: TS BOND ANGLE DIHED IMPRP ELECT VDW BOUNDARY MISC KINETIC TOTAL TEMP POTENTIAL TOTALAVG TEMPAVG PRESSURE GPRESSURE VOLUME PRESSAVG GPRESSAVG
ENERGY: 0 6.5476 7.4458 5.5174 0.0000 -10682.5399 1411.1233 0.0000 0.0000 1736.5388 -7515.3670 295.4246 -9251.9058 -7515.3670 295.4246 -381.0263 -280.9878 30428.7599 -381.0263 -280.9878
ENERGY: 300000 8.2581 9.8874 10.1275 0.0000 -10669.8292 1459.1655 0.0000 0.0000 1725.0284 -7457.3623 293.4665 -9182.3906 -7465.5907 296.9778 535.8419 581.8023 29850.8168 -169.4731 -82.0735
ENERGY: 600000 10.2582 8.3370 5.8929 0.0000 -10603.5506 1404.2583 0.0000 0.0000 1761.8570 -7412.9471 299.7318 -9174.8042 -7437.3287 299.2020 -287.1872 -277.5628 30395.3808 -198.8874 -140.5791
ENERGY: 900000 8.3879 5.6782 8.0795 0.0000 -10457.5730 1338.3708 0.0000 0.0000 1748.8222 -7348.2344 297.5143 -9097.0566 -7414.2614 300.7682 -648.3212 -547.0310 30410.7657 -164.7749 -99.0427
ENERGY: 1200000 12.2128 6.4216 6.9430 0.0000 -10493.9417 1307.8678 0.0000 0.0000 1804.1449 -7356.3516 306.9260 -9160.4965 -7409.8449 301.6812 -975.2091 -923.2241 30892.9615 -194.8377 -134.2064
ENERGY: 1500000 7.9752 7.2877 7.2447 0.0000 -10504.3797 1308.9668 0.0000 0.0000 1747.5032 -7425.4022 297.2899 -9172.9054 -7410.3412 301.6701 -774.9500 -758.1114 30403.2751 -260.1980 -202.7264
TCL: Running FEP window  14: Lambda1 0.65   Lambda2 0.7000000000000001 [dLambda 0.050000000000000044]
TCL: Setting parameter firsttimestep to 0
TCL: Setting parameter alchLambda to 0.65
Info: NONBONDED TABLE R-SQUARED SPACING: 0.0625
Info: NONBONDED TABLE SIZE: 705 POINTS
TCL: Setting parameter alchLambda2 to 0.7000000000000001
Info: NONBONDED TABLE R-SQUARED SPACING: 0.0625
Info: NONBONDED TABLE SIZE: 705 POINTS
TCL: Running for 1500000 steps
ETITLE: TS BOND ANGLE DIHED IMPRP ELECT VDW BOUNDARY MISC KINETIC TOTAL TEMP POTENTIAL TOTALAVG TEMPAVG PRESSURE GPRESSURE VOLUME PRESSAVG GPRESSAVG
ENERGY: 0 7.9752 7.2877 7.2447 0.0000 -10505.5877 1309.2421 0.0000 0.0000 1746.6549 -7427.1831 297.1456 -9173.8380 -7427.1831 297.1456 -825.4194 -748.8804 30403.2751 -825.4194 -748.8804
ENERGY: 300000 6.1048 8.2259 8.3317 0.0000 -10507.6700 1357.5778 0.0000 0.0000 1776.0587 -7351.3710 302.1479 -9127.4297 -7434.5523 298.4534 -425.3188 -337.1326 30198.2281 -338.4488 -276.0080
ENERGY: 600000 5.1892 7.0164 8.1225 0.0000 -10634.9601 1427.5774 0.0000 0.0000 1760.8692 -7426.1853 299.5638 -9187.0546 -7448.1579 298.3976 18.4169 73.6098 30255.6337 -194.2122 -139.5996
ENERGY: 900000 6.1005 9.1741 7.0954 0.0000 -10697.1642 1395.2674 0.0000 0.0000 1753.8151 -7525.7118 298.3637 -9279.5269 -7452.6721 299.0784 -451.8056 -419.1293 30283.9276 -120.8067 -67.3866
ENERGY: 1200000 8.4704 7.4315 6.3162 0.0000 -10694.9567 1468.1861 0.0000 0.0000 1814.5537 -7389.9988 308.6967 -9204.5525 -7433.6904 300.7300 246.7839 295.0705 30311.3390 -80.0605 -27.9948
ENERGY: 1500000 9.6972 9.3820 11.6581 0.0000 -10654.5504 1417.1513 0.0000 0.0000 1844.4962 -7362.1656 313.7906 -9206.6618 -7421.5040 302.4187 -222.8606 -140.7620 30187.1590 -168.4779 -112.3404
TCL: Running FEP window  15: Lambda1 0.7000000000000001 Lambda2 0.7500000000000001 [dLambda 0.050000000000000044]
TCL: Setting parameter firsttimestep to 0
TCL: Setting parameter alchLambda to 0.7000000000000001
Info: NONBONDED TABLE R-SQUARED SPACING: 0.0625
Info: NONBONDED TABLE SIZE: 705 POINTS
TCL: Setting parameter alchLambda2 to 0.7500000000000001
Info: NONBONDED TABLE R-SQUARED SPACING: 0.0625
Info: NONBONDED TABLE SIZE: 705 POINTS
TCL: Running for 1500000 steps
ETITLE: TS BOND ANGLE DIHED IMPRP ELECT VDW BOUNDARY MISC KINETIC TOTAL TEMP POTENTIAL TOTALAVG TEMPAVG PRESSURE GPRESSURE VOLUME PRESSAVG GPRESSAVG
ENERGY: 0 9.6972 9.3820 11.6581 0.0000 -10655.5133 1416.4832 0.0000 0.0000 1843.6553 -7364.6375 313.6476 -9208.2928 -7364.6375 313.6476 -222.0028 -137.4743 30187.1590 -222.0028 -137.4743
ENERGY: 300000 6.0679 10.8836 7.8596 0.0000 -10466.2743 1373.9683 0.0000 0.0000 1736.0504 -7331.4445 295.3416 -9067.4949 -7425.9216 299.6624 -293.7926 -250.6032 30547.4479 -235.9036 -155.9472
ENERGY: 600000 9.0984 6.0293 8.1247 0.0000 -10814.4954 1504.6797 0.0000 0.0000 1774.6373 -7511.9260 301.9060 -9286.5632 -7427.2477 300.4776 370.4638 387.4333 30137.8752 -132.1797 -71.3180
ENERGY: 900000 7.6356 7.9349 6.5867 0.0000 -10689.9437 1386.5628 0.0000 0.0000 1744.8743 -7536.3494 296.8427 -9281.2237 -7421.8031 301.0315 -616.9556 -579.2031 30230.2810 -52.8000 4.6333
ENERGY: 1200000 6.1833 5.4752 9.7796 0.0000 -10594.9097 1384.8733 0.0000 0.0000 1721.3516 -7467.2468 292.8409 -9188.5984 -7433.3209 299.9201 -545.1624 -457.1226 30530.3673 -165.4135 -105.1498
ENERGY: 1500000 10.1929 6.6354 5.3709 0.0000 -10698.9769 1436.0587 0.0000 0.0000 1757.5178 -7483.2011 298.9936 -9240.7189 -7426.6131 299.9786 -158.7250 -68.6860 30360.1822 -136.8288 -73.8509
TCL: Running FEP window  16: Lambda1 0.7500000000000001 Lambda2 0.8000000000000002 [dLambda 0.050000000000000044]
TCL: Setting parameter firsttimestep to 0
TCL: Setting parameter alchLambda to 0.7500000000000001
Info: NONBONDED TABLE R-SQUARED SPACING: 0.0625
Info: NONBONDED TABLE SIZE: 705 POINTS
TCL: Setting parameter alchLambda2 to 0.8000000000000002
Info: NONBONDED TABLE R-SQUARED SPACING: 0.0625
Info: NONBONDED TABLE SIZE: 705 POINTS
TCL: Running for 1500000 steps
ETITLE: TS BOND ANGLE DIHED IMPRP ELECT VDW BOUNDARY MISC KINETIC TOTAL TEMP POTENTIAL TOTALAVG TEMPAVG PRESSURE GPRESSURE VOLUME PRESSAVG GPRESSAVG
ENERGY: 0 10.1929 6.6354 5.3709 0.0000 -10700.5210 1435.7601 0.0000 0.0000 1756.6344 -7485.9273 298.8434 -9242.5617 -7485.9273 298.8434 -147.8193 -59.8509 30360.1822 -147.8193 -59.8509
ENERGY: 300000 8.6710 5.8343 9.3250 0.0000 -10590.5775 1395.0988 0.0000 0.0000 1765.6641 -7405.9844 300.3795 -9171.6485 -7432.5172 299.0253 -419.7290 -389.0521 30707.3047 -63.2272 -35.7388
ENERGY: 600000 7.4336 6.5044 5.1096 0.0000 -10558.2418 1364.9273 0.0000 0.0000 1751.1776 -7423.0894 297.9150 -9174.2670 -7422.7056 300.3858 -530.9629 -548.1859 30866.7947 113.0922 142.6857
ENERGY: 900000 3.9986 12.4023 5.3172 0.0000 -10735.8579 1497.2474 0.0000 0.0000 1753.1192 -7463.7732 298.2453 -9216.8924 -7435.6547 300.2627 530.9367 581.3583 30271.2382 168.3855 206.4564
ENERGY: 1200000 3.4516 4.6914 8.1001 0.0000 -10683.5940 1538.5422 0.0000 0.0000 1790.1428 -7338.6658 304.5439 -9128.8087 -7424.5298 301.2476 611.0564 676.3711 31010.5410 208.2514 250.6853
ENERGY: 1500000 7.1559 8.4423 8.4330 0.0000 -10635.5000 1358.9491 0.0000 0.0000 1777.1146 -7475.4051 302.3275 -9252.5198 -7424.0591 301.0895 -768.7904 -745.7236 30568.2776 103.5349 147.9701
TCL: Running FEP window  17: Lambda1 0.8000000000000002 Lambda2 0.8500000000000002 [dLambda 0.050000000000000044]
TCL: Setting parameter firsttimestep to 0
TCL: Setting parameter alchLambda to 0.8000000000000002
Info: NONBONDED TABLE R-SQUARED SPACING: 0.0625
Info: NONBONDED TABLE SIZE: 705 POINTS
TCL: Setting parameter alchLambda2 to 0.8500000000000002
Info: NONBONDED TABLE R-SQUARED SPACING: 0.0625
Info: NONBONDED TABLE SIZE: 705 POINTS
TCL: Running for 1500000 steps
ETITLE: TS BOND ANGLE DIHED IMPRP ELECT VDW BOUNDARY MISC KINETIC TOTAL TEMP POTENTIAL TOTALAVG TEMPAVG PRESSURE GPRESSURE VOLUME PRESSAVG GPRESSAVG
ENERGY: 0 7.1559 8.4423 8.4330 0.0000 -10636.5684 1358.9242 0.0000 0.0000 1776.2620 -7477.3511 302.1824 -9253.6130 -7477.3511 302.1824 -813.4139 -733.3503 30568.2776 -813.4139 -733.3503
ENERGY: 300000 7.8879 7.9683 6.3276 0.0000 -10733.9199 1427.8461 0.0000 0.0000 1797.4276 -7486.4625 305.7832 -9283.8901 -7467.7794 299.6585 62.5714 203.7083 29861.7110 -558.3239 -496.1803
ENERGY: 600000 10.9115 6.1416 9.6951 0.0000 -10694.0941 1433.1386 0.0000 0.0000 1792.9099 -7441.2975 305.0146 -9234.2073 -7445.8501 300.1075 -68.3036 -37.4827 30141.9669 -236.5071 -187.7841
ENERGY: 900000 5.0840 8.6863 4.9964 0.0000 -10608.1290 1362.9841 0.0000 0.0000 1676.4333 -7549.9449 285.1993 -9226.3782 -7452.2379 299.3044 -688.6998 -553.4677 30236.9783 -378.9135 -323.2338
ENERGY: 1200000 6.0159 7.1050 7.9696 0.0000 -10632.9514 1420.1675 0.0000 0.0000 1765.8995 -7425.7938 300.4196 -9191.6933 -7448.6262 298.7804 53.2770 82.6277 30289.5397 -339.5449 -288.4358
ENERGY: 1500000 5.5024 9.0202 5.8450 0.0000 -10825.4234 1519.9231 0.0000 0.0000 1797.4236 -7487.7091 305.7825 -9285.1327 -7443.7911 300.0201 434.1862 463.6664 30269.3238 -231.0065 -176.0678
TCL: Running FEP window  18: Lambda1 0.8500000000000002 Lambda2 0.9000000000000002 [dLambda 0.050000000000000044]
TCL: Setting parameter firsttimestep to 0
TCL: Setting parameter alchLambda to 0.8500000000000002
Info: NONBONDED TABLE R-SQUARED SPACING: 0.0625
Info: NONBONDED TABLE SIZE: 705 POINTS
TCL: Setting parameter alchLambda2 to 0.9000000000000002
Info: NONBONDED TABLE R-SQUARED SPACING: 0.0625
Info: NONBONDED TABLE SIZE: 705 POINTS
TCL: Running for 1500000 steps
ETITLE: TS BOND ANGLE DIHED IMPRP ELECT VDW BOUNDARY MISC KINETIC TOTAL TEMP POTENTIAL TOTALAVG TEMPAVG PRESSURE GPRESSURE VOLUME PRESSAVG GPRESSAVG
ENERGY: 0 5.5024 9.0202 5.8450 0.0000 -10828.5191 1521.8729 0.0000 0.0000 1796.5552 -7489.7234 305.6348 -9286.2786 -7489.7234 305.6348 422.5428 496.7057 30269.3238 422.5428 496.7057
ENERGY: 300000 10.4881 6.1441 10.1119 0.0000 -10656.2535 1424.8687 0.0000 0.0000 1769.7199 -7434.9208 301.0695 -9204.6407 -7497.9300 300.6320 -204.5986 -111.7690 30009.8453 -5.8292 46.1297
ENERGY: 600000 7.8100 7.0908 10.8952 0.0000 -10638.2491 1381.7127 0.0000 0.0000 1774.5149 -7456.2256 301.8852 -9230.7404 -7477.3893 301.1446 -916.3482 -818.2332 31063.2344 -174.9666 -129.1504
ENERGY: 900000 6.0857 11.6116 7.0645 0.0000 -10694.3000 1462.3460 0.0000 0.0000 1752.6269 -7454.5654 298.1616 -9207.1923 -7478.1306 299.8102 312.2978 423.7033 29890.2297 -109.6510 -47.1976
ENERGY: 1200000 8.4450 7.5956 8.2757 0.0000 -10679.5557 1454.5113 0.0000 0.0000 1750.9673 -7449.7609 297.8792 -9200.7281 -7474.2582 299.3334 142.4989 217.2311 29987.3998 -144.4509 -75.1772
ENERGY: 1500000 6.9328 5.7142 5.8084 0.0000 -10664.1877 1497.2508 0.0000 0.0000 1753.1663 -7395.3153 298.2534 -9148.4816 -7462.4741 299.7141 834.0139 869.6329 30160.0955 -50.6348 15.2207
TCL: Running FEP window  19: Lambda1 0.9000000000000002 Lambda2 0.9500000000000003 [dLambda 0.050000000000000044]
TCL: Setting parameter firsttimestep to 0
TCL: Setting parameter alchLambda to 0.9000000000000002
Info: NONBONDED TABLE R-SQUARED SPACING: 0.0625
Info: NONBONDED TABLE SIZE: 705 POINTS
TCL: Setting parameter alchLambda2 to 0.9500000000000003
Info: NONBONDED TABLE R-SQUARED SPACING: 0.0625
Info: NONBONDED TABLE SIZE: 705 POINTS
TCL: Running for 1500000 steps
ETITLE: TS BOND ANGLE DIHED IMPRP ELECT VDW BOUNDARY MISC KINETIC TOTAL TEMP POTENTIAL TOTALAVG TEMPAVG PRESSURE GPRESSURE VOLUME PRESSAVG GPRESSAVG
ENERGY: 0 6.9328 5.7142 5.8084 0.0000 -10665.7135 1498.4977 0.0000 0.0000 1752.3252 -7396.4352 298.1103 -9148.7604 -7396.4352 298.1103 826.6290 898.5497 30160.0955 826.6290 898.5497
ENERGY: 300000 12.3223 5.8888 7.2438 0.0000 -10589.4727 1394.9162 0.0000 0.0000 1727.5497 -7441.5519 293.8954 -9169.1015 -7451.1936 298.1781 -515.0114 -465.8225 30770.6203 223.3899 294.4735
ENERGY: 600000 5.8535 4.2493 8.1021 0.0000 -10678.1891 1493.4839 0.0000 0.0000 1816.3080 -7350.1923 308.9952 -9166.5002 -7440.5753 300.5508 744.6573 707.2715 30184.6544 123.8842 175.1538
ENERGY: 900000 8.6779 5.0593 4.3824 0.0000 -10708.7260 1509.0980 0.0000 0.0000 1737.8793 -7443.6291 295.6527 -9181.5084 -7455.9124 300.4405 861.4232 872.5823 30286.1199 19.5493 71.8108
ENERGY: 1200000 9.4744 7.5825 6.9693 0.0000 -10713.8069 1449.0553 0.0000 0.0000 1814.0793 -7426.6461 308.6160 -9240.7255 -7453.0384 300.6091 123.7817 123.2067 30708.1228 67.2994 117.1856
ENERGY: 1500000 6.6569 9.2920 7.6341 0.0000 -10544.3680 1300.3485 0.0000 0.0000 1744.3514 -7476.0851 296.7537 -9220.4365 -7455.8402 300.1006 -1224.7514 -1207.3518 30478.6004 -38.3076 9.9542
TCL: Running FEP window  20: Lambda1 0.9500000000000003 Lambda2 1.0    [dLambda 0.04999999999999971]
TCL: Setting parameter firsttimestep to 0
TCL: Setting parameter alchLambda to 0.9500000000000003
Info: NONBONDED TABLE R-SQUARED SPACING: 0.0625
Info: NONBONDED TABLE SIZE: 705 POINTS
TCL: Setting parameter alchLambda2 to 1.0
Info: NONBONDED TABLE R-SQUARED SPACING: 0.0625
Info: NONBONDED TABLE SIZE: 705 POINTS
TCL: Running for 1500000 steps
ETITLE: TS BOND ANGLE DIHED IMPRP ELECT VDW BOUNDARY MISC KINETIC TOTAL TEMP POTENTIAL TOTALAVG TEMPAVG PRESSURE GPRESSURE VOLUME PRESSAVG GPRESSAVG
ENERGY: 0 6.6569 9.2920 7.6341 0.0000 -10546.8612 1302.3796 0.0000 0.0000 1743.4144 -7477.4842 296.5943 -9220.8986 -7477.4842 296.5943 -1249.9664 -1169.9037 30478.6004 -1249.9664 -1169.9037
ENERGY: 300000 10.1260 6.8766 5.8384 0.0000 -10477.3148 1324.0697 0.0000 0.0000 1760.6570 -7369.7470 299.5277 -9130.4040 -7412.4498 300.6803 -1205.1163 -1184.3170 31484.3693 -777.2398 -730.7929
ENERGY: 600000 10.8759 5.6074 7.8557 0.0000 -10641.5882 1421.3545 0.0000 0.0000 1779.8281 -7416.0665 302.7891 -9195.8946 -7421.4639 300.8688 145.9660 176.6278 30553.6594 -303.0409 -252.6079
ENERGY: 900000 7.4069 8.3219 5.9316 0.0000 -10563.1965 1341.1230 0.0000 0.0000 1769.0253 -7431.3879 300.9513 -9200.4131 -7431.9033 299.4205 -905.0181 -823.1016 30296.7436 -415.7347 -357.0484
ENERGY: 1200000 7.1310 5.5645 6.5244 0.0000 -10479.6740 1310.7475 0.0000 0.0000 1719.5973 -7430.1093 292.5425 -9149.7066 -7420.4100 299.6551 -1039.9027 -922.8675 30711.2011 -366.4637 -305.6749
ENERGY: 1500000 6.6001 8.9927 8.6363 0.0000 -10758.9946 1479.4921 0.0000 0.0000 1781.6998 -7473.5737 303.1075 -9255.2734 -7421.6805 299.7487 101.8729 176.6144 30452.1072 -356.2240 -295.4109
TCL: Exiting due to exit command.
