Info: SIMULATION PARAMETERS:
Info: TIMESTEP               2
Info: NUMBER OF STEPS        0
Info: STEPS PER CYCLE        10
Info: PERIODIC CELL BASIS 1  32.8243 0 0
Info: PERIODIC CELL BASIS 2  0 30.7324 0
Info: PERIODIC CELL BASIS 3  0 0 31.3549
Info: PERIODIC CELL CENTER   0 0 0
Info: WRAPPING WATERS AROUND PERIODIC BOUNDARIES ON OUTPUT.
Info: WRAPPING ALL CLUSTERS AROUND PERIODIC BOUNDARIES ON OUTPUT.
Info: FIRST LDB TIMESTEP     50
Info: LAST LDB TIMESTEP     -1
Info: HOM BACKGROUND SCALING 1
Info: PME BACKGROUND SCALING 1
Info: MIN ATOMS PER PATCH    40
Info: EMPTY PATCH LOAD       40 ATOMS
Info: VELOCITY FILE          mobley_994483_equil.vel
Info: CENTER OF MASS MOVING INITIALLY? NO
Info: DIELECTRIC             1
Info: EXCLUDE                SCALED ONE-FOUR
Info: 1-4 ELECTROSTATICS SCALED BY 0.833333
Info: MODIFIED 1-4 VDW PARAMETERS WILL BE USED
Info: DCD FILENAME           mobley_994483_prod.dcd
Info: DCD FREQUENCY          100000
Info: DCD FIRST STEP         100000
Info: DCD FILE WILL CONTAIN UNIT CELL DATA
Info: XST FILENAME           mobley_994483_prod.xst
Info: XST FREQUENCY          100000
Info: NO VELOCITY DCD OUTPUT
Info: NO FORCE DCD OUTPUT
Info: OUTPUT FILENAME        mobley_994483_prod
Info: BINARY OUTPUT FILES WILL BE USED
Info: RESTART FILENAME       mobley_994483_prod.restart
Info: RESTART FREQUENCY      100000
Info: BINARY RESTART FILES WILL BE USED
Info: CUTOFF                 9
Info: PAIRLIST DISTANCE      11
Info: PAIRLIST SHRINK RATE   0.01
Info: PAIRLIST GROW RATE     0.01
Info: PAIRLIST TRIGGER       0.3
Info: PAIRLISTS PER CYCLE    2
Info: PAIRLISTS ENABLED
Info: MARGIN                 2
Info: HYDROGEN GROUP CUTOFF  2.5
Info: PATCH DIMENSION        15.5
Info: ENERGY OUTPUT STEPS    100000
Info: ENERGY EVALUATION STEPS    100000
Info: OUTPUT ENERGY PRECISION 4
Info: CROSSTERM ENERGY INCLUDED IN DIHEDRAL
Info: TIMING OUTPUT STEPS    1000000
Info: PRESSURE OUTPUT STEPS  100000
Info: ALCHEMICAL FEP ON
Info: FEP CURRENT LAMBDA VALUE     1
Info: FEP COMPARISON LAMBDA VALUE  0.95
Info: FEP INTRA-ALCHEMICAL NON-BONDED INTERACTIONS WILL BE RETAINED
Info: FEP INTRA-ALCHEMICAL BONDED INTERACTIONS WILL BE RETAINED
Info: FEP VDW SHIFTING COEFFICIENT 5
Info: FEP ELEC. ACTIVE FOR ANNIHILATED PARTICLES BETWEEN LAMBDA = 0 AND LAMBDA = 0.5
Info: FEP ELEC. ACTIVE FOR EXNIHILATED PARTICLES BETWEEN LAMBDA = 0.5 AND LAMBDA = 1
Info: FEP VDW ACTIVE FOR ANNIHILATED PARTICLES BETWEEN LAMBDA = 0 AND LAMBDA = 1
Info: FEP VDW ACTIVE FOR EXNIHILATED PARTICLES BETWEEN LAMBDA = 0 AND LAMBDA = 1
Info: FEP BOND ACTIVE FOR ANNIHILATED PARTICLES BETWEEN LAMBDA = 1 AND LAMBDA = 1
Info: FEP BOND ACTIVE FOR EXNIHILATED PARTICLES BETWEEN LAMBDA = 0 AND LAMBDA = 0
Info: LANGEVIN DYNAMICS ACTIVE
Info: LANGEVIN TEMPERATURE   300
Info: LANGEVIN USING BBK INTEGRATOR
Info: LANGEVIN DAMPING COEFFICIENT IS 1 INVERSE PS
Info: LANGEVIN DYNAMICS APPLIED TO HYDROGENS
Info: LANGEVIN PISTON PRESSURE CONTROL ACTIVE
Info:        TARGET PRESSURE IS 1.01325 BAR
Info:     OSCILLATION PERIOD IS 50 FS
Info:             DECAY TIME IS 25 FS
Info:     PISTON TEMPERATURE IS 300 K
Info:       PRESSURE CONTROL IS GROUP-BASED
Info:    INITIAL STRAIN RATE IS 0.000315497 0.000315497 0.000315497
Info:       CELL FLUCTUATION IS ISOTROPIC
Info: PARTICLE MESH EWALD (PME) ACTIVE
Info: PME TOLERANCE               1e-06
Info: PME EWALD COEFFICIENT       0.348832
Info: PME INTERPOLATION ORDER     4
Info: PME GRID DIMENSIONS         36 32 32
Info: PME MAXIMUM GRID SPACING    1
Info: PME CALCULATION WILL BE PERFORMED ON GPU
Info: FULL ELECTROSTATIC EVALUATION FREQUENCY      2
Info: USING VERLET I (r-RESPA) MTS SCHEME.
Info: C1 SPLITTING OF LONG RANGE ELECTROSTATICS
Info: PLACING ATOMS IN PATCHES BY HYDROGEN GROUPS
Info: RIGID BONDS TO HYDROGEN : ALL
Info:         ERROR TOLERANCE : 1e-08
Info:          MAX ITERATIONS : 100
Info: RIGID WATER USING SETTLE ALGORITHM
Info: RANDOM NUMBER SEED     1743506876
Info: USE HYDROGEN BONDS?    NO
Info: Using AMBER format force field!
Info: AMBER PARM FILE        mobley_994483.prmtop
Info: COORDINATE PDB         mobley_994483.pdb
Info: Exclusions will be read from PARM file!
Info: SCNB (VDW SCALING)     2
Info: USING ARITHMETIC MEAN TO COMBINE L-J SIGMA PARAMETERS
Info: BINARY COORDINATES     mobley_994483_equil.coor
Info: SUMMARY OF PARAMETERS:
Info: 6 BONDS
Info: 6 ANGLES
Info:   6 HARMONIC
Info:   0 COSINE-BASED
Info: 3 DIHEDRAL
Info: 0 IMPROPER
Info: 0 CROSSTERM
Info: 0 VDW
Info: 21 VDW_PAIRS
Info: 0 NBTHOLE_PAIRS
Info: To read alchdata from file: mobley_994483.pdb
Info: To read alchflag data from column: 5
Info: STRUCTURE SUMMARY:
Info: 2993 ATOMS
Info: 2992 BONDS
Info: 12 ANGLES
Info: 12 DIHEDRALS
Info: 0 IMPROPERS
Info: 0 CROSSTERMS
Info: 3013 EXCLUSIONS
Info: 2990 RIGID BONDS
Info: ALCH: 0 ATOMS TO DISAPPEAR IN FINAL STATE
Info: ALCH: 8 ATOMS TO APPEAR IN FINAL STATE
Info: 5989 DEGREES OF FREEDOM
Info: 998 HYDROGEN GROUPS
Info: 4 ATOMS IN LARGEST HYDROGEN GROUP
Info: 998 MIGRATION GROUPS
Info: 4 ATOMS IN LARGEST MIGRATION GROUP
Info: TOTAL MASS = 18034.9 amu
Info: TOTAL CHARGE = 4.19095e-09 e
Info: MASS DENSITY = 0.946837 g/cm^3
Info: ATOM DENSITY = 0.0946258 atoms/A^3
Info: ADDED 0 IMPLICIT EXCLUSIONS
Info: NONBONDED TABLE R-SQUARED SPACING: 0.0625
Info: NONBONDED TABLE SIZE: 705 POINTS
Info: REMOVING COM VELOCITY -0.0405462 0.232961 -0.206211
Info: Use 3D box decompostion in PME FFT.
Info: Updated CUDA force table with 4096 elements.
Info: Updated CUDA LJ table with 6 x 6 elements.
Info: Found 11 unique exclusion lists needing 16 bytes
TCL: Running for 1500000 steps
ETITLE: TS BOND ANGLE DIHED IMPRP ELECT VDW BOUNDARY MISC KINETIC TOTAL TEMP POTENTIAL TOTALAVG TEMPAVG PRESSURE GPRESSURE VOLUME PRESSAVG GPRESSAVG
ENERGY: 0 0.1905 2.0033 1.7718 0.0000 -10778.9264 1488.9649 0.0000 0.0000 1767.2997 -7518.6961 296.9930 -9285.9959 -7518.6961 296.9930 145.2038 222.2525 31629.8544 145.2038 222.2525
ENERGY: 300000 0.1555 1.5665 1.8831 0.0000 -10980.7431 1496.1612 0.0000 0.0000 1817.8370 -7663.1399 305.4858 -9480.9769 -7630.5561 301.6234 170.9173 256.5272 30557.6066 -7.2075 77.8762
ENERGY: 600000 0.0476 4.7300 1.7649 0.0000 -10982.6057 1537.9072 0.0000 0.0000 1800.0278 -7638.1280 302.4930 -9438.1558 -7629.4069 301.8712 709.5709 863.6317 30207.9296 153.8584 243.4316
ENERGY: 900000 1.4286 4.3025 1.9069 0.0000 -10789.8673 1472.0102 0.0000 0.0000 1789.9682 -7520.2508 300.8025 -9310.2190 -7625.8746 301.1597 594.4812 652.3813 30751.3832 165.1749 253.7973
ENERGY: 1200000 0.4607 3.0449 1.6824 0.0000 -10895.2965 1481.3811 0.0000 0.0000 1762.6811 -7646.0464 296.2169 -9408.7275 -7630.4718 301.4169 -29.3130 29.3323 31045.6830 101.6478 184.4154
ENERGY: 1500000 0.3719 5.3264 1.7022 0.0000 -10895.9157 1462.4359 0.0000 0.0000 1750.1999 -7675.8794 294.1194 -9426.0793 -7629.0447 300.2304 -106.9739 4.3044 30770.0985 25.5433 106.1315
TCL: Running FEP window   2: Lambda1 0.95   Lambda2 0.8999999999999999 [dLambda -0.050000000000000044]
TCL: Setting parameter firsttimestep to 0
TCL: Setting parameter alchLambda to 0.95
Info: NONBONDED TABLE R-SQUARED SPACING: 0.0625
Info: NONBONDED TABLE SIZE: 705 POINTS
TCL: Setting parameter alchLambda2 to 0.8999999999999999
Info: NONBONDED TABLE R-SQUARED SPACING: 0.0625
Info: NONBONDED TABLE SIZE: 705 POINTS
TCL: Running for 1500000 steps
ETITLE: TS BOND ANGLE DIHED IMPRP ELECT VDW BOUNDARY MISC KINETIC TOTAL TEMP POTENTIAL TOTALAVG TEMPAVG PRESSURE GPRESSURE VOLUME PRESSAVG GPRESSAVG
ENERGY: 0 0.3719 5.3264 1.7022 0.0000 -10895.6208 1462.7278 0.0000 0.0000 1749.3186 -7676.1737 293.9713 -9425.4924 -7676.1737 293.9713 -82.0422 2.9426 30770.0985 -82.0422 2.9426
ENERGY: 300000 0.2089 1.4053 1.6419 0.0000 -10902.9266 1496.8385 0.0000 0.0000 1836.8303 -7566.0018 308.6776 -9402.8320 -7662.0254 300.0751 534.6323 540.3820 30818.1709 -73.0521 -21.6182
ENERGY: 600000 0.5177 4.1467 1.7028 0.0000 -10788.9566 1370.5848 0.0000 0.0000 1787.6343 -7624.3702 300.4103 -9412.0045 -7660.7657 298.9944 -834.7987 -750.5618 31172.9323 9.4843 79.7668
ENERGY: 900000 2.0238 2.4099 1.7226 0.0000 -10691.2965 1333.8428 0.0000 0.0000 1752.9981 -7598.2995 294.5897 -9351.2975 -7644.3047 298.8951 -1228.6876 -1147.3385 31833.9143 -213.0447 -149.7314
ENERGY: 1200000 2.1900 2.4750 1.6958 0.0000 -10840.8377 1456.5520 0.0000 0.0000 1771.8725 -7606.0524 297.7615 -9377.9249 -7640.3781 298.1853 -197.4478 -153.9758 31092.5934 -211.2246 -141.5625
ENERGY: 1500000 0.1464 3.8787 1.8215 0.0000 -10871.5727 1476.0437 0.0000 0.0000 1792.1535 -7597.5289 301.1697 -9389.6824 -7644.5941 298.5120 -1.6306 15.4408 31391.8232 -120.3782 -60.6052
TCL: Running FEP window   3: Lambda1 0.8999999999999999 Lambda2 0.8499999999999999 [dLambda -0.050000000000000044]
TCL: Setting parameter firsttimestep to 0
TCL: Setting parameter alchLambda to 0.8999999999999999
Info: NONBONDED TABLE R-SQUARED SPACING: 0.0625
Info: NONBONDED TABLE SIZE: 705 POINTS
TCL: Setting parameter alchLambda2 to 0.8499999999999999
Info: NONBONDED TABLE R-SQUARED SPACING: 0.0625
Info: NONBONDED TABLE SIZE: 705 POINTS
TCL: Running for 1500000 steps
ETITLE: TS BOND ANGLE DIHED IMPRP ELECT VDW BOUNDARY MISC KINETIC TOTAL TEMP POTENTIAL TOTALAVG TEMPAVG PRESSURE GPRESSURE VOLUME PRESSAVG GPRESSAVG
ENERGY: 0 0.1464 3.8787 1.8215 0.0000 -10871.3722 1476.1122 0.0000 0.0000 1791.2268 -7598.1866 301.0140 -9389.4134 -7598.1866 301.0140 -68.6873 10.4305 31391.8232 -68.6873 10.4305
ENERGY: 300000 0.3842 2.5767 1.6430 0.0000 -10874.2768 1401.5451 0.0000 0.0000 1777.9033 -7690.2244 298.7750 -9468.1277 -7653.5774 299.9087 -714.6155 -647.2812 30891.0316 -234.3904 -154.0828
ENERGY: 600000 0.8869 2.1078 1.7479 0.0000 -11067.6905 1592.0666 0.0000 0.0000 1812.8166 -7658.0647 304.6421 -9470.8813 -7632.8144 300.6645 746.9241 837.1524 30720.8930 -125.9839 -53.9943
ENERGY: 900000 1.0562 4.1043 1.8080 0.0000 -10831.1696 1408.1044 0.0000 0.0000 1791.0062 -7625.0906 300.9769 -9416.0968 -7634.3595 299.2646 -464.5264 -431.4794 30939.4008 -127.9436 -64.0311
ENERGY: 1200000 0.1949 2.5550 1.6567 0.0000 -10935.9019 1478.9969 0.0000 0.0000 1792.8291 -7659.6692 301.2832 -9452.4983 -7628.2226 300.8246 -90.3965 27.9926 30742.8422 -37.9525 32.0640
ENERGY: 1500000 0.0062 3.8030 1.7859 0.0000 -10926.7137 1482.7212 0.0000 0.0000 1773.6821 -7664.7152 298.0656 -9438.3973 -7633.2615 299.6829 286.3646 394.7611 30229.4980 -76.2286 -7.7456
TCL: Running FEP window   4: Lambda1 0.8499999999999999 Lambda2 0.7999999999999998 [dLambda -0.050000000000000044]
TCL: Setting parameter firsttimestep to 0
TCL: Setting parameter alchLambda to 0.8499999999999999
Info: NONBONDED TABLE R-SQUARED SPACING: 0.0625
Info: NONBONDED TABLE SIZE: 705 POINTS
TCL: Setting parameter alchLambda2 to 0.7999999999999998
Info: NONBONDED TABLE R-SQUARED SPACING: 0.0625
Info: NONBONDED TABLE SIZE: 705 POINTS
TCL: Running for 1500000 steps
ETITLE: TS BOND ANGLE DIHED IMPRP ELECT VDW BOUNDARY MISC KINETIC TOTAL TEMP POTENTIAL TOTALAVG TEMPAVG PRESSURE GPRESSURE VOLUME PRESSAVG GPRESSAVG
ENERGY: 0 0.0062 3.8030 1.7859 0.0000 -10926.7458 1482.5937 0.0000 0.0000 1772.7814 -7665.7756 297.9142 -9438.5570 -7665.7756 297.9142 302.9495 385.9762 30229.4980 302.9495 385.9762
ENERGY: 300000 0.0404 4.5976 2.0902 0.0000 -10782.7051 1395.9094 0.0000 0.0000 1776.3619 -7603.7057 298.5159 -9380.0676 -7632.7056 298.8940 -604.1015 -511.8128 31045.5441 -347.9905 -276.4133
ENERGY: 600000 0.5652 3.0512 1.8492 0.0000 -10746.7041 1403.0962 0.0000 0.0000 1803.7223 -7534.4198 303.1138 -9338.1422 -7605.9625 299.5988 -241.3974 -157.9585 30960.0461 -349.4115 -274.8863
ENERGY: 900000 1.2476 3.0449 1.6523 0.0000 -10800.1842 1410.8554 0.0000 0.0000 1833.0878 -7550.2961 308.0487 -9383.3839 -7585.3712 301.4344 -353.2971 -303.6533 30886.8883 -338.0240 -266.2198
ENERGY: 1200000 0.1808 2.8986 2.4854 0.0000 -10852.0579 1412.3075 0.0000 0.0000 1769.4210 -7664.7646 297.3495 -9434.1856 -7592.4676 301.7472 -553.8969 -518.3985 30973.9529 -357.1777 -290.2593
ENERGY: 1500000 0.0742 2.3890 1.7253 0.0000 -10797.0880 1477.1490 0.0000 0.0000 1856.9090 -7458.8414 312.0518 -9315.7504 -7584.8932 302.5059 462.6406 479.4769 30694.6149 -242.7308 -184.0205
TCL: Running FEP window   5: Lambda1 0.7999999999999998 Lambda2 0.7499999999999998 [dLambda -0.050000000000000044]
TCL: Setting parameter firsttimestep to 0
TCL: Setting parameter alchLambda to 0.7999999999999998
Info: NONBONDED TABLE R-SQUARED SPACING: 0.0625
Info: NONBONDED TABLE SIZE: 705 POINTS
TCL: Setting parameter alchLambda2 to 0.7499999999999998
Info: NONBONDED TABLE R-SQUARED SPACING: 0.0625
Info: NONBONDED TABLE SIZE: 705 POINTS
TCL: Running for 1500000 steps
ETITLE: TS BOND ANGLE DIHED IMPRP ELECT VDW BOUNDARY MISC KINETIC TOTAL TEMP POTENTIAL TOTALAVG TEMPAVG PRESSURE GPRESSURE VOLUME PRESSAVG GPRESSAVG
ENERGY: 0 0.0742 2.3890 1.7253 0.0000 -10796.9800 1477.2954 0.0000 0.0000 1856.0497 -7459.4463 311.9074 -9315.4961 -7459.4463 311.9074 406.7453 474.0026 30694.6149 406.7453 474.0026
ENERGY: 300000 0.1795 2.2225 1.8689 0.0000 -10926.2604 1486.3730 0.0000 0.0000 1833.7700 -7601.8465 308.1633 -9435.6165 -7575.7271 306.1737 -20.1759 2.2442 31132.1546 -11.9355 26.2754
ENERGY: 600000 0.0590 1.4707 1.7823 0.0000 -10791.2708 1404.2475 0.0000 0.0000 1791.7087 -7592.0026 301.0950 -9383.7113 -7573.5021 303.6996 -112.8512 -125.5225 30694.9448 -92.3409 -50.7753
ENERGY: 900000 0.3930 3.0411 3.1928 0.0000 -10843.5073 1416.1536 0.0000 0.0000 1831.5685 -7589.1584 307.7934 -9420.7269 -7598.0189 301.8688 -173.7085 -69.0559 30545.3160 -119.6265 -56.7755
ENERGY: 1200000 0.2604 2.8500 1.8158 0.0000 -10718.3179 1426.6722 0.0000 0.0000 1762.8823 -7523.8374 296.2507 -9286.7196 -7594.0442 301.0197 -12.4930 -6.3823 31176.5674 -111.6491 -44.5286
ENERGY: 1500000 0.7274 2.9150 1.7477 0.0000 -10965.5963 1546.8555 0.0000 0.0000 1811.1185 -7602.2322 304.3568 -9413.3507 -7608.8833 300.4960 718.7401 801.3322 30617.8096 -68.0809 -6.6096
TCL: Running FEP window   6: Lambda1 0.7499999999999998 Lambda2 0.6999999999999997 [dLambda -0.050000000000000044]
TCL: Setting parameter firsttimestep to 0
TCL: Setting parameter alchLambda to 0.7499999999999998
Info: NONBONDED TABLE R-SQUARED SPACING: 0.0625
Info: NONBONDED TABLE SIZE: 705 POINTS
TCL: Setting parameter alchLambda2 to 0.6999999999999997
Info: NONBONDED TABLE R-SQUARED SPACING: 0.0625
Info: NONBONDED TABLE SIZE: 705 POINTS
TCL: Running for 1500000 steps
ETITLE: TS BOND ANGLE DIHED IMPRP ELECT VDW BOUNDARY MISC KINETIC TOTAL TEMP POTENTIAL TOTALAVG TEMPAVG PRESSURE GPRESSURE VOLUME PRESSAVG GPRESSAVG
ENERGY: 0 0.7274 2.9150 1.7477 0.0000 -10965.1942 1547.1904 0.0000 0.0000 1810.2240 -7602.3896 304.2064 -9412.6136 -7602.3896 304.2064 712.2070 796.8232 30617.8096 712.2070 796.8232
ENERGY: 300000 0.3744 3.7499 3.1908 0.0000 -10890.9225 1503.9817 0.0000 0.0000 1784.4932 -7595.1325 299.8824 -9379.6257 -7563.8340 303.8496 477.3754 515.0071 30855.9581 376.0897 431.4904
ENERGY: 600000 0.1648 3.1595 1.9224 0.0000 -10879.6746 1474.8207 0.0000 0.0000 1765.1383 -7634.4690 296.6298 -9399.6073 -7577.1353 302.1181 72.8920 172.5182 30813.8886 250.4290 321.4863
ENERGY: 900000 0.2574 2.6494 1.6928 0.0000 -10755.7442 1406.3616 0.0000 0.0000 1812.6935 -7532.0896 304.6214 -9344.7830 -7589.4091 301.7672 -202.3730 -147.1231 30709.1652 130.1002 194.3473
ENERGY: 1200000 1.2159 1.4849 2.2504 0.0000 -10936.1854 1462.8733 0.0000 0.0000 1814.1807 -7654.1802 304.8714 -9468.3609 -7601.5008 301.9540 34.6135 93.2154 30513.4049 137.8159 194.8917
ENERGY: 1500000 3.0171 1.6829 1.6316 0.0000 -10989.0856 1546.5922 0.0000 0.0000 1766.6137 -7669.5481 296.8778 -9436.1618 -7614.3445 300.6357 551.6318 617.6526 30681.5485 62.3736 125.9258
TCL: Running FEP window   7: Lambda1 0.6999999999999997 Lambda2 0.6499999999999997 [dLambda -0.050000000000000044]
TCL: Setting parameter firsttimestep to 0
TCL: Setting parameter alchLambda to 0.6999999999999997
Info: NONBONDED TABLE R-SQUARED SPACING: 0.0625
Info: NONBONDED TABLE SIZE: 705 POINTS
TCL: Setting parameter alchLambda2 to 0.6499999999999997
Info: NONBONDED TABLE R-SQUARED SPACING: 0.0625
Info: NONBONDED TABLE SIZE: 705 POINTS
TCL: Running for 1500000 steps
ETITLE: TS BOND ANGLE DIHED IMPRP ELECT VDW BOUNDARY MISC KINETIC TOTAL TEMP POTENTIAL TOTALAVG TEMPAVG PRESSURE GPRESSURE VOLUME PRESSAVG GPRESSAVG
ENERGY: 0 3.0171 1.6829 1.6316 0.0000 -10989.1398 1546.7542 0.0000 0.0000 1765.7388 -7670.3153 296.7307 -9436.0540 -7670.3153 296.7307 528.5607 613.9893 30681.5485 528.5607 613.9893
ENERGY: 300000 0.9162 3.5755 1.7769 0.0000 -10929.8413 1471.8024 0.0000 0.0000 1839.4093 -7612.3611 309.1110 -9451.7704 -7603.4856 301.4369 -195.0478 -120.1069 30936.2234 -106.1475 -36.7031
ENERGY: 600000 0.3112 4.2854 3.0961 0.0000 -10849.3674 1426.3749 0.0000 0.0000 1788.1319 -7627.1679 300.4939 -9415.2998 -7616.9196 300.8831 -156.9015 -87.4790 30652.8523 -21.3532 34.0918
ENERGY: 900000 1.2121 2.7613 1.7436 0.0000 -10669.0551 1301.2306 0.0000 0.0000 1876.9045 -7485.2030 315.4120 -9362.1075 -7595.1139 301.8657 -862.5188 -792.2200 30546.6318 -116.8201 -66.9319
ENERGY: 1200000 0.5367 3.5586 2.9401 0.0000 -10847.9057 1445.3872 0.0000 0.0000 1766.5594 -7628.9238 296.8686 -9395.4832 -7602.6956 300.2478 -191.9405 -132.6309 31214.7562 -143.8527 -96.0824
ENERGY: 1500000 0.5182 2.5902 2.9306 0.0000 -10889.5248 1473.1052 0.0000 0.0000 1824.0807 -7586.2999 306.5350 -9410.3806 -7600.6585 300.2368 160.6248 218.8571 30616.5539 -142.7026 -90.7811
TCL: Running FEP window   8: Lambda1 0.6499999999999997 Lambda2 0.5999999999999996 [dLambda -0.050000000000000044]
TCL: Setting parameter firsttimestep to 0
TCL: Setting parameter alchLambda to 0.6499999999999997
Info: NONBONDED TABLE R-SQUARED SPACING: 0.0625
Info: NONBONDED TABLE SIZE: 705 POINTS
TCL: Setting parameter alchLambda2 to 0.5999999999999996
Info: NONBONDED TABLE R-SQUARED SPACING: 0.0625
Info: NONBONDED TABLE SIZE: 705 POINTS
TCL: Running for 1500000 steps
ETITLE: TS BOND ANGLE DIHED IMPRP ELECT VDW BOUNDARY MISC KINETIC TOTAL TEMP POTENTIAL TOTALAVG TEMPAVG PRESSURE GPRESSURE VOLUME PRESSAVG GPRESSAVG
ENERGY: 0 0.5182 2.5902 2.9306 0.0000 -10889.2649 1472.9180 0.0000 0.0000 1823.1367 -7587.1712 306.3764 -9410.3079 -7587.1712 306.3764 117.0501 209.9469 30616.5539 117.0501 209.9469
ENERGY: 300000 0.9943 3.0274 1.6822 0.0000 -10799.1571 1431.3780 0.0000 0.0000 1846.5714 -7515.5038 310.3146 -9362.0752 -7624.7711 303.3828 -182.3863 -118.4329 31238.8740 55.0369 144.9592
ENERGY: 600000 1.5181 2.1486 2.5623 0.0000 -10694.4735 1351.4438 0.0000 0.0000 1812.8933 -7523.9076 304.6550 -9336.8009 -7604.4075 302.2530 -902.7050 -897.9660 31320.0216 -48.0105 11.6354
ENERGY: 900000 0.2350 1.4868 1.6181 0.0000 -10922.1543 1480.2141 0.0000 0.0000 1801.3454 -7637.2549 302.7144 -9438.6003 -7588.6638 303.5073 -5.1684 61.0866 30972.0729 -106.5466 -38.8517
ENERGY: 1200000 0.8982 2.4501 1.6430 0.0000 -10774.2811 1423.0842 0.0000 0.0000 1758.0528 -7588.1527 295.4391 -9346.2056 -7604.9011 301.9277 -226.2154 -198.3075 31152.4417 -127.4943 -70.6375
ENERGY: 1500000 0.7446 2.5566 1.7121 0.0000 -10826.4889 1412.5948 0.0000 0.0000 1777.9079 -7630.9729 298.7757 -9408.8809 -7615.3417 301.0393 -561.8378 -552.3448 31207.2471 -189.1886 -135.8981
TCL: Running FEP window   9: Lambda1 0.5999999999999996 Lambda2 0.5499999999999996 [dLambda -0.050000000000000044]
TCL: Setting parameter firsttimestep to 0
TCL: Setting parameter alchLambda to 0.5999999999999996
Info: NONBONDED TABLE R-SQUARED SPACING: 0.0625
Info: NONBONDED TABLE SIZE: 705 POINTS
TCL: Setting parameter alchLambda2 to 0.5499999999999996
Info: NONBONDED TABLE R-SQUARED SPACING: 0.0625
Info: NONBONDED TABLE SIZE: 705 POINTS
TCL: Running for 1500000 steps
ETITLE: TS BOND ANGLE DIHED IMPRP ELECT VDW BOUNDARY MISC KINETIC TOTAL TEMP POTENTIAL TOTALAVG TEMPAVG PRESSURE GPRESSURE VOLUME PRESSAVG GPRESSAVG
ENERGY: 0 0.7446 2.5566 1.7121 0.0000 -10826.3873 1412.4522 0.0000 0.0000 1777.0301 -7631.8916 298.6282 -9408.9217 -7631.8916 298.6282 -642.7279 -559.4823 31207.2471 -642.7279 -559.4823
ENERGY: 300000 1.6345 2.3005 1.8612 0.0000 -10758.0969 1429.8395 0.0000 0.0000 1768.2583 -7554.2029 297.1541 -9322.4612 -7617.1390 296.9082 -233.0407 -121.6381 31277.4491 -564.3740 -504.5502
ENERGY: 600000 0.0242 3.5877 1.6252 0.0000 -10849.2384 1439.6336 0.0000 0.0000 1746.8823 -7657.4853 293.5619 -9404.3676 -7616.1381 296.6290 -259.2295 -209.7482 31057.0022 -350.2075 -273.5633
ENERGY: 900000 0.3439 4.1960 1.6539 0.0000 -10848.5974 1435.3812 0.0000 0.0000 1828.5995 -7578.4230 307.2944 -9407.0224 -7603.1154 299.2088 -179.4412 -117.4865 30661.6991 -268.5382 -190.5260
ENERGY: 1200000 0.4557 2.3694 1.6424 0.0000 -10866.8071 1418.5685 0.0000 0.0000 1750.4722 -7693.2989 294.1652 -9443.7711 -7606.2813 298.7793 -506.7844 -434.4549 30968.9411 -247.9955 -167.4104
ENERGY: 1500000 0.9012 2.9582 1.9145 0.0000 -10813.8738 1376.8414 0.0000 0.0000 1820.3163 -7610.9422 305.9024 -9431.2584 -7608.3327 299.2486 -678.7442 -647.8198 30545.2624 -234.0363 -165.1746
TCL: Running FEP window  10: Lambda1 0.5499999999999996 Lambda2 0.4999999999999996 [dLambda -0.04999999999999999]
TCL: Setting parameter firsttimestep to 0
TCL: Setting parameter alchLambda to 0.5499999999999996
Info: NONBONDED TABLE R-SQUARED SPACING: 0.0625
Info: NONBONDED TABLE SIZE: 705 POINTS
TCL: Setting parameter alchLambda2 to 0.4999999999999996
Info: NONBONDED TABLE R-SQUARED SPACING: 0.0625
Info: NONBONDED TABLE SIZE: 705 POINTS
TCL: Running for 1500000 steps
ETITLE: TS BOND ANGLE DIHED IMPRP ELECT VDW BOUNDARY MISC KINETIC TOTAL TEMP POTENTIAL TOTALAVG TEMPAVG PRESSURE GPRESSURE VOLUME PRESSAVG GPRESSAVG
ENERGY: 0 0.9012 2.9582 1.9145 0.0000 -10814.0450 1377.1201 0.0000 0.0000 1819.4232 -7611.7277 305.7523 -9431.1509 -7611.7277 305.7523 -716.9759 -648.6134 30545.2624 -716.9759 -648.6134
ENERGY: 300000 0.1411 4.8858 1.7882 0.0000 -10828.7300 1488.0650 0.0000 0.0000 1781.6147 -7552.2352 299.3987 -9333.8499 -7601.7285 300.6672 365.4607 419.3791 30862.6525 -78.8627 -18.8528
ENERGY: 600000 0.3517 2.5710 1.6958 0.0000 -10762.1398 1365.6851 0.0000 0.0000 1823.1285 -7568.7078 306.3750 -9391.8364 -7591.8482 302.2019 -641.6155 -617.9876 30644.5484 -157.0764 -92.3245
ENERGY: 900000 0.2467 3.8103 1.7305 0.0000 -10958.3177 1530.7713 0.0000 0.0000 1767.3880 -7654.3710 297.0079 -9421.7590 -7597.6802 301.5819 452.0650 499.0115 30643.5815 80.8907 141.4021
ENERGY: 1200000 0.6368 3.4069 1.5884 0.0000 -10817.1092 1462.1134 0.0000 0.0000 1767.2938 -7582.0700 296.9921 -9349.3638 -7587.5041 301.1844 184.7862 200.9354 30772.0125 85.4803 140.6710
ENERGY: 1500000 0.1178 4.3483 1.9822 0.0000 -10886.4671 1435.3996 0.0000 0.0000 1721.9278 -7722.6913 289.3683 -9444.6191 -7599.2637 299.6877 -384.9995 -278.9278 30932.5453 29.0051 81.9569
TCL: Running FEP window  11: Lambda1 0.4999999999999996 Lambda2 0.4499999999999996 [dLambda -0.04999999999999999]
TCL: Setting parameter firsttimestep to 0
TCL: Setting parameter alchLambda to 0.4999999999999996
Info: NONBONDED TABLE R-SQUARED SPACING: 0.0625
Info: NONBONDED TABLE SIZE: 705 POINTS
TCL: Setting parameter alchLambda2 to 0.4499999999999996
Info: NONBONDED TABLE R-SQUARED SPACING: 0.0625
Info: NONBONDED TABLE SIZE: 705 POINTS
TCL: Running for 1500000 steps
ETITLE: TS BOND ANGLE DIHED IMPRP ELECT VDW BOUNDARY MISC KINETIC TOTAL TEMP POTENTIAL TOTALAVG TEMPAVG PRESSURE GPRESSURE VOLUME PRESSAVG GPRESSAVG
ENERGY: 0 0.1178 4.3483 1.9822 0.0000 -10886.3666 1435.6983 0.0000 0.0000 1721.0423 -7723.1777 289.2195 -9444.2200 -7723.1777 289.2195 -355.4177 -277.8821 30932.5453 -355.4177 -277.8821
ENERGY: 300000 0.9475 2.3580 2.0412 0.0000 -10956.1775 1471.0325 0.0000 0.0000 1766.2573 -7713.5410 296.8179 -9479.7983 -7643.9924 300.1845 156.6998 152.3184 30410.9027 -273.9925 -216.8157
ENERGY: 600000 0.2005 3.7438 1.6860 0.0000 -10823.2346 1385.8761 0.0000 0.0000 1799.2772 -7632.4510 302.3668 -9431.7283 -7674.1114 299.4902 -707.1421 -627.6536 30692.8772 -280.2599 -200.6375
ENERGY: 900000 0.2551 3.7281 1.6510 0.0000 -10904.8915 1522.4261 0.0000 0.0000 1728.1188 -7648.7123 290.4087 -9376.8311 -7660.1285 298.3199 203.7149 272.1615 31138.0772 -191.2564 -121.8753
ENERGY: 1200000 0.8335 4.3424 1.8776 0.0000 -10983.1939 1524.5030 0.0000 0.0000 1768.3606 -7683.2768 297.1713 -9451.6374 -7657.2219 299.2090 105.7868 187.6194 30895.1628 -117.8389 -42.1671
ENERGY: 1500000 0.3514 6.1644 1.7315 0.0000 -10875.2335 1459.4950 0.0000 0.0000 1769.8510 -7637.6403 297.4218 -9407.4913 -7645.5013 299.2520 -128.5450 -84.6602 30632.3450 -153.5545 -81.1063
TCL: Running FEP window  12: Lambda1 0.4499999999999996 Lambda2 0.39999999999999963 [dLambda -0.04999999999999999]
TCL: Setting parameter firsttimestep to 0
TCL: Setting parameter alchLambda to 0.4499999999999996
Info: NONBONDED TABLE R-SQUARED SPACING: 0.0625
Info: NONBONDED TABLE SIZE: 705 POINTS
TCL: Setting parameter alchLambda2 to 0.39999999999999963
Info: NONBONDED TABLE R-SQUARED SPACING: 0.0625
Info: NONBONDED TABLE SIZE: 705 POINTS
TCL: Running for 1500000 steps
ETITLE: TS BOND ANGLE DIHED IMPRP ELECT VDW BOUNDARY MISC KINETIC TOTAL TEMP POTENTIAL TOTALAVG TEMPAVG PRESSURE GPRESSURE VOLUME PRESSAVG GPRESSAVG
ENERGY: 0 0.3514 6.1644 1.7315 0.0000 -10875.2339 1458.8999 0.0000 0.0000 1768.9508 -7639.1360 297.2705 -9408.0868 -7639.1360 297.2705 -175.7667 -95.1510 30632.3450 -175.7667 -95.1510
ENERGY: 300000 1.3500 5.2228 1.9496 0.0000 -10966.8108 1519.1578 0.0000 0.0000 1773.0215 -7666.1090 297.9546 -9439.1306 -7648.9513 299.1822 227.5107 338.2559 30503.1348 -10.5763 51.8437
ENERGY: 600000 0.2915 2.7933 3.3026 0.0000 -10750.6191 1423.4419 0.0000 0.0000 1787.7372 -7533.0525 300.4275 -9320.7897 -7624.3007 298.8287 -232.3084 -170.1592 31015.4092 -99.6626 -43.1282
ENERGY: 900000 1.0413 4.6855 1.6373 0.0000 -10794.8169 1455.5435 0.0000 0.0000 1748.5549 -7583.3544 293.8430 -9331.9093 -7621.7589 297.9206 284.1704 398.5147 30494.0511 -68.5111 -3.4187
ENERGY: 1200000 1.3000 4.8994 1.7048 0.0000 -10922.8767 1438.9471 0.0000 0.0000 1761.6121 -7714.4132 296.0372 -9476.0253 -7632.2722 298.2460 -681.2282 -624.4358 31047.6590 -172.3614 -103.3071
ENERGY: 1500000 1.3078 5.6637 3.0053 0.0000 -10914.6413 1450.2103 0.0000 0.0000 1749.1223 -7705.3318 293.9383 -9454.4541 -7629.9635 299.4285 -38.5907 -0.1950 30295.3029 -139.0137 -77.6226
TCL: Running FEP window  13: Lambda1 0.39999999999999963 Lambda2 0.34999999999999964 [dLambda -0.04999999999999999]
TCL: Setting parameter firsttimestep to 0
TCL: Setting parameter alchLambda to 0.39999999999999963
Info: NONBONDED TABLE R-SQUARED SPACING: 0.0625
Info: NONBONDED TABLE SIZE: 705 POINTS
TCL: Setting parameter alchLambda2 to 0.34999999999999964
Info: NONBONDED TABLE R-SQUARED SPACING: 0.0625
Info: NONBONDED TABLE SIZE: 705 POINTS
TCL: Running for 1500000 steps
ETITLE: TS BOND ANGLE DIHED IMPRP ELECT VDW BOUNDARY MISC KINETIC TOTAL TEMP POTENTIAL TOTALAVG TEMPAVG PRESSURE GPRESSURE VOLUME PRESSAVG GPRESSAVG
ENERGY: 0 1.3078 5.6637 3.0053 0.0000 -10914.6418 1449.9988 0.0000 0.0000 1748.2386 -7706.4275 293.7899 -9454.6662 -7706.4275 293.7899 -96.3685 -4.0559 30295.3029 -96.3685 -4.0559
ENERGY: 300000 0.3347 5.8803 2.1741 0.0000 -10916.1566 1444.4964 0.0000 0.0000 1803.8025 -7659.4687 303.1273 -9463.2712 -7637.5251 301.6596 -373.2722 -374.7570 30956.2761 -333.7502 -284.6009
ENERGY: 600000 0.5572 5.0218 3.3661 0.0000 -10781.3768 1415.2324 0.0000 0.0000 1813.1383 -7544.0610 304.6962 -9357.1994 -7611.1711 301.5674 -443.9067 -399.3117 31195.6443 -265.0087 -214.0646
ENERGY: 900000 3.3248 2.1672 1.7315 0.0000 -10977.0155 1523.8292 0.0000 0.0000 1731.6770 -7714.2858 291.0067 -9445.9628 -7615.9525 300.7602 156.3644 243.1114 30656.4328 -120.8738 -63.6879
ENERGY: 1200000 0.1996 1.7597 2.0008 0.0000 -10619.2118 1317.3498 0.0000 0.0000 1759.2235 -7538.6783 295.6358 -9297.9018 -7605.6676 300.0576 -787.3824 -748.6515 30958.2466 -241.9384 -177.4820
ENERGY: 1500000 1.7488 2.7295 1.8254 0.0000 -10871.9540 1447.2952 0.0000 0.0000 1754.9975 -7663.3576 294.9257 -9418.3551 -7614.3063 299.9049 -397.3855 -371.5824 31108.7529 -210.6148 -147.7439
TCL: Running FEP window  14: Lambda1 0.34999999999999964 Lambda2 0.29999999999999966 [dLambda -0.04999999999999999]
TCL: Setting parameter firsttimestep to 0
TCL: Setting parameter alchLambda to 0.34999999999999964
Info: NONBONDED TABLE R-SQUARED SPACING: 0.0625
Info: NONBONDED TABLE SIZE: 705 POINTS
TCL: Setting parameter alchLambda2 to 0.29999999999999966
Info: NONBONDED TABLE R-SQUARED SPACING: 0.0625
Info: NONBONDED TABLE SIZE: 705 POINTS
TCL: Running for 1500000 steps
ETITLE: TS BOND ANGLE DIHED IMPRP ELECT VDW BOUNDARY MISC KINETIC TOTAL TEMP POTENTIAL TOTALAVG TEMPAVG PRESSURE GPRESSURE VOLUME PRESSAVG GPRESSAVG
ENERGY: 0 1.7488 2.7295 1.8254 0.0000 -10871.9542 1447.0210 0.0000 0.0000 1754.1062 -7664.5233 294.7759 -9418.6294 -7664.5233 294.7759 -455.9831 -376.2891 31108.7529 -455.9831 -376.2891
ENERGY: 300000 0.2240 3.2166 1.6323 0.0000 -10862.7658 1462.8626 0.0000 0.0000 1774.5671 -7620.2633 298.2143 -9394.8304 -7656.6512 298.9511 76.9726 82.1214 30729.6314 96.5058 158.3073
ENERGY: 600000 0.6276 4.4279 1.7817 0.0000 -10737.8576 1326.2801 0.0000 0.0000 1805.2884 -7599.4519 303.3770 -9404.7404 -7667.8650 299.5344 -1097.4011 -1047.0456 30967.5448 -16.9796 29.0040
ENERGY: 900000 1.7135 5.2381 1.7262 0.0000 -10909.5672 1517.9497 0.0000 0.0000 1776.1097 -7606.8300 298.4736 -9382.9397 -7634.6300 299.1988 543.1781 573.5377 30445.4864 -13.3537 27.2277
ENERGY: 1200000 0.2416 3.6450 2.3837 0.0000 -10846.2964 1526.0043 0.0000 0.0000 1832.5832 -7481.4386 307.9639 -9314.0218 -7618.6298 300.6983 607.6911 716.9797 31100.1434 113.6417 159.1520
ENERGY: 1500000 0.0096 2.8540 2.9077 0.0000 -10916.7843 1454.9857 0.0000 0.0000 1851.2614 -7604.7659 311.1027 -9456.0273 -7615.7826 301.3973 -350.4709 -331.8748 31264.2570 52.7568 99.2691
TCL: Running FEP window  15: Lambda1 0.29999999999999966 Lambda2 0.24999999999999967 [dLambda -0.04999999999999999]
TCL: Setting parameter firsttimestep to 0
TCL: Setting parameter alchLambda to 0.29999999999999966
Info: NONBONDED TABLE R-SQUARED SPACING: 0.0625
Info: NONBONDED TABLE SIZE: 705 POINTS
TCL: Setting parameter alchLambda2 to 0.24999999999999967
Info: NONBONDED TABLE R-SQUARED SPACING: 0.0625
Info: NONBONDED TABLE SIZE: 705 POINTS
TCL: Running for 1500000 steps
ETITLE: TS BOND ANGLE DIHED IMPRP ELECT VDW BOUNDARY MISC KINETIC TOTAL TEMP POTENTIAL TOTALAVG TEMPAVG PRESSURE GPRESSURE VOLUME PRESSAVG GPRESSAVG
ENERGY: 0 0.0096 2.8540 2.9077 0.0000 -10916.7841 1455.2288 0.0000 0.0000 1850.3332 -7605.4508 310.9467 -9455.7840 -7605.4508 310.9467 -414.3087 -335.1786 31264.2570 -414.3087 -335.1786
ENERGY: 300000 0.4765 2.8816 1.6766 0.0000 -10879.9618 1411.3005 0.0000 0.0000 1802.7439 -7660.8827 302.9494 -9463.6266 -7600.0416 305.9697 -467.6422 -451.8163 31029.0372 -219.7338 -166.4248
ENERGY: 600000 0.0906 2.0685 1.8867 0.0000 -10920.2538 1470.1398 0.0000 0.0000 1796.2945 -7649.7737 301.8656 -9446.0682 -7608.6371 305.7309 -149.3281 -76.2714 30839.6589 -68.6956 -19.6340
ENERGY: 900000 0.0887 4.3814 2.4110 0.0000 -10852.9392 1456.3679 0.0000 0.0000 1835.2852 -7554.4050 308.4179 -9389.6902 -7610.9890 304.9896 -125.1069 -59.7954 31048.2883 12.9154 73.3656
ENERGY: 1200000 0.1031 3.6582 1.7561 0.0000 -10955.9573 1492.1853 0.0000 0.0000 1771.2573 -7686.9972 297.6581 -9458.2545 -7606.1278 303.6187 17.4997 44.1761 30753.6792 -86.9181 -22.4292
ENERGY: 1500000 0.0020 2.4286 1.7152 0.0000 -10809.9444 1483.7778 0.0000 0.0000 1788.2896 -7533.7312 300.5204 -9322.0208 -7606.4965 302.7130 222.1618 292.7691 31157.6938 -54.4945 10.4805
TCL: Running FEP window  16: Lambda1 0.24999999999999967 Lambda2 0.19999999999999968 [dLambda -0.04999999999999999]
TCL: Setting parameter firsttimestep to 0
TCL: Setting parameter alchLambda to 0.24999999999999967
Info: NONBONDED TABLE R-SQUARED SPACING: 0.0625
Info: NONBONDED TABLE SIZE: 705 POINTS
TCL: Setting parameter alchLambda2 to 0.19999999999999968
Info: NONBONDED TABLE R-SQUARED SPACING: 0.0625
Info: NONBONDED TABLE SIZE: 705 POINTS
TCL: Running for 1500000 steps
ETITLE: TS BOND ANGLE DIHED IMPRP ELECT VDW BOUNDARY MISC KINETIC TOTAL TEMP POTENTIAL TOTALAVG TEMPAVG PRESSURE GPRESSURE VOLUME PRESSAVG GPRESSAVG
ENERGY: 0 0.0020 2.4286 1.7152 0.0000 -10809.9443 1483.6802 0.0000 0.0000 1787.4427 -7534.6756 300.3781 -9322.1183 -7534.6756 300.3781 209.4158 287.5977 31157.6938 209.4158 287.5977
ENERGY: 300000 0.4017 4.5593 1.8265 0.0000 -10672.8507 1345.1486 0.0000 0.0000 1833.5557 -7487.3590 308.1273 -9320.9147 -7570.7642 301.6786 -430.6275 -458.4815 30687.9752 -106.5302 -34.7021
ENERGY: 600000 0.3625 2.9530 2.5921 0.0000 -10983.2932 1482.9553 0.0000 0.0000 1776.8948 -7717.5354 298.6055 -9494.4303 -7606.1170 299.6723 208.1794 151.2212 30426.6730 -106.4253 -45.8683
ENERGY: 900000 0.6372 2.0035 3.3618 0.0000 -10894.8025 1512.6862 0.0000 0.0000 1768.7698 -7607.3440 297.2401 -9376.1138 -7619.6388 299.1670 418.6513 535.7395 30616.9198 -45.6895 16.8850
ENERGY: 1200000 0.0833 2.7750 1.6580 0.0000 -10838.3258 1382.4683 0.0000 0.0000 1789.4322 -7661.9090 300.7124 -9451.3413 -7620.8876 299.6402 -617.4644 -549.7794 30426.2343 -60.5608 0.2482
ENERGY: 1500000 2.3770 2.8521 1.7096 0.0000 -10878.5179 1429.3823 0.0000 0.0000 1769.5132 -7672.6837 297.3650 -9442.1970 -7627.9848 298.5924 -370.6093 -420.2987 30729.6111 -23.4885 29.9079
TCL: Running FEP window  17: Lambda1 0.19999999999999968 Lambda2 0.1499999999999997 [dLambda -0.04999999999999999]
TCL: Setting parameter firsttimestep to 0
TCL: Setting parameter alchLambda to 0.19999999999999968
Info: NONBONDED TABLE R-SQUARED SPACING: 0.0625
Info: NONBONDED TABLE SIZE: 705 POINTS
TCL: Setting parameter alchLambda2 to 0.1499999999999997
Info: NONBONDED TABLE R-SQUARED SPACING: 0.0625
Info: NONBONDED TABLE SIZE: 705 POINTS
TCL: Running for 1500000 steps
ETITLE: TS BOND ANGLE DIHED IMPRP ELECT VDW BOUNDARY MISC KINETIC TOTAL TEMP POTENTIAL TOTALAVG TEMPAVG PRESSURE GPRESSURE VOLUME PRESSAVG GPRESSAVG
ENERGY: 0 2.3770 2.8520 1.7096 0.0000 -10878.5203 1428.8283 0.0000 0.0000 1768.6341 -7674.1193 297.2173 -9442.7534 -7674.1193 297.2173 -498.2162 -423.5655 30729.6111 -498.2162 -423.5655
ENERGY: 300000 0.7829 3.6048 1.8393 0.0000 -10765.6515 1444.1410 0.0000 0.0000 1791.8401 -7523.4434 301.1170 -9315.2835 -7546.1705 305.9146 26.8022 102.5396 30791.5280 -497.6139 -429.4642
ENERGY: 600000 0.6896 2.1485 1.6487 0.0000 -10906.4908 1535.9227 0.0000 0.0000 1808.3861 -7557.6953 303.8976 -9366.0813 -7564.4853 304.5445 649.1993 718.5708 30575.1499 -277.7253 -225.1213
ENERGY: 900000 1.5989 1.5098 1.8615 0.0000 -10851.5035 1451.9173 0.0000 0.0000 1799.4276 -7595.1885 302.3921 -9394.6161 -7570.1885 303.5558 -409.1712 -389.0489 31359.3328 -70.6142 -16.6273
ENERGY: 1200000 2.0901 2.5134 1.7634 0.0000 -10862.6420 1484.1417 0.0000 0.0000 1802.9320 -7569.2014 302.9810 -9372.1334 -7580.1274 302.5621 280.5738 277.2824 30773.6652 -2.8434 46.6943
ENERGY: 1500000 0.7378 4.6200 2.2499 0.0000 -10795.3706 1380.7827 0.0000 0.0000 1826.8549 -7580.1253 307.0012 -9406.9802 -7583.1247 302.8733 -550.6118 -416.2523 30504.3364 -2.3807 47.7003
TCL: Running FEP window  18: Lambda1 0.1499999999999997 Lambda2 0.09999999999999969 [dLambda -0.05 ]
TCL: Setting parameter firsttimestep to 0
TCL: Setting parameter alchLambda to 0.1499999999999997
Info: NONBONDED TABLE R-SQUARED SPACING: 0.0625
Info: NONBONDED TABLE SIZE: 705 POINTS
TCL: Setting parameter alchLambda2 to 0.09999999999999969
Info: NONBONDED TABLE R-SQUARED SPACING: 0.0625
Info: NONBONDED TABLE SIZE: 705 POINTS
TCL: Running for 1500000 steps
ETITLE: TS BOND ANGLE DIHED IMPRP ELECT VDW BOUNDARY MISC KINETIC TOTAL TEMP POTENTIAL TOTALAVG TEMPAVG PRESSURE GPRESSURE VOLUME PRESSAVG GPRESSAVG
ENERGY: 0 0.7378 4.6200 2.2499 0.0000 -10795.3702 1380.8243 0.0000 0.0000 1826.0045 -7580.9336 306.8583 -9406.9382 -7580.9336 306.8583 -511.2171 -417.1226 30504.3364 -511.2171 -417.1226
ENERGY: 300000 0.8147 4.2901 2.5839 0.0000 -10950.7322 1481.3268 0.0000 0.0000 1829.4254 -7632.2913 307.4332 -9461.7167 -7617.1680 302.8896 -56.7789 65.9950 30605.9488 -391.2469 -289.8601
ENERGY: 600000 0.4240 1.9589 1.6695 0.0000 -10824.6143 1443.8419 0.0000 0.0000 1786.2747 -7590.4454 300.1818 -9376.7201 -7602.2248 301.7890 -115.2872 -23.6275 30795.5068 -124.8347 -36.9971
ENERGY: 900000 0.2918 2.3311 2.6235 0.0000 -10911.1238 1501.9274 0.0000 0.0000 1860.7982 -7543.1518 312.7054 -9403.9500 -7605.9764 301.7728 596.5713 689.9245 30233.7209 13.2596 98.1155
ENERGY: 1200000 3.6214 3.4977 1.8289 0.0000 -10701.2967 1435.6667 0.0000 0.0000 1764.6046 -7492.0774 296.5401 -9256.6820 -7589.6849 301.3112 -162.6057 -68.9534 31366.2178 -94.1214 -10.8546
ENERGY: 1500000 0.0878 4.2660 1.6855 0.0000 -10818.7287 1420.4130 0.0000 0.0000 1791.2707 -7601.0056 301.0213 -9392.2763 -7591.0741 300.8711 -187.7905 -166.1561 30551.3099 -143.7843 -71.3402
TCL: Running FEP window  19: Lambda1 0.09999999999999969 Lambda2 0.049999999999999684 [dLambda -0.05 ]
TCL: Setting parameter firsttimestep to 0
TCL: Setting parameter alchLambda to 0.09999999999999969
Info: NONBONDED TABLE R-SQUARED SPACING: 0.0625
Info: NONBONDED TABLE SIZE: 705 POINTS
TCL: Setting parameter alchLambda2 to 0.049999999999999684
Info: NONBONDED TABLE R-SQUARED SPACING: 0.0625
Info: NONBONDED TABLE SIZE: 705 POINTS
TCL: Running for 1500000 steps
ETITLE: TS BOND ANGLE DIHED IMPRP ELECT VDW BOUNDARY MISC KINETIC TOTAL TEMP POTENTIAL TOTALAVG TEMPAVG PRESSURE GPRESSURE VOLUME PRESSAVG GPRESSAVG
ENERGY: 0 0.0878 4.2660 1.6855 0.0000 -10818.7289 1419.8925 0.0000 0.0000 1790.4009 -7602.3960 300.8752 -9392.7970 -7602.3960 300.8752 -248.3452 -169.9211 30551.3099 -248.3452 -169.9211
ENERGY: 300000 1.6680 2.8101 1.8990 0.0000 -10815.2379 1424.8169 0.0000 0.0000 1763.7174 -7620.3264 296.3910 -9384.0438 -7645.9710 297.6443 -316.2394 -245.1220 30816.3856 -46.7994 25.3014
ENERGY: 600000 0.5487 1.6706 2.0869 0.0000 -10739.3438 1307.3396 0.0000 0.0000 1770.9616 -7656.7364 297.6084 -9427.6981 -7655.4411 298.1076 -1314.1566 -1233.1362 30794.3216 -107.8669 -26.6678
ENERGY: 900000 0.8894 1.2570 1.7664 0.0000 -10951.8621 1525.6890 0.0000 0.0000 1797.4034 -7624.8568 302.0519 -9422.2602 -7634.9282 299.1370 423.4904 515.5893 30690.7230 -67.2058 10.3112
ENERGY: 1200000 0.4176 3.4534 1.7754 0.0000 -10840.9600 1512.4865 0.0000 0.0000 1776.7252 -7546.1019 298.5770 -9322.8271 -7615.0409 300.5987 453.8089 494.2024 31014.7431 -51.9812 16.0117
ENERGY: 1500000 0.3286 3.1440 1.7636 0.0000 -11079.8193 1650.5104 0.0000 0.0000 1829.5651 -7594.5075 307.4567 -9424.0725 -7608.3639 301.2116 1217.0284 1350.9034 30801.7837 96.0547 165.1436
TCL: Running FEP window  20: Lambda1 0.049999999999999684 Lambda2 0.0    [dLambda -0.049999999999999684]
TCL: Setting parameter firsttimestep to 0
TCL: Setting parameter alchLambda to 0.049999999999999684
Info: NONBONDED TABLE R-SQUARED SPACING: 0.0625
Info: NONBONDED TABLE SIZE: 705 POINTS
TCL: Setting parameter alchLambda2 to 0.0
Info: NONBONDED TABLE R-SQUARED SPACING: 0.0625
Info: NONBONDED TABLE SIZE: 705 POINTS
TCL: Running for 1500000 steps
ETITLE: TS BOND ANGLE DIHED IMPRP ELECT VDW BOUNDARY MISC KINETIC TOTAL TEMP POTENTIAL TOTALAVG TEMPAVG PRESSURE GPRESSURE VOLUME PRESSAVG GPRESSAVG
ENERGY: 0 0.3286 3.1440 1.7636 0.0000 -11079.8193 1649.5962 0.0000 0.0000 1828.7143 -7596.2726 307.3137 -9424.9868 -7596.2726 307.3137 1271.6847 1347.6981 30801.7837 1271.6847 1347.6981
ENERGY: 300000 0.2101 3.2451 1.7477 0.0000 -10860.3079 1395.3017 0.0000 0.0000 1856.6714 -7603.1318 312.0119 -9459.8033 -7614.0519 304.5708 -470.9952 -366.1422 30379.8596 -169.3058 -71.8086
ENERGY: 600000 0.3510 3.0905 1.6816 0.0000 -11001.8334 1554.7000 0.0000 0.0000 1810.4430 -7631.5674 304.2432 -9442.0104 -7632.0486 302.9299 569.8589 605.6145 30615.9819 -136.0784 -59.1655
ENERGY: 900000 0.8419 4.1211 1.9562 0.0000 -10878.1805 1405.4101 0.0000 0.0000 1780.9165 -7684.9348 299.2813 -9465.8512 -7631.9949 302.4782 -743.4712 -656.4162 30669.4177 -258.6193 -187.8106
ENERGY: 1200000 0.9572 1.8236 1.8351 0.0000 -10880.8694 1440.1505 0.0000 0.0000 1791.2980 -7644.8050 301.0259 -9436.1030 -7629.7224 301.3497 -264.8758 -139.8144 30452.0020 -127.9079 -50.2604
ENERGY: 1500000 0.2014 5.6018 1.8172 0.0000 -10814.2103 1426.2489 0.0000 0.0000 1786.7817 -7593.5593 300.2670 -9380.3410 -7613.7381 301.3385 -266.8263 -190.1393 30933.0213 -146.0101 -70.7460
TCL: Exiting due to exit command.
