Info: SIMULATION PARAMETERS:
Info: TIMESTEP               2
Info: NUMBER OF STEPS        0
Info: STEPS PER CYCLE        10
Info: PERIODIC CELL BASIS 1  30.925 0 0
Info: PERIODIC CELL BASIS 2  0 31.3007 0
Info: PERIODIC CELL BASIS 3  0 0 31.7303
Info: PERIODIC CELL CENTER   0 0 0
Info: WRAPPING WATERS AROUND PERIODIC BOUNDARIES ON OUTPUT.
Info: WRAPPING ALL CLUSTERS AROUND PERIODIC BOUNDARIES ON OUTPUT.
Info: FIRST LDB TIMESTEP     50
Info: LAST LDB TIMESTEP     -1
Info: HOM BACKGROUND SCALING 1
Info: PME BACKGROUND SCALING 1
Info: MIN ATOMS PER PATCH    40
Info: EMPTY PATCH LOAD       40 ATOMS
Info: VELOCITY FILE          mobley_299266_equil.vel
Info: CENTER OF MASS MOVING INITIALLY? NO
Info: DIELECTRIC             1
Info: EXCLUDE                SCALED ONE-FOUR
Info: 1-4 ELECTROSTATICS SCALED BY 0.833333
Info: MODIFIED 1-4 VDW PARAMETERS WILL BE USED
Info: DCD FILENAME           mobley_299266_prod.dcd
Info: DCD FREQUENCY          100000
Info: DCD FIRST STEP         100000
Info: DCD FILE WILL CONTAIN UNIT CELL DATA
Info: XST FILENAME           mobley_299266_prod.xst
Info: XST FREQUENCY          100000
Info: NO VELOCITY DCD OUTPUT
Info: NO FORCE DCD OUTPUT
Info: OUTPUT FILENAME        mobley_299266_prod
Info: BINARY OUTPUT FILES WILL BE USED
Info: RESTART FILENAME       mobley_299266_prod.restart
Info: RESTART FREQUENCY      100000
Info: BINARY RESTART FILES WILL BE USED
Info: CUTOFF                 9
Info: PAIRLIST DISTANCE      11
Info: PAIRLIST SHRINK RATE   0.01
Info: PAIRLIST GROW RATE     0.01
Info: PAIRLIST TRIGGER       0.3
Info: PAIRLISTS PER CYCLE    2
Info: PAIRLISTS ENABLED
Info: MARGIN                 2
Info: HYDROGEN GROUP CUTOFF  2.5
Info: PATCH DIMENSION        15.5
Info: ENERGY OUTPUT STEPS    100000
Info: ENERGY EVALUATION STEPS    100000
Info: OUTPUT ENERGY PRECISION 4
Info: CROSSTERM ENERGY INCLUDED IN DIHEDRAL
Info: TIMING OUTPUT STEPS    1000000
Info: PRESSURE OUTPUT STEPS  100000
Info: ALCHEMICAL FEP ON
Info: FEP CURRENT LAMBDA VALUE     1
Info: FEP COMPARISON LAMBDA VALUE  0.95
Info: FEP INTRA-ALCHEMICAL NON-BONDED INTERACTIONS WILL BE RETAINED
Info: FEP INTRA-ALCHEMICAL BONDED INTERACTIONS WILL BE RETAINED
Info: FEP VDW SHIFTING COEFFICIENT 5
Info: FEP ELEC. ACTIVE FOR ANNIHILATED PARTICLES BETWEEN LAMBDA = 0 AND LAMBDA = 0.5
Info: FEP ELEC. ACTIVE FOR EXNIHILATED PARTICLES BETWEEN LAMBDA = 0.5 AND LAMBDA = 1
Info: FEP VDW ACTIVE FOR ANNIHILATED PARTICLES BETWEEN LAMBDA = 0 AND LAMBDA = 1
Info: FEP VDW ACTIVE FOR EXNIHILATED PARTICLES BETWEEN LAMBDA = 0 AND LAMBDA = 1
Info: FEP BOND ACTIVE FOR ANNIHILATED PARTICLES BETWEEN LAMBDA = 1 AND LAMBDA = 1
Info: FEP BOND ACTIVE FOR EXNIHILATED PARTICLES BETWEEN LAMBDA = 0 AND LAMBDA = 0
Info: LANGEVIN DYNAMICS ACTIVE
Info: LANGEVIN TEMPERATURE   300
Info: LANGEVIN USING BBK INTEGRATOR
Info: LANGEVIN DAMPING COEFFICIENT IS 1 INVERSE PS
Info: LANGEVIN DYNAMICS APPLIED TO HYDROGENS
Info: LANGEVIN PISTON PRESSURE CONTROL ACTIVE
Info:        TARGET PRESSURE IS 1.01325 BAR
Info:     OSCILLATION PERIOD IS 50 FS
Info:             DECAY TIME IS 25 FS
Info:     PISTON TEMPERATURE IS 300 K
Info:       PRESSURE CONTROL IS GROUP-BASED
Info:    INITIAL STRAIN RATE IS -1.68919e-05 -1.68919e-05 -1.68919e-05
Info:       CELL FLUCTUATION IS ISOTROPIC
Info: PARTICLE MESH EWALD (PME) ACTIVE
Info: PME TOLERANCE               1e-06
Info: PME EWALD COEFFICIENT       0.348832
Info: PME INTERPOLATION ORDER     4
Info: PME GRID DIMENSIONS         32 32 32
Info: PME MAXIMUM GRID SPACING    1
Info: PME CALCULATION WILL BE PERFORMED ON GPU
Info: FULL ELECTROSTATIC EVALUATION FREQUENCY      2
Info: USING VERLET I (r-RESPA) MTS SCHEME.
Info: C1 SPLITTING OF LONG RANGE ELECTROSTATICS
Info: PLACING ATOMS IN PATCHES BY HYDROGEN GROUPS
Info: RIGID BONDS TO HYDROGEN : ALL
Info:         ERROR TOLERANCE : 1e-08
Info:          MAX ITERATIONS : 100
Info: RIGID WATER USING SETTLE ALGORITHM
Info: RANDOM NUMBER SEED     1743538387
Info: USE HYDROGEN BONDS?    NO
Info: Using AMBER format force field!
Info: AMBER PARM FILE        mobley_299266.prmtop
Info: COORDINATE PDB         mobley_299266.pdb
Info: Exclusions will be read from PARM file!
Info: SCNB (VDW SCALING)     2
Info: USING ARITHMETIC MEAN TO COMBINE L-J SIGMA PARAMETERS
Info: BINARY COORDINATES     mobley_299266_equil.coor
Info: SUMMARY OF PARAMETERS:
Info: 6 BONDS
Info: 6 ANGLES
Info:   6 HARMONIC
Info:   0 COSINE-BASED
Info: 5 DIHEDRAL
Info: 0 IMPROPER
Info: 0 CROSSTERM
Info: 0 VDW
Info: 21 VDW_PAIRS
Info: 0 NBTHOLE_PAIRS
Info: To read alchdata from file: mobley_299266.pdb
Info: To read alchflag data from column: 5
Info: STRUCTURE SUMMARY:
Info: 2988 ATOMS
Info: 2987 BONDS
Info: 18 ANGLES
Info: 30 DIHEDRALS
Info: 0 IMPROPERS
Info: 0 CROSSTERMS
Info: 3021 EXCLUSIONS
Info: 2984 RIGID BONDS
Info: ALCH: 0 ATOMS TO DISAPPEAR IN FINAL STATE
Info: ALCH: 12 ATOMS TO APPEAR IN FINAL STATE
Info: 5980 DEGREES OF FREEDOM
Info: 996 HYDROGEN GROUPS
Info: 4 ATOMS IN LARGEST HYDROGEN GROUP
Info: 996 MIGRATION GROUPS
Info: 4 ATOMS IN LARGEST MIGRATION GROUP
Info: TOTAL MASS = 17928 amu
Info: TOTAL CHARGE = -0.000199981 e
Info: MASS DENSITY = 0.969288 g/cm^3
Info: ATOM DENSITY = 0.0972843 atoms/A^3
Info: ADDED 0 IMPLICIT EXCLUSIONS
Info: NONBONDED TABLE R-SQUARED SPACING: 0.0625
Info: NONBONDED TABLE SIZE: 705 POINTS
Info: REMOVING COM VELOCITY 0.121522 -0.12018 -0.0511676
Info: Use 3D box decompostion in PME FFT.
Info: Updated CUDA force table with 4096 elements.
Info: Updated CUDA LJ table with 6 x 6 elements.
Info: Found 15 unique exclusion lists needing 28 bytes
TCL: Running for 1500000 steps
ETITLE: TS BOND ANGLE DIHED IMPRP ELECT VDW BOUNDARY MISC KINETIC TOTAL TEMP POTENTIAL TOTALAVG TEMPAVG PRESSURE GPRESSURE VOLUME PRESSAVG GPRESSAVG
ENERGY: 0 0.4979 2.9948 8.0681 0.0000 -10871.6808 1506.1468 0.0000 0.0000 1789.1216 -7564.8516 301.1127 -9353.9732 -7564.8516 301.1127 384.6290 477.7656 30714.0875 384.6290 477.7656
ENERGY: 300000 0.6539 2.3317 8.6338 0.0000 -10997.9623 1501.1085 0.0000 0.0000 1779.2990 -7705.9354 299.4595 -9485.2344 -7602.6669 303.3813 -220.2141 -150.9280 30875.8242 -127.5058 -51.3613
ENERGY: 600000 0.6867 5.6229 7.2693 0.0000 -10931.2196 1541.1057 0.0000 0.0000 1820.1626 -7556.3724 306.3370 -9376.5350 -7608.5819 301.9440 955.9140 1030.8166 30107.2596 80.0602 168.0281
ENERGY: 900000 1.5386 5.1957 10.3548 0.0000 -10926.5647 1502.8375 0.0000 0.0000 1764.8929 -7641.7453 297.0350 -9406.6382 -7611.1210 301.2160 327.6580 347.9385 30692.9256 43.5357 119.9192
ENERGY: 1200000 0.1727 7.2545 7.0765 0.0000 -10733.2555 1430.7566 0.0000 0.0000 1694.0662 -7593.9289 285.1147 -9287.9951 -7602.8656 299.7616 -10.6691 74.5290 30785.1414 69.9799 139.1493
ENERGY: 1500000 0.6293 6.2942 8.3391 0.0000 -10770.1520 1377.2558 0.0000 0.0000 1797.4947 -7580.1390 302.5219 -9377.6336 -7600.9964 299.7850 -657.2397 -611.5682 31109.9692 -28.6496 38.9304
TCL: Running FEP window   2: Lambda1 0.95   Lambda2 0.8999999999999999 [dLambda -0.050000000000000044]
TCL: Setting parameter firsttimestep to 0
TCL: Setting parameter alchLambda to 0.95
Info: NONBONDED TABLE R-SQUARED SPACING: 0.0625
Info: NONBONDED TABLE SIZE: 705 POINTS
TCL: Setting parameter alchLambda2 to 0.8999999999999999
Info: NONBONDED TABLE R-SQUARED SPACING: 0.0625
Info: NONBONDED TABLE SIZE: 705 POINTS
TCL: Running for 1500000 steps
ETITLE: TS BOND ANGLE DIHED IMPRP ELECT VDW BOUNDARY MISC KINETIC TOTAL TEMP POTENTIAL TOTALAVG TEMPAVG PRESSURE GPRESSURE VOLUME PRESSAVG GPRESSAVG
ENERGY: 0 0.6293 6.2942 8.3391 0.0000 -10770.1528 1377.5085 0.0000 0.0000 1796.6148 -7580.7669 302.3738 -9377.3817 -7580.7669 302.3738 -689.3457 -616.0011 31109.9692 -689.3457 -616.0011
ENERGY: 300000 0.4622 3.8230 8.8470 0.0000 -10931.6362 1517.5217 0.0000 0.0000 1788.5725 -7612.4099 301.0203 -9400.9824 -7581.7072 299.3296 374.9186 462.7499 30826.2844 268.1285 325.2897
ENERGY: 600000 0.2944 3.8338 7.7395 0.0000 -10785.8216 1456.0088 0.0000 0.0000 1740.9204 -7577.0246 293.0003 -9317.9451 -7586.6407 297.9298 -109.7899 -16.5526 31073.7157 281.3346 348.0526
ENERGY: 900000 2.3841 7.4229 7.6636 0.0000 -10665.7813 1364.6737 0.0000 0.0000 1814.9595 -7468.6775 305.4613 -9283.6370 -7576.2073 298.8179 -558.3926 -469.0932 30894.2659 177.7309 250.6502
ENERGY: 1200000 1.8178 2.3253 8.4708 0.0000 -10893.4868 1491.2654 0.0000 0.0000 1716.8687 -7672.7389 288.9524 -9389.6076 -7581.4234 298.9120 439.6299 504.1406 30348.4244 180.1261 245.4208
ENERGY: 1500000 1.1898 4.4451 8.0703 0.0000 -10849.8558 1408.3807 0.0000 0.0000 1712.9414 -7714.8284 288.2914 -9427.7699 -7587.1386 298.4646 -630.4813 -529.7092 30988.0111 69.9163 142.6105
TCL: Running FEP window   3: Lambda1 0.8999999999999999 Lambda2 0.8499999999999999 [dLambda -0.050000000000000044]
TCL: Setting parameter firsttimestep to 0
TCL: Setting parameter alchLambda to 0.8999999999999999
Info: NONBONDED TABLE R-SQUARED SPACING: 0.0625
Info: NONBONDED TABLE SIZE: 705 POINTS
TCL: Setting parameter alchLambda2 to 0.8499999999999999
Info: NONBONDED TABLE R-SQUARED SPACING: 0.0625
Info: NONBONDED TABLE SIZE: 705 POINTS
TCL: Running for 1500000 steps
ETITLE: TS BOND ANGLE DIHED IMPRP ELECT VDW BOUNDARY MISC KINETIC TOTAL TEMP POTENTIAL TOTALAVG TEMPAVG PRESSURE GPRESSURE VOLUME PRESSAVG GPRESSAVG
ENERGY: 0 1.1898 4.4451 8.0703 0.0000 -10849.4007 1408.4934 0.0000 0.0000 1712.0357 -7715.1664 288.1390 -9427.2020 -7715.1664 288.1390 -603.9612 -536.0936 30988.0111 -603.9612 -536.0936
ENERGY: 300000 0.1833 1.6634 9.1065 0.0000 -10898.4721 1489.7464 0.0000 0.0000 1809.3638 -7588.4087 304.5195 -9397.7725 -7583.9492 302.1255 282.4152 353.6221 30495.7879 204.3180 271.3902
ENERGY: 600000 0.1090 3.4529 9.6288 0.0000 -10769.4438 1386.9205 0.0000 0.0000 1766.4687 -7602.8639 297.3002 -9369.3326 -7584.4332 301.8809 -645.0767 -591.4522 31058.2282 168.1870 225.9783
ENERGY: 900000 0.7922 4.4536 9.2174 0.0000 -10718.1627 1359.8843 0.0000 0.0000 1811.5785 -7532.2367 304.8922 -9343.8152 -7545.4233 302.3846 -819.6727 -775.4600 31089.3901 -20.0380 41.4248
ENERGY: 1200000 0.1334 5.7956 7.1288 0.0000 -10828.8860 1467.7402 0.0000 0.0000 1733.0191 -7615.0690 291.6705 -9348.0880 -7558.6454 301.7217 182.0107 262.1072 30845.3068 -12.4214 45.9186
ENERGY: 1500000 0.2525 6.1398 7.6947 0.0000 -10703.1683 1420.7409 0.0000 0.0000 1800.1870 -7468.1534 302.9750 -9268.3404 -7550.1741 302.4628 -116.7617 -43.3024 31026.5606 -66.9783 -5.9455
TCL: Running FEP window   4: Lambda1 0.8499999999999999 Lambda2 0.7999999999999998 [dLambda -0.050000000000000044]
TCL: Setting parameter firsttimestep to 0
TCL: Setting parameter alchLambda to 0.8499999999999999
Info: NONBONDED TABLE R-SQUARED SPACING: 0.0625
Info: NONBONDED TABLE SIZE: 705 POINTS
TCL: Setting parameter alchLambda2 to 0.7999999999999998
Info: NONBONDED TABLE R-SQUARED SPACING: 0.0625
Info: NONBONDED TABLE SIZE: 705 POINTS
TCL: Running for 1500000 steps
ETITLE: TS BOND ANGLE DIHED IMPRP ELECT VDW BOUNDARY MISC KINETIC TOTAL TEMP POTENTIAL TOTALAVG TEMPAVG PRESSURE GPRESSURE VOLUME PRESSAVG GPRESSAVG
ENERGY: 0 0.2525 6.1398 7.6947 0.0000 -10703.1718 1420.5545 0.0000 0.0000 1799.2871 -7469.2432 302.8236 -9268.5303 -7469.2432 302.8236 -134.6433 -56.3483 31026.5606 -134.6433 -56.3483
ENERGY: 300000 0.4010 5.2756 8.3177 0.0000 -11020.1396 1540.5147 0.0000 0.0000 1744.9979 -7720.6326 293.6866 -9465.6305 -7580.7162 297.1777 426.7356 420.5381 30661.9766 130.6214 192.7373
ENERGY: 600000 0.1830 5.1761 8.9451 0.0000 -10652.4350 1321.0786 0.0000 0.0000 1767.9795 -7549.0728 297.5544 -9317.0523 -7594.6089 297.3902 -1131.2667 -1018.7023 31368.4539 -15.7838 46.5770
ENERGY: 900000 1.1650 3.3242 8.6211 0.0000 -10954.3436 1577.1606 0.0000 0.0000 1773.4516 -7590.6212 298.4754 -9364.0728 -7589.2492 298.8677 985.4584 1046.5447 30529.1368 82.1451 143.2371
ENERGY: 1200000 0.4780 2.3620 8.5273 0.0000 -10866.1208 1522.8554 0.0000 0.0000 1739.9677 -7591.9304 292.8400 -9331.8981 -7589.8579 298.3242 425.3644 465.5316 30805.5452 144.0175 206.2137
ENERGY: 1500000 0.2201 7.2929 7.6224 0.0000 -10749.2380 1413.8855 0.0000 0.0000 1790.7257 -7529.4915 301.3827 -9320.2172 -7585.2074 298.8520 -98.8323 -71.1854 30829.3299 83.8227 143.6028
TCL: Running FEP window   5: Lambda1 0.7999999999999998 Lambda2 0.7499999999999998 [dLambda -0.050000000000000044]
TCL: Setting parameter firsttimestep to 0
TCL: Setting parameter alchLambda to 0.7999999999999998
Info: NONBONDED TABLE R-SQUARED SPACING: 0.0625
Info: NONBONDED TABLE SIZE: 705 POINTS
TCL: Setting parameter alchLambda2 to 0.7499999999999998
Info: NONBONDED TABLE R-SQUARED SPACING: 0.0625
Info: NONBONDED TABLE SIZE: 705 POINTS
TCL: Running for 1500000 steps
ETITLE: TS BOND ANGLE DIHED IMPRP ELECT VDW BOUNDARY MISC KINETIC TOTAL TEMP POTENTIAL TOTALAVG TEMPAVG PRESSURE GPRESSURE VOLUME PRESSAVG GPRESSAVG
ENERGY: 0 0.2201 7.2929 7.6224 0.0000 -10749.1787 1413.8784 0.0000 0.0000 1789.8345 -7530.3304 301.2327 -9320.1649 -7530.3304 301.2327 -169.1263 -76.3195 30829.3299 -169.1263 -76.3195
ENERGY: 300000 0.7708 5.2429 7.2702 0.0000 -10839.7743 1438.3374 0.0000 0.0000 1806.6437 -7581.5093 304.0617 -9388.1530 -7529.9780 304.6569 5.9979 -11.6177 30744.3193 58.1513 104.3570
ENERGY: 600000 3.5659 4.5977 8.7684 0.0000 -10745.1126 1428.3054 0.0000 0.0000 1763.2884 -7536.5869 296.7649 -9299.8753 -7543.6237 302.0526 -57.3696 23.6005 30942.0929 83.6539 131.4590
ENERGY: 900000 1.5870 3.6246 8.9844 0.0000 -10847.0023 1452.2281 0.0000 0.0000 1731.1454 -7649.4328 291.3552 -9380.5782 -7559.7477 300.3305 -173.0192 -79.2250 30879.5901 165.0572 218.8143
ENERGY: 1200000 0.4837 3.2074 7.9920 0.0000 -10711.7791 1437.4070 0.0000 0.0000 1734.5071 -7528.1819 291.9210 -9262.6890 -7553.8562 300.1439 31.0637 154.4025 30990.3944 185.2046 247.4448
ENERGY: 1500000 1.5901 2.5391 8.2522 0.0000 -10739.0683 1377.4520 0.0000 0.0000 1786.3648 -7562.8701 300.6487 -9349.2349 -7561.7717 300.0819 -526.3129 -478.3603 30600.3084 95.7055 155.0304
TCL: Running FEP window   6: Lambda1 0.7499999999999998 Lambda2 0.6999999999999997 [dLambda -0.050000000000000044]
TCL: Setting parameter firsttimestep to 0
TCL: Setting parameter alchLambda to 0.7499999999999998
Info: NONBONDED TABLE R-SQUARED SPACING: 0.0625
Info: NONBONDED TABLE SIZE: 705 POINTS
TCL: Setting parameter alchLambda2 to 0.6999999999999997
Info: NONBONDED TABLE R-SQUARED SPACING: 0.0625
Info: NONBONDED TABLE SIZE: 705 POINTS
TCL: Running for 1500000 steps
ETITLE: TS BOND ANGLE DIHED IMPRP ELECT VDW BOUNDARY MISC KINETIC TOTAL TEMP POTENTIAL TOTALAVG TEMPAVG PRESSURE GPRESSURE VOLUME PRESSAVG GPRESSAVG
ENERGY: 0 1.5901 2.5391 8.2522 0.0000 -10738.9450 1377.2824 0.0000 0.0000 1785.4505 -7563.8307 300.4948 -9349.2812 -7563.8307 300.4948 -570.8123 -486.1524 30600.3084 -570.8123 -486.1524
ENERGY: 300000 1.7595 4.3603 8.3606 0.0000 -10898.2828 1499.5639 0.0000 0.0000 1711.3117 -7672.9267 288.0171 -9384.2384 -7600.8036 297.8306 100.9145 166.1671 30811.1228 -188.1084 -117.6361
ENERGY: 600000 0.8284 3.0280 8.2122 0.0000 -10895.8759 1439.1476 0.0000 0.0000 1812.1588 -7632.5009 304.9899 -9444.6597 -7570.5947 300.7479 -253.8569 -253.9766 30629.4126 -184.0374 -110.9093
ENERGY: 900000 1.6775 4.9665 8.4907 0.0000 -10913.9373 1457.3535 0.0000 0.0000 1782.5748 -7658.8743 300.0109 -9441.4491 -7585.9610 300.6384 -51.7368 -45.9033 30542.0885 -134.9703 -63.2380
ENERGY: 1200000 0.1664 6.0737 10.7352 0.0000 -10856.4523 1462.0338 0.0000 0.0000 1854.8667 -7522.5764 312.1777 -9377.4431 -7590.6992 301.0118 2.9009 67.7337 30785.2312 0.5687 65.1127
ENERGY: 1500000 0.5182 6.4848 7.1737 0.0000 -11004.7188 1569.3206 0.0000 0.0000 1817.3506 -7603.8709 305.8637 -9421.2215 -7594.7035 300.3780 940.5732 1002.5717 30186.5560 19.3734 88.6943
TCL: Running FEP window   7: Lambda1 0.6999999999999997 Lambda2 0.6499999999999997 [dLambda -0.050000000000000044]
TCL: Setting parameter firsttimestep to 0
TCL: Setting parameter alchLambda to 0.6999999999999997
Info: NONBONDED TABLE R-SQUARED SPACING: 0.0625
Info: NONBONDED TABLE SIZE: 705 POINTS
TCL: Setting parameter alchLambda2 to 0.6499999999999997
Info: NONBONDED TABLE R-SQUARED SPACING: 0.0625
Info: NONBONDED TABLE SIZE: 705 POINTS
TCL: Running for 1500000 steps
ETITLE: TS BOND ANGLE DIHED IMPRP ELECT VDW BOUNDARY MISC KINETIC TOTAL TEMP POTENTIAL TOTALAVG TEMPAVG PRESSURE GPRESSURE VOLUME PRESSAVG GPRESSAVG
ENERGY: 0 0.5182 6.4848 7.1737 0.0000 -11004.4438 1569.1580 0.0000 0.0000 1816.4354 -7604.6737 305.7097 -9421.1090 -7604.6737 305.7097 893.6205 992.8545 30186.5560 893.6205 992.8545
ENERGY: 300000 0.8927 3.1474 7.6813 0.0000 -10826.1345 1493.5034 0.0000 0.0000 1762.0048 -7558.9049 296.5489 -9320.9097 -7584.4051 301.0394 565.6120 592.5410 30587.2602 303.7751 378.5307
ENERGY: 600000 0.4120 2.9565 9.1593 0.0000 -10914.9965 1512.1462 0.0000 0.0000 1763.7776 -7626.5449 296.8472 -9390.3225 -7591.8040 301.0045 247.6866 332.2261 30592.6830 111.3669 175.3305
ENERGY: 900000 3.0022 1.0806 7.8838 0.0000 -10949.8612 1511.4659 0.0000 0.0000 1751.1358 -7675.2929 294.7196 -9426.4287 -7586.6449 300.9808 34.9213 65.4305 30847.7387 144.4156 207.9321
ENERGY: 1200000 3.7221 9.5160 9.7091 0.0000 -10801.5730 1472.1271 0.0000 0.0000 1738.6839 -7567.8147 292.6239 -9306.4987 -7585.9193 299.8838 -72.4786 29.0008 31235.6280 112.6476 178.7743
ENERGY: 1500000 0.5554 3.3348 10.4598 0.0000 -10947.9369 1536.1651 0.0000 0.0000 1753.0836 -7644.3382 295.0474 -9397.4218 -7576.3070 300.0816 571.7215 686.9892 30349.8136 55.1949 125.8317
TCL: Running FEP window   8: Lambda1 0.6499999999999997 Lambda2 0.5999999999999996 [dLambda -0.050000000000000044]
TCL: Setting parameter firsttimestep to 0
TCL: Setting parameter alchLambda to 0.6499999999999997
Info: NONBONDED TABLE R-SQUARED SPACING: 0.0625
Info: NONBONDED TABLE SIZE: 705 POINTS
TCL: Setting parameter alchLambda2 to 0.5999999999999996
Info: NONBONDED TABLE R-SQUARED SPACING: 0.0625
Info: NONBONDED TABLE SIZE: 705 POINTS
TCL: Running for 1500000 steps
ETITLE: TS BOND ANGLE DIHED IMPRP ELECT VDW BOUNDARY MISC KINETIC TOTAL TEMP POTENTIAL TOTALAVG TEMPAVG PRESSURE GPRESSURE VOLUME PRESSAVG GPRESSAVG
ENERGY: 0 0.5554 3.3348 10.4598 0.0000 -10947.9400 1535.6669 0.0000 0.0000 1752.1894 -7645.7336 294.8969 -9397.9230 -7645.7336 294.8969 586.4820 675.5685 30349.8136 586.4820 675.5685
ENERGY: 300000 0.8013 4.0886 7.5425 0.0000 -10790.3321 1478.0288 0.0000 0.0000 1759.6560 -7540.2148 296.1536 -9299.8708 -7570.7456 299.9891 348.8713 393.1352 30649.9830 346.3822 414.7946
ENERGY: 600000 1.0994 3.2279 8.2091 0.0000 -10834.0501 1401.1075 0.0000 0.0000 1738.0740 -7682.3321 292.5213 -9420.4061 -7605.3166 299.2574 -758.5507 -692.4362 31068.5839 61.4877 122.6726
ENERGY: 900000 0.7155 2.6313 8.2937 0.0000 -10668.9873 1330.5014 0.0000 0.0000 1783.3325 -7543.5129 300.1384 -9326.8454 -7579.7570 300.2777 -805.2897 -808.6252 30954.2803 0.5187 55.3767
ENERGY: 1200000 0.2843 4.3670 9.2539 0.0000 -10926.0418 1497.4367 0.0000 0.0000 1787.5400 -7627.1599 300.8465 -9414.6999 -7582.2996 300.3694 0.5492 68.1048 31114.0205 44.2690 99.5266
ENERGY: 1500000 0.1941 5.3216 7.5546 0.0000 -10728.4048 1387.8292 0.0000 0.0000 1789.7643 -7537.7410 301.2209 -9327.5053 -7571.7162 300.2368 -669.7210 -623.4385 31077.1388 70.7567 125.3957
TCL: Running FEP window   9: Lambda1 0.5999999999999996 Lambda2 0.5499999999999996 [dLambda -0.050000000000000044]
TCL: Setting parameter firsttimestep to 0
TCL: Setting parameter alchLambda to 0.5999999999999996
Info: NONBONDED TABLE R-SQUARED SPACING: 0.0625
Info: NONBONDED TABLE SIZE: 705 POINTS
TCL: Setting parameter alchLambda2 to 0.5499999999999996
Info: NONBONDED TABLE R-SQUARED SPACING: 0.0625
Info: NONBONDED TABLE SIZE: 705 POINTS
TCL: Running for 1500000 steps
ETITLE: TS BOND ANGLE DIHED IMPRP ELECT VDW BOUNDARY MISC KINETIC TOTAL TEMP POTENTIAL TOTALAVG TEMPAVG PRESSURE GPRESSURE VOLUME PRESSAVG GPRESSAVG
ENERGY: 0 0.1941 5.3216 7.5546 0.0000 -10728.3792 1387.5042 0.0000 0.0000 1788.8628 -7538.9419 301.0691 -9327.8047 -7538.9419 301.0691 -703.1408 -631.9373 31077.1388 -703.1408 -631.9373
ENERGY: 300000 0.7771 6.6268 7.8475 0.0000 -10893.5187 1505.0620 0.0000 0.0000 1809.6332 -7563.5723 304.5648 -9373.2054 -7573.6049 301.8612 496.3385 626.7579 30267.8542 195.8222 265.1204
ENERGY: 600000 1.3475 2.5631 7.7320 0.0000 -10781.1124 1447.6809 0.0000 0.0000 1757.9144 -7563.8746 295.8605 -9321.7890 -7571.0469 300.9232 -84.2415 51.1646 30870.9072 136.6388 209.0919
ENERGY: 900000 0.5644 5.2180 9.3277 0.0000 -10814.9381 1452.1107 0.0000 0.0000 1772.3274 -7575.3898 298.2862 -9347.7172 -7567.4750 300.7324 461.7342 483.3430 30192.4113 161.4391 226.1326
ENERGY: 1200000 0.6181 4.6805 6.9058 0.0000 -10803.6884 1494.6337 0.0000 0.0000 1813.9342 -7482.9160 305.2887 -9296.8502 -7565.1286 300.8529 715.4323 803.3506 30507.7786 93.2656 169.1134
ENERGY: 1500000 0.9058 5.9490 9.7826 0.0000 -10987.8896 1535.9534 0.0000 0.0000 1756.1859 -7679.1128 295.5696 -9435.2987 -7570.9511 301.3940 372.6966 470.3335 30602.3516 62.0552 138.5509
TCL: Running FEP window  10: Lambda1 0.5499999999999996 Lambda2 0.4999999999999996 [dLambda -0.04999999999999999]
TCL: Setting parameter firsttimestep to 0
TCL: Setting parameter alchLambda to 0.5499999999999996
Info: NONBONDED TABLE R-SQUARED SPACING: 0.0625
Info: NONBONDED TABLE SIZE: 705 POINTS
TCL: Setting parameter alchLambda2 to 0.4999999999999996
Info: NONBONDED TABLE R-SQUARED SPACING: 0.0625
Info: NONBONDED TABLE SIZE: 705 POINTS
TCL: Running for 1500000 steps
ETITLE: TS BOND ANGLE DIHED IMPRP ELECT VDW BOUNDARY MISC KINETIC TOTAL TEMP POTENTIAL TOTALAVG TEMPAVG PRESSURE GPRESSURE VOLUME PRESSAVG GPRESSAVG
ENERGY: 0 0.9058 5.9490 9.7826 0.0000 -10987.8999 1535.8610 0.0000 0.0000 1755.2792 -7680.1223 295.4170 -9435.4015 -7680.1223 295.4170 383.2727 468.6427 30602.3516 383.2727 468.6427
ENERGY: 300000 1.7250 2.3158 9.1860 0.0000 -10859.0886 1457.2979 0.0000 0.0000 1731.8178 -7656.7461 291.4683 -9388.5639 -7614.4753 298.4726 -306.2754 -245.5019 30838.8205 -27.2807 34.9665
ENERGY: 600000 0.3763 4.6624 7.4138 0.0000 -10831.6223 1397.6272 0.0000 0.0000 1810.1506 -7611.3920 304.6519 -9421.5426 -7618.3536 298.5246 -557.1281 -460.0573 30773.2124 -15.9323 44.7792
ENERGY: 900000 0.9206 5.1192 9.7477 0.0000 -10813.3079 1486.0899 0.0000 0.0000 1828.0508 -7483.3797 307.6645 -9311.4305 -7601.0862 299.9239 275.8358 275.3650 30986.7068 23.5996 82.8709
ENERGY: 1200000 2.4492 5.8624 10.4863 0.0000 -10834.5105 1451.6631 0.0000 0.0000 1807.1031 -7556.9462 304.1390 -9364.0493 -7604.7061 300.0298 -85.6647 -45.0973 30774.1693 38.4274 93.3652
ENERGY: 1500000 0.7158 5.0944 9.1006 0.0000 -10898.7390 1466.8181 0.0000 0.0000 1745.3685 -7671.6417 293.7490 -9417.0102 -7609.9998 299.1164 51.1843 114.8146 30506.1954 42.0197 100.8531
TCL: Running FEP window  11: Lambda1 0.4999999999999996 Lambda2 0.4499999999999996 [dLambda -0.04999999999999999]
TCL: Setting parameter firsttimestep to 0
TCL: Setting parameter alchLambda to 0.4999999999999996
Info: NONBONDED TABLE R-SQUARED SPACING: 0.0625
Info: NONBONDED TABLE SIZE: 705 POINTS
TCL: Setting parameter alchLambda2 to 0.4499999999999996
Info: NONBONDED TABLE R-SQUARED SPACING: 0.0625
Info: NONBONDED TABLE SIZE: 705 POINTS
TCL: Running for 1500000 steps
ETITLE: TS BOND ANGLE DIHED IMPRP ELECT VDW BOUNDARY MISC KINETIC TOTAL TEMP POTENTIAL TOTALAVG TEMPAVG PRESSURE GPRESSURE VOLUME PRESSAVG GPRESSAVG
ENERGY: 0 0.7158 5.0944 9.1006 0.0000 -10898.8458 1467.0918 0.0000 0.0000 1744.4740 -7672.3693 293.5984 -9416.8433 -7672.3693 293.5984 20.5660 108.3813 30506.1954 20.5660 108.3813
ENERGY: 300000 1.4580 7.9469 7.5686 0.0000 -10853.4150 1481.7679 0.0000 0.0000 1752.6665 -7602.0072 294.9772 -9354.6737 -7624.1603 296.5034 187.7803 259.0178 30680.7197 155.0858 227.8329
ENERGY: 600000 0.5565 4.0605 11.1475 0.0000 -10804.2800 1363.1473 0.0000 0.0000 1784.7734 -7640.5949 300.3809 -9425.3682 -7609.9088 299.0447 -932.4020 -842.0203 30469.6686 -88.4844 -13.8625
ENERGY: 900000 0.4857 1.3296 10.3111 0.0000 -10839.1089 1498.1576 0.0000 0.0000 1775.2490 -7553.5760 298.7779 -9328.8250 -7596.4735 299.5081 273.0127 366.4402 31005.9955 -100.5361 -30.2996
ENERGY: 1200000 0.6801 2.9842 10.3872 0.0000 -10836.7210 1443.5566 0.0000 0.0000 1757.0116 -7622.1013 295.7085 -9379.1129 -7593.3676 300.4140 -56.4882 -30.4950 30834.9342 -44.7052 16.2113
ENERGY: 1500000 0.7938 4.1975 8.7875 0.0000 -10754.1775 1446.5163 0.0000 0.0000 1776.9315 -7516.9510 299.0611 -9293.8825 -7583.5511 300.1900 -153.4915 -67.7484 31326.6964 -96.5490 -31.6947
TCL: Running FEP window  12: Lambda1 0.4499999999999996 Lambda2 0.39999999999999963 [dLambda -0.04999999999999999]
TCL: Setting parameter firsttimestep to 0
TCL: Setting parameter alchLambda to 0.4499999999999996
Info: NONBONDED TABLE R-SQUARED SPACING: 0.0625
Info: NONBONDED TABLE SIZE: 705 POINTS
TCL: Setting parameter alchLambda2 to 0.39999999999999963
Info: NONBONDED TABLE R-SQUARED SPACING: 0.0625
Info: NONBONDED TABLE SIZE: 705 POINTS
TCL: Running for 1500000 steps
ETITLE: TS BOND ANGLE DIHED IMPRP ELECT VDW BOUNDARY MISC KINETIC TOTAL TEMP POTENTIAL TOTALAVG TEMPAVG PRESSURE GPRESSURE VOLUME PRESSAVG GPRESSAVG
ENERGY: 0 0.7938 4.1975 8.7875 0.0000 -10754.1781 1446.8687 0.0000 0.0000 1775.9972 -7517.5335 298.9038 -9293.5307 -7517.5335 298.9038 -147.1784 -64.0842 31326.6964 -147.1784 -64.0842
ENERGY: 300000 0.8074 3.1923 7.4511 0.0000 -10777.4583 1413.8220 0.0000 0.0000 1761.3077 -7590.8779 296.4315 -9352.1855 -7552.3342 297.3345 -549.6568 -515.7955 31162.0764 -205.1393 -160.1374
ENERGY: 600000 0.5124 4.9084 8.8717 0.0000 -10740.0617 1389.7666 0.0000 0.0000 1763.9818 -7572.0209 296.8816 -9336.0027 -7573.5893 297.5542 -536.5798 -485.2517 30816.1909 -121.1297 -62.6290
ENERGY: 900000 0.8078 6.0821 7.3955 0.0000 -10788.0659 1453.2793 0.0000 0.0000 1830.7787 -7489.7225 308.1237 -9320.5011 -7557.8398 300.7930 -224.0428 -171.4582 31186.3085 -211.8542 -144.9400
ENERGY: 1200000 0.0047 3.1010 8.2287 0.0000 -10851.6079 1467.3372 0.0000 0.0000 1845.3139 -7527.6224 310.5700 -9372.9363 -7552.0260 301.7126 -26.0534 28.6138 31036.3949 -159.1072 -89.5150
ENERGY: 1500000 0.4777 4.1036 7.5909 0.0000 -10925.2163 1543.8252 0.0000 0.0000 1820.7658 -7548.4532 306.4385 -9369.2190 -7561.8483 301.7476 549.0451 672.2376 30463.7436 -133.2040 -61.9461
TCL: Running FEP window  13: Lambda1 0.39999999999999963 Lambda2 0.34999999999999964 [dLambda -0.04999999999999999]
TCL: Setting parameter firsttimestep to 0
TCL: Setting parameter alchLambda to 0.39999999999999963
Info: NONBONDED TABLE R-SQUARED SPACING: 0.0625
Info: NONBONDED TABLE SIZE: 705 POINTS
TCL: Setting parameter alchLambda2 to 0.34999999999999964
Info: NONBONDED TABLE R-SQUARED SPACING: 0.0625
Info: NONBONDED TABLE SIZE: 705 POINTS
TCL: Running for 1500000 steps
ETITLE: TS BOND ANGLE DIHED IMPRP ELECT VDW BOUNDARY MISC KINETIC TOTAL TEMP POTENTIAL TOTALAVG TEMPAVG PRESSURE GPRESSURE VOLUME PRESSAVG GPRESSAVG
ENERGY: 0 0.4777 4.1036 7.5909 0.0000 -10925.2146 1544.0589 0.0000 0.0000 1819.8831 -7549.1006 306.2899 -9368.9837 -7549.1006 306.2899 583.4718 667.2946 30463.7436 583.4718 667.2946
ENERGY: 300000 0.6283 3.0476 7.6166 0.0000 -10980.8383 1573.9917 0.0000 0.0000 1771.8519 -7623.7022 298.2062 -9395.5541 -7582.0849 300.7346 830.4640 884.8863 30637.6985 177.1604 244.0504
ENERGY: 600000 0.8532 7.1350 8.8854 0.0000 -10801.5586 1437.6668 0.0000 0.0000 1818.8430 -7528.1751 306.1149 -9347.0182 -7551.0709 303.4452 -146.2499 -117.2552 30805.9674 4.0254 63.7084
ENERGY: 900000 1.5899 3.6856 7.4869 0.0000 -10843.3956 1503.1512 0.0000 0.0000 1751.4886 -7575.9935 294.7790 -9327.4820 -7570.2344 301.0826 335.7172 351.2487 30792.8575 -29.2082 26.7316
ENERGY: 1200000 1.0286 2.2758 7.7754 0.0000 -10669.6288 1386.6067 0.0000 0.0000 1713.3361 -7558.6061 288.3578 -9271.9422 -7564.2874 300.2396 -572.9790 -549.2754 31130.3323 -59.1966 -0.8939
ENERGY: 1500000 3.2971 2.1243 9.0149 0.0000 -10766.5889 1387.4447 0.0000 0.0000 1808.2478 -7556.4601 304.3317 -9364.7079 -7565.8183 300.2796 -431.1948 -361.5106 30483.0888 -98.7725 -35.1145
TCL: Running FEP window  14: Lambda1 0.34999999999999964 Lambda2 0.29999999999999966 [dLambda -0.04999999999999999]
TCL: Setting parameter firsttimestep to 0
TCL: Setting parameter alchLambda to 0.34999999999999964
Info: NONBONDED TABLE R-SQUARED SPACING: 0.0625
Info: NONBONDED TABLE SIZE: 705 POINTS
TCL: Setting parameter alchLambda2 to 0.29999999999999966
Info: NONBONDED TABLE R-SQUARED SPACING: 0.0625
Info: NONBONDED TABLE SIZE: 705 POINTS
TCL: Running for 1500000 steps
ETITLE: TS BOND ANGLE DIHED IMPRP ELECT VDW BOUNDARY MISC KINETIC TOTAL TEMP POTENTIAL TOTALAVG TEMPAVG PRESSURE GPRESSURE VOLUME PRESSAVG GPRESSAVG
ENERGY: 0 3.2971 2.1243 9.0149 0.0000 -10766.5898 1387.7316 0.0000 0.0000 1807.3595 -7557.0624 304.1822 -9364.4218 -7557.0624 304.1822 -451.4269 -363.3199 30483.0888 -451.4269 -363.3199
ENERGY: 300000 0.5711 3.5616 7.6874 0.0000 -10968.5798 1499.5555 0.0000 0.0000 1778.3018 -7678.9023 299.2917 -9457.2042 -7541.7932 305.2460 -64.1627 46.8927 30470.3574 -295.5466 -227.3079
ENERGY: 600000 1.0113 2.1566 8.8879 0.0000 -10713.4295 1385.7130 0.0000 0.0000 1825.9084 -7489.7523 307.3040 -9315.6606 -7535.1701 304.6205 -679.3153 -634.8718 31171.6196 -266.8125 -193.3762
ENERGY: 900000 1.1244 4.8035 7.5226 0.0000 -10754.8628 1387.0956 0.0000 0.0000 1793.9746 -7560.3421 301.9295 -9354.3168 -7530.5086 304.1352 -709.1757 -673.3454 31118.4979 -299.7939 -236.6654
ENERGY: 1200000 0.6029 3.7160 7.7899 0.0000 -10715.6159 1396.4443 0.0000 0.0000 1808.3840 -7498.6788 304.3546 -9307.0628 -7531.2911 304.3525 -577.8542 -538.6749 31552.1166 -267.2829 -199.0704
ENERGY: 1500000 2.4165 4.3046 9.0116 0.0000 -10874.7374 1438.7768 0.0000 0.0000 1795.7602 -7624.4679 302.2300 -9420.2280 -7538.2916 303.3226 -434.1417 -409.7016 30754.8790 -302.5962 -241.4935
TCL: Running FEP window  15: Lambda1 0.29999999999999966 Lambda2 0.24999999999999967 [dLambda -0.04999999999999999]
TCL: Setting parameter firsttimestep to 0
TCL: Setting parameter alchLambda to 0.29999999999999966
Info: NONBONDED TABLE R-SQUARED SPACING: 0.0625
Info: NONBONDED TABLE SIZE: 705 POINTS
TCL: Setting parameter alchLambda2 to 0.24999999999999967
Info: NONBONDED TABLE R-SQUARED SPACING: 0.0625
Info: NONBONDED TABLE SIZE: 705 POINTS
TCL: Running for 1500000 steps
ETITLE: TS BOND ANGLE DIHED IMPRP ELECT VDW BOUNDARY MISC KINETIC TOTAL TEMP POTENTIAL TOTALAVG TEMPAVG PRESSURE GPRESSURE VOLUME PRESSAVG GPRESSAVG
ENERGY: 0 2.4165 4.3046 9.0116 0.0000 -10874.7385 1439.0912 0.0000 0.0000 1794.8772 -7625.0375 302.0814 -9419.9147 -7625.0375 302.0814 -486.9037 -407.3135 30754.8790 -486.9037 -407.3135
ENERGY: 300000 0.3976 6.0939 7.7851 0.0000 -10926.3632 1527.6794 0.0000 0.0000 1770.5021 -7613.9051 297.9790 -9384.4072 -7607.5669 301.6991 491.2698 627.6857 30529.2786 165.4537 244.1910
ENERGY: 600000 0.4236 5.2324 8.2449 0.0000 -10940.9015 1479.3296 0.0000 0.0000 1861.1112 -7586.5598 313.2287 -9447.6711 -7613.1231 302.6920 339.3930 350.1168 29834.8145 288.7178 356.9637
ENERGY: 900000 0.7413 2.4737 9.5241 0.0000 -10708.0379 1411.7773 0.0000 0.0000 1763.3395 -7520.1821 296.7735 -9283.5216 -7593.3464 301.9135 -233.2949 -180.3966 31012.4715 210.9780 257.1164
ENERGY: 1200000 0.8853 4.5834 8.0963 0.0000 -10850.0724 1414.3767 0.0000 0.0000 1779.5956 -7642.5351 299.5094 -9422.1307 -7592.7433 302.3484 -432.2913 -398.0930 30794.3520 231.5549 279.1883
ENERGY: 1500000 0.1474 3.7566 6.8173 0.0000 -10878.3078 1491.6760 0.0000 0.0000 1835.8850 -7540.0254 308.9831 -9375.9104 -7594.3678 302.7891 165.8334 272.2289 30789.8193 227.0308 274.4843
TCL: Running FEP window  16: Lambda1 0.24999999999999967 Lambda2 0.19999999999999968 [dLambda -0.04999999999999999]
TCL: Setting parameter firsttimestep to 0
TCL: Setting parameter alchLambda to 0.24999999999999967
Info: NONBONDED TABLE R-SQUARED SPACING: 0.0625
Info: NONBONDED TABLE SIZE: 705 POINTS
TCL: Setting parameter alchLambda2 to 0.19999999999999968
Info: NONBONDED TABLE R-SQUARED SPACING: 0.0625
Info: NONBONDED TABLE SIZE: 705 POINTS
TCL: Running for 1500000 steps
ETITLE: TS BOND ANGLE DIHED IMPRP ELECT VDW BOUNDARY MISC KINETIC TOTAL TEMP POTENTIAL TOTALAVG TEMPAVG PRESSURE GPRESSURE VOLUME PRESSAVG GPRESSAVG
ENERGY: 0 0.1474 3.7566 6.8173 0.0000 -10878.3058 1491.8331 0.0000 0.0000 1834.9952 -7540.7562 308.8333 -9375.7514 -7540.7562 308.8333 186.0165 270.7656 30789.8193 186.0165 270.7656
ENERGY: 300000 1.7938 4.7561 10.2764 0.0000 -10679.9428 1352.5413 0.0000 0.0000 1726.2251 -7584.3501 290.5271 -9310.5752 -7554.7242 304.5772 -989.1168 -902.9761 31062.9336 -322.5185 -256.8547
ENERGY: 600000 0.7035 2.9330 7.7181 0.0000 -10705.6978 1368.9600 0.0000 0.0000 1804.6084 -7520.7748 303.7191 -9325.3832 -7561.9807 303.2008 -834.8612 -712.1557 31102.2975 -357.0336 -295.8943
ENERGY: 900000 1.3223 3.9411 7.8402 0.0000 -10764.2786 1420.1605 0.0000 0.0000 1749.2648 -7581.7497 294.4047 -9331.0144 -7556.7890 301.7777 -161.4390 -128.7075 30706.1307 -338.4390 -271.6432
ENERGY: 1200000 1.5335 3.3009 8.6633 0.0000 -10922.0742 1463.4545 0.0000 0.0000 1751.9767 -7693.1454 294.8611 -9445.1221 -7580.0038 300.6160 -298.3090 -225.5823 30751.9965 -294.2631 -236.0585
ENERGY: 1500000 0.4041 5.3624 8.5326 0.0000 -10871.3218 1503.2229 0.0000 0.0000 1787.9871 -7565.8126 300.9218 -9353.7997 -7575.0875 301.2723 364.8149 420.1101 30844.5480 -97.2645 -41.5950
TCL: Running FEP window  17: Lambda1 0.19999999999999968 Lambda2 0.1499999999999997 [dLambda -0.04999999999999999]
TCL: Setting parameter firsttimestep to 0
TCL: Setting parameter alchLambda to 0.19999999999999968
Info: NONBONDED TABLE R-SQUARED SPACING: 0.0625
Info: NONBONDED TABLE SIZE: 705 POINTS
TCL: Setting parameter alchLambda2 to 0.1499999999999997
Info: NONBONDED TABLE R-SQUARED SPACING: 0.0625
Info: NONBONDED TABLE SIZE: 705 POINTS
TCL: Running for 1500000 steps
ETITLE: TS BOND ANGLE DIHED IMPRP ELECT VDW BOUNDARY MISC KINETIC TOTAL TEMP POTENTIAL TOTALAVG TEMPAVG PRESSURE GPRESSURE VOLUME PRESSAVG GPRESSAVG
ENERGY: 0 0.4041 5.3624 8.5326 0.0000 -10871.3221 1503.4576 0.0000 0.0000 1787.1362 -7566.4292 300.7785 -9353.5654 -7566.4292 300.7785 330.4665 419.1004 30844.5480 330.4665 419.1004
ENERGY: 300000 1.2006 4.4581 10.7560 0.0000 -10777.5006 1411.0621 0.0000 0.0000 1782.8844 -7567.1393 300.0630 -9350.0238 -7568.2243 301.2270 -574.1610 -461.4426 31121.0083 -149.6972 -76.0256
ENERGY: 600000 0.5171 2.4101 7.5918 0.0000 -10743.1790 1383.0833 0.0000 0.0000 1787.2088 -7562.3679 300.7908 -9349.5767 -7585.3949 299.3403 -557.0515 -510.7003 30753.2676 -189.2371 -117.2589
ENERGY: 900000 0.4236 3.3112 8.1528 0.0000 -10916.2899 1500.3686 0.0000 0.0000 1757.1109 -7646.9228 295.7252 -9404.0337 -7582.0450 299.0406 228.9076 243.3895 30859.0941 -117.1435 -52.7428
ENERGY: 1200000 0.1415 4.0742 8.8303 0.0000 -11013.1033 1531.3057 0.0000 0.0000 1770.8646 -7697.8870 298.0400 -9468.7516 -7596.2399 298.4466 527.3202 560.1056 30201.5675 27.5853 81.5871
ENERGY: 1500000 0.9584 5.8181 7.0393 0.0000 -10881.6819 1508.7371 0.0000 0.0000 1777.6194 -7581.5095 299.1768 -9359.1289 -7592.0473 298.3811 457.4638 531.3231 30641.3065 86.4103 135.4160
TCL: Running FEP window  18: Lambda1 0.1499999999999997 Lambda2 0.09999999999999969 [dLambda -0.05 ]
TCL: Setting parameter firsttimestep to 0
TCL: Setting parameter alchLambda to 0.1499999999999997
Info: NONBONDED TABLE R-SQUARED SPACING: 0.0625
Info: NONBONDED TABLE SIZE: 705 POINTS
TCL: Setting parameter alchLambda2 to 0.09999999999999969
Info: NONBONDED TABLE R-SQUARED SPACING: 0.0625
Info: NONBONDED TABLE SIZE: 705 POINTS
TCL: Running for 1500000 steps
ETITLE: TS BOND ANGLE DIHED IMPRP ELECT VDW BOUNDARY MISC KINETIC TOTAL TEMP POTENTIAL TOTALAVG TEMPAVG PRESSURE GPRESSURE VOLUME PRESSAVG GPRESSAVG
ENERGY: 0 0.9584 5.8182 7.0393 0.0000 -10881.6810 1508.9465 0.0000 0.0000 1776.6907 -7582.2278 299.0206 -9358.9186 -7582.2278 299.0206 449.2934 531.5167 30641.3065 449.2934 531.5167
ENERGY: 300000 0.9514 5.6478 9.8318 0.0000 -10837.3400 1493.6476 0.0000 0.0000 1812.5360 -7514.7254 305.0534 -9327.2614 -7523.2564 302.6707 169.1459 203.8924 31146.2998 105.7422 182.4672
ENERGY: 600000 0.6632 3.5835 9.4980 0.0000 -10707.3049 1375.1079 0.0000 0.0000 1794.4563 -7523.9959 302.0105 -9318.4523 -7537.5283 301.8139 -399.5578 -329.2142 30533.8602 69.1604 143.8128
ENERGY: 900000 2.6564 2.8221 8.7974 0.0000 -10879.8177 1501.0243 0.0000 0.0000 1749.1663 -7615.3512 294.3881 -9364.5175 -7558.9397 300.6302 145.1748 158.8070 30721.5776 61.4779 132.6242
ENERGY: 1200000 1.1901 2.4643 7.4287 0.0000 -10692.6707 1354.4208 0.0000 0.0000 1847.7975 -7479.3693 310.9880 -9327.1668 -7548.2314 301.6647 -891.3935 -820.5172 31336.5484 -27.6973 46.0045
ENERGY: 1500000 0.7096 10.5909 7.8675 0.0000 -10797.4695 1445.8326 0.0000 0.0000 1837.3255 -7495.1435 309.2255 -9332.4689 -7545.6744 301.5781 -45.0790 21.8140 30717.8705 69.6529 134.3341
TCL: Running FEP window  19: Lambda1 0.09999999999999969 Lambda2 0.049999999999999684 [dLambda -0.05 ]
TCL: Setting parameter firsttimestep to 0
TCL: Setting parameter alchLambda to 0.09999999999999969
Info: NONBONDED TABLE R-SQUARED SPACING: 0.0625
Info: NONBONDED TABLE SIZE: 705 POINTS
TCL: Setting parameter alchLambda2 to 0.049999999999999684
Info: NONBONDED TABLE R-SQUARED SPACING: 0.0625
Info: NONBONDED TABLE SIZE: 705 POINTS
TCL: Running for 1500000 steps
ETITLE: TS BOND ANGLE DIHED IMPRP ELECT VDW BOUNDARY MISC KINETIC TOTAL TEMP POTENTIAL TOTALAVG TEMPAVG PRESSURE GPRESSURE VOLUME PRESSAVG GPRESSAVG
ENERGY: 0 0.7096 10.5909 7.8675 0.0000 -10797.4698 1445.6627 0.0000 0.0000 1836.4505 -7496.1886 309.0782 -9332.6391 -7496.1886 309.0782 -73.2509 17.5796 30717.8705 -73.2509 17.5796
ENERGY: 300000 0.7316 2.9740 8.0564 0.0000 -10899.6894 1512.6954 0.0000 0.0000 1760.4752 -7614.7567 296.2914 -9375.2319 -7545.4617 305.4419 413.5078 551.3298 30270.9954 -38.5537 56.6133
ENERGY: 600000 0.1363 4.0882 8.0672 0.0000 -10891.0354 1462.3835 0.0000 0.0000 1781.5530 -7634.8073 299.8389 -9416.3603 -7580.9224 302.0672 -270.5441 -150.9620 30991.6230 79.0659 152.9769
ENERGY: 900000 2.6055 6.7377 8.8840 0.0000 -10906.8539 1483.1919 0.0000 0.0000 1751.7701 -7653.6648 294.8264 -9405.4349 -7587.3546 300.7428 -86.2094 5.7812 30556.2349 115.9756 192.0888
ENERGY: 1200000 0.6742 5.7524 8.7736 0.0000 -10757.6398 1384.7256 0.0000 0.0000 1795.2500 -7562.4640 302.1441 -9357.7141 -7581.7837 299.5590 -709.2452 -585.8050 31028.2207 -1.5577 77.1494
ENERGY: 1500000 0.6398 2.6845 9.2486 0.0000 -10911.0626 1539.5318 0.0000 0.0000 1784.8150 -7574.1428 300.3879 -9358.9578 -7584.0284 299.4336 550.3966 569.7933 30563.4128 -19.3252 50.3050
TCL: Running FEP window  20: Lambda1 0.049999999999999684 Lambda2 0.0    [dLambda -0.049999999999999684]
TCL: Setting parameter firsttimestep to 0
TCL: Setting parameter alchLambda to 0.049999999999999684
Info: NONBONDED TABLE R-SQUARED SPACING: 0.0625
Info: NONBONDED TABLE SIZE: 705 POINTS
TCL: Setting parameter alchLambda2 to 0.0
Info: NONBONDED TABLE R-SQUARED SPACING: 0.0625
Info: NONBONDED TABLE SIZE: 705 POINTS
TCL: Running for 1500000 steps
ETITLE: TS BOND ANGLE DIHED IMPRP ELECT VDW BOUNDARY MISC KINETIC TOTAL TEMP POTENTIAL TOTALAVG TEMPAVG PRESSURE GPRESSURE VOLUME PRESSAVG GPRESSAVG
ENERGY: 0 0.6397 2.6845 9.2486 0.0000 -10911.0634 1538.5536 0.0000 0.0000 1783.9969 -7575.9400 300.2502 -9359.9369 -7575.9400 300.2502 475.3420 565.1946 30563.4128 475.3420 565.1946
ENERGY: 300000 2.6591 2.5952 7.6528 0.0000 -10726.4971 1400.4649 0.0000 0.0000 1736.1333 -7576.9918 292.1947 -9313.1251 -7581.0659 297.7622 -403.7827 -340.6300 30752.2046 -192.4474 -113.2981
ENERGY: 600000 0.4524 3.0899 7.1397 0.0000 -10750.4175 1390.3633 0.0000 0.0000 1835.5158 -7513.8564 308.9209 -9349.3722 -7560.7616 302.2451 -682.2382 -646.6801 31136.1504 -139.6999 -72.0103
ENERGY: 900000 0.9903 4.3129 8.8158 0.0000 -10775.2061 1364.1319 0.0000 0.0000 1696.4421 -7700.5130 285.5146 -9396.9552 -7573.1176 301.1056 -999.4245 -870.7056 30891.6532 -93.6253 -19.3171
ENERGY: 1200000 0.9580 2.8591 7.7399 0.0000 -10920.6924 1507.6407 0.0000 0.0000 1802.4551 -7599.0396 303.3567 -9401.4947 -7575.4332 300.2541 228.7081 299.3122 30462.3821 -1.4851 78.5786
ENERGY: 1500000 0.6590 4.5327 7.6683 0.0000 -10812.3282 1440.5483 0.0000 0.0000 1753.0232 -7605.8967 295.0373 -9358.9199 -7573.1779 300.7129 -192.5407 -189.8058 30696.9006 -7.2864 59.0124
TCL: Exiting due to exit command.
