Info: SIMULATION PARAMETERS:
Info: TIMESTEP               2
Info: NUMBER OF STEPS        0
Info: STEPS PER CYCLE        10
Info: PERIODIC CELL BASIS 1  31.8035 0 0
Info: PERIODIC CELL BASIS 2  0 30.1208 0
Info: PERIODIC CELL BASIS 3  0 0 32.2301
Info: PERIODIC CELL CENTER   0 0 0
Info: WRAPPING WATERS AROUND PERIODIC BOUNDARIES ON OUTPUT.
Info: WRAPPING ALL CLUSTERS AROUND PERIODIC BOUNDARIES ON OUTPUT.
Info: FIRST LDB TIMESTEP     50
Info: LAST LDB TIMESTEP     -1
Info: HOM BACKGROUND SCALING 1
Info: PME BACKGROUND SCALING 1
Info: MIN ATOMS PER PATCH    40
Info: EMPTY PATCH LOAD       40 ATOMS
Info: VELOCITY FILE          mobley_5571660_equil.vel
Info: CENTER OF MASS MOVING INITIALLY? NO
Info: DIELECTRIC             1
Info: EXCLUDE                SCALED ONE-FOUR
Info: 1-4 ELECTROSTATICS SCALED BY 0.833333
Info: MODIFIED 1-4 VDW PARAMETERS WILL BE USED
Info: DCD FILENAME           mobley_5571660_prod.dcd
Info: DCD FREQUENCY          100000
Info: DCD FIRST STEP         100000
Info: DCD FILE WILL CONTAIN UNIT CELL DATA
Info: XST FILENAME           mobley_5571660_prod.xst
Info: XST FREQUENCY          100000
Info: NO VELOCITY DCD OUTPUT
Info: NO FORCE DCD OUTPUT
Info: OUTPUT FILENAME        mobley_5571660_prod
Info: BINARY OUTPUT FILES WILL BE USED
Info: RESTART FILENAME       mobley_5571660_prod.restart
Info: RESTART FREQUENCY      100000
Info: BINARY RESTART FILES WILL BE USED
Info: CUTOFF                 9
Info: PAIRLIST DISTANCE      11
Info: PAIRLIST SHRINK RATE   0.01
Info: PAIRLIST GROW RATE     0.01
Info: PAIRLIST TRIGGER       0.3
Info: PAIRLISTS PER CYCLE    2
Info: PAIRLISTS ENABLED
Info: MARGIN                 2
Info: HYDROGEN GROUP CUTOFF  2.5
Info: PATCH DIMENSION        15.5
Info: ENERGY OUTPUT STEPS    100000
Info: ENERGY EVALUATION STEPS    100000
Info: OUTPUT ENERGY PRECISION 4
Info: CROSSTERM ENERGY INCLUDED IN DIHEDRAL
Info: TIMING OUTPUT STEPS    1000000
Info: PRESSURE OUTPUT STEPS  100000
Info: ALCHEMICAL FEP ON
Info: FEP CURRENT LAMBDA VALUE     0
Info: FEP COMPARISON LAMBDA VALUE  0.05
Info: FEP INTRA-ALCHEMICAL NON-BONDED INTERACTIONS WILL BE RETAINED
Info: FEP INTRA-ALCHEMICAL BONDED INTERACTIONS WILL BE RETAINED
Info: FEP VDW SHIFTING COEFFICIENT 5
Info: FEP ELEC. ACTIVE FOR ANNIHILATED PARTICLES BETWEEN LAMBDA = 0 AND LAMBDA = 0.5
Info: FEP ELEC. ACTIVE FOR EXNIHILATED PARTICLES BETWEEN LAMBDA = 0.5 AND LAMBDA = 1
Info: FEP VDW ACTIVE FOR ANNIHILATED PARTICLES BETWEEN LAMBDA = 0 AND LAMBDA = 1
Info: FEP VDW ACTIVE FOR EXNIHILATED PARTICLES BETWEEN LAMBDA = 0 AND LAMBDA = 1
Info: FEP BOND ACTIVE FOR ANNIHILATED PARTICLES BETWEEN LAMBDA = 1 AND LAMBDA = 1
Info: FEP BOND ACTIVE FOR EXNIHILATED PARTICLES BETWEEN LAMBDA = 0 AND LAMBDA = 0
Info: LANGEVIN DYNAMICS ACTIVE
Info: LANGEVIN TEMPERATURE   300
Info: LANGEVIN USING BBK INTEGRATOR
Info: LANGEVIN DAMPING COEFFICIENT IS 1 INVERSE PS
Info: LANGEVIN DYNAMICS APPLIED TO HYDROGENS
Info: LANGEVIN PISTON PRESSURE CONTROL ACTIVE
Info:        TARGET PRESSURE IS 1.01325 BAR
Info:     OSCILLATION PERIOD IS 50 FS
Info:             DECAY TIME IS 25 FS
Info:     PISTON TEMPERATURE IS 300 K
Info:       PRESSURE CONTROL IS GROUP-BASED
Info:    INITIAL STRAIN RATE IS 5.57757e-05 5.57757e-05 5.57757e-05
Info:       CELL FLUCTUATION IS ISOTROPIC
Info: PARTICLE MESH EWALD (PME) ACTIVE
Info: PME TOLERANCE               1e-06
Info: PME EWALD COEFFICIENT       0.348832
Info: PME INTERPOLATION ORDER     4
Info: PME GRID DIMENSIONS         32 32 36
Info: PME MAXIMUM GRID SPACING    1
Info: PME CALCULATION WILL BE PERFORMED ON GPU
Info: FULL ELECTROSTATIC EVALUATION FREQUENCY      2
Info: USING VERLET I (r-RESPA) MTS SCHEME.
Info: C1 SPLITTING OF LONG RANGE ELECTROSTATICS
Info: PLACING ATOMS IN PATCHES BY HYDROGEN GROUPS
Info: RIGID BONDS TO HYDROGEN : ALL
Info:         ERROR TOLERANCE : 1e-08
Info:          MAX ITERATIONS : 100
Info: RIGID WATER USING SETTLE ALGORITHM
Info: RANDOM NUMBER SEED     1743621088
Info: USE HYDROGEN BONDS?    NO
Info: Using AMBER format force field!
Info: AMBER PARM FILE        mobley_5571660.prmtop
Info: COORDINATE PDB         mobley_5571660.pdb
Info: Exclusions will be read from PARM file!
Info: SCNB (VDW SCALING)     2
Info: USING ARITHMETIC MEAN TO COMBINE L-J SIGMA PARAMETERS
Info: BINARY COORDINATES     mobley_5571660_equil.coor
Info: SUMMARY OF PARAMETERS:
Info: 8 BONDS
Info: 8 ANGLES
Info:   8 HARMONIC
Info:   0 COSINE-BASED
Info: 4 DIHEDRAL
Info: 0 IMPROPER
Info: 0 CROSSTERM
Info: 0 VDW
Info: 36 VDW_PAIRS
Info: 0 NBTHOLE_PAIRS
Info: To read alchdata from file: mobley_5571660.pdb
Info: To read alchflag data from column: 5
Info: STRUCTURE SUMMARY:
Info: 2987 ATOMS
Info: 2987 BONDS
Info: 33 ANGLES
Info: 47 DIHEDRALS
Info: 0 IMPROPERS
Info: 0 CROSSTERMS
Info: 3057 EXCLUSIONS
Info: 2978 RIGID BONDS
Info: ALCH: 0 ATOMS TO DISAPPEAR IN FINAL STATE
Info: ALCH: 20 ATOMS TO APPEAR IN FINAL STATE
Info: 5983 DEGREES OF FREEDOM
Info: 998 HYDROGEN GROUPS
Info: 4 ATOMS IN LARGEST HYDROGEN GROUP
Info: 998 MIGRATION GROUPS
Info: 4 ATOMS IN LARGEST MIGRATION GROUP
Info: TOTAL MASS = 17939 amu
Info: TOTAL CHARGE = -9.99719e-05 e
Info: MASS DENSITY = 0.964839 g/cm^3
Info: ATOM DENSITY = 0.0967459 atoms/A^3
Info: ADDED 0 IMPLICIT EXCLUSIONS
Info: NONBONDED TABLE R-SQUARED SPACING: 0.0625
Info: NONBONDED TABLE SIZE: 705 POINTS
Info: REMOVING COM VELOCITY -0.0895152 0.0187335 0.0194338
Info: Use 3D box decompostion in PME FFT.
Info: Updated CUDA force table with 4096 elements.
Info: Updated CUDA LJ table with 8 x 8 elements.
Info: Found 21 unique exclusion lists needing 56 bytes
TCL: Running for 1500000 steps
ETITLE: TS BOND ANGLE DIHED IMPRP ELECT VDW BOUNDARY MISC KINETIC TOTAL TEMP POTENTIAL TOTALAVG TEMPAVG PRESSURE GPRESSURE VOLUME PRESSAVG GPRESSAVG
ENERGY: 0 5.2782 8.2435 6.2338 0.0000 -10706.8261 1394.9468 0.0000 0.0000 1779.6926 -7512.4313 299.3756 -9292.1240 -7512.4313 299.3756 -469.4715 -399.5247 30874.6826 -469.4715 -399.5247
ENERGY: 300000 1.5855 8.5768 6.0909 0.0000 -10742.8366 1442.7864 0.0000 0.0000 1777.8776 -7505.9195 299.0703 -9283.7970 -7556.2917 296.5262 119.3259 182.0593 30419.8823 133.0353 210.3548
ENERGY: 600000 2.1281 6.1017 5.9953 0.0000 -10856.8843 1471.2070 0.0000 0.0000 1770.6673 -7600.7850 297.8574 -9371.4523 -7536.3276 299.6508 215.9174 253.1924 30455.6447 45.4394 111.2866
ENERGY: 900000 5.5007 3.8991 4.7846 0.0000 -10740.3056 1439.3724 0.0000 0.0000 1804.1515 -7482.5973 303.4900 -9286.7488 -7547.3004 299.2938 -116.4916 -86.9757 30789.2391 -11.9764 43.1549
ENERGY: 1200000 3.5409 7.1987 6.7564 0.0000 -10887.9848 1499.7944 0.0000 0.0000 1781.7258 -7588.9686 299.7176 -9370.6945 -7556.6619 299.4929 195.6422 313.5222 30442.4542 47.2883 114.8150
ENERGY: 1500000 3.5896 4.9220 3.0278 0.0000 -10906.9917 1460.3758 0.0000 0.0000 1765.2492 -7669.8273 296.9459 -9435.0765 -7569.4138 299.5999 -347.7610 -291.9399 30777.8675 2.8715 71.6324
TCL: Running FEP window   2: Lambda1 0.05   Lambda2 0.1    [dLambda 0.05  ]
TCL: Setting parameter firsttimestep to 0
TCL: Setting parameter alchLambda to 0.05
Info: NONBONDED TABLE R-SQUARED SPACING: 0.0625
Info: NONBONDED TABLE SIZE: 705 POINTS
TCL: Setting parameter alchLambda2 to 0.1
Info: NONBONDED TABLE R-SQUARED SPACING: 0.0625
Info: NONBONDED TABLE SIZE: 705 POINTS
TCL: Running for 1500000 steps
ETITLE: TS BOND ANGLE DIHED IMPRP ELECT VDW BOUNDARY MISC KINETIC TOTAL TEMP POTENTIAL TOTALAVG TEMPAVG PRESSURE GPRESSURE VOLUME PRESSAVG GPRESSAVG
ENERGY: 0 3.5896 4.9220 3.0278 0.0000 -10906.9914 1463.4098 0.0000 0.0000 1764.3569 -7667.6853 296.7959 -9432.0422 -7667.6853 296.7959 -362.7602 -285.8648 30777.8675 -362.7602 -285.8648
ENERGY: 300000 3.0803 4.7609 5.3176 0.0000 -10718.6128 1403.3946 0.0000 0.0000 1815.2423 -7486.8171 305.3557 -9302.0594 -7584.6171 300.5767 -573.9037 -465.5252 31232.2891 -257.1905 -177.2595
ENERGY: 600000 5.8481 4.0071 1.5447 0.0000 -10768.6711 1483.2618 0.0000 0.0000 1829.4460 -7444.5635 307.7450 -9274.0094 -7557.3559 301.3080 261.6726 278.0591 30580.6926 -272.9788 -205.8709
ENERGY: 900000 3.4897 8.7984 3.3195 0.0000 -10956.7566 1525.7566 0.0000 0.0000 1744.8481 -7670.5443 293.5141 -9415.3924 -7574.8148 300.7653 386.9255 421.4745 30232.8240 -143.9197 -75.3470
ENERGY: 1200000 1.0465 5.0075 3.3015 0.0000 -10771.5299 1472.2490 0.0000 0.0000 1770.3931 -7519.5323 297.8112 -9289.9254 -7570.0845 301.0117 333.0671 428.2591 30639.8192 -112.8637 -38.5828
ENERGY: 1500000 4.4049 8.1037 3.8723 0.0000 -10809.4300 1435.1309 0.0000 0.0000 1801.7464 -7556.1717 303.0854 -9357.9181 -7566.1586 300.9373 39.9752 56.4842 30387.6451 -43.5381 23.3509
TCL: Running FEP window   3: Lambda1 0.1    Lambda2 0.15000000000000002 [dLambda 0.05000000000000002]
TCL: Setting parameter firsttimestep to 0
TCL: Setting parameter alchLambda to 0.1
Info: NONBONDED TABLE R-SQUARED SPACING: 0.0625
Info: NONBONDED TABLE SIZE: 705 POINTS
TCL: Setting parameter alchLambda2 to 0.15000000000000002
Info: NONBONDED TABLE R-SQUARED SPACING: 0.0625
Info: NONBONDED TABLE SIZE: 705 POINTS
TCL: Running for 1500000 steps
ETITLE: TS BOND ANGLE DIHED IMPRP ELECT VDW BOUNDARY MISC KINETIC TOTAL TEMP POTENTIAL TOTALAVG TEMPAVG PRESSURE GPRESSURE VOLUME PRESSAVG GPRESSAVG
ENERGY: 0 4.4049 8.1037 3.8723 0.0000 -10809.4322 1439.4451 0.0000 0.0000 1800.8694 -7552.7368 302.9379 -9353.6063 -7552.7368 302.9379 4.1890 71.0208 30387.6451 4.1890 71.0208
ENERGY: 300000 4.2424 5.0604 4.7167 0.0000 -10695.0735 1347.5110 0.0000 0.0000 1815.8087 -7517.7343 305.4509 -9333.5430 -7583.5775 298.4634 -1092.3514 -1003.9671 31084.4087 -357.2427 -309.8255
ENERGY: 600000 3.2807 8.5803 1.1589 0.0000 -10809.6478 1438.9139 0.0000 0.0000 1770.0630 -7587.6509 297.7557 -9357.7140 -7595.7880 296.8192 -101.6543 -62.0328 30301.0857 -213.1732 -152.8468
ENERGY: 900000 2.2095 9.7093 3.7423 0.0000 -10818.2778 1416.8763 0.0000 0.0000 1795.1834 -7590.5570 301.9814 -9385.7404 -7603.6339 296.3966 -357.8319 -229.1616 30402.9600 -195.2545 -130.4726
ENERGY: 1200000 3.8484 6.8556 4.8895 0.0000 -10769.3507 1433.1740 0.0000 0.0000 1800.1088 -7520.4744 302.8100 -9320.5832 -7581.2643 298.1175 -159.5805 -119.7264 30707.4775 -205.8753 -139.5516
ENERGY: 1500000 3.8657 8.5268 2.3767 0.0000 -10740.3156 1477.1543 0.0000 0.0000 1859.3736 -7389.0185 312.7793 -9248.3921 -7569.6021 299.6825 438.2526 485.5450 30511.2237 -106.7729 -35.0125
TCL: Running FEP window   4: Lambda1 0.15000000000000002 Lambda2 0.2    [dLambda 0.04999999999999999]
TCL: Setting parameter firsttimestep to 0
TCL: Setting parameter alchLambda to 0.15000000000000002
Info: NONBONDED TABLE R-SQUARED SPACING: 0.0625
Info: NONBONDED TABLE SIZE: 705 POINTS
TCL: Setting parameter alchLambda2 to 0.2
Info: NONBONDED TABLE R-SQUARED SPACING: 0.0625
Info: NONBONDED TABLE SIZE: 705 POINTS
TCL: Running for 1500000 steps
ETITLE: TS BOND ANGLE DIHED IMPRP ELECT VDW BOUNDARY MISC KINETIC TOTAL TEMP POTENTIAL TOTALAVG TEMPAVG PRESSURE GPRESSURE VOLUME PRESSAVG GPRESSAVG
ENERGY: 0 3.8657 8.5268 2.3767 0.0000 -10740.3166 1479.7323 0.0000 0.0000 1858.4709 -7387.3441 312.6275 -9245.8150 -7387.3441 312.6275 409.5203 497.3052 30511.2237 409.5203 497.3052
ENERGY: 300000 1.9570 6.2310 6.8858 0.0000 -10931.7816 1536.4053 0.0000 0.0000 1790.3745 -7589.9279 301.1725 -9380.3024 -7546.2267 301.4454 204.4029 293.6368 30875.7063 163.7488 245.7322
ENERGY: 600000 1.4466 4.8708 3.2430 0.0000 -10929.3941 1518.1976 0.0000 0.0000 1783.3375 -7618.2986 299.9887 -9401.6361 -7569.3228 299.0554 374.2470 365.3121 30517.1685 -9.3651 58.9537
ENERGY: 900000 3.6886 7.4311 2.5645 0.0000 -10909.6358 1487.5001 0.0000 0.0000 1767.5218 -7640.9296 297.3282 -9408.4514 -7582.1232 299.3474 80.5488 108.9524 30347.9720 -7.1074 66.8505
ENERGY: 1200000 1.3640 7.8749 3.6913 0.0000 -10618.2193 1328.8827 0.0000 0.0000 1746.4350 -7529.9714 293.7811 -9276.4064 -7566.7818 300.0876 -1028.5745 -1005.2957 31121.0684 -84.6521 -9.1698
ENERGY: 1500000 3.6438 3.1556 3.2122 0.0000 -10900.7051 1506.8986 0.0000 0.0000 1796.4814 -7587.3135 302.1997 -9383.7949 -7556.7291 301.0646 74.1558 173.7015 30451.1242 -99.5194 -21.3119
TCL: Running FEP window   5: Lambda1 0.2    Lambda2 0.25   [dLambda 0.04999999999999999]
TCL: Setting parameter firsttimestep to 0
TCL: Setting parameter alchLambda to 0.2
Info: NONBONDED TABLE R-SQUARED SPACING: 0.0625
Info: NONBONDED TABLE SIZE: 705 POINTS
TCL: Setting parameter alchLambda2 to 0.25
Info: NONBONDED TABLE R-SQUARED SPACING: 0.0625
Info: NONBONDED TABLE SIZE: 705 POINTS
TCL: Running for 1500000 steps
ETITLE: TS BOND ANGLE DIHED IMPRP ELECT VDW BOUNDARY MISC KINETIC TOTAL TEMP POTENTIAL TOTALAVG TEMPAVG PRESSURE GPRESSURE VOLUME PRESSAVG GPRESSAVG
ENERGY: 0 3.6438 3.1556 3.2122 0.0000 -10900.7040 1506.9247 0.0000 0.0000 1795.5812 -7588.1864 302.0483 -9383.7676 -7588.1864 302.0483 90.0741 176.3437 30451.1242 90.0741 176.3437
ENERGY: 300000 2.3853 9.7385 1.9428 0.0000 -10960.2588 1554.5147 0.0000 0.0000 1812.4997 -7579.1776 304.8943 -9391.6773 -7568.7311 299.2601 829.5748 857.7076 30438.4047 276.7544 313.6598
ENERGY: 600000 2.9423 9.6696 6.2146 0.0000 -10813.6708 1515.5090 0.0000 0.0000 1801.1053 -7478.2299 302.9776 -9279.3352 -7548.4091 301.5423 612.6532 725.2290 30686.1879 386.1661 445.4627
ENERGY: 900000 1.4301 6.7648 1.6967 0.0000 -10685.9209 1350.1426 0.0000 0.0000 1816.5789 -7509.3078 305.5805 -9325.8867 -7558.5856 301.4876 -841.7006 -767.8753 30895.9278 183.2261 235.1742
ENERGY: 1200000 5.5366 3.8765 2.8541 0.0000 -10729.4116 1416.4734 0.0000 0.0000 1786.7664 -7513.9046 300.5655 -9300.6710 -7559.1213 300.7959 45.4378 44.6958 30290.5716 84.2871 138.7368
ENERGY: 1500000 3.6326 6.4027 2.2141 0.0000 -10899.7576 1551.2968 0.0000 0.0000 1812.2522 -7523.9590 304.8527 -9336.2113 -7553.2454 301.5507 780.8952 835.8117 30713.5510 96.3031 152.6080
TCL: Running FEP window   6: Lambda1 0.25   Lambda2 0.3    [dLambda 0.04999999999999999]
TCL: Setting parameter firsttimestep to 0
TCL: Setting parameter alchLambda to 0.25
Info: NONBONDED TABLE R-SQUARED SPACING: 0.0625
Info: NONBONDED TABLE SIZE: 705 POINTS
TCL: Setting parameter alchLambda2 to 0.3
Info: NONBONDED TABLE R-SQUARED SPACING: 0.0625
Info: NONBONDED TABLE SIZE: 705 POINTS
TCL: Running for 1500000 steps
ETITLE: TS BOND ANGLE DIHED IMPRP ELECT VDW BOUNDARY MISC KINETIC TOTAL TEMP POTENTIAL TOTALAVG TEMPAVG PRESSURE GPRESSURE VOLUME PRESSAVG GPRESSAVG
ENERGY: 0 3.6326 6.4027 2.2141 0.0000 -10899.7569 1551.8639 0.0000 0.0000 1811.3619 -7524.2816 304.7029 -9335.6435 -7524.2816 304.7029 766.6286 842.1919 30713.5510 766.6286 842.1919
ENERGY: 300000 4.0087 8.0039 3.9166 0.0000 -10756.5094 1428.8287 0.0000 0.0000 1739.8716 -7571.8799 292.6770 -9311.7515 -7560.7902 298.3778 -280.1588 -173.1305 30797.4369 343.5350 418.5923
ENERGY: 600000 2.3385 7.1096 5.2547 0.0000 -10776.9150 1440.6383 0.0000 0.0000 1788.5149 -7533.0591 300.8596 -9321.5739 -7554.0570 299.3373 170.9165 193.3246 30286.9482 257.8624 329.3972
ENERGY: 900000 3.2173 3.6178 3.3904 0.0000 -10993.6027 1557.5247 0.0000 0.0000 1779.5107 -7646.3418 299.3450 -9425.8525 -7569.0213 298.6802 447.3038 492.1809 30741.7486 241.8054 315.4749
ENERGY: 1200000 2.9649 5.7760 2.1322 0.0000 -10829.0467 1431.1945 0.0000 0.0000 1844.4873 -7542.4918 310.2752 -9386.9791 -7572.3373 299.7698 -77.9063 -4.0035 30656.7591 210.1817 280.4596
ENERGY: 1500000 6.6049 11.0205 3.0722 0.0000 -10860.7340 1545.5233 0.0000 0.0000 1756.1040 -7538.4091 295.4076 -9294.5131 -7562.5654 300.4320 748.8042 854.8530 30371.3941 252.1369 318.9818
TCL: Running FEP window   7: Lambda1 0.3    Lambda2 0.35   [dLambda 0.04999999999999999]
TCL: Setting parameter firsttimestep to 0
TCL: Setting parameter alchLambda to 0.3
Info: NONBONDED TABLE R-SQUARED SPACING: 0.0625
Info: NONBONDED TABLE SIZE: 705 POINTS
TCL: Setting parameter alchLambda2 to 0.35
Info: NONBONDED TABLE R-SQUARED SPACING: 0.0625
Info: NONBONDED TABLE SIZE: 705 POINTS
TCL: Running for 1500000 steps
ETITLE: TS BOND ANGLE DIHED IMPRP ELECT VDW BOUNDARY MISC KINETIC TOTAL TEMP POTENTIAL TOTALAVG TEMPAVG PRESSURE GPRESSURE VOLUME PRESSAVG GPRESSAVG
ENERGY: 0 6.6049 11.0205 3.0722 0.0000 -10860.7318 1545.6245 0.0000 0.0000 1755.2080 -7539.2017 295.2568 -9294.4097 -7539.2017 295.2568 779.4222 861.8435 30371.3941 779.4222 861.8435
ENERGY: 300000 3.5136 8.0425 3.4952 0.0000 -10940.7541 1550.3721 0.0000 0.0000 1814.2512 -7561.0795 305.1889 -9375.3307 -7550.0502 301.5273 712.6448 727.6180 30458.7076 445.4714 489.8737
ENERGY: 600000 0.9305 6.4990 2.3168 0.0000 -10873.6559 1497.3597 0.0000 0.0000 1798.1392 -7568.4107 302.4786 -9366.5499 -7572.6141 301.2485 248.3545 362.5960 30681.7511 225.6372 273.6255
ENERGY: 900000 2.3347 8.7838 1.5839 0.0000 -10788.4460 1359.7891 0.0000 0.0000 1796.6347 -7619.3197 302.2255 -9415.9544 -7568.2043 301.0544 -1152.2332 -1038.0696 30892.9595 45.4617 88.7072
ENERGY: 1200000 1.5324 8.4599 4.5945 0.0000 -10857.5603 1518.5756 0.0000 0.0000 1824.4867 -7499.9112 306.9107 -9324.3979 -7570.9506 300.5388 812.8597 910.5436 30214.6396 30.5922 80.1893
ENERGY: 1500000 1.6413 8.8585 3.4740 0.0000 -10943.3697 1511.4251 0.0000 0.0000 1816.1360 -7601.8349 305.5060 -9417.9708 -7583.0589 299.7196 222.1121 296.9300 30450.9790 28.3257 81.0982
TCL: Running FEP window   8: Lambda1 0.35   Lambda2 0.39999999999999997 [dLambda 0.04999999999999999]
TCL: Setting parameter firsttimestep to 0
TCL: Setting parameter alchLambda to 0.35
Info: NONBONDED TABLE R-SQUARED SPACING: 0.0625
Info: NONBONDED TABLE SIZE: 705 POINTS
TCL: Setting parameter alchLambda2 to 0.39999999999999997
Info: NONBONDED TABLE R-SQUARED SPACING: 0.0625
Info: NONBONDED TABLE SIZE: 705 POINTS
TCL: Running for 1500000 steps
ETITLE: TS BOND ANGLE DIHED IMPRP ELECT VDW BOUNDARY MISC KINETIC TOTAL TEMP POTENTIAL TOTALAVG TEMPAVG PRESSURE GPRESSURE VOLUME PRESSAVG GPRESSAVG
ENERGY: 0 1.6413 8.8585 3.4740 0.0000 -10943.3694 1511.5755 0.0000 0.0000 1815.2432 -7602.5770 305.3558 -9417.8202 -7602.5770 305.3558 225.7762 307.0231 30450.9790 225.7762 307.0231
ENERGY: 300000 1.5113 5.5803 4.0741 0.0000 -10870.6015 1492.6279 0.0000 0.0000 1733.9525 -7632.8554 291.6813 -9366.8080 -7615.8103 300.0448 367.9164 398.0619 30528.0055 77.1887 166.3162
ENERGY: 600000 2.3811 8.3296 1.4790 0.0000 -10697.7733 1384.2317 0.0000 0.0000 1781.7330 -7519.6188 299.7188 -9301.3518 -7567.5911 302.4398 -742.9644 -688.1497 31261.7787 33.8250 106.5091
ENERGY: 900000 2.2833 6.5939 7.1564 0.0000 -10778.9535 1459.3555 0.0000 0.0000 1771.5789 -7531.9854 298.0107 -9303.5643 -7579.6292 301.3294 255.9932 333.4099 30559.5409 64.8563 133.4182
ENERGY: 1200000 3.0752 6.5739 1.3481 0.0000 -11081.8888 1676.6533 0.0000 0.0000 1793.6084 -7600.6299 301.7165 -9394.2383 -7572.3634 301.5997 1802.1812 1857.8373 30088.6009 184.6681 248.6893
ENERGY: 1500000 3.9945 7.6375 4.2436 0.0000 -10811.1380 1438.3764 0.0000 0.0000 1780.6570 -7576.2289 299.5378 -9356.8859 -7573.7836 301.7586 -123.5113 -75.3285 30540.1908 102.7420 164.0064
TCL: Running FEP window   9: Lambda1 0.39999999999999997 Lambda2 0.44999999999999996 [dLambda 0.04999999999999999]
TCL: Setting parameter firsttimestep to 0
TCL: Setting parameter alchLambda to 0.39999999999999997
Info: NONBONDED TABLE R-SQUARED SPACING: 0.0625
Info: NONBONDED TABLE SIZE: 705 POINTS
TCL: Setting parameter alchLambda2 to 0.44999999999999996
Info: NONBONDED TABLE R-SQUARED SPACING: 0.0625
Info: NONBONDED TABLE SIZE: 705 POINTS
TCL: Running for 1500000 steps
ETITLE: TS BOND ANGLE DIHED IMPRP ELECT VDW BOUNDARY MISC KINETIC TOTAL TEMP POTENTIAL TOTALAVG TEMPAVG PRESSURE GPRESSURE VOLUME PRESSAVG GPRESSAVG
ENERGY: 0 3.9945 7.6375 4.2436 0.0000 -10811.1367 1438.8623 0.0000 0.0000 1779.7412 -7576.6575 299.3838 -9356.3987 -7576.6575 299.3838 -145.6556 -64.5309 30540.1908 -145.6556 -64.5309
ENERGY: 300000 4.1959 7.9795 6.4409 0.0000 -10888.4639 1471.1677 0.0000 0.0000 1765.0552 -7633.6246 296.9133 -9398.6799 -7581.5946 300.3058 -147.8811 -81.3423 30784.5332 74.3836 131.6431
ENERGY: 600000 1.6569 7.8773 4.2644 0.0000 -10780.7719 1371.0361 0.0000 0.0000 1803.0542 -7592.8830 303.3054 -9395.9372 -7581.0051 300.7195 -636.7608 -638.6951 30612.6815 -29.1720 15.2246
ENERGY: 900000 6.5130 6.9896 5.4420 0.0000 -10757.5955 1395.6743 0.0000 0.0000 1766.8287 -7576.1480 297.2116 -9342.9767 -7579.1099 298.7084 -586.6196 -535.3333 30801.3116 -40.5191 4.8039
ENERGY: 1200000 1.7484 6.4931 3.2664 0.0000 -10854.0640 1508.7983 0.0000 0.0000 1782.3170 -7551.4409 299.8171 -9333.7579 -7577.2621 298.7599 357.0589 481.7379 30734.3277 -7.1956 51.4702
ENERGY: 1500000 1.7236 5.6605 4.5624 0.0000 -10847.1610 1409.2812 0.0000 0.0000 1826.0914 -7599.8418 307.1807 -9425.9332 -7588.2955 298.8889 -386.2931 -396.7375 30224.5676 -142.4983 -88.2068
TCL: Running FEP window  10: Lambda1 0.44999999999999996 Lambda2 0.49999999999999994 [dLambda 0.04999999999999999]
TCL: Setting parameter firsttimestep to 0
TCL: Setting parameter alchLambda to 0.44999999999999996
Info: NONBONDED TABLE R-SQUARED SPACING: 0.0625
Info: NONBONDED TABLE SIZE: 705 POINTS
TCL: Setting parameter alchLambda2 to 0.49999999999999994
Info: NONBONDED TABLE R-SQUARED SPACING: 0.0625
Info: NONBONDED TABLE SIZE: 705 POINTS
TCL: Running for 1500000 steps
ETITLE: TS BOND ANGLE DIHED IMPRP ELECT VDW BOUNDARY MISC KINETIC TOTAL TEMP POTENTIAL TOTALAVG TEMPAVG PRESSURE GPRESSURE VOLUME PRESSAVG GPRESSAVG
ENERGY: 0 1.7236 5.6605 4.5624 0.0000 -10847.1609 1409.8574 0.0000 0.0000 1825.1990 -7600.1579 307.0306 -9425.3569 -7600.1579 307.0306 -464.7869 -386.2295 30224.5676 -464.7869 -386.2295
ENERGY: 300000 5.7011 6.0768 2.0010 0.0000 -10774.5792 1414.3025 0.0000 0.0000 1838.2165 -7508.2813 309.2203 -9346.4978 -7565.0262 302.8260 -248.8251 -142.2269 30420.6578 -101.8105 -8.6548
ENERGY: 600000 2.3223 8.9373 0.5732 0.0000 -10916.6201 1540.6764 0.0000 0.0000 1834.0196 -7530.0914 308.5143 -9364.1110 -7557.1819 300.8883 656.0469 695.3049 30712.2020 -38.0424 35.5994
ENERGY: 900000 3.0415 9.5940 2.9475 0.0000 -10691.6951 1472.6115 0.0000 0.0000 1813.1247 -7390.3760 304.9994 -9203.5006 -7554.1693 301.1232 466.6202 516.5151 30840.7817 205.1754 267.5804
ENERGY: 1200000 4.7775 5.9002 2.0999 0.0000 -10621.1827 1340.3229 0.0000 0.0000 1861.2663 -7406.8159 313.0977 -9268.0822 -7542.6212 302.7706 -764.9097 -638.3458 31067.0717 44.7289 113.3481
ENERGY: 1500000 3.7954 7.1660 2.0925 0.0000 -10854.8149 1467.6371 0.0000 0.0000 1798.8794 -7575.2445 302.6031 -9374.1239 -7542.7087 302.9592 68.3274 172.9158 30346.3439 10.4201 83.1514
TCL: Running FEP window  11: Lambda1 0.49999999999999994 Lambda2 0.5499999999999999 [dLambda 0.04999999999999999]
TCL: Setting parameter firsttimestep to 0
TCL: Setting parameter alchLambda to 0.49999999999999994
Info: NONBONDED TABLE R-SQUARED SPACING: 0.0625
Info: NONBONDED TABLE SIZE: 705 POINTS
TCL: Setting parameter alchLambda2 to 0.5499999999999999
Info: NONBONDED TABLE R-SQUARED SPACING: 0.0625
Info: NONBONDED TABLE SIZE: 705 POINTS
TCL: Running for 1500000 steps
ETITLE: TS BOND ANGLE DIHED IMPRP ELECT VDW BOUNDARY MISC KINETIC TOTAL TEMP POTENTIAL TOTALAVG TEMPAVG PRESSURE GPRESSURE VOLUME PRESSAVG GPRESSAVG
ENERGY: 0 3.7954 7.1660 2.0925 0.0000 -10854.8144 1467.7058 0.0000 0.0000 1797.9912 -7576.0636 302.4537 -9374.0547 -7576.0636 302.4537 112.5741 181.7667 30346.3439 112.5741 181.7667
ENERGY: 300000 3.3866 3.4036 1.8489 0.0000 -10808.2476 1426.1435 0.0000 0.0000 1745.0881 -7628.3769 293.5545 -9373.4650 -7594.0494 298.9361 -392.0052 -293.6998 30637.3337 -240.4867 -164.1254
ENERGY: 600000 2.8500 6.2059 4.0041 0.0000 -10944.6590 1526.0079 0.0000 0.0000 1779.3825 -7626.2087 299.3234 -9405.5911 -7590.1004 298.6646 234.7111 291.6197 30804.4209 -178.6946 -98.3357
ENERGY: 900000 1.6254 6.6387 4.5342 0.0000 -10914.5017 1484.6193 0.0000 0.0000 1849.4566 -7567.6274 311.1111 -9417.0840 -7576.3283 300.2508 -16.3365 69.5690 31003.6807 -187.8023 -113.0188
ENERGY: 1200000 2.9414 5.5411 2.2995 0.0000 -10810.7680 1458.8034 0.0000 0.0000 1795.3068 -7545.8757 302.0022 -9341.1825 -7572.1146 299.8333 8.1946 84.0866 30658.4045 -219.4334 -147.4740
ENERGY: 1500000 1.4031 5.7063 1.5340 0.0000 -10703.6441 1397.0990 0.0000 0.0000 1765.7909 -7532.1109 297.0371 -9297.9017 -7570.8928 300.0630 -295.7184 -296.6842 30988.1800 -288.6854 -227.4004
TCL: Running FEP window  12: Lambda1 0.5499999999999999 Lambda2 0.6    [dLambda 0.050000000000000044]
TCL: Setting parameter firsttimestep to 0
TCL: Setting parameter alchLambda to 0.5499999999999999
Info: NONBONDED TABLE R-SQUARED SPACING: 0.0625
Info: NONBONDED TABLE SIZE: 705 POINTS
TCL: Setting parameter alchLambda2 to 0.6
Info: NONBONDED TABLE R-SQUARED SPACING: 0.0625
Info: NONBONDED TABLE SIZE: 705 POINTS
TCL: Running for 1500000 steps
ETITLE: TS BOND ANGLE DIHED IMPRP ELECT VDW BOUNDARY MISC KINETIC TOTAL TEMP POTENTIAL TOTALAVG TEMPAVG PRESSURE GPRESSURE VOLUME PRESSAVG GPRESSAVG
ENERGY: 0 1.4031 5.7063 1.5340 0.0000 -10703.2257 1396.7198 0.0000 0.0000 1764.9136 -7532.9489 296.8895 -9297.8625 -7532.9489 296.8895 -369.4783 -293.9958 30988.1800 -369.4783 -293.9958
ENERGY: 300000 2.1633 5.9480 4.0544 0.0000 -10911.9088 1496.6776 0.0000 0.0000 1750.3071 -7652.7583 294.4324 -9403.0654 -7589.6606 299.9821 10.0445 33.9911 30874.2741 -74.4930 -25.1977
ENERGY: 600000 1.1600 9.1771 3.7241 0.0000 -10832.1598 1482.8587 0.0000 0.0000 1760.8695 -7574.3704 296.2092 -9335.2399 -7585.4198 299.3667 270.7255 282.5850 30593.0872 -98.0639 -53.3357
ENERGY: 900000 1.2013 4.8172 3.0614 0.0000 -10870.4174 1449.9959 0.0000 0.0000 1846.6987 -7564.6429 310.6472 -9411.3416 -7580.1260 300.8120 -263.1743 -205.3143 30984.1313 -81.2797 -32.5527
ENERGY: 1200000 1.9509 9.6501 3.3556 0.0000 -10904.2776 1477.2264 0.0000 0.0000 1768.5991 -7643.4954 297.5095 -9412.0946 -7580.7077 300.2578 134.3036 182.9129 30471.2541 -43.6470 10.0216
ENERGY: 1500000 3.3695 7.1902 4.5651 0.0000 -10847.7991 1483.2408 0.0000 0.0000 1751.2157 -7598.2178 294.5853 -9349.4335 -7581.3066 299.8977 507.3328 609.5004 30209.3680 -30.9128 23.0879
TCL: Running FEP window  13: Lambda1 0.6    Lambda2 0.65   [dLambda 0.050000000000000044]
TCL: Setting parameter firsttimestep to 0
TCL: Setting parameter alchLambda to 0.6
Info: NONBONDED TABLE R-SQUARED SPACING: 0.0625
Info: NONBONDED TABLE SIZE: 705 POINTS
TCL: Setting parameter alchLambda2 to 0.65
Info: NONBONDED TABLE R-SQUARED SPACING: 0.0625
Info: NONBONDED TABLE SIZE: 705 POINTS
TCL: Running for 1500000 steps
ETITLE: TS BOND ANGLE DIHED IMPRP ELECT VDW BOUNDARY MISC KINETIC TOTAL TEMP POTENTIAL TOTALAVG TEMPAVG PRESSURE GPRESSURE VOLUME PRESSAVG GPRESSAVG
ENERGY: 0 3.3695 7.1902 4.5651 0.0000 -10848.1795 1483.3603 0.0000 0.0000 1750.3750 -7599.3194 294.4439 -9349.6944 -7599.3194 294.4439 530.7521 618.1185 30209.3680 530.7521 618.1185
ENERGY: 300000 3.4857 8.5492 1.7271 0.0000 -10836.8244 1470.9656 0.0000 0.0000 1768.7284 -7583.3684 297.5312 -9352.0968 -7596.7218 298.3797 -65.0376 -26.2337 31270.7567 230.6979 294.8078
ENERGY: 600000 1.7527 7.9806 1.4731 0.0000 -10810.0553 1447.5412 0.0000 0.0000 1793.9530 -7557.3547 301.7744 -9351.3077 -7574.8012 300.5315 -198.4918 -153.4339 31233.4658 182.0863 247.9011
ENERGY: 900000 7.3543 7.8374 4.0849 0.0000 -10774.2588 1420.1293 0.0000 0.0000 1754.3648 -7580.4882 295.1150 -9334.8530 -7565.0146 302.4345 -764.9464 -600.3631 31315.8143 47.1895 124.0794
ENERGY: 1200000 3.4419 8.8621 5.4188 0.0000 -10955.7373 1532.6402 0.0000 0.0000 1742.8378 -7662.5365 293.1760 -9405.3742 -7581.0684 300.4246 280.8132 425.1835 30534.9669 106.1425 185.2118
ENERGY: 1500000 4.1162 6.5928 6.6428 0.0000 -10732.6615 1409.2367 0.0000 0.0000 1774.0257 -7532.0473 298.4223 -9306.0730 -7583.4966 300.1114 -391.2367 -341.1056 30844.6492 -10.5521 63.7515
TCL: Running FEP window  14: Lambda1 0.65   Lambda2 0.7000000000000001 [dLambda 0.050000000000000044]
TCL: Setting parameter firsttimestep to 0
TCL: Setting parameter alchLambda to 0.65
Info: NONBONDED TABLE R-SQUARED SPACING: 0.0625
Info: NONBONDED TABLE SIZE: 705 POINTS
TCL: Setting parameter alchLambda2 to 0.7000000000000001
Info: NONBONDED TABLE R-SQUARED SPACING: 0.0625
Info: NONBONDED TABLE SIZE: 705 POINTS
TCL: Running for 1500000 steps
ETITLE: TS BOND ANGLE DIHED IMPRP ELECT VDW BOUNDARY MISC KINETIC TOTAL TEMP POTENTIAL TOTALAVG TEMPAVG PRESSURE GPRESSURE VOLUME PRESSAVG GPRESSAVG
ENERGY: 0 4.1162 6.5928 6.6428 0.0000 -10733.0848 1409.4797 0.0000 0.0000 1773.1269 -7533.1265 298.2711 -9306.2534 -7533.1265 298.2711 -404.0423 -329.7163 30844.6492 -404.0423 -329.7163
ENERGY: 300000 2.9516 6.8358 2.6119 0.0000 -10841.7300 1403.6777 0.0000 0.0000 1764.8036 -7660.8494 296.8710 -9425.6530 -7577.2765 299.6200 -555.4914 -478.4710 30702.9929 -301.9189 -220.5044
ENERGY: 600000 2.2205 7.1464 3.4513 0.0000 -10810.6602 1451.8068 0.0000 0.0000 1792.6715 -7553.3638 301.5589 -9346.0352 -7595.2244 300.0119 -217.2178 -153.1376 30857.0957 -131.2854 -61.9772
ENERGY: 900000 2.6853 6.9003 4.4660 0.0000 -10709.6985 1343.7711 0.0000 0.0000 1747.6966 -7604.1792 293.9933 -9351.8758 -7587.5097 299.2199 -906.7286 -843.0255 30778.1153 -142.4803 -80.5108
ENERGY: 1200000 1.0928 9.6198 2.9831 0.0000 -10816.6397 1492.0873 0.0000 0.0000 1809.8989 -7500.9577 304.4568 -9310.8566 -7581.5657 299.0040 288.3914 331.1882 31138.1401 -80.3054 -15.3230
ENERGY: 1500000 2.5913 10.4876 2.1190 0.0000 -10876.7950 1489.4528 0.0000 0.0000 1771.6361 -7600.5082 298.0203 -9372.1443 -7572.8957 299.3759 14.5846 93.7437 30862.6379 -103.3620 -39.6620
TCL: Running FEP window  15: Lambda1 0.7000000000000001 Lambda2 0.7500000000000001 [dLambda 0.050000000000000044]
TCL: Setting parameter firsttimestep to 0
TCL: Setting parameter alchLambda to 0.7000000000000001
Info: NONBONDED TABLE R-SQUARED SPACING: 0.0625
Info: NONBONDED TABLE SIZE: 705 POINTS
TCL: Setting parameter alchLambda2 to 0.7500000000000001
Info: NONBONDED TABLE R-SQUARED SPACING: 0.0625
Info: NONBONDED TABLE SIZE: 705 POINTS
TCL: Running for 1500000 steps
ETITLE: TS BOND ANGLE DIHED IMPRP ELECT VDW BOUNDARY MISC KINETIC TOTAL TEMP POTENTIAL TOTALAVG TEMPAVG PRESSURE GPRESSURE VOLUME PRESSAVG GPRESSAVG
ENERGY: 0 2.5913 10.4876 2.1190 0.0000 -10877.2029 1489.1128 0.0000 0.0000 1770.7541 -7602.1381 297.8720 -9372.8922 -7602.1381 297.8720 9.3031 94.7997 30862.6379 9.3031 94.7997
ENERGY: 300000 2.2638 10.4127 4.3900 0.0000 -10808.9323 1467.0740 0.0000 0.0000 1812.3816 -7512.4101 304.8745 -9324.7917 -7543.6362 301.5691 163.7310 222.6561 30793.4994 57.8576 130.7534
ENERGY: 600000 1.5665 8.2224 1.1833 0.0000 -10783.2827 1465.2971 0.0000 0.0000 1782.8207 -7524.1928 299.9018 -9307.0135 -7541.4810 301.1016 33.1794 132.8859 30947.8128 61.5893 113.6403
ENERGY: 900000 0.7026 7.7379 4.3445 0.0000 -10767.4487 1448.0690 0.0000 0.0000 1785.0790 -7521.5156 300.2817 -9306.5947 -7551.9247 300.1240 198.1302 233.5328 30549.2653 -7.9168 42.0559
ENERGY: 1200000 2.3159 5.1185 4.2132 0.0000 -10759.0029 1453.3492 0.0000 0.0000 1737.1769 -7556.8292 292.2237 -9294.0061 -7556.7363 299.3095 276.7749 311.4774 30624.2654 -39.3199 14.3185
ENERGY: 1500000 3.7050 8.1992 6.5971 0.0000 -10833.6519 1450.3773 0.0000 0.0000 1760.4269 -7604.3464 296.1348 -9364.7733 -7563.8273 299.2364 20.5570 56.0991 30466.9652 29.4844 81.9875
TCL: Running FEP window  16: Lambda1 0.7500000000000001 Lambda2 0.8000000000000002 [dLambda 0.050000000000000044]
TCL: Setting parameter firsttimestep to 0
TCL: Setting parameter alchLambda to 0.7500000000000001
Info: NONBONDED TABLE R-SQUARED SPACING: 0.0625
Info: NONBONDED TABLE SIZE: 705 POINTS
TCL: Setting parameter alchLambda2 to 0.8000000000000002
Info: NONBONDED TABLE R-SQUARED SPACING: 0.0625
Info: NONBONDED TABLE SIZE: 705 POINTS
TCL: Running for 1500000 steps
ETITLE: TS BOND ANGLE DIHED IMPRP ELECT VDW BOUNDARY MISC KINETIC TOTAL TEMP POTENTIAL TOTALAVG TEMPAVG PRESSURE GPRESSURE VOLUME PRESSAVG GPRESSAVG
ENERGY: 0 3.7050 8.1992 6.5971 0.0000 -10834.5162 1450.4858 0.0000 0.0000 1759.5480 -7605.9810 295.9869 -9365.5291 -7605.9810 295.9869 -25.5607 66.0882 30466.9652 -25.5607 66.0882
ENERGY: 300000 2.7402 2.3696 6.8997 0.0000 -10842.0222 1445.8062 0.0000 0.0000 1787.5147 -7596.6917 300.6914 -9384.2065 -7635.2488 295.1823 89.1805 84.7682 30592.3620 -165.4381 -104.8394
ENERGY: 600000 2.2484 6.8637 6.2028 0.0000 -10789.5814 1422.0326 0.0000 0.0000 1835.3834 -7516.8505 308.7437 -9352.2339 -7592.6811 298.2380 -162.8733 -77.4001 30581.6999 -267.1421 -204.8835
ENERGY: 900000 5.2596 8.7084 2.2569 0.0000 -10831.8075 1471.5607 0.0000 0.0000 1828.5397 -7515.4822 307.5925 -9344.0218 -7578.8791 300.1712 105.3165 192.0677 30805.7846 -252.5922 -191.1518
ENERGY: 1200000 3.0603 6.3569 5.2048 0.0000 -10753.0574 1484.0728 0.0000 0.0000 1807.8855 -7446.4772 304.1181 -9254.3627 -7573.0595 300.2533 390.6006 474.9958 30905.2977 -141.7879 -88.2436
ENERGY: 1500000 4.5457 7.4181 2.4514 0.0000 -10847.6741 1435.9943 0.0000 0.0000 1760.0181 -7637.2466 296.0660 -9397.2647 -7578.1164 299.8500 -460.0125 -376.0076 31070.5930 -79.8473 -23.8411
TCL: Running FEP window  17: Lambda1 0.8000000000000002 Lambda2 0.8500000000000002 [dLambda 0.050000000000000044]
TCL: Setting parameter firsttimestep to 0
TCL: Setting parameter alchLambda to 0.8000000000000002
Info: NONBONDED TABLE R-SQUARED SPACING: 0.0625
Info: NONBONDED TABLE SIZE: 705 POINTS
TCL: Setting parameter alchLambda2 to 0.8500000000000002
Info: NONBONDED TABLE R-SQUARED SPACING: 0.0625
Info: NONBONDED TABLE SIZE: 705 POINTS
TCL: Running for 1500000 steps
ETITLE: TS BOND ANGLE DIHED IMPRP ELECT VDW BOUNDARY MISC KINETIC TOTAL TEMP POTENTIAL TOTALAVG TEMPAVG PRESSURE GPRESSURE VOLUME PRESSAVG GPRESSAVG
ENERGY: 0 4.5457 7.4181 2.4514 0.0000 -10848.3921 1436.4415 0.0000 0.0000 1759.1341 -7638.4014 295.9173 -9397.5355 -7638.4014 295.9173 -447.4572 -359.0238 31070.5930 -447.4572 -359.0238
ENERGY: 300000 2.1048 3.8512 2.4454 0.0000 -10826.0018 1399.1701 0.0000 0.0000 1775.6901 -7642.7402 298.7023 -9418.4303 -7587.2471 298.5754 -315.7257 -291.6216 30507.4833 -333.9638 -267.9591
ENERGY: 600000 3.3479 8.9331 2.6468 0.0000 -10755.5659 1446.2507 0.0000 0.0000 1795.6011 -7498.7862 302.0517 -9294.3874 -7594.3120 298.4199 51.9311 88.9428 31053.4088 -147.7701 -77.6298
ENERGY: 900000 1.9992 8.9211 2.7859 0.0000 -10737.2027 1380.7312 0.0000 0.0000 1764.7356 -7578.0296 296.8596 -9342.7652 -7574.7643 298.7308 -803.0164 -684.0845 31176.3705 -208.5442 -141.1681
ENERGY: 1200000 6.0079 9.2340 1.9433 0.0000 -10796.8521 1487.9284 0.0000 0.0000 1728.9823 -7562.7561 290.8452 -9291.7385 -7571.4672 298.9240 -129.9350 -71.5517 31567.4778 -156.6075 -94.0285
ENERGY: 1500000 3.7406 6.0279 2.9763 0.0000 -10780.7448 1419.6293 0.0000 0.0000 1825.4067 -7522.9640 307.0655 -9348.3707 -7571.7248 299.8751 -172.0447 -117.8608 30465.9670 -220.4257 -160.7460
TCL: Running FEP window  18: Lambda1 0.8500000000000002 Lambda2 0.9000000000000002 [dLambda 0.050000000000000044]
TCL: Setting parameter firsttimestep to 0
TCL: Setting parameter alchLambda to 0.8500000000000002
Info: NONBONDED TABLE R-SQUARED SPACING: 0.0625
Info: NONBONDED TABLE SIZE: 705 POINTS
TCL: Setting parameter alchLambda2 to 0.9000000000000002
Info: NONBONDED TABLE R-SQUARED SPACING: 0.0625
Info: NONBONDED TABLE SIZE: 705 POINTS
TCL: Running for 1500000 steps
ETITLE: TS BOND ANGLE DIHED IMPRP ELECT VDW BOUNDARY MISC KINETIC TOTAL TEMP POTENTIAL TOTALAVG TEMPAVG PRESSURE GPRESSURE VOLUME PRESSAVG GPRESSAVG
ENERGY: 0 3.7406 6.0279 2.9763 0.0000 -10782.5694 1420.7082 0.0000 0.0000 1824.5179 -7524.5986 306.9160 -9349.1165 -7524.5986 306.9160 -188.7506 -97.1168 30465.9670 -188.7506 -97.1168
ENERGY: 300000 2.5887 8.5546 4.1803 0.0000 -10876.3103 1448.7697 0.0000 0.0000 1738.4158 -7673.8012 292.4321 -9412.2170 -7631.4921 298.3919 29.6095 79.8016 30372.8265 42.8902 130.2220
ENERGY: 600000 2.7046 8.1502 2.7521 0.0000 -10936.2200 1493.6063 0.0000 0.0000 1745.6038 -7683.4031 293.6412 -9429.0069 -7629.3193 296.6464 107.8310 161.7425 30810.2147 65.8953 138.2589
ENERGY: 900000 3.0863 7.0237 4.0342 0.0000 -10689.6005 1394.1804 0.0000 0.0000 1807.5047 -7473.7711 304.0541 -9281.2759 -7610.9199 298.5121 -581.4628 -533.9254 31518.1817 100.6983 164.9321
ENERGY: 1200000 3.7098 8.4472 2.6272 0.0000 -10793.6102 1368.4514 0.0000 0.0000 1787.3448 -7623.0298 300.6628 -9410.3745 -7607.9235 298.9014 -837.4215 -792.2529 30959.6494 147.3191 209.3901
ENERGY: 1500000 3.0457 6.7633 6.9606 0.0000 -10892.0723 1472.3998 0.0000 0.0000 1721.8794 -7681.0234 289.6504 -9402.9028 -7614.6339 298.0407 -157.7143 -166.8969 31021.8761 48.0167 100.2744
TCL: Running FEP window  19: Lambda1 0.9000000000000002 Lambda2 0.9500000000000003 [dLambda 0.050000000000000044]
TCL: Setting parameter firsttimestep to 0
TCL: Setting parameter alchLambda to 0.9000000000000002
Info: NONBONDED TABLE R-SQUARED SPACING: 0.0625
Info: NONBONDED TABLE SIZE: 705 POINTS
TCL: Setting parameter alchLambda2 to 0.9500000000000003
Info: NONBONDED TABLE R-SQUARED SPACING: 0.0625
Info: NONBONDED TABLE SIZE: 705 POINTS
TCL: Running for 1500000 steps
ETITLE: TS BOND ANGLE DIHED IMPRP ELECT VDW BOUNDARY MISC KINETIC TOTAL TEMP POTENTIAL TOTALAVG TEMPAVG PRESSURE GPRESSURE VOLUME PRESSAVG GPRESSAVG
ENERGY: 0 3.0457 6.7633 6.9606 0.0000 -10893.9319 1473.0985 0.0000 0.0000 1720.9622 -7683.1015 289.4961 -9404.0638 -7683.1015 289.4961 -230.4925 -149.0918 31021.8761 -230.4925 -149.0918
ENERGY: 300000 4.2197 8.5804 2.0180 0.0000 -10743.8467 1396.2748 0.0000 0.0000 1793.2776 -7539.4761 301.6608 -9332.7538 -7564.4825 299.2784 -539.1460 -504.8864 30832.6495 -42.6566 19.7992
ENERGY: 600000 3.4895 10.0873 2.0902 0.0000 -10834.6009 1510.9210 0.0000 0.0000 1765.6639 -7542.3490 297.0157 -9308.0129 -7570.1214 298.9719 547.5649 639.7329 30759.2383 61.5988 129.5682
ENERGY: 900000 5.2421 7.9995 3.9781 0.0000 -10911.2086 1493.7953 0.0000 0.0000 1836.6924 -7563.5012 308.9639 -9400.1936 -7567.5133 299.6130 -56.2815 6.7748 31074.6391 24.1801 89.0078
ENERGY: 1200000 5.6534 7.9066 3.6268 0.0000 -10821.4013 1475.5805 0.0000 0.0000 1769.2330 -7559.4011 297.6161 -9328.6341 -7568.0000 299.0192 495.9019 542.7428 30616.7259 -19.0001 37.7693
ENERGY: 1500000 4.9869 9.2193 6.7812 0.0000 -10839.3626 1460.3729 0.0000 0.0000 1794.9161 -7563.0862 301.9364 -9358.0023 -7562.9232 300.0662 -89.0409 -0.7200 30810.0602 -47.4707 13.9204
TCL: Running FEP window  20: Lambda1 0.9500000000000003 Lambda2 1.0    [dLambda 0.04999999999999971]
TCL: Setting parameter firsttimestep to 0
TCL: Setting parameter alchLambda to 0.9500000000000003
Info: NONBONDED TABLE R-SQUARED SPACING: 0.0625
Info: NONBONDED TABLE SIZE: 705 POINTS
TCL: Setting parameter alchLambda2 to 1.0
Info: NONBONDED TABLE R-SQUARED SPACING: 0.0625
Info: NONBONDED TABLE SIZE: 705 POINTS
TCL: Running for 1500000 steps
ETITLE: TS BOND ANGLE DIHED IMPRP ELECT VDW BOUNDARY MISC KINETIC TOTAL TEMP POTENTIAL TOTALAVG TEMPAVG PRESSURE GPRESSURE VOLUME PRESSAVG GPRESSAVG
ENERGY: 0 4.9869 9.2193 6.7812 0.0000 -10840.9136 1460.6389 0.0000 0.0000 1794.0378 -7565.2494 301.7887 -9359.2872 -7565.2494 301.7887 -55.0359 15.0595 30810.0602 -55.0359 15.0595
ENERGY: 300000 1.7582 8.9344 7.1361 0.0000 -10823.5611 1437.8035 0.0000 0.0000 1782.5545 -7585.3745 299.8570 -9367.9290 -7624.6750 298.8282 155.0009 255.6452 30118.0767 47.2539 122.8120
ENERGY: 600000 1.8037 3.7403 1.4597 0.0000 -10715.6188 1399.4684 0.0000 0.0000 1798.8386 -7510.3081 302.5963 -9309.1467 -7576.8774 300.1018 -228.0534 -197.0416 30831.6550 121.4719 201.6106
ENERGY: 900000 4.1970 5.8246 3.9198 0.0000 -10833.7772 1441.1796 0.0000 0.0000 1859.7719 -7518.8842 312.8463 -9378.6561 -7568.2230 302.2360 -370.4712 -309.8887 31183.2218 97.9018 174.1839
ENERGY: 1200000 0.5879 4.9979 3.4937 0.0000 -10799.2124 1423.4106 0.0000 0.0000 1792.9603 -7573.7621 301.6074 -9366.7223 -7573.4398 301.1244 52.5898 63.1543 30585.4526 84.9293 150.7560
ENERGY: 1500000 0.9775 7.0737 5.9424 0.0000 -10877.8376 1493.9389 0.0000 0.0000 1725.3884 -7644.5167 290.2407 -9369.9051 -7579.5709 300.1673 497.4568 475.5965 30401.4911 47.3942 115.8372
TCL: Exiting due to exit command.
