Info: SIMULATION PARAMETERS:
Info: TIMESTEP               2
Info: NUMBER OF STEPS        0
Info: STEPS PER CYCLE        10
Info: PERIODIC CELL BASIS 1  30.7637 0 0
Info: PERIODIC CELL BASIS 2  0 32.1926 0
Info: PERIODIC CELL BASIS 3  0 0 30.7356
Info: PERIODIC CELL CENTER   0 0 0
Info: WRAPPING WATERS AROUND PERIODIC BOUNDARIES ON OUTPUT.
Info: WRAPPING ALL CLUSTERS AROUND PERIODIC BOUNDARIES ON OUTPUT.
Info: FIRST LDB TIMESTEP     50
Info: LAST LDB TIMESTEP     -1
Info: HOM BACKGROUND SCALING 1
Info: PME BACKGROUND SCALING 1
Info: MIN ATOMS PER PATCH    40
Info: EMPTY PATCH LOAD       40 ATOMS
Info: VELOCITY FILE          mobley_7690440_equil.vel
Info: CENTER OF MASS MOVING INITIALLY? NO
Info: DIELECTRIC             1
Info: EXCLUDE                SCALED ONE-FOUR
Info: 1-4 ELECTROSTATICS SCALED BY 0.833333
Info: MODIFIED 1-4 VDW PARAMETERS WILL BE USED
Info: DCD FILENAME           mobley_7690440_prod.dcd
Info: DCD FREQUENCY          100000
Info: DCD FIRST STEP         100000
Info: DCD FILE WILL CONTAIN UNIT CELL DATA
Info: XST FILENAME           mobley_7690440_prod.xst
Info: XST FREQUENCY          100000
Info: NO VELOCITY DCD OUTPUT
Info: NO FORCE DCD OUTPUT
Info: OUTPUT FILENAME        mobley_7690440_prod
Info: BINARY OUTPUT FILES WILL BE USED
Info: RESTART FILENAME       mobley_7690440_prod.restart
Info: RESTART FREQUENCY      100000
Info: BINARY RESTART FILES WILL BE USED
Info: CUTOFF                 9
Info: PAIRLIST DISTANCE      11
Info: PAIRLIST SHRINK RATE   0.01
Info: PAIRLIST GROW RATE     0.01
Info: PAIRLIST TRIGGER       0.3
Info: PAIRLISTS PER CYCLE    2
Info: PAIRLISTS ENABLED
Info: MARGIN                 2
Info: HYDROGEN GROUP CUTOFF  2.5
Info: PATCH DIMENSION        15.5
Info: ENERGY OUTPUT STEPS    100000
Info: ENERGY EVALUATION STEPS    100000
Info: OUTPUT ENERGY PRECISION 4
Info: CROSSTERM ENERGY INCLUDED IN DIHEDRAL
Info: TIMING OUTPUT STEPS    1000000
Info: PRESSURE OUTPUT STEPS  100000
Info: ALCHEMICAL FEP ON
Info: FEP CURRENT LAMBDA VALUE     0
Info: FEP COMPARISON LAMBDA VALUE  0.05
Info: FEP INTRA-ALCHEMICAL NON-BONDED INTERACTIONS WILL BE RETAINED
Info: FEP INTRA-ALCHEMICAL BONDED INTERACTIONS WILL BE RETAINED
Info: FEP VDW SHIFTING COEFFICIENT 5
Info: FEP ELEC. ACTIVE FOR ANNIHILATED PARTICLES BETWEEN LAMBDA = 0 AND LAMBDA = 0.5
Info: FEP ELEC. ACTIVE FOR EXNIHILATED PARTICLES BETWEEN LAMBDA = 0.5 AND LAMBDA = 1
Info: FEP VDW ACTIVE FOR ANNIHILATED PARTICLES BETWEEN LAMBDA = 0 AND LAMBDA = 1
Info: FEP VDW ACTIVE FOR EXNIHILATED PARTICLES BETWEEN LAMBDA = 0 AND LAMBDA = 1
Info: FEP BOND ACTIVE FOR ANNIHILATED PARTICLES BETWEEN LAMBDA = 1 AND LAMBDA = 1
Info: FEP BOND ACTIVE FOR EXNIHILATED PARTICLES BETWEEN LAMBDA = 0 AND LAMBDA = 0
Info: LANGEVIN DYNAMICS ACTIVE
Info: LANGEVIN TEMPERATURE   300
Info: LANGEVIN USING BBK INTEGRATOR
Info: LANGEVIN DAMPING COEFFICIENT IS 1 INVERSE PS
Info: LANGEVIN DYNAMICS APPLIED TO HYDROGENS
Info: LANGEVIN PISTON PRESSURE CONTROL ACTIVE
Info:        TARGET PRESSURE IS 1.01325 BAR
Info:     OSCILLATION PERIOD IS 50 FS
Info:             DECAY TIME IS 25 FS
Info:     PISTON TEMPERATURE IS 300 K
Info:       PRESSURE CONTROL IS GROUP-BASED
Info:    INITIAL STRAIN RATE IS -7.94494e-05 -7.94494e-05 -7.94494e-05
Info:       CELL FLUCTUATION IS ISOTROPIC
Info: PARTICLE MESH EWALD (PME) ACTIVE
Info: PME TOLERANCE               1e-06
Info: PME EWALD COEFFICIENT       0.348832
Info: PME INTERPOLATION ORDER     4
Info: PME GRID DIMENSIONS         32 36 32
Info: PME MAXIMUM GRID SPACING    1
Info: PME CALCULATION WILL BE PERFORMED ON GPU
Info: FULL ELECTROSTATIC EVALUATION FREQUENCY      2
Info: USING VERLET I (r-RESPA) MTS SCHEME.
Info: C1 SPLITTING OF LONG RANGE ELECTROSTATICS
Info: PLACING ATOMS IN PATCHES BY HYDROGEN GROUPS
Info: RIGID BONDS TO HYDROGEN : ALL
Info:         ERROR TOLERANCE : 1e-08
Info:          MAX ITERATIONS : 100
Info: RIGID WATER USING SETTLE ALGORITHM
Info: RANDOM NUMBER SEED     1743678316
Info: USE HYDROGEN BONDS?    NO
Info: Using AMBER format force field!
Info: AMBER PARM FILE        mobley_7690440.prmtop
Info: COORDINATE PDB         mobley_7690440.pdb
Info: Exclusions will be read from PARM file!
Info: SCNB (VDW SCALING)     2
Info: USING ARITHMETIC MEAN TO COMBINE L-J SIGMA PARAMETERS
Info: BINARY COORDINATES     mobley_7690440_equil.coor
Info: SUMMARY OF PARAMETERS:
Info: 5 BONDS
Info: 3 ANGLES
Info:   3 HARMONIC
Info:   0 COSINE-BASED
Info: 3 DIHEDRAL
Info: 0 IMPROPER
Info: 0 CROSSTERM
Info: 0 VDW
Info: 15 VDW_PAIRS
Info: 0 NBTHOLE_PAIRS
Info: To read alchdata from file: mobley_7690440.pdb
Info: To read alchflag data from column: 5
Info: STRUCTURE SUMMARY:
Info: 2923 ATOMS
Info: 2922 BONDS
Info: 14 ANGLES
Info: 8 DIHEDRALS
Info: 0 IMPROPERS
Info: 0 CROSSTERMS
Info: 2943 EXCLUSIONS
Info: 2919 RIGID BONDS
Info: ALCH: 0 ATOMS TO DISAPPEAR IN FINAL STATE
Info: ALCH: 10 ATOMS TO APPEAR IN FINAL STATE
Info: 5850 DEGREES OF FREEDOM
Info: 975 HYDROGEN GROUPS
Info: 4 ATOMS IN LARGEST HYDROGEN GROUP
Info: 975 MIGRATION GROUPS
Info: 4 ATOMS IN LARGEST MIGRATION GROUP
Info: TOTAL MASS = 17587.7 amu
Info: TOTAL CHARGE = 0.000100009 e
Info: MASS DENSITY = 0.959475 g/cm^3
Info: ATOM DENSITY = 0.096027 atoms/A^3
Info: ADDED 0 IMPLICIT EXCLUSIONS
Info: NONBONDED TABLE R-SQUARED SPACING: 0.0625
Info: NONBONDED TABLE SIZE: 705 POINTS
Info: REMOVING COM VELOCITY 0.0419539 0.189084 0.081656
Info: Use 3D box decompostion in PME FFT.
Info: Updated CUDA force table with 4096 elements.
Info: Updated CUDA LJ table with 5 x 5 elements.
Info: Found 13 unique exclusion lists needing 20 bytes
TCL: Running for 1500000 steps
ETITLE: TS BOND ANGLE DIHED IMPRP ELECT VDW BOUNDARY MISC KINETIC TOTAL TEMP POTENTIAL TOTALAVG TEMPAVG PRESSURE GPRESSURE VOLUME PRESSAVG GPRESSAVG
ENERGY: 0 1.5085 5.2643 0.8857 0.0000 -10660.0863 1452.5974 0.0000 0.0000 1797.3867 -7402.4438 309.2260 -9199.8304 -7402.4438 309.2260 -296.9360 -207.8734 30439.3495 -296.9360 -207.8734
ENERGY: 300000 0.9267 4.7528 2.5246 0.0000 -10431.5639 1263.0397 0.0000 0.0000 1750.1982 -7410.1219 301.1076 -9160.3201 -7410.1570 301.7856 -1125.9682 -1049.2419 29859.5218 -669.9607 -606.7120
ENERGY: 600000 1.0189 3.9011 1.8091 0.0000 -10598.8120 1450.2760 0.0000 0.0000 1713.1025 -7428.7045 294.7256 -9141.8070 -7451.9982 298.2544 502.0734 538.0591 29727.9697 -290.5241 -233.2312
ENERGY: 900000 0.2112 1.8185 1.2296 0.0000 -10725.3563 1524.1194 0.0000 0.0000 1738.7732 -7459.2044 299.1420 -9197.9776 -7445.9406 299.3015 729.3296 730.6984 29784.2234 -118.8966 -66.4159
ENERGY: 1200000 1.0490 4.2531 1.6872 0.0000 -10659.0310 1449.2916 0.0000 0.0000 1697.1952 -7505.5549 291.9889 -9202.7501 -7446.6819 299.9971 93.1135 232.7729 29926.8695 -170.9003 -109.5068
ENERGY: 1500000 0.8395 6.3063 1.5195 0.0000 -10640.3589 1399.6833 0.0000 0.0000 1759.2656 -7472.7448 302.6676 -9232.0104 -7447.6184 299.5126 -174.3728 -162.4117 29556.0603 -167.6242 -108.3115
TCL: Running FEP window   2: Lambda1 0.05   Lambda2 0.1    [dLambda 0.05  ]
TCL: Setting parameter firsttimestep to 0
TCL: Setting parameter alchLambda to 0.05
Info: NONBONDED TABLE R-SQUARED SPACING: 0.0625
Info: NONBONDED TABLE SIZE: 705 POINTS
TCL: Setting parameter alchLambda2 to 0.1
Info: NONBONDED TABLE R-SQUARED SPACING: 0.0625
Info: NONBONDED TABLE SIZE: 705 POINTS
TCL: Running for 1500000 steps
ETITLE: TS BOND ANGLE DIHED IMPRP ELECT VDW BOUNDARY MISC KINETIC TOTAL TEMP POTENTIAL TOTALAVG TEMPAVG PRESSURE GPRESSURE VOLUME PRESSAVG GPRESSAVG
ENERGY: 0 0.8395 6.3063 1.5195 0.0000 -10640.3578 1401.7689 0.0000 0.0000 1758.3621 -7471.5614 302.5122 -9229.9235 -7471.5614 302.5122 -246.8980 -157.6700 29556.0603 -246.8980 -157.6700
ENERGY: 300000 0.6602 6.8751 1.6738 0.0000 -10572.5577 1403.1213 0.0000 0.0000 1771.4558 -7388.7714 304.7648 -9160.2272 -7450.0055 298.7032 -179.9577 -143.9675 30219.9299 -207.8410 -141.5961
ENERGY: 600000 0.1962 4.6526 0.8823 0.0000 -10722.9868 1540.3833 0.0000 0.0000 1735.3479 -7441.5245 298.5527 -9176.8724 -7444.8230 299.8566 817.4805 856.7041 30000.0860 14.9283 87.7548
ENERGY: 900000 0.1189 3.1165 1.5677 0.0000 -10641.6341 1486.9974 0.0000 0.0000 1838.1812 -7311.6523 316.2444 -9149.8335 -7413.5401 301.9124 422.5408 498.1117 30228.8897 48.3903 125.6357
ENERGY: 1200000 0.5158 2.5976 1.1933 0.0000 -10513.3691 1374.4883 0.0000 0.0000 1795.0678 -7339.5064 308.8271 -9134.5742 -7405.4841 302.3528 -361.4252 -283.2587 30190.0443 -12.0637 62.0922
ENERGY: 1500000 0.9986 4.3225 1.0136 0.0000 -10596.1279 1411.4088 0.0000 0.0000 1778.8901 -7399.4944 306.0438 -9178.3844 -7404.6110 302.2405 -216.9320 -121.7664 29979.2491 -19.3941 50.7573
TCL: Running FEP window   3: Lambda1 0.1    Lambda2 0.15000000000000002 [dLambda 0.05000000000000002]
TCL: Setting parameter firsttimestep to 0
TCL: Setting parameter alchLambda to 0.1
Info: NONBONDED TABLE R-SQUARED SPACING: 0.0625
Info: NONBONDED TABLE SIZE: 705 POINTS
TCL: Setting parameter alchLambda2 to 0.15000000000000002
Info: NONBONDED TABLE R-SQUARED SPACING: 0.0625
Info: NONBONDED TABLE SIZE: 705 POINTS
TCL: Running for 1500000 steps
ETITLE: TS BOND ANGLE DIHED IMPRP ELECT VDW BOUNDARY MISC KINETIC TOTAL TEMP POTENTIAL TOTALAVG TEMPAVG PRESSURE GPRESSURE VOLUME PRESSAVG GPRESSAVG
ENERGY: 0 0.9986 4.3225 1.0136 0.0000 -10596.1279 1413.1327 0.0000 0.0000 1777.9900 -7398.6706 305.8890 -9176.6605 -7398.6706 305.8890 -204.8340 -116.5642 29979.2491 -204.8340 -116.5642
ENERGY: 300000 0.7285 7.1818 1.7348 0.0000 -10599.9071 1390.9571 0.0000 0.0000 1724.5030 -7474.8019 296.6870 -9199.3049 -7411.0319 303.8994 -641.9100 -606.8742 30374.7740 -269.5840 -196.8096
ENERGY: 600000 1.2984 6.4459 1.1045 0.0000 -10654.0646 1439.9837 0.0000 0.0000 1685.5184 -7519.7137 289.9800 -9205.2322 -7446.3180 297.7148 -354.1700 -292.7605 30430.2053 -38.2907 33.1025
ENERGY: 900000 0.9868 5.2630 0.6338 0.0000 -10504.1035 1372.5731 0.0000 0.0000 1736.5910 -7388.0558 298.7666 -9124.6468 -7433.1729 298.2536 -313.3898 -220.2091 29951.0789 -152.5872 -77.9955
ENERGY: 1200000 0.7473 4.2877 0.6966 0.0000 -10489.4120 1422.1746 0.0000 0.0000 1704.1366 -7357.3692 293.1831 -9061.5058 -7423.9031 298.0172 -30.3647 74.9062 30659.5073 -169.2191 -93.6616
ENERGY: 1500000 0.3306 1.5373 3.2793 0.0000 -10581.3897 1432.6031 0.0000 0.0000 1751.9393 -7391.7001 301.4072 -9143.6394 -7422.9112 298.7467 -31.9284 45.3439 30171.5525 -48.9205 25.4673
TCL: Running FEP window   4: Lambda1 0.15000000000000002 Lambda2 0.2    [dLambda 0.04999999999999999]
TCL: Setting parameter firsttimestep to 0
TCL: Setting parameter alchLambda to 0.15000000000000002
Info: NONBONDED TABLE R-SQUARED SPACING: 0.0625
Info: NONBONDED TABLE SIZE: 705 POINTS
TCL: Setting parameter alchLambda2 to 0.2
Info: NONBONDED TABLE R-SQUARED SPACING: 0.0625
Info: NONBONDED TABLE SIZE: 705 POINTS
TCL: Running for 1500000 steps
ETITLE: TS BOND ANGLE DIHED IMPRP ELECT VDW BOUNDARY MISC KINETIC TOTAL TEMP POTENTIAL TOTALAVG TEMPAVG PRESSURE GPRESSURE VOLUME PRESSAVG GPRESSAVG
ENERGY: 0 0.3306 1.5373 3.2793 0.0000 -10581.3897 1434.1125 0.0000 0.0000 1751.0595 -7391.0705 301.2558 -9142.1300 -7391.0705 301.2558 -33.3819 55.2588 30171.5525 -33.3819 55.2588
ENERGY: 300000 1.0136 5.0095 2.0493 0.0000 -10478.9689 1355.3511 0.0000 0.0000 1699.5007 -7416.0447 292.3855 -9115.5453 -7438.4629 298.1856 -614.3357 -548.3644 30409.6152 -518.3871 -428.9152
ENERGY: 600000 1.1771 5.8459 0.7016 0.0000 -10569.9700 1419.9670 0.0000 0.0000 1739.4387 -7402.8397 299.2565 -9142.2784 -7432.1363 298.8981 33.2223 53.1662 30051.1711 -197.8569 -133.3585
ENERGY: 900000 0.9516 4.0726 1.3512 0.0000 -10528.3449 1462.4227 0.0000 0.0000 1794.4243 -7265.1223 308.7164 -9059.5467 -7414.6314 299.5247 403.4915 475.2484 30577.3176 -98.2772 -33.9298
ENERGY: 1200000 0.4865 7.8614 3.0817 0.0000 -10601.2061 1404.3387 0.0000 0.0000 1734.2264 -7451.2113 298.3598 -9185.4377 -7435.3357 298.8881 -160.3303 -121.4200 29886.6815 -105.8980 -40.2738
ENERGY: 1500000 0.6394 2.5955 0.9426 0.0000 -10632.8885 1446.0038 0.0000 0.0000 1750.5421 -7432.1651 301.1668 -9182.7071 -7433.8376 300.1345 128.3362 197.1393 29937.8167 -39.7161 22.5701
TCL: Running FEP window   5: Lambda1 0.2    Lambda2 0.25   [dLambda 0.04999999999999999]
TCL: Setting parameter firsttimestep to 0
TCL: Setting parameter alchLambda to 0.2
Info: NONBONDED TABLE R-SQUARED SPACING: 0.0625
Info: NONBONDED TABLE SIZE: 705 POINTS
TCL: Setting parameter alchLambda2 to 0.25
Info: NONBONDED TABLE R-SQUARED SPACING: 0.0625
Info: NONBONDED TABLE SIZE: 705 POINTS
TCL: Running for 1500000 steps
ETITLE: TS BOND ANGLE DIHED IMPRP ELECT VDW BOUNDARY MISC KINETIC TOTAL TEMP POTENTIAL TOTALAVG TEMPAVG PRESSURE GPRESSURE VOLUME PRESSAVG GPRESSAVG
ENERGY: 0 0.6394 2.5955 0.9426 0.0000 -10632.8863 1446.0726 0.0000 0.0000 1749.6894 -7432.9466 301.0201 -9182.6361 -7432.9466 301.0201 111.7981 199.7892 29937.8167 111.7981 199.7892
ENERGY: 300000 1.9676 3.0818 2.6679 0.0000 -10585.5872 1422.6450 0.0000 0.0000 1729.7360 -7425.4889 297.5873 -9155.2248 -7425.7031 300.0232 -26.5959 75.7599 29949.1457 -5.8341 62.5773
ENERGY: 600000 0.1062 5.1595 1.7395 0.0000 -10545.7685 1354.8402 0.0000 0.0000 1777.4740 -7406.4491 305.8002 -9183.9231 -7429.6810 300.7760 -713.9298 -690.4067 30386.3427 -87.5843 -27.5750
ENERGY: 900000 1.5980 4.4716 2.2155 0.0000 -10604.2719 1463.5503 0.0000 0.0000 1760.2601 -7372.1764 302.8387 -9132.4365 -7431.1940 301.2759 407.2383 522.9574 30089.2881 -52.2000 2.8307
ENERGY: 1200000 0.4396 2.4111 1.9013 0.0000 -10717.3810 1510.3434 0.0000 0.0000 1775.9260 -7426.3596 305.5339 -9202.2856 -7426.6796 301.0054 547.7490 547.7192 30183.8427 -31.1835 23.5746
ENERGY: 1500000 0.7774 2.3860 1.2441 0.0000 -10606.2357 1430.3097 0.0000 0.0000 1805.3019 -7366.2167 310.5878 -9171.5186 -7437.3921 300.4373 -59.3264 76.6936 30024.2966 -26.0176 34.6414
TCL: Running FEP window   6: Lambda1 0.25   Lambda2 0.3    [dLambda 0.04999999999999999]
TCL: Setting parameter firsttimestep to 0
TCL: Setting parameter alchLambda to 0.25
Info: NONBONDED TABLE R-SQUARED SPACING: 0.0625
Info: NONBONDED TABLE SIZE: 705 POINTS
TCL: Setting parameter alchLambda2 to 0.3
Info: NONBONDED TABLE R-SQUARED SPACING: 0.0625
Info: NONBONDED TABLE SIZE: 705 POINTS
TCL: Running for 1500000 steps
ETITLE: TS BOND ANGLE DIHED IMPRP ELECT VDW BOUNDARY MISC KINETIC TOTAL TEMP POTENTIAL TOTALAVG TEMPAVG PRESSURE GPRESSURE VOLUME PRESSAVG GPRESSAVG
ENERGY: 0 0.7774 2.3860 1.2441 0.0000 -10606.2357 1430.2824 0.0000 0.0000 1804.4435 -7367.1024 310.4401 -9171.5459 -7367.1024 310.4401 8.6024 80.7877 30024.2966 8.6024 80.7877
ENERGY: 300000 0.8950 4.8697 1.3462 0.0000 -10523.9873 1332.8661 0.0000 0.0000 1728.8884 -7455.1219 297.4414 -9184.0102 -7450.3407 300.4775 -929.6408 -880.4388 30361.6639 -443.9544 -370.7773
ENERGY: 600000 0.9780 5.1127 1.8046 0.0000 -10599.4792 1388.0484 0.0000 0.0000 1759.6873 -7443.8483 302.7402 -9203.5356 -7436.5777 300.2368 -610.7164 -546.8077 30302.9325 -440.0764 -363.3983
ENERGY: 900000 0.5620 4.2452 0.6871 0.0000 -10596.2553 1434.7493 0.0000 0.0000 1647.9723 -7508.0393 283.5205 -9156.0117 -7443.6472 299.2534 -2.5815 50.2122 30078.6045 -275.0493 -205.7794
ENERGY: 1200000 2.1848 3.1869 1.1226 0.0000 -10511.8552 1372.9751 0.0000 0.0000 1792.2582 -7340.1276 308.3437 -9132.3858 -7431.9686 300.7004 -359.9798 -302.8490 29923.3859 -251.5145 -185.7391
ENERGY: 1500000 0.0930 5.3883 0.9154 0.0000 -10614.3876 1424.1097 0.0000 0.0000 1760.2507 -7423.6305 302.8371 -9183.8811 -7432.3674 300.1382 -12.0141 81.6859 30088.0440 -203.2269 -134.1365
TCL: Running FEP window   7: Lambda1 0.3    Lambda2 0.35   [dLambda 0.04999999999999999]
TCL: Setting parameter firsttimestep to 0
TCL: Setting parameter alchLambda to 0.3
Info: NONBONDED TABLE R-SQUARED SPACING: 0.0625
Info: NONBONDED TABLE SIZE: 705 POINTS
TCL: Setting parameter alchLambda2 to 0.35
Info: NONBONDED TABLE R-SQUARED SPACING: 0.0625
Info: NONBONDED TABLE SIZE: 705 POINTS
TCL: Running for 1500000 steps
ETITLE: TS BOND ANGLE DIHED IMPRP ELECT VDW BOUNDARY MISC KINETIC TOTAL TEMP POTENTIAL TOTALAVG TEMPAVG PRESSURE GPRESSURE VOLUME PRESSAVG GPRESSAVG
ENERGY: 0 0.0930 5.3883 0.9154 0.0000 -10614.3867 1424.0248 0.0000 0.0000 1759.3845 -7424.5806 302.6881 -9183.9651 -7424.5806 302.6881 -9.2055 82.4558 30088.0440 -9.2055 82.4558
ENERGY: 300000 0.1315 5.5986 1.5934 0.0000 -10733.0800 1473.4710 0.0000 0.0000 1838.6043 -7413.6812 316.3172 -9252.2855 -7421.5846 305.6586 341.9261 453.2355 29563.3885 -200.0235 -126.3852
ENERGY: 600000 0.9004 4.4944 0.6287 0.0000 -10436.9936 1301.5783 0.0000 0.0000 1765.5463 -7363.8455 303.7481 -9129.3918 -7419.4546 304.4304 -948.8596 -915.9711 30163.2548 -176.7438 -117.4760
ENERGY: 900000 0.3506 5.2725 1.9323 0.0000 -10625.6721 1446.7917 0.0000 0.0000 1716.0689 -7455.2561 295.2359 -9171.3250 -7421.1908 301.7518 153.8995 206.2847 29837.6582 -66.2027 -0.7296
ENERGY: 1200000 0.4029 2.4607 1.5053 0.0000 -10513.4200 1364.5202 0.0000 0.0000 1732.5301 -7412.0008 298.0680 -9144.5309 -7425.7807 300.6936 -577.2430 -484.5671 30647.5799 -97.2060 -26.6820
ENERGY: 1500000 1.7355 3.2941 2.2463 0.0000 -10670.2805 1470.7452 0.0000 0.0000 1775.1040 -7417.1554 305.3925 -9192.2594 -7418.3091 301.4778 437.7032 482.4733 30160.2213 -76.8186 -9.7657
TCL: Running FEP window   8: Lambda1 0.35   Lambda2 0.39999999999999997 [dLambda 0.04999999999999999]
TCL: Setting parameter firsttimestep to 0
TCL: Setting parameter alchLambda to 0.35
Info: NONBONDED TABLE R-SQUARED SPACING: 0.0625
Info: NONBONDED TABLE SIZE: 705 POINTS
TCL: Setting parameter alchLambda2 to 0.39999999999999997
Info: NONBONDED TABLE R-SQUARED SPACING: 0.0625
Info: NONBONDED TABLE SIZE: 705 POINTS
TCL: Running for 1500000 steps
ETITLE: TS BOND ANGLE DIHED IMPRP ELECT VDW BOUNDARY MISC KINETIC TOTAL TEMP POTENTIAL TOTALAVG TEMPAVG PRESSURE GPRESSURE VOLUME PRESSAVG GPRESSAVG
ENERGY: 0 1.7354 3.2941 2.2463 0.0000 -10670.2800 1471.0555 0.0000 0.0000 1774.2170 -7417.7316 305.2399 -9191.9486 -7417.7316 305.2399 410.7420 488.1382 30160.2213 410.7420 488.1382
ENERGY: 300000 0.3703 2.1776 2.1261 0.0000 -10562.1863 1408.1706 0.0000 0.0000 1704.1587 -7445.1830 293.1869 -9149.3417 -7422.7692 300.3565 -324.4164 -236.7813 30595.2390 -61.6068 36.0166
ENERGY: 600000 0.7634 5.4804 0.6675 0.0000 -10700.6494 1461.0970 0.0000 0.0000 1747.9160 -7484.7252 300.7150 -9232.6412 -7449.1200 299.3917 250.1088 282.1511 29828.6147 130.8351 208.7184
ENERGY: 900000 0.3138 4.0910 0.6221 0.0000 -10558.2775 1362.9176 0.0000 0.0000 1784.9351 -7405.3979 307.0838 -9190.3330 -7448.6755 299.3876 -547.6269 -483.5166 30256.2066 -1.0207 70.6920
ENERGY: 1200000 0.6785 6.5744 1.2283 0.0000 -10683.1293 1443.4264 0.0000 0.0000 1690.2145 -7541.0073 290.7879 -9231.2218 -7457.1660 298.3053 -155.9075 -114.3591 30026.9636 60.3884 128.1888
ENERGY: 1500000 1.3571 4.1718 2.4871 0.0000 -10834.1752 1496.9515 0.0000 0.0000 1693.4330 -7635.7746 291.3416 -9329.2077 -7465.6609 298.1179 333.4638 385.4695 29516.2524 34.7271 106.6539
TCL: Running FEP window   9: Lambda1 0.39999999999999997 Lambda2 0.44999999999999996 [dLambda 0.04999999999999999]
TCL: Setting parameter firsttimestep to 0
TCL: Setting parameter alchLambda to 0.39999999999999997
Info: NONBONDED TABLE R-SQUARED SPACING: 0.0625
Info: NONBONDED TABLE SIZE: 705 POINTS
TCL: Setting parameter alchLambda2 to 0.44999999999999996
Info: NONBONDED TABLE R-SQUARED SPACING: 0.0625
Info: NONBONDED TABLE SIZE: 705 POINTS
TCL: Running for 1500000 steps
ETITLE: TS BOND ANGLE DIHED IMPRP ELECT VDW BOUNDARY MISC KINETIC TOTAL TEMP POTENTIAL TOTALAVG TEMPAVG PRESSURE GPRESSURE VOLUME PRESSAVG GPRESSAVG
ENERGY: 0 1.3571 4.1719 2.4871 0.0000 -10834.1748 1496.7895 0.0000 0.0000 1692.5369 -7636.8323 291.1875 -9329.3692 -7636.8323 291.1875 309.0228 389.7429 29516.2524 309.0228 389.7429
ENERGY: 300000 1.1546 4.3859 0.7001 0.0000 -10603.1765 1445.1232 0.0000 0.0000 1712.6484 -7439.1643 294.6475 -9151.8127 -7462.8276 297.8150 173.0830 180.9193 30206.7889 107.5699 180.9742
ENERGY: 600000 0.0480 3.9170 1.3312 0.0000 -10636.0706 1441.2084 0.0000 0.0000 1736.5748 -7452.9911 298.7638 -9189.5659 -7469.1143 296.1693 60.5334 122.1610 30163.5484 157.6940 224.5724
ENERGY: 900000 1.0009 4.2380 0.7678 0.0000 -10625.9431 1464.1192 0.0000 0.0000 1757.2034 -7398.6138 302.3128 -9155.8172 -7455.6046 297.0042 596.0164 676.9487 29611.7448 143.5957 219.7675
ENERGY: 1200000 0.5944 3.5765 1.9017 0.0000 -10640.3306 1422.2650 0.0000 0.0000 1730.4795 -7481.5135 297.7152 -9211.9930 -7452.9637 297.8669 -121.9685 -21.8612 30134.0651 73.4806 142.0787
ENERGY: 1500000 0.8028 5.6313 1.0640 0.0000 -10691.7748 1482.7516 0.0000 0.0000 1784.7474 -7416.7778 307.0515 -9201.5252 -7453.3064 298.2233 473.9077 565.8265 30023.7040 80.1217 146.9954
TCL: Running FEP window  10: Lambda1 0.44999999999999996 Lambda2 0.49999999999999994 [dLambda 0.04999999999999999]
TCL: Setting parameter firsttimestep to 0
TCL: Setting parameter alchLambda to 0.44999999999999996
Info: NONBONDED TABLE R-SQUARED SPACING: 0.0625
Info: NONBONDED TABLE SIZE: 705 POINTS
TCL: Setting parameter alchLambda2 to 0.49999999999999994
Info: NONBONDED TABLE R-SQUARED SPACING: 0.0625
Info: NONBONDED TABLE SIZE: 705 POINTS
TCL: Running for 1500000 steps
ETITLE: TS BOND ANGLE DIHED IMPRP ELECT VDW BOUNDARY MISC KINETIC TOTAL TEMP POTENTIAL TOTALAVG TEMPAVG PRESSURE GPRESSURE VOLUME PRESSAVG GPRESSAVG
ENERGY: 0 0.8028 5.6313 1.0640 0.0000 -10691.7753 1483.2543 0.0000 0.0000 1783.9040 -7417.1189 306.9064 -9201.0229 -7417.1189 306.9064 504.2549 572.5974 30023.7040 504.2549 572.5974
ENERGY: 300000 0.7535 2.4185 0.9215 0.0000 -10509.2867 1361.0096 0.0000 0.0000 1739.1644 -7405.0191 299.2093 -9144.1835 -7410.1194 301.8839 -407.9702 -299.2412 29934.0869 -209.2182 -134.0316
ENERGY: 600000 0.6526 1.2809 2.1777 0.0000 -10730.8176 1550.6258 0.0000 0.0000 1751.3281 -7424.7525 301.3020 -9176.0806 -7421.5130 301.0988 1096.0048 1207.4690 29858.2950 -23.0787 51.2149
ENERGY: 900000 1.8031 4.5599 2.3739 0.0000 -10608.5110 1489.5972 0.0000 0.0000 1760.2512 -7349.9258 302.8372 -9110.1769 -7410.9745 302.1867 947.1465 1025.5236 29667.1575 76.4428 148.0161
ENERGY: 1200000 1.4461 1.9679 0.9393 0.0000 -10652.8970 1448.9059 0.0000 0.0000 1790.8662 -7408.7715 308.1042 -9199.6377 -7417.0199 302.2010 33.2224 44.8529 30125.4899 66.5963 136.2920
ENERGY: 1500000 0.5065 4.6925 1.4302 0.0000 -10725.4855 1475.5007 0.0000 0.0000 1704.1519 -7539.2037 293.1857 -9243.3555 -7423.4569 301.9174 262.9803 312.2783 29810.9889 66.9981 138.4158
TCL: Running FEP window  11: Lambda1 0.49999999999999994 Lambda2 0.5499999999999999 [dLambda 0.04999999999999999]
TCL: Setting parameter firsttimestep to 0
TCL: Setting parameter alchLambda to 0.49999999999999994
Info: NONBONDED TABLE R-SQUARED SPACING: 0.0625
Info: NONBONDED TABLE SIZE: 705 POINTS
TCL: Setting parameter alchLambda2 to 0.5499999999999999
Info: NONBONDED TABLE R-SQUARED SPACING: 0.0625
Info: NONBONDED TABLE SIZE: 705 POINTS
TCL: Running for 1500000 steps
ETITLE: TS BOND ANGLE DIHED IMPRP ELECT VDW BOUNDARY MISC KINETIC TOTAL TEMP POTENTIAL TOTALAVG TEMPAVG PRESSURE GPRESSURE VOLUME PRESSAVG GPRESSAVG
ENERGY: 0 0.5065 4.6925 1.4302 0.0000 -10725.4850 1476.0475 0.0000 0.0000 1703.2829 -7539.5254 293.0362 -9242.8083 -7539.5254 293.0362 239.4521 322.8714 29810.9889 239.4521 322.8714
ENERGY: 300000 1.6337 3.4678 0.7222 0.0000 -10627.0000 1476.3608 0.0000 0.0000 1759.0061 -7385.8094 302.6230 -9144.8155 -7442.5012 300.3370 343.9483 459.5985 30358.4294 4.5282 62.0709
ENERGY: 600000 0.5811 4.7658 1.8067 0.0000 -10605.0578 1444.6676 0.0000 0.0000 1723.1818 -7430.0549 296.4597 -9153.2367 -7425.4572 300.2395 133.3653 210.5103 30146.0523 77.0261 141.4733
ENERGY: 900000 1.4703 2.2221 1.5076 0.0000 -10660.8134 1412.8014 0.0000 0.0000 1840.2405 -7402.5715 316.5987 -9242.8120 -7409.4445 301.5779 -133.7765 -87.1366 29813.5054 140.0416 198.4607
ENERGY: 1200000 3.0349 4.4976 1.3788 0.0000 -10705.8319 1456.5555 0.0000 0.0000 1730.5865 -7509.7787 297.7336 -9240.3652 -7425.6239 300.0185 427.9386 455.8057 29490.5045 113.9056 168.2572
ENERGY: 1500000 0.6069 4.0474 0.8913 0.0000 -10575.2266 1424.4639 0.0000 0.0000 1800.5199 -7344.6972 309.7651 -9145.2171 -7419.5099 300.8829 186.1662 250.8523 29892.9030 102.4542 158.3633
TCL: Running FEP window  12: Lambda1 0.5499999999999999 Lambda2 0.6    [dLambda 0.050000000000000044]
TCL: Setting parameter firsttimestep to 0
TCL: Setting parameter alchLambda to 0.5499999999999999
Info: NONBONDED TABLE R-SQUARED SPACING: 0.0625
Info: NONBONDED TABLE SIZE: 705 POINTS
TCL: Setting parameter alchLambda2 to 0.6
Info: NONBONDED TABLE R-SQUARED SPACING: 0.0625
Info: NONBONDED TABLE SIZE: 705 POINTS
TCL: Running for 1500000 steps
ETITLE: TS BOND ANGLE DIHED IMPRP ELECT VDW BOUNDARY MISC KINETIC TOTAL TEMP POTENTIAL TOTALAVG TEMPAVG PRESSURE GPRESSURE VOLUME PRESSAVG GPRESSAVG
ENERGY: 0 0.6069 4.0474 0.8913 0.0000 -10574.9774 1424.2808 0.0000 0.0000 1799.6385 -7345.5126 309.6134 -9145.1511 -7345.5126 309.6134 169.5211 254.8266 29892.9030 169.5211 254.8266
ENERGY: 300000 0.1501 1.9963 2.9393 0.0000 -10550.0632 1378.4391 0.0000 0.0000 1713.5179 -7453.0205 294.7971 -9166.5384 -7410.6328 300.5174 -319.2548 -302.1672 30222.6765 -116.0785 -60.9972
ENERGY: 600000 0.2877 3.7604 1.5322 0.0000 -10585.3223 1407.3950 0.0000 0.0000 1746.7344 -7425.6126 300.5117 -9172.3469 -7428.7982 299.8008 -55.5663 -19.7095 29928.3820 -134.3804 -76.5324
ENERGY: 900000 0.2264 2.0166 1.0143 0.0000 -10728.8062 1503.4611 0.0000 0.0000 1754.8213 -7467.2665 301.9030 -9222.0878 -7432.2932 299.2027 396.0793 412.3230 30087.0345 -28.8610 19.4863
ENERGY: 1200000 1.5635 3.5942 1.6673 0.0000 -10677.6133 1429.3213 0.0000 0.0000 1740.0672 -7501.3997 299.3647 -9241.4669 -7444.9551 299.0692 75.8659 134.0779 29565.9323 -89.2177 -40.2466
ENERGY: 1500000 0.1785 3.5123 1.4133 0.0000 -10537.6065 1342.5572 0.0000 0.0000 1719.2556 -7470.6896 295.7842 -9189.9452 -7451.0004 298.4906 -805.0456 -771.2494 30357.0005 -115.8978 -69.8687
TCL: Running FEP window  13: Lambda1 0.6    Lambda2 0.65   [dLambda 0.050000000000000044]
TCL: Setting parameter firsttimestep to 0
TCL: Setting parameter alchLambda to 0.6
Info: NONBONDED TABLE R-SQUARED SPACING: 0.0625
Info: NONBONDED TABLE SIZE: 705 POINTS
TCL: Setting parameter alchLambda2 to 0.65
Info: NONBONDED TABLE R-SQUARED SPACING: 0.0625
Info: NONBONDED TABLE SIZE: 705 POINTS
TCL: Running for 1500000 steps
ETITLE: TS BOND ANGLE DIHED IMPRP ELECT VDW BOUNDARY MISC KINETIC TOTAL TEMP POTENTIAL TOTALAVG TEMPAVG PRESSURE GPRESSURE VOLUME PRESSAVG GPRESSAVG
ENERGY: 0 0.1785 3.5123 1.4133 0.0000 -10537.4618 1342.5093 0.0000 0.0000 1718.3840 -7471.4644 295.6342 -9189.8484 -7471.4644 295.6342 -848.7201 -765.5352 30357.0005 -848.7201 -765.5352
ENERGY: 300000 1.4691 2.9592 1.4408 0.0000 -10528.6294 1443.5857 0.0000 0.0000 1738.8343 -7340.3402 299.1526 -9079.1745 -7444.6534 296.9209 327.0588 342.2313 30563.0875 -29.2902 43.8064
ENERGY: 600000 1.5428 3.3406 1.8802 0.0000 -10617.8936 1384.4555 0.0000 0.0000 1735.0770 -7491.5974 298.5061 -9226.6744 -7451.2502 299.3339 -533.5013 -451.8324 30135.0472 -105.6652 -28.4779
ENERGY: 900000 0.6999 6.8542 3.5952 0.0000 -10604.2263 1465.6801 0.0000 0.0000 1718.5780 -7408.8190 295.6676 -9127.3969 -7447.5071 299.3658 744.1227 750.6736 29696.9616 -14.8114 55.3020
ENERGY: 1200000 1.4490 4.7869 1.4918 0.0000 -10667.6414 1433.3600 0.0000 0.0000 1704.4016 -7522.1520 293.2287 -9226.5537 -7448.2945 299.0394 88.0370 136.6804 29840.3285 0.2968 60.8965
ENERGY: 1500000 1.4425 2.5431 1.4269 0.0000 -10512.4962 1331.7926 0.0000 0.0000 1760.5889 -7414.7022 302.8953 -9175.2911 -7450.6386 299.2775 -788.3014 -700.1382 30181.3630 -59.8885 4.7212
TCL: Running FEP window  14: Lambda1 0.65   Lambda2 0.7000000000000001 [dLambda 0.050000000000000044]
TCL: Setting parameter firsttimestep to 0
TCL: Setting parameter alchLambda to 0.65
Info: NONBONDED TABLE R-SQUARED SPACING: 0.0625
Info: NONBONDED TABLE SIZE: 705 POINTS
TCL: Setting parameter alchLambda2 to 0.7000000000000001
Info: NONBONDED TABLE R-SQUARED SPACING: 0.0625
Info: NONBONDED TABLE SIZE: 705 POINTS
TCL: Running for 1500000 steps
ETITLE: TS BOND ANGLE DIHED IMPRP ELECT VDW BOUNDARY MISC KINETIC TOTAL TEMP POTENTIAL TOTALAVG TEMPAVG PRESSURE GPRESSURE VOLUME PRESSAVG GPRESSAVG
ENERGY: 0 1.4425 2.5431 1.4269 0.0000 -10512.5053 1332.9102 0.0000 0.0000 1759.7163 -7414.4662 302.7451 -9174.1825 -7414.4662 302.7451 -777.8796 -685.8220 30181.3630 -777.8796 -685.8220
ENERGY: 300000 1.1128 2.8012 1.4558 0.0000 -10711.1558 1482.2265 0.0000 0.0000 1767.1486 -7456.4109 304.0238 -9223.5595 -7437.9314 304.9267 510.0552 549.9147 29755.5624 -101.8172 -41.5208
ENERGY: 600000 1.2307 3.9033 0.6450 0.0000 -10656.1166 1500.9579 0.0000 0.0000 1771.7368 -7377.6429 304.8132 -9149.3796 -7425.1696 303.6944 856.5659 919.3762 29641.2390 97.7107 158.6549
ENERGY: 900000 1.6782 3.4243 0.5826 0.0000 -10565.7169 1467.1301 0.0000 0.0000 1710.9467 -7381.9549 294.3547 -9092.9016 -7422.9442 301.2891 501.9663 572.4673 30099.8818 113.2699 172.7247
ENERGY: 1200000 2.0386 2.8424 0.8594 0.0000 -10522.0285 1395.9352 0.0000 0.0000 1738.3239 -7382.0290 299.0647 -9120.3529 -7428.1377 300.8217 -210.3658 -192.7382 30160.0500 51.5177 106.7797
ENERGY: 1500000 0.0803 1.9988 1.7534 0.0000 -10675.2214 1448.7512 0.0000 0.0000 1733.0424 -7489.5954 298.1561 -9222.6377 -7431.0962 300.8580 167.2374 214.5212 29945.3986 50.2409 106.1001
TCL: Running FEP window  15: Lambda1 0.7000000000000001 Lambda2 0.7500000000000001 [dLambda 0.050000000000000044]
TCL: Setting parameter firsttimestep to 0
TCL: Setting parameter alchLambda to 0.7000000000000001
Info: NONBONDED TABLE R-SQUARED SPACING: 0.0625
Info: NONBONDED TABLE SIZE: 705 POINTS
TCL: Setting parameter alchLambda2 to 0.7500000000000001
Info: NONBONDED TABLE R-SQUARED SPACING: 0.0625
Info: NONBONDED TABLE SIZE: 705 POINTS
TCL: Running for 1500000 steps
ETITLE: TS BOND ANGLE DIHED IMPRP ELECT VDW BOUNDARY MISC KINETIC TOTAL TEMP POTENTIAL TOTALAVG TEMPAVG PRESSURE GPRESSURE VOLUME PRESSAVG GPRESSAVG
ENERGY: 0 0.0803 1.9988 1.7534 0.0000 -10674.8203 1448.6360 0.0000 0.0000 1732.1919 -7490.1599 298.0098 -9222.3518 -7490.1599 298.0098 139.1989 218.9835 29945.3986 139.1989 218.9835
ENERGY: 300000 0.9115 2.5818 1.0042 0.0000 -10574.7862 1390.4655 0.0000 0.0000 1713.9345 -7465.8887 294.8687 -9179.8232 -7470.0467 294.9274 -147.3507 -120.3842 30018.4523 341.8261 392.6962
ENERGY: 600000 1.5069 2.0700 0.7699 0.0000 -10583.7830 1410.9556 0.0000 0.0000 1749.7324 -7418.7483 301.0275 -9168.4807 -7442.7805 299.5132 -274.2927 -167.0325 30584.6004 197.3999 259.5902
ENERGY: 900000 0.3486 5.3129 1.2388 0.0000 -10565.1530 1399.4376 0.0000 0.0000 1755.8727 -7402.9422 302.0839 -9158.8150 -7437.8109 299.2454 -241.3492 -182.4479 30058.6074 72.5656 131.6986
ENERGY: 1200000 0.4130 3.9744 1.6628 0.0000 -10546.0075 1348.8490 0.0000 0.0000 1741.2771 -7449.8313 299.5728 -9191.1084 -7427.1464 299.1154 -793.5450 -692.1929 30479.2381 74.6801 136.5728
ENERGY: 1500000 0.5072 3.2866 2.3641 0.0000 -10453.2601 1388.8216 0.0000 0.0000 1774.1998 -7284.0808 305.2369 -9058.2806 -7416.8395 300.3013 -36.8031 -40.4796 30371.8328 85.9853 148.5757
TCL: Running FEP window  16: Lambda1 0.7500000000000001 Lambda2 0.8000000000000002 [dLambda 0.050000000000000044]
TCL: Setting parameter firsttimestep to 0
TCL: Setting parameter alchLambda to 0.7500000000000001
Info: NONBONDED TABLE R-SQUARED SPACING: 0.0625
Info: NONBONDED TABLE SIZE: 705 POINTS
TCL: Setting parameter alchLambda2 to 0.8000000000000002
Info: NONBONDED TABLE R-SQUARED SPACING: 0.0625
Info: NONBONDED TABLE SIZE: 705 POINTS
TCL: Running for 1500000 steps
ETITLE: TS BOND ANGLE DIHED IMPRP ELECT VDW BOUNDARY MISC KINETIC TOTAL TEMP POTENTIAL TOTALAVG TEMPAVG PRESSURE GPRESSURE VOLUME PRESSAVG GPRESSAVG
ENERGY: 0 0.5072 3.2866 2.3641 0.0000 -10453.8720 1389.8390 0.0000 0.0000 1773.3413 -7284.5338 305.0892 -9057.8751 -7284.5338 305.0892 -91.2700 -20.6111 30371.8328 -91.2700 -20.6111
ENERGY: 300000 0.8854 4.0077 1.6922 0.0000 -10802.3549 1509.9323 0.0000 0.0000 1729.0515 -7556.7857 297.4695 -9285.8372 -7419.8663 301.4377 513.8769 591.7090 29888.3233 -226.1294 -126.9694
ENERGY: 600000 0.8035 4.1094 1.8402 0.0000 -10566.1077 1429.0776 0.0000 0.0000 1725.1788 -7405.0982 296.8032 -9130.2770 -7438.5570 300.3411 40.3684 121.5883 30354.3025 -132.7244 -41.7367
ENERGY: 900000 1.0075 2.5723 1.4527 0.0000 -10520.4760 1436.8863 0.0000 0.0000 1714.7903 -7363.7670 295.0160 -9078.5573 -7421.3087 299.5077 447.9298 473.4859 30475.7531 -53.4680 26.4881
ENERGY: 1200000 0.6957 3.0004 0.6603 0.0000 -10598.3966 1384.4085 0.0000 0.0000 1708.7605 -7500.8712 293.9786 -9209.6317 -7422.6371 299.7915 -494.2188 -406.6065 30176.3725 -57.6341 18.8157
ENERGY: 1500000 0.0572 5.0384 1.4642 0.0000 -10662.8955 1431.1549 0.0000 0.0000 1721.6286 -7503.5523 296.1924 -9225.1809 -7422.7782 300.1342 -171.3645 -163.4322 30151.9656 -72.6965 0.2873
TCL: Running FEP window  17: Lambda1 0.8000000000000002 Lambda2 0.8500000000000002 [dLambda 0.050000000000000044]
TCL: Setting parameter firsttimestep to 0
TCL: Setting parameter alchLambda to 0.8000000000000002
Info: NONBONDED TABLE R-SQUARED SPACING: 0.0625
Info: NONBONDED TABLE SIZE: 705 POINTS
TCL: Setting parameter alchLambda2 to 0.8500000000000002
Info: NONBONDED TABLE R-SQUARED SPACING: 0.0625
Info: NONBONDED TABLE SIZE: 705 POINTS
TCL: Running for 1500000 steps
ETITLE: TS BOND ANGLE DIHED IMPRP ELECT VDW BOUNDARY MISC KINETIC TOTAL TEMP POTENTIAL TOTALAVG TEMPAVG PRESSURE GPRESSURE VOLUME PRESSAVG GPRESSAVG
ENERGY: 0 0.0572 5.0384 1.4642 0.0000 -10663.3258 1430.8171 0.0000 0.0000 1720.7801 -7505.1689 296.0465 -9225.9490 -7505.1689 296.0465 -250.2936 -159.7741 30151.9656 -250.2936 -159.7741
ENERGY: 300000 1.8947 2.8646 3.4064 0.0000 -10578.4534 1418.0834 0.0000 0.0000 1742.6617 -7409.5427 299.8110 -9152.2044 -7418.2575 301.1371 -244.5598 -180.8219 30381.3175 -281.9213 -239.8572
ENERGY: 600000 0.8578 4.2653 2.8491 0.0000 -10643.2466 1398.8004 0.0000 0.0000 1768.0018 -7468.4722 304.1706 -9236.4739 -7426.8046 301.7995 -133.7137 -81.8833 29606.9986 -148.5228 -105.0570
ENERGY: 900000 0.3747 6.5304 0.6153 0.0000 -10697.4906 1481.4044 0.0000 0.0000 1737.1856 -7471.3803 298.8689 -9208.5659 -7453.7701 299.8741 322.0275 393.1724 29857.8789 -117.2139 -63.5345
ENERGY: 1200000 1.5270 4.9678 0.6923 0.0000 -10643.6164 1441.9579 0.0000 0.0000 1786.8235 -7407.6478 307.4087 -9194.4713 -7449.1470 300.9486 187.6758 258.6712 30080.1202 -23.3699 36.1775
ENERGY: 1500000 0.7239 6.2144 1.3028 0.0000 -10562.0636 1351.9503 0.0000 0.0000 1751.5730 -7450.2992 301.3441 -9201.8722 -7444.1188 301.0172 -596.6201 -545.0400 29998.9808 -97.2524 -41.1097
TCL: Running FEP window  18: Lambda1 0.8500000000000002 Lambda2 0.9000000000000002 [dLambda 0.050000000000000044]
TCL: Setting parameter firsttimestep to 0
TCL: Setting parameter alchLambda to 0.8500000000000002
Info: NONBONDED TABLE R-SQUARED SPACING: 0.0625
Info: NONBONDED TABLE SIZE: 705 POINTS
TCL: Setting parameter alchLambda2 to 0.9000000000000002
Info: NONBONDED TABLE R-SQUARED SPACING: 0.0625
Info: NONBONDED TABLE SIZE: 705 POINTS
TCL: Running for 1500000 steps
ETITLE: TS BOND ANGLE DIHED IMPRP ELECT VDW BOUNDARY MISC KINETIC TOTAL TEMP POTENTIAL TOTALAVG TEMPAVG PRESSURE GPRESSURE VOLUME PRESSAVG GPRESSAVG
ENERGY: 0 0.7239 6.2144 1.3028 0.0000 -10562.4284 1352.0192 0.0000 0.0000 1750.6751 -7451.4931 301.1897 -9202.1681 -7451.4931 301.1897 -630.6899 -536.0068 29998.9808 -630.6899 -536.0068
ENERGY: 300000 0.6617 3.3993 1.3643 0.0000 -10592.6525 1407.4499 0.0000 0.0000 1712.6331 -7467.1443 294.6448 -9179.7774 -7408.8268 299.4193 -317.0223 -209.3596 30267.8430 -265.1219 -191.8203
ENERGY: 600000 0.3762 2.4231 0.9000 0.0000 -10575.0011 1372.7590 0.0000 0.0000 1762.9635 -7435.5793 303.3038 -9198.5428 -7427.1350 299.5731 -478.1410 -489.1313 30321.7574 -277.0457 -225.1510
ENERGY: 900000 0.1960 4.2539 1.2687 0.0000 -10617.7567 1475.9145 0.0000 0.0000 1701.6476 -7434.4760 292.7549 -9136.1237 -7430.6541 299.5810 450.7656 520.6222 29980.2748 -149.5189 -101.1450
ENERGY: 1200000 0.9444 5.3279 2.0070 0.0000 -10694.7188 1511.9965 0.0000 0.0000 1723.9502 -7450.4928 296.5919 -9174.4430 -7432.8408 298.5043 673.4205 763.9520 30073.2111 -119.1778 -65.0751
ENERGY: 1500000 0.8648 4.2615 0.7654 0.0000 -10666.3814 1445.1814 0.0000 0.0000 1653.6674 -7561.6409 284.5003 -9215.3083 -7429.2685 297.4444 168.9993 239.1397 29632.4916 -83.8812 -28.7909
TCL: Running FEP window  19: Lambda1 0.9000000000000002 Lambda2 0.9500000000000003 [dLambda 0.050000000000000044]
TCL: Setting parameter firsttimestep to 0
TCL: Setting parameter alchLambda to 0.9000000000000002
Info: NONBONDED TABLE R-SQUARED SPACING: 0.0625
Info: NONBONDED TABLE SIZE: 705 POINTS
TCL: Setting parameter alchLambda2 to 0.9500000000000003
Info: NONBONDED TABLE R-SQUARED SPACING: 0.0625
Info: NONBONDED TABLE SIZE: 705 POINTS
TCL: Running for 1500000 steps
ETITLE: TS BOND ANGLE DIHED IMPRP ELECT VDW BOUNDARY MISC KINETIC TOTAL TEMP POTENTIAL TOTALAVG TEMPAVG PRESSURE GPRESSURE VOLUME PRESSAVG GPRESSAVG
ENERGY: 0 0.8648 4.2615 0.7654 0.0000 -10666.3813 1445.2610 0.0000 0.0000 1652.8076 -7562.4210 284.3523 -9215.2286 -7562.4210 284.3523 174.0497 250.2882 29632.4916 174.0497 250.2882
ENERGY: 300000 0.9813 3.5265 1.0308 0.0000 -10504.5494 1347.1489 0.0000 0.0000 1674.8011 -7477.0607 288.1362 -9151.8619 -7492.0599 289.4976 -729.2869 -687.5200 30785.7664 325.6761 372.6879
ENERGY: 600000 0.2574 3.9743 0.7818 0.0000 -10646.9528 1444.9203 0.0000 0.0000 1743.2870 -7453.7320 299.9186 -9197.0190 -7476.2423 293.6144 34.8969 112.5807 30470.2759 159.0707 205.7812
ENERGY: 900000 0.2556 2.8350 2.2912 0.0000 -10730.1287 1479.1447 0.0000 0.0000 1715.6749 -7529.9274 295.1682 -9245.6022 -7476.2128 294.1069 419.9328 415.6859 29658.6005 171.2309 217.8465
ENERGY: 1200000 0.5087 3.9492 3.5421 0.0000 -10808.0229 1484.8762 0.0000 0.0000 1780.2198 -7534.9269 306.2726 -9315.1466 -7476.3392 296.0397 339.5304 413.0872 29701.0123 105.2627 160.9016
ENERGY: 1500000 1.3112 2.8593 1.4496 0.0000 -10760.9048 1501.8352 0.0000 0.0000 1730.3475 -7523.1020 297.6925 -9253.4495 -7472.3044 296.3422 988.6064 958.6226 29423.9399 89.3188 139.1798
TCL: Running FEP window  20: Lambda1 0.9500000000000003 Lambda2 1.0    [dLambda 0.04999999999999971]
TCL: Setting parameter firsttimestep to 0
TCL: Setting parameter alchLambda to 0.9500000000000003
Info: NONBONDED TABLE R-SQUARED SPACING: 0.0625
Info: NONBONDED TABLE SIZE: 705 POINTS
TCL: Setting parameter alchLambda2 to 1.0
Info: NONBONDED TABLE R-SQUARED SPACING: 0.0625
Info: NONBONDED TABLE SIZE: 705 POINTS
TCL: Running for 1500000 steps
ETITLE: TS BOND ANGLE DIHED IMPRP ELECT VDW BOUNDARY MISC KINETIC TOTAL TEMP POTENTIAL TOTALAVG TEMPAVG PRESSURE GPRESSURE VOLUME PRESSAVG GPRESSAVG
ENERGY: 0 1.3112 2.8593 1.4496 0.0000 -10761.4935 1502.3899 0.0000 0.0000 1729.4558 -7524.0276 297.5391 -9253.4834 -7524.0276 297.5391 902.5824 972.4954 29423.9399 902.5824 972.4954
ENERGY: 300000 0.1363 2.5704 0.8796 0.0000 -10683.6697 1463.6902 0.0000 0.0000 1749.2521 -7467.1412 300.9449 -9216.3933 -7464.6508 298.6885 374.5184 421.8209 29983.7996 293.2019 349.6417
ENERGY: 600000 0.0382 6.3742 3.0082 0.0000 -10554.1915 1394.2685 0.0000 0.0000 1722.7538 -7427.7487 296.3860 -9150.5025 -7457.1125 298.8874 -309.5462 -335.7621 30638.2354 -28.4042 17.9251
ENERGY: 900000 0.2992 4.1536 0.6015 0.0000 -10583.7144 1380.8544 0.0000 0.0000 1736.6175 -7461.1882 298.7712 -9197.8057 -7456.5727 298.3967 -451.4207 -438.3515 30185.6113 -61.2755 -14.2334
ENERGY: 1200000 1.6562 6.0429 1.0122 0.0000 -10475.5413 1335.4087 0.0000 0.0000 1763.1114 -7368.3098 303.3292 -9131.4212 -7429.7075 300.2552 -553.2082 -542.9385 30544.9268 -92.2914 -47.0318
ENERGY: 1500000 2.8344 2.3524 2.3577 0.0000 -10692.6039 1474.0071 0.0000 0.0000 1789.9256 -7421.1267 307.9424 -9211.0523 -7433.1743 300.7069 567.4430 609.2102 29723.6511 -8.5203 38.4466
TCL: Exiting due to exit command.
