Info: SIMULATION PARAMETERS:
Info: TIMESTEP               2
Info: NUMBER OF STEPS        0
Info: STEPS PER CYCLE        10
Info: PERIODIC CELL BASIS 1  30.8116 0 0
Info: PERIODIC CELL BASIS 2  0 29.4183 0
Info: PERIODIC CELL BASIS 3  0 0 32.757
Info: PERIODIC CELL CENTER   0 0 0
Info: WRAPPING WATERS AROUND PERIODIC BOUNDARIES ON OUTPUT.
Info: WRAPPING ALL CLUSTERS AROUND PERIODIC BOUNDARIES ON OUTPUT.
Info: FIRST LDB TIMESTEP     50
Info: LAST LDB TIMESTEP     -1
Info: HOM BACKGROUND SCALING 1
Info: PME BACKGROUND SCALING 1
Info: MIN ATOMS PER PATCH    40
Info: EMPTY PATCH LOAD       40 ATOMS
Info: VELOCITY FILE          mobley_20524_equil.vel
Info: CENTER OF MASS MOVING INITIALLY? NO
Info: DIELECTRIC             1
Info: EXCLUDE                SCALED ONE-FOUR
Info: 1-4 ELECTROSTATICS SCALED BY 0.833333
Info: MODIFIED 1-4 VDW PARAMETERS WILL BE USED
Info: DCD FILENAME           mobley_20524_prod.dcd
Info: DCD FREQUENCY          100000
Info: DCD FIRST STEP         100000
Info: DCD FILE WILL CONTAIN UNIT CELL DATA
Info: XST FILENAME           mobley_20524_prod.xst
Info: XST FREQUENCY          100000
Info: NO VELOCITY DCD OUTPUT
Info: NO FORCE DCD OUTPUT
Info: OUTPUT FILENAME        mobley_20524_prod
Info: BINARY OUTPUT FILES WILL BE USED
Info: RESTART FILENAME       mobley_20524_prod.restart
Info: RESTART FREQUENCY      100000
Info: BINARY RESTART FILES WILL BE USED
Info: CUTOFF                 9
Info: PAIRLIST DISTANCE      11
Info: PAIRLIST SHRINK RATE   0.01
Info: PAIRLIST GROW RATE     0.01
Info: PAIRLIST TRIGGER       0.3
Info: PAIRLISTS PER CYCLE    2
Info: PAIRLISTS ENABLED
Info: MARGIN                 2
Info: HYDROGEN GROUP CUTOFF  2.5
Info: PATCH DIMENSION        15.5
Info: ENERGY OUTPUT STEPS    100000
Info: ENERGY EVALUATION STEPS    100000
Info: OUTPUT ENERGY PRECISION 4
Info: CROSSTERM ENERGY INCLUDED IN DIHEDRAL
Info: TIMING OUTPUT STEPS    1000000
Info: PRESSURE OUTPUT STEPS  100000
Info: ALCHEMICAL FEP ON
Info: FEP CURRENT LAMBDA VALUE     0
Info: FEP COMPARISON LAMBDA VALUE  0.05
Info: FEP INTRA-ALCHEMICAL NON-BONDED INTERACTIONS WILL BE RETAINED
Info: FEP INTRA-ALCHEMICAL BONDED INTERACTIONS WILL BE RETAINED
Info: FEP VDW SHIFTING COEFFICIENT 5
Info: FEP ELEC. ACTIVE FOR ANNIHILATED PARTICLES BETWEEN LAMBDA = 0 AND LAMBDA = 0.5
Info: FEP ELEC. ACTIVE FOR EXNIHILATED PARTICLES BETWEEN LAMBDA = 0.5 AND LAMBDA = 1
Info: FEP VDW ACTIVE FOR ANNIHILATED PARTICLES BETWEEN LAMBDA = 0 AND LAMBDA = 1
Info: FEP VDW ACTIVE FOR EXNIHILATED PARTICLES BETWEEN LAMBDA = 0 AND LAMBDA = 1
Info: FEP BOND ACTIVE FOR ANNIHILATED PARTICLES BETWEEN LAMBDA = 1 AND LAMBDA = 1
Info: FEP BOND ACTIVE FOR EXNIHILATED PARTICLES BETWEEN LAMBDA = 0 AND LAMBDA = 0
Info: LANGEVIN DYNAMICS ACTIVE
Info: LANGEVIN TEMPERATURE   300
Info: LANGEVIN USING BBK INTEGRATOR
Info: LANGEVIN DAMPING COEFFICIENT IS 1 INVERSE PS
Info: LANGEVIN DYNAMICS APPLIED TO HYDROGENS
Info: LANGEVIN PISTON PRESSURE CONTROL ACTIVE
Info:        TARGET PRESSURE IS 1.01325 BAR
Info:     OSCILLATION PERIOD IS 50 FS
Info:             DECAY TIME IS 25 FS
Info:     PISTON TEMPERATURE IS 300 K
Info:       PRESSURE CONTROL IS GROUP-BASED
Info:    INITIAL STRAIN RATE IS 0.000563349 0.000563349 0.000563349
Info:       CELL FLUCTUATION IS ISOTROPIC
Info: PARTICLE MESH EWALD (PME) ACTIVE
Info: PME TOLERANCE               1e-06
Info: PME EWALD COEFFICIENT       0.348832
Info: PME INTERPOLATION ORDER     4
Info: PME GRID DIMENSIONS         32 32 36
Info: PME MAXIMUM GRID SPACING    1
Info: PME CALCULATION WILL BE PERFORMED ON GPU
Info: FULL ELECTROSTATIC EVALUATION FREQUENCY      2
Info: USING VERLET I (r-RESPA) MTS SCHEME.
Info: C1 SPLITTING OF LONG RANGE ELECTROSTATICS
Info: PLACING ATOMS IN PATCHES BY HYDROGEN GROUPS
Info: RIGID BONDS TO HYDROGEN : ALL
Info:         ERROR TOLERANCE : 1e-08
Info:          MAX ITERATIONS : 100
Info: RIGID WATER USING SETTLE ALGORITHM
Info: RANDOM NUMBER SEED     1743545193
Info: USE HYDROGEN BONDS?    NO
Info: Using AMBER format force field!
Info: AMBER PARM FILE        mobley_20524.prmtop
Info: COORDINATE PDB         mobley_20524.pdb
Info: Exclusions will be read from PARM file!
Info: SCNB (VDW SCALING)     2
Info: USING ARITHMETIC MEAN TO COMBINE L-J SIGMA PARAMETERS
Info: BINARY COORDINATES     mobley_20524_equil.coor
Info: SUMMARY OF PARAMETERS:
Info: 6 BONDS
Info: 4 ANGLES
Info:   4 HARMONIC
Info:   0 COSINE-BASED
Info: 3 DIHEDRAL
Info: 0 IMPROPER
Info: 0 CROSSTERM
Info: 0 VDW
Info: 15 VDW_PAIRS
Info: 0 NBTHOLE_PAIRS
Info: To read alchdata from file: mobley_20524.pdb
Info: To read alchflag data from column: 5
Info: STRUCTURE SUMMARY:
Info: 2938 ATOMS
Info: 2938 BONDS
Info: 19 ANGLES
Info: 32 DIHEDRALS
Info: 0 IMPROPERS
Info: 0 CROSSTERMS
Info: 2980 EXCLUSIONS
Info: 2931 RIGID BONDS
Info: ALCH: 0 ATOMS TO DISAPPEAR IN FINAL STATE
Info: ALCH: 13 ATOMS TO APPEAR IN FINAL STATE
Info: 5883 DEGREES OF FREEDOM
Info: 982 HYDROGEN GROUPS
Info: 3 ATOMS IN LARGEST HYDROGEN GROUP
Info: 982 MIGRATION GROUPS
Info: 3 ATOMS IN LARGEST MIGRATION GROUP
Info: TOTAL MASS = 17659.7 amu
Info: TOTAL CHARGE = -1.49012e-08 e
Info: MASS DENSITY = 0.98766 g/cm^3
Info: ATOM DENSITY = 0.0989501 atoms/A^3
Info: ADDED 0 IMPLICIT EXCLUSIONS
Info: NONBONDED TABLE R-SQUARED SPACING: 0.0625
Info: NONBONDED TABLE SIZE: 705 POINTS
Info: REMOVING COM VELOCITY 0.1351 -0.128345 0.293459
Info: Use 3D box decompostion in PME FFT.
Info: Updated CUDA force table with 4096 elements.
Info: Updated CUDA LJ table with 5 x 5 elements.
Info: Found 15 unique exclusion lists needing 28 bytes
TCL: Running for 1500000 steps
ETITLE: TS BOND ANGLE DIHED IMPRP ELECT VDW BOUNDARY MISC KINETIC TOTAL TEMP POTENTIAL TOTALAVG TEMPAVG PRESSURE GPRESSURE VOLUME PRESSAVG GPRESSAVG
ENERGY: 0 0.9087 1.8534 4.5869 0.0000 -10737.9663 1505.4597 0.0000 0.0000 1730.0732 -7495.0845 295.9757 -9225.1576 -7495.0845 295.9757 755.9177 843.8122 29691.7243 755.9177 843.8122
ENERGY: 300000 2.1063 1.7512 7.9803 0.0000 -10470.3085 1318.2615 0.0000 0.0000 1786.7421 -7353.4671 305.6704 -9140.2092 -7450.1905 299.0812 -583.8110 -497.2247 30062.5002 -132.5257 -63.4607
ENERGY: 600000 3.9488 2.7088 6.9757 0.0000 -10609.2472 1368.6019 0.0000 0.0000 1741.8191 -7485.1928 297.9851 -9227.0119 -7439.1070 300.3848 -707.6306 -615.7544 29906.5829 -119.5934 -40.1208
ENERGY: 900000 3.4018 2.0565 2.9145 0.0000 -10736.3811 1494.7475 0.0000 0.0000 1793.4478 -7439.8128 306.8176 -9233.2607 -7441.1929 301.0005 476.9513 530.7526 29878.0521 -130.2286 -54.7534
ENERGY: 1200000 1.2036 3.3413 1.8522 0.0000 -10845.0864 1549.1153 0.0000 0.0000 1713.1752 -7576.3988 293.0848 -9289.5740 -7456.8475 300.2065 802.6477 812.0487 29843.0296 -127.0754 -57.4378
ENERGY: 1500000 1.0559 4.8183 4.0431 0.0000 -10826.5875 1480.6764 0.0000 0.0000 1756.8769 -7579.1169 300.5612 -9335.9938 -7467.2857 300.3411 311.1938 382.9406 29273.7307 -146.0427 -74.3932
TCL: Running FEP window   2: Lambda1 0.05   Lambda2 0.1    [dLambda 0.05  ]
TCL: Setting parameter firsttimestep to 0
TCL: Setting parameter alchLambda to 0.05
Info: NONBONDED TABLE R-SQUARED SPACING: 0.0625
Info: NONBONDED TABLE SIZE: 705 POINTS
TCL: Setting parameter alchLambda2 to 0.1
Info: NONBONDED TABLE R-SQUARED SPACING: 0.0625
Info: NONBONDED TABLE SIZE: 705 POINTS
TCL: Running for 1500000 steps
ETITLE: TS BOND ANGLE DIHED IMPRP ELECT VDW BOUNDARY MISC KINETIC TOTAL TEMP POTENTIAL TOTALAVG TEMPAVG PRESSURE GPRESSURE VOLUME PRESSAVG GPRESSAVG
ENERGY: 0 1.0559 4.8183 4.0431 0.0000 -10826.5882 1483.2741 0.0000 0.0000 1756.0049 -7577.3919 300.4120 -9333.3968 -7577.3919 300.4120 303.8158 389.9767 29273.7307 303.8158 389.9767
ENERGY: 300000 1.2322 3.2241 5.3379 0.0000 -10703.4221 1440.1629 0.0000 0.0000 1768.4906 -7484.9745 302.5480 -9253.4650 -7494.4359 299.3139 141.4962 124.0512 30159.1070 -92.3582 -50.7967
ENERGY: 600000 1.5590 3.2935 3.2174 0.0000 -10698.1873 1450.4203 0.0000 0.0000 1732.0915 -7507.6057 296.3210 -9239.6971 -7479.4362 297.1223 58.9602 61.6107 30009.9473 -167.1919 -130.3792
ENERGY: 900000 2.0200 4.1322 1.7642 0.0000 -10686.8362 1480.3159 0.0000 0.0000 1789.1149 -7409.4890 306.0764 -9198.6039 -7484.4888 297.4203 187.0377 286.0871 30282.4790 -73.1211 -25.7301
ENERGY: 1200000 3.7571 2.6145 2.0489 0.0000 -10596.2424 1385.9298 0.0000 0.0000 1797.2812 -7404.6110 307.4734 -9201.8921 -7476.6047 298.5992 -507.3533 -474.9876 30628.4802 -142.3396 -92.2058
ENERGY: 1500000 2.6556 3.6341 10.4182 0.0000 -10703.9998 1482.1382 0.0000 0.0000 1749.1271 -7456.0265 299.2354 -9205.1536 -7468.6082 298.3686 552.4082 609.4611 29846.1914 -123.9992 -73.7017
TCL: Running FEP window   3: Lambda1 0.1    Lambda2 0.15000000000000002 [dLambda 0.05000000000000002]
TCL: Setting parameter firsttimestep to 0
TCL: Setting parameter alchLambda to 0.1
Info: NONBONDED TABLE R-SQUARED SPACING: 0.0625
Info: NONBONDED TABLE SIZE: 705 POINTS
TCL: Setting parameter alchLambda2 to 0.15000000000000002
Info: NONBONDED TABLE R-SQUARED SPACING: 0.0625
Info: NONBONDED TABLE SIZE: 705 POINTS
TCL: Running for 1500000 steps
ETITLE: TS BOND ANGLE DIHED IMPRP ELECT VDW BOUNDARY MISC KINETIC TOTAL TEMP POTENTIAL TOTALAVG TEMPAVG PRESSURE GPRESSURE VOLUME PRESSAVG GPRESSAVG
ENERGY: 0 2.6556 3.6341 10.4182 0.0000 -10704.0006 1482.3068 0.0000 0.0000 1748.2786 -7456.7072 299.0902 -9204.9858 -7456.7072 299.0902 535.0691 611.0080 29846.1914 535.0691 611.0080
ENERGY: 300000 1.5186 1.8720 1.0881 0.0000 -10570.6905 1417.6558 0.0000 0.0000 1775.8116 -7372.7445 303.8005 -9148.5561 -7469.3337 299.7868 220.2324 259.0996 30289.2055 -160.7511 -110.5709
ENERGY: 600000 2.4976 0.6198 2.0364 0.0000 -10771.9878 1505.2087 0.0000 0.0000 1773.7428 -7487.8825 303.4465 -9261.6253 -7474.6358 299.0382 678.4875 750.3819 29703.6378 73.6127 123.9661
ENERGY: 900000 1.4866 5.1552 1.6603 0.0000 -10608.4668 1389.3740 0.0000 0.0000 1745.9515 -7464.8391 298.6921 -9210.7906 -7471.8898 300.2805 -306.5879 -275.6502 29949.9907 78.9382 130.2974
ENERGY: 1200000 2.6134 1.9135 1.7901 0.0000 -10820.7856 1558.3810 0.0000 0.0000 1758.2314 -7497.8562 300.7929 -9256.0876 -7475.5982 300.2136 1142.6080 1169.1147 29638.0453 50.6192 105.1859
ENERGY: 1500000 1.6530 3.4438 4.5100 0.0000 -10714.8239 1433.7204 0.0000 0.0000 1786.2920 -7485.2047 305.5934 -9271.4967 -7466.2753 301.1499 -135.4039 -27.6953 30227.0166 47.6773 107.8100
TCL: Running FEP window   4: Lambda1 0.15000000000000002 Lambda2 0.2    [dLambda 0.04999999999999999]
TCL: Setting parameter firsttimestep to 0
TCL: Setting parameter alchLambda to 0.15000000000000002
Info: NONBONDED TABLE R-SQUARED SPACING: 0.0625
Info: NONBONDED TABLE SIZE: 705 POINTS
TCL: Setting parameter alchLambda2 to 0.2
Info: NONBONDED TABLE R-SQUARED SPACING: 0.0625
Info: NONBONDED TABLE SIZE: 705 POINTS
TCL: Running for 1500000 steps
ETITLE: TS BOND ANGLE DIHED IMPRP ELECT VDW BOUNDARY MISC KINETIC TOTAL TEMP POTENTIAL TOTALAVG TEMPAVG PRESSURE GPRESSURE VOLUME PRESSAVG GPRESSAVG
ENERGY: 0 1.6530 3.4438 4.5100 0.0000 -10714.8259 1434.1419 0.0000 0.0000 1785.3823 -7485.6949 305.4378 -9271.0772 -7485.6949 305.4378 -106.8371 -22.8596 30227.0166 -106.8371 -22.8596
ENERGY: 300000 2.2798 3.0371 4.5468 0.0000 -10632.0863 1381.1190 0.0000 0.0000 1713.3466 -7527.7569 293.1141 -9241.1035 -7492.5592 299.4401 -646.4814 -603.2175 30325.5623 -71.5649 -22.3552
ENERGY: 600000 3.4516 1.4744 2.5363 0.0000 -10670.7853 1503.7337 0.0000 0.0000 1762.3463 -7397.2428 301.4969 -9159.5892 -7473.1572 300.3254 599.5386 622.9522 30028.4252 -77.6214 -33.3246
ENERGY: 900000 2.2107 6.5444 5.5108 0.0000 -10685.2951 1473.7892 0.0000 0.0000 1738.1045 -7459.1355 297.3496 -9197.2400 -7462.9374 300.4203 -34.7992 92.3095 30357.0742 -54.0985 0.8817
ENERGY: 1200000 5.7017 3.0333 2.1533 0.0000 -10856.6937 1558.7939 0.0000 0.0000 1788.0237 -7498.9878 305.8897 -9287.0115 -7470.1451 300.5564 887.2504 929.3397 29766.3654 -66.0250 -14.1604
ENERGY: 1500000 2.7720 2.2745 2.6589 0.0000 -10680.3407 1485.6662 0.0000 0.0000 1749.9430 -7437.0259 299.3749 -9186.9690 -7457.7573 301.3953 496.0361 553.3311 30087.0690 -56.5919 -3.6927
TCL: Running FEP window   5: Lambda1 0.2    Lambda2 0.25   [dLambda 0.04999999999999999]
TCL: Setting parameter firsttimestep to 0
TCL: Setting parameter alchLambda to 0.2
Info: NONBONDED TABLE R-SQUARED SPACING: 0.0625
Info: NONBONDED TABLE SIZE: 705 POINTS
TCL: Setting parameter alchLambda2 to 0.25
Info: NONBONDED TABLE R-SQUARED SPACING: 0.0625
Info: NONBONDED TABLE SIZE: 705 POINTS
TCL: Running for 1500000 steps
ETITLE: TS BOND ANGLE DIHED IMPRP ELECT VDW BOUNDARY MISC KINETIC TOTAL TEMP POTENTIAL TOTALAVG TEMPAVG PRESSURE GPRESSURE VOLUME PRESSAVG GPRESSAVG
ENERGY: 0 2.7720 2.2745 2.6589 0.0000 -10680.3399 1489.2300 0.0000 0.0000 1749.0797 -7434.3248 299.2272 -9183.4044 -7434.3248 299.2272 481.8760 571.4063 30087.0690 481.8760 571.4063
ENERGY: 300000 3.1723 2.4117 5.7711 0.0000 -10720.8315 1447.3805 0.0000 0.0000 1759.9670 -7502.1290 301.0898 -9262.0960 -7477.9797 298.1844 498.0580 491.6078 29498.9798 -182.5992 -126.0972
ENERGY: 600000 3.2047 2.5507 4.4491 0.0000 -10696.4044 1406.1956 0.0000 0.0000 1763.1760 -7516.8283 301.6388 -9280.0043 -7477.3661 299.9757 -314.1605 -236.6915 29792.7075 -156.4071 -102.8163
ENERGY: 900000 0.4835 3.3521 4.0214 0.0000 -10348.5685 1259.4696 0.0000 0.0000 1787.6490 -7293.5929 305.8256 -9081.2419 -7456.8654 299.7779 -1206.4573 -1078.9080 30919.2768 -216.4960 -156.2057
ENERGY: 1200000 3.2953 1.9489 3.4376 0.0000 -10685.9690 1430.9386 0.0000 0.0000 1782.0887 -7464.2599 304.8743 -9246.3486 -7449.6346 301.3123 -215.2764 -156.5184 30248.3340 -206.0576 -138.3109
ENERGY: 1500000 1.8336 2.3627 6.6825 0.0000 -10548.4900 1377.2946 0.0000 0.0000 1775.9630 -7384.3537 303.8264 -9160.3166 -7455.7554 301.4820 -293.7034 -292.8423 30157.8346 -211.0688 -142.4599
TCL: Running FEP window   6: Lambda1 0.25   Lambda2 0.3    [dLambda 0.04999999999999999]
TCL: Setting parameter firsttimestep to 0
TCL: Setting parameter alchLambda to 0.25
Info: NONBONDED TABLE R-SQUARED SPACING: 0.0625
Info: NONBONDED TABLE SIZE: 705 POINTS
TCL: Setting parameter alchLambda2 to 0.3
Info: NONBONDED TABLE R-SQUARED SPACING: 0.0625
Info: NONBONDED TABLE SIZE: 705 POINTS
TCL: Running for 1500000 steps
ETITLE: TS BOND ANGLE DIHED IMPRP ELECT VDW BOUNDARY MISC KINETIC TOTAL TEMP POTENTIAL TOTALAVG TEMPAVG PRESSURE GPRESSURE VOLUME PRESSAVG GPRESSAVG
ENERGY: 0 1.8336 2.3627 6.6825 0.0000 -10548.4906 1376.7862 0.0000 0.0000 1775.0609 -7385.7647 303.6720 -9160.8256 -7385.7647 303.6720 -372.2895 -292.7918 30157.8346 -372.2895 -292.7918
ENERGY: 300000 1.0711 2.9103 0.9103 0.0000 -10655.9603 1382.3244 0.0000 0.0000 1755.7535 -7512.9907 300.3690 -9268.7442 -7392.0659 303.5878 -679.2414 -646.9552 30385.9471 -446.0122 -384.5346
ENERGY: 600000 3.0209 2.5632 3.0900 0.0000 -10648.0649 1413.7590 0.0000 0.0000 1761.7845 -7463.8472 301.4008 -9225.6318 -7425.2670 301.7736 -466.2080 -408.2534 30665.6374 -293.3373 -240.4648
ENERGY: 900000 1.9391 3.8657 2.9779 0.0000 -10648.7311 1381.8068 0.0000 0.0000 1774.7571 -7483.3844 303.6201 -9258.1415 -7430.1057 301.5105 -465.1051 -401.6781 30162.1913 -235.1357 -181.3929
ENERGY: 1200000 0.8848 3.2102 2.4820 0.0000 -10590.9041 1419.3292 0.0000 0.0000 1753.9306 -7411.0674 300.0571 -9164.9980 -7431.0424 301.1481 -206.0737 -103.2372 30685.6781 -272.7777 -216.8155
ENERGY: 1500000 0.7885 3.8006 2.8506 0.0000 -10650.6385 1446.3145 0.0000 0.0000 1770.4907 -7426.3935 302.8902 -9196.8842 -7435.9272 301.5342 49.5028 127.0899 30208.6768 -258.4721 -202.2123
TCL: Running FEP window   7: Lambda1 0.3    Lambda2 0.35   [dLambda 0.04999999999999999]
TCL: Setting parameter firsttimestep to 0
TCL: Setting parameter alchLambda to 0.3
Info: NONBONDED TABLE R-SQUARED SPACING: 0.0625
Info: NONBONDED TABLE SIZE: 705 POINTS
TCL: Setting parameter alchLambda2 to 0.35
Info: NONBONDED TABLE R-SQUARED SPACING: 0.0625
Info: NONBONDED TABLE SIZE: 705 POINTS
TCL: Running for 1500000 steps
ETITLE: TS BOND ANGLE DIHED IMPRP ELECT VDW BOUNDARY MISC KINETIC TOTAL TEMP POTENTIAL TOTALAVG TEMPAVG PRESSURE GPRESSURE VOLUME PRESSAVG GPRESSAVG
ENERGY: 0 0.7886 3.8006 2.8506 0.0000 -10650.6388 1446.1780 0.0000 0.0000 1769.6218 -7427.3993 302.7415 -9197.0211 -7427.3993 302.7415 53.1424 129.3470 30208.6768 53.1424 129.3470
ENERGY: 300000 2.5958 3.6473 3.4807 0.0000 -10693.6590 1481.6941 0.0000 0.0000 1702.4172 -7499.8239 291.2444 -9202.2411 -7433.2497 300.1459 383.7617 458.2228 29847.1602 -181.8559 -95.6005
ENERGY: 600000 1.0404 2.7606 5.4715 0.0000 -10553.1013 1374.1995 0.0000 0.0000 1764.7115 -7404.9178 301.9015 -9169.6293 -7442.8780 300.4460 -351.4656 -309.0177 30338.4365 -118.6297 -39.0067
ENERGY: 900000 0.7879 0.4564 1.7990 0.0000 -10521.0324 1339.0656 0.0000 0.0000 1763.8332 -7415.0903 301.7512 -9178.9235 -7432.9976 301.7245 -599.8373 -560.6554 30407.0410 -60.8552 9.5182
ENERGY: 1200000 1.1555 2.4246 5.5284 0.0000 -10630.3465 1395.1892 0.0000 0.0000 1744.2566 -7481.7922 298.4021 -9226.0488 -7439.3093 301.3910 -584.2661 -469.5795 30514.7780 -111.2029 -46.3907
ENERGY: 1500000 1.1428 3.4873 2.8997 0.0000 -10679.9722 1450.7525 0.0000 0.0000 1715.2347 -7506.4552 293.4372 -9221.6899 -7455.1207 300.4575 329.9875 374.8644 29711.7640 -110.8544 -42.4214
TCL: Running FEP window   8: Lambda1 0.35   Lambda2 0.39999999999999997 [dLambda 0.04999999999999999]
TCL: Setting parameter firsttimestep to 0
TCL: Setting parameter alchLambda to 0.35
Info: NONBONDED TABLE R-SQUARED SPACING: 0.0625
Info: NONBONDED TABLE SIZE: 705 POINTS
TCL: Setting parameter alchLambda2 to 0.39999999999999997
Info: NONBONDED TABLE R-SQUARED SPACING: 0.0625
Info: NONBONDED TABLE SIZE: 705 POINTS
TCL: Running for 1500000 steps
ETITLE: TS BOND ANGLE DIHED IMPRP ELECT VDW BOUNDARY MISC KINETIC TOTAL TEMP POTENTIAL TOTALAVG TEMPAVG PRESSURE GPRESSURE VOLUME PRESSAVG GPRESSAVG
ENERGY: 0 1.1428 3.4873 2.8997 0.0000 -10679.9729 1450.8329 0.0000 0.0000 1714.3572 -7507.2529 293.2870 -9221.6101 -7507.2529 293.2870 295.0883 379.6570 29711.7640 295.0883 379.6570
ENERGY: 300000 2.4408 6.4030 2.1257 0.0000 -10680.5761 1454.9221 0.0000 0.0000 1734.0462 -7480.6382 296.6554 -9214.6845 -7504.1106 294.6982 308.0289 299.4789 30109.4677 133.5311 181.9079
ENERGY: 600000 3.5634 2.7355 3.2808 0.0000 -10664.3398 1486.0837 0.0000 0.0000 1750.2454 -7418.4309 299.4267 -9168.6763 -7499.1951 296.0981 343.2625 400.8587 30328.1987 134.8426 178.3368
ENERGY: 900000 3.9369 1.8176 4.6129 0.0000 -10769.6858 1490.6247 0.0000 0.0000 1817.8287 -7450.8650 310.9886 -9268.6937 -7482.6203 299.5442 665.4556 722.0446 29738.5918 250.7901 293.0373
ENERGY: 1200000 1.3281 2.2005 3.9663 0.0000 -10645.7308 1409.7638 0.0000 0.0000 1811.6246 -7416.8476 309.9272 -9228.4722 -7467.2632 300.9050 -154.9535 -109.8126 30156.0132 169.7009 215.6069
ENERGY: 1500000 2.1869 1.8364 4.5939 0.0000 -10566.5425 1385.1850 0.0000 0.0000 1776.7493 -7395.9910 303.9609 -9172.7403 -7454.5783 301.3830 -284.2936 -186.4201 30057.8414 92.9064 143.3807
TCL: Running FEP window   9: Lambda1 0.39999999999999997 Lambda2 0.44999999999999996 [dLambda 0.04999999999999999]
TCL: Setting parameter firsttimestep to 0
TCL: Setting parameter alchLambda to 0.39999999999999997
Info: NONBONDED TABLE R-SQUARED SPACING: 0.0625
Info: NONBONDED TABLE SIZE: 705 POINTS
TCL: Setting parameter alchLambda2 to 0.44999999999999996
Info: NONBONDED TABLE R-SQUARED SPACING: 0.0625
Info: NONBONDED TABLE SIZE: 705 POINTS
TCL: Running for 1500000 steps
ETITLE: TS BOND ANGLE DIHED IMPRP ELECT VDW BOUNDARY MISC KINETIC TOTAL TEMP POTENTIAL TOTALAVG TEMPAVG PRESSURE GPRESSURE VOLUME PRESSAVG GPRESSAVG
ENERGY: 0 2.1869 1.8364 4.5939 0.0000 -10566.5417 1385.2911 0.0000 0.0000 1775.8460 -7396.7873 303.8063 -9172.6333 -7396.7873 303.8063 -289.8877 -181.5749 30057.8414 -289.8877 -181.5749
ENERGY: 300000 1.8624 1.5530 3.4795 0.0000 -10659.8997 1411.7557 0.0000 0.0000 1782.1481 -7459.1011 304.8845 -9241.2492 -7421.8776 305.3384 -176.1275 -187.6889 30422.0164 -252.1203 -211.5803
ENERGY: 600000 1.1565 3.6534 1.5706 0.0000 -10734.1592 1451.0194 0.0000 0.0000 1750.1979 -7526.5614 299.4186 -9276.7593 -7449.4112 303.1449 -109.6070 49.7060 30034.0872 -28.7195 33.0550
ENERGY: 900000 3.0651 2.8528 1.7543 0.0000 -10660.8669 1400.2604 0.0000 0.0000 1735.1686 -7517.7658 296.8474 -9252.9343 -7458.3491 301.9890 -214.7158 -189.7108 30096.8474 -126.5522 -67.3626
ENERGY: 1200000 1.7437 1.7552 2.9187 0.0000 -10602.4795 1396.7939 0.0000 0.0000 1736.5020 -7462.7661 297.0755 -9199.2681 -7449.4037 301.6222 -374.7684 -271.2880 30493.8049 -112.4972 -52.9118
ENERGY: 1500000 1.0274 3.4737 5.8245 0.0000 -10645.0573 1390.3177 0.0000 0.0000 1690.4668 -7553.9471 289.1999 -9244.4139 -7456.8346 300.8594 -370.5561 -320.0891 30090.7850 -174.3621 -118.0234
TCL: Running FEP window  10: Lambda1 0.44999999999999996 Lambda2 0.49999999999999994 [dLambda 0.04999999999999999]
TCL: Setting parameter firsttimestep to 0
TCL: Setting parameter alchLambda to 0.44999999999999996
Info: NONBONDED TABLE R-SQUARED SPACING: 0.0625
Info: NONBONDED TABLE SIZE: 705 POINTS
TCL: Setting parameter alchLambda2 to 0.49999999999999994
Info: NONBONDED TABLE R-SQUARED SPACING: 0.0625
Info: NONBONDED TABLE SIZE: 705 POINTS
TCL: Running for 1500000 steps
ETITLE: TS BOND ANGLE DIHED IMPRP ELECT VDW BOUNDARY MISC KINETIC TOTAL TEMP POTENTIAL TOTALAVG TEMPAVG PRESSURE GPRESSURE VOLUME PRESSAVG GPRESSAVG
ENERGY: 0 1.0274 3.4737 5.8245 0.0000 -10645.0554 1390.6060 0.0000 0.0000 1689.5778 -7554.5460 289.0478 -9244.1238 -7554.5460 289.0478 -395.9053 -314.3924 30090.7850 -395.9053 -314.3924
ENERGY: 300000 1.9083 1.6945 3.9115 0.0000 -10578.5941 1378.4480 0.0000 0.0000 1746.8063 -7445.8254 298.8383 -9192.6317 -7505.0896 301.1782 -122.1514 -108.6258 29844.9905 -189.7582 -121.5232
ENERGY: 600000 0.2221 2.0803 1.5668 0.0000 -10697.9851 1443.2293 0.0000 0.0000 1784.0655 -7466.8212 305.2125 -9250.8867 -7494.2286 300.3546 -111.0145 -73.2067 30503.2128 -252.9758 -201.8698
ENERGY: 900000 0.8875 2.9621 4.6903 0.0000 -10755.8692 1373.9206 0.0000 0.0000 1776.9792 -7596.4295 304.0002 -9373.4087 -7517.6841 299.0677 -733.1464 -730.0405 29948.3740 -368.4739 -315.3964
ENERGY: 1200000 3.8332 2.6755 2.6115 0.0000 -10703.9125 1529.4725 0.0000 0.0000 1726.7184 -7438.6015 295.4017 -9165.3199 -7501.9406 299.9791 1279.1875 1389.8730 29801.0836 -196.4534 -137.1697
ENERGY: 1500000 2.3453 2.5110 4.2618 0.0000 -10538.5512 1392.2082 0.0000 0.0000 1747.7003 -7389.5245 298.9913 -9137.2248 -7489.2398 299.2824 -172.9693 -82.1834 30377.5377 -175.4046 -111.6538
TCL: Running FEP window  11: Lambda1 0.49999999999999994 Lambda2 0.5499999999999999 [dLambda 0.04999999999999999]
TCL: Setting parameter firsttimestep to 0
TCL: Setting parameter alchLambda to 0.49999999999999994
Info: NONBONDED TABLE R-SQUARED SPACING: 0.0625
Info: NONBONDED TABLE SIZE: 705 POINTS
TCL: Setting parameter alchLambda2 to 0.5499999999999999
Info: NONBONDED TABLE R-SQUARED SPACING: 0.0625
Info: NONBONDED TABLE SIZE: 705 POINTS
TCL: Running for 1500000 steps
ETITLE: TS BOND ANGLE DIHED IMPRP ELECT VDW BOUNDARY MISC KINETIC TOTAL TEMP POTENTIAL TOTALAVG TEMPAVG PRESSURE GPRESSURE VOLUME PRESSAVG GPRESSAVG
ENERGY: 0 2.3453 2.5110 4.2618 0.0000 -10538.5520 1392.0212 0.0000 0.0000 1746.8331 -7390.5796 298.8429 -9137.4127 -7390.5796 298.8429 -172.8114 -78.4271 30377.5377 -172.8114 -78.4271
ENERGY: 300000 1.6682 3.0343 3.8981 0.0000 -10608.0127 1395.2676 0.0000 0.0000 1716.1685 -7487.9759 293.5969 -9204.1444 -7468.1832 299.3825 -255.2530 -236.1685 30173.5407 -34.1308 23.8160
ENERGY: 600000 3.3612 3.3313 1.7612 0.0000 -10645.5969 1395.3211 0.0000 0.0000 1702.3529 -7539.4691 291.2334 -9241.8221 -7469.5328 298.9611 -236.8792 -151.3360 29918.8061 -56.1469 5.0106
ENERGY: 900000 0.9894 4.0482 7.0609 0.0000 -10580.4322 1409.2725 0.0000 0.0000 1775.4804 -7383.5809 303.7438 -9159.0613 -7462.3022 299.8674 -177.2196 -124.8840 30408.1675 -189.6030 -116.7261
ENERGY: 1200000 0.4665 4.1929 1.4340 0.0000 -10709.1802 1479.1555 0.0000 0.0000 1754.9102 -7469.0211 300.2247 -9223.9313 -7460.0643 299.3189 280.3180 261.8254 30375.0277 -200.9372 -139.3205
ENERGY: 1500000 2.7761 1.7383 4.2977 0.0000 -10669.0006 1432.4623 0.0000 0.0000 1792.7506 -7434.9756 306.6983 -9227.7262 -7459.8293 299.4137 49.8475 72.0313 30157.3933 -144.5791 -88.0923
TCL: Running FEP window  12: Lambda1 0.5499999999999999 Lambda2 0.6    [dLambda 0.050000000000000044]
TCL: Setting parameter firsttimestep to 0
TCL: Setting parameter alchLambda to 0.5499999999999999
Info: NONBONDED TABLE R-SQUARED SPACING: 0.0625
Info: NONBONDED TABLE SIZE: 705 POINTS
TCL: Setting parameter alchLambda2 to 0.6
Info: NONBONDED TABLE R-SQUARED SPACING: 0.0625
Info: NONBONDED TABLE SIZE: 705 POINTS
TCL: Running for 1500000 steps
ETITLE: TS BOND ANGLE DIHED IMPRP ELECT VDW BOUNDARY MISC KINETIC TOTAL TEMP POTENTIAL TOTALAVG TEMPAVG PRESSURE GPRESSURE VOLUME PRESSAVG GPRESSAVG
ENERGY: 0 2.7761 1.7383 4.2977 0.0000 -10669.2613 1432.1864 0.0000 0.0000 1791.8914 -7436.3714 306.5513 -9228.2628 -7436.3714 306.5513 -17.7216 75.0500 30157.3933 -17.7216 75.0500
ENERGY: 300000 2.3188 6.0305 4.0610 0.0000 -10498.0411 1340.0112 0.0000 0.0000 1705.3725 -7440.2470 291.7500 -9145.6195 -7467.7392 298.4058 -883.2662 -820.8167 30802.5964 -756.9127 -677.6384
ENERGY: 600000 0.5987 2.5747 3.3876 0.0000 -10801.5799 1475.5128 0.0000 0.0000 1825.5180 -7493.9881 312.3041 -9319.5061 -7500.9664 297.5561 414.6921 451.7553 29575.7012 -452.1412 -378.5662
ENERGY: 900000 2.5221 2.1652 2.2876 0.0000 -10560.7309 1441.2077 0.0000 0.0000 1797.0993 -7315.4491 307.4423 -9112.5484 -7476.2846 298.5224 340.0558 406.4253 30337.2646 -288.2205 -225.1971
ENERGY: 1200000 2.5711 2.3607 5.1423 0.0000 -10601.7634 1391.6906 0.0000 0.0000 1786.2680 -7413.7307 305.5893 -9199.9987 -7478.2483 298.4957 -513.4116 -411.3234 30383.6052 -236.1132 -175.7924
ENERGY: 1500000 1.8614 1.4488 3.5836 0.0000 -10584.3689 1451.7753 0.0000 0.0000 1724.7821 -7400.9177 295.0705 -9125.6998 -7475.6972 298.2216 327.0890 396.6039 30130.3390 -216.6991 -151.6188
TCL: Running FEP window  13: Lambda1 0.6    Lambda2 0.65   [dLambda 0.050000000000000044]
TCL: Setting parameter firsttimestep to 0
TCL: Setting parameter alchLambda to 0.6
Info: NONBONDED TABLE R-SQUARED SPACING: 0.0625
Info: NONBONDED TABLE SIZE: 705 POINTS
TCL: Setting parameter alchLambda2 to 0.65
Info: NONBONDED TABLE R-SQUARED SPACING: 0.0625
Info: NONBONDED TABLE SIZE: 705 POINTS
TCL: Running for 1500000 steps
ETITLE: TS BOND ANGLE DIHED IMPRP ELECT VDW BOUNDARY MISC KINETIC TOTAL TEMP POTENTIAL TOTALAVG TEMPAVG PRESSURE GPRESSURE VOLUME PRESSAVG GPRESSAVG
ENERGY: 0 1.8614 1.4488 3.5836 0.0000 -10584.4761 1452.0595 0.0000 0.0000 1723.9170 -7401.6058 294.9225 -9125.5228 -7401.6058 294.9225 329.9549 406.3466 30130.3390 329.9549 406.3466
ENERGY: 300000 1.7599 5.3972 2.7182 0.0000 -10634.1489 1429.7302 0.0000 0.0000 1814.6927 -7379.8506 310.4521 -9194.5434 -7419.1712 300.6719 126.9241 187.5184 30212.2953 71.5343 147.0844
ENERGY: 600000 3.8073 5.5152 3.3160 0.0000 -10644.6315 1415.4049 0.0000 0.0000 1753.7066 -7462.8815 300.0188 -9216.5881 -7454.4657 300.0297 -188.1475 -190.8730 30282.1061 57.8747 110.0969
ENERGY: 900000 1.3577 5.7007 3.7009 0.0000 -10521.0483 1375.7077 0.0000 0.0000 1725.8377 -7408.7437 295.2511 -9134.5813 -7449.9019 299.9549 -425.7939 -369.0761 30458.2968 -121.1710 -70.3833
ENERGY: 1200000 1.6034 3.3447 3.0311 0.0000 -10710.8653 1455.6502 0.0000 0.0000 1751.7427 -7495.4932 299.6828 -9247.2360 -7453.6981 299.6178 323.3260 327.0981 29707.0558 -71.4878 -26.2123
ENERGY: 1500000 3.4404 2.4048 2.5202 0.0000 -10813.8189 1503.5650 0.0000 0.0000 1769.8789 -7532.0097 302.7855 -9301.8887 -7456.9183 299.8951 524.1654 550.1441 29914.6727 72.0855 117.6702
TCL: Running FEP window  14: Lambda1 0.65   Lambda2 0.7000000000000001 [dLambda 0.050000000000000044]
TCL: Setting parameter firsttimestep to 0
TCL: Setting parameter alchLambda to 0.65
Info: NONBONDED TABLE R-SQUARED SPACING: 0.0625
Info: NONBONDED TABLE SIZE: 705 POINTS
TCL: Setting parameter alchLambda2 to 0.7000000000000001
Info: NONBONDED TABLE R-SQUARED SPACING: 0.0625
Info: NONBONDED TABLE SIZE: 705 POINTS
TCL: Running for 1500000 steps
ETITLE: TS BOND ANGLE DIHED IMPRP ELECT VDW BOUNDARY MISC KINETIC TOTAL TEMP POTENTIAL TOTALAVG TEMPAVG PRESSURE GPRESSURE VOLUME PRESSAVG GPRESSAVG
ENERGY: 0 3.4404 2.4048 2.5202 0.0000 -10813.8464 1503.1193 0.0000 0.0000 1769.0196 -7533.3421 302.6385 -9302.3617 -7533.3421 302.6385 480.4595 550.3761 29914.6727 480.4595 550.3761
ENERGY: 300000 1.3477 4.9415 3.1124 0.0000 -10652.2216 1433.1835 0.0000 0.0000 1775.2742 -7434.3623 303.7085 -9209.6365 -7521.4994 299.5929 -2.1172 58.0224 30382.5873 112.3806 180.4317
ENERGY: 600000 0.7215 2.7518 6.1081 0.0000 -10685.2888 1466.3101 0.0000 0.0000 1740.8820 -7468.5152 297.8248 -9209.3972 -7509.0309 297.5989 408.7941 526.4255 29859.1798 98.4973 168.2743
ENERGY: 900000 1.4884 2.0473 3.3786 0.0000 -10718.2166 1542.8197 0.0000 0.0000 1740.4507 -7428.0318 297.7510 -9168.4826 -7501.9093 299.3670 1098.6095 1056.6168 30093.6693 136.7282 183.6098
ENERGY: 1200000 1.6403 2.4777 4.3169 0.0000 -10762.1208 1507.9670 0.0000 0.0000 1727.7583 -7517.9606 295.5796 -9245.7189 -7495.4172 299.5260 650.9387 686.9408 30040.8679 163.3115 216.7966
ENERGY: 1500000 3.7217 3.6406 3.9020 0.0000 -10699.1165 1442.7465 0.0000 0.0000 1707.7306 -7537.3751 292.1534 -9245.1057 -7494.4434 299.9177 153.1799 192.7131 29940.2936 137.6690 191.4211
TCL: Running FEP window  15: Lambda1 0.7000000000000001 Lambda2 0.7500000000000001 [dLambda 0.050000000000000044]
TCL: Setting parameter firsttimestep to 0
TCL: Setting parameter alchLambda to 0.7000000000000001
Info: NONBONDED TABLE R-SQUARED SPACING: 0.0625
Info: NONBONDED TABLE SIZE: 705 POINTS
TCL: Setting parameter alchLambda2 to 0.7500000000000001
Info: NONBONDED TABLE R-SQUARED SPACING: 0.0625
Info: NONBONDED TABLE SIZE: 705 POINTS
TCL: Running for 1500000 steps
ETITLE: TS BOND ANGLE DIHED IMPRP ELECT VDW BOUNDARY MISC KINETIC TOTAL TEMP POTENTIAL TOTALAVG TEMPAVG PRESSURE GPRESSURE VOLUME PRESSAVG GPRESSAVG
ENERGY: 0 3.7217 3.6406 3.9020 0.0000 -10701.0181 1443.8831 0.0000 0.0000 1706.8744 -7538.9963 292.0069 -9245.8707 -7538.9963 292.0069 135.1883 207.6307 29940.2936 135.1883 207.6307
ENERGY: 300000 1.7616 3.3272 2.3139 0.0000 -10653.0797 1430.3418 0.0000 0.0000 1718.7288 -7496.6064 294.0349 -9215.3352 -7510.3902 296.4646 -31.1930 15.9460 30149.6668 44.8736 102.5606
ENERGY: 600000 5.2678 5.6999 3.6743 0.0000 -10722.9525 1445.0517 0.0000 0.0000 1741.5984 -7521.6604 297.9474 -9263.2589 -7507.4991 297.2472 -232.2194 -211.1249 30324.3467 -142.0348 -75.6744
ENERGY: 900000 2.7813 2.2787 6.0798 0.0000 -10711.2347 1421.2434 0.0000 0.0000 1767.4637 -7511.3876 302.3723 -9278.8513 -7493.6270 299.1408 -473.3013 -375.0683 30409.3449 -128.1949 -60.4388
ENERGY: 1200000 2.8317 2.9715 8.0534 0.0000 -10667.3106 1406.9898 0.0000 0.0000 1771.2474 -7475.2168 303.0196 -9246.4642 -7488.6490 299.2175 -259.0355 -180.4892 29988.7706 -89.0621 -17.8255
ENERGY: 1500000 1.5107 3.1717 2.7166 0.0000 -10730.1637 1505.4335 0.0000 0.0000 1757.3249 -7460.0062 300.6378 -9217.3312 -7481.5304 298.7786 582.4996 637.6399 30309.4606 -62.3453 9.2661
TCL: Running FEP window  16: Lambda1 0.7500000000000001 Lambda2 0.8000000000000002 [dLambda 0.050000000000000044]
TCL: Setting parameter firsttimestep to 0
TCL: Setting parameter alchLambda to 0.7500000000000001
Info: NONBONDED TABLE R-SQUARED SPACING: 0.0625
Info: NONBONDED TABLE SIZE: 705 POINTS
TCL: Setting parameter alchLambda2 to 0.8000000000000002
Info: NONBONDED TABLE R-SQUARED SPACING: 0.0625
Info: NONBONDED TABLE SIZE: 705 POINTS
TCL: Running for 1500000 steps
ETITLE: TS BOND ANGLE DIHED IMPRP ELECT VDW BOUNDARY MISC KINETIC TOTAL TEMP POTENTIAL TOTALAVG TEMPAVG PRESSURE GPRESSURE VOLUME PRESSAVG GPRESSAVG
ENERGY: 0 1.5107 3.1717 2.7166 0.0000 -10731.4941 1505.6899 0.0000 0.0000 1756.4854 -7461.9199 300.4942 -9218.4053 -7461.9199 300.4942 560.7547 646.2040 30309.4606 560.7547 646.2040
ENERGY: 300000 0.5736 2.8391 1.0661 0.0000 -10596.4726 1431.0389 0.0000 0.0000 1830.4333 -7330.5216 313.1450 -9160.9549 -7451.9390 297.8835 4.2246 76.4915 30748.2168 35.0661 93.7809
ENERGY: 600000 2.4560 3.4206 4.5447 0.0000 -10688.0007 1497.5951 0.0000 0.0000 1846.6867 -7333.2976 315.9255 -9179.9843 -7461.8816 301.9553 578.9407 689.1592 30476.0714 59.7718 135.0086
ENERGY: 900000 1.4529 3.5783 3.8309 0.0000 -10667.4990 1390.4242 0.0000 0.0000 1796.0760 -7472.1367 307.2672 -9268.2127 -7453.6393 304.1856 -275.9317 -206.4100 29913.8216 96.9970 181.9561
ENERGY: 1200000 1.6067 3.6451 1.4827 0.0000 -10576.0094 1379.4332 0.0000 0.0000 1751.5076 -7438.3341 299.6426 -9189.8417 -7451.8672 303.2670 -287.9793 -206.2977 30133.8759 4.0335 85.1864
ENERGY: 1500000 3.4788 2.5131 3.8576 0.0000 -10574.4562 1380.1460 0.0000 0.0000 1767.2255 -7417.2352 302.3316 -9184.4607 -7458.5202 303.0489 -402.5714 -264.8264 30269.3774 4.6474 87.9878
TCL: Running FEP window  17: Lambda1 0.8000000000000002 Lambda2 0.8500000000000002 [dLambda 0.050000000000000044]
TCL: Setting parameter firsttimestep to 0
TCL: Setting parameter alchLambda to 0.8000000000000002
Info: NONBONDED TABLE R-SQUARED SPACING: 0.0625
Info: NONBONDED TABLE SIZE: 705 POINTS
TCL: Setting parameter alchLambda2 to 0.8500000000000002
Info: NONBONDED TABLE R-SQUARED SPACING: 0.0625
Info: NONBONDED TABLE SIZE: 705 POINTS
TCL: Running for 1500000 steps
ETITLE: TS BOND ANGLE DIHED IMPRP ELECT VDW BOUNDARY MISC KINETIC TOTAL TEMP POTENTIAL TOTALAVG TEMPAVG PRESSURE GPRESSURE VOLUME PRESSAVG GPRESSAVG
ENERGY: 0 3.4788 2.5131 3.8576 0.0000 -10576.6070 1382.0389 0.0000 0.0000 1766.3610 -7418.3577 302.1837 -9184.7186 -7418.3577 302.1837 -328.0344 -240.4769 30269.3774 -328.0344 -240.4769
ENERGY: 300000 2.8082 8.6460 4.3196 0.0000 -10664.5961 1388.0828 0.0000 0.0000 1755.0852 -7505.6544 300.2547 -9260.7396 -7498.2893 297.6239 -444.5060 -398.0921 29960.8339 -257.4588 -210.5112
ENERGY: 600000 2.4714 2.6785 4.1594 0.0000 -10800.1704 1509.1590 0.0000 0.0000 1677.0909 -7604.6111 286.9116 -9281.7020 -7515.6371 295.4830 310.3890 406.3941 30316.9859 -135.4115 -79.1295
ENERGY: 900000 2.6055 1.1817 4.1898 0.0000 -10600.8305 1376.5687 0.0000 0.0000 1724.9013 -7491.3835 295.0909 -9216.2848 -7495.0338 297.7281 -746.1512 -627.1427 30479.6979 -182.0567 -117.8681
ENERGY: 1200000 2.9157 5.1365 1.0423 0.0000 -10636.9052 1430.3948 0.0000 0.0000 1815.2233 -7382.1926 310.5429 -9197.4159 -7490.9957 299.0418 -152.5828 -81.9590 30532.3025 -168.0872 -100.1730
ENERGY: 1500000 3.1021 4.4581 1.3610 0.0000 -10661.8552 1414.1484 0.0000 0.0000 1749.0778 -7489.7078 299.2269 -9238.7856 -7480.9205 300.2723 -115.5146 -85.9390 30094.5329 -166.7988 -106.1438
TCL: Running FEP window  18: Lambda1 0.8500000000000002 Lambda2 0.9000000000000002 [dLambda 0.050000000000000044]
TCL: Setting parameter firsttimestep to 0
TCL: Setting parameter alchLambda to 0.8500000000000002
Info: NONBONDED TABLE R-SQUARED SPACING: 0.0625
Info: NONBONDED TABLE SIZE: 705 POINTS
TCL: Setting parameter alchLambda2 to 0.9000000000000002
Info: NONBONDED TABLE R-SQUARED SPACING: 0.0625
Info: NONBONDED TABLE SIZE: 705 POINTS
TCL: Running for 1500000 steps
ETITLE: TS BOND ANGLE DIHED IMPRP ELECT VDW BOUNDARY MISC KINETIC TOTAL TEMP POTENTIAL TOTALAVG TEMPAVG PRESSURE GPRESSURE VOLUME PRESSAVG GPRESSAVG
ENERGY: 0 3.1021 4.4581 1.3610 0.0000 -10663.5643 1414.6838 0.0000 0.0000 1748.2055 -7491.7538 299.0777 -9239.9593 -7491.7538 299.0777 -141.6212 -75.9377 30094.5329 -141.6212 -75.9377
ENERGY: 300000 2.9282 4.0068 1.4369 0.0000 -10554.2342 1351.3286 0.0000 0.0000 1796.0011 -7398.5325 307.2544 -9194.5337 -7428.3338 302.8588 -567.5940 -426.8106 30360.0970 -248.0460 -189.9439
ENERGY: 600000 3.5722 3.1337 3.2539 0.0000 -10607.6094 1444.2387 0.0000 0.0000 1770.3442 -7383.0668 302.8651 -9153.4110 -7446.8880 301.4705 11.0999 107.9952 30316.2031 -62.8063 11.9275
ENERGY: 900000 1.3170 4.0756 3.9562 0.0000 -10650.2381 1459.6497 0.0000 0.0000 1781.5836 -7399.6560 304.7879 -9181.2397 -7436.0541 301.6998 368.3977 408.7791 30130.0946 72.9344 138.2991
ENERGY: 1200000 1.3466 1.6292 2.1787 0.0000 -10750.7303 1511.8667 0.0000 0.0000 1770.6494 -7463.0596 302.9173 -9233.7091 -7438.1722 300.8819 944.7409 1040.4059 29635.8169 85.4139 156.8607
ENERGY: 1500000 1.4278 4.0276 1.8704 0.0000 -10646.0237 1472.7807 0.0000 0.0000 1775.2095 -7390.7077 303.6974 -9165.9172 -7433.8835 301.4092 333.8364 332.1493 30786.5829 3.6150 77.3280
TCL: Running FEP window  19: Lambda1 0.9000000000000002 Lambda2 0.9500000000000003 [dLambda 0.050000000000000044]
TCL: Setting parameter firsttimestep to 0
TCL: Setting parameter alchLambda to 0.9000000000000002
Info: NONBONDED TABLE R-SQUARED SPACING: 0.0625
Info: NONBONDED TABLE SIZE: 705 POINTS
TCL: Setting parameter alchLambda2 to 0.9500000000000003
Info: NONBONDED TABLE R-SQUARED SPACING: 0.0625
Info: NONBONDED TABLE SIZE: 705 POINTS
TCL: Running for 1500000 steps
ETITLE: TS BOND ANGLE DIHED IMPRP ELECT VDW BOUNDARY MISC KINETIC TOTAL TEMP POTENTIAL TOTALAVG TEMPAVG PRESSURE GPRESSURE VOLUME PRESSAVG GPRESSAVG
ENERGY: 0 1.4278 4.0276 1.8704 0.0000 -10647.5175 1474.4747 0.0000 0.0000 1774.3265 -7391.3904 303.5464 -9165.7169 -7391.3904 303.5464 279.9993 358.3429 30786.5829 279.9993 358.3429
ENERGY: 300000 1.7284 5.5087 2.3811 0.0000 -10542.5858 1349.0054 0.0000 0.0000 1750.5949 -7433.3673 299.4865 -9183.9622 -7431.0077 299.3249 -588.1548 -508.1752 30388.5384 120.6499 201.9134
ENERGY: 600000 2.9285 5.1829 2.2301 0.0000 -10649.5737 1377.1907 0.0000 0.0000 1738.9245 -7523.1171 297.4899 -9262.0416 -7468.2302 298.8853 -680.8834 -611.6006 30253.4439 165.8582 237.9982
ENERGY: 900000 1.5205 2.3249 4.1607 0.0000 -10547.6867 1423.7223 0.0000 0.0000 1784.9544 -7331.0039 305.3646 -9115.9583 -7449.1379 300.4854 328.6294 396.8476 29917.4159 210.9130 279.7984
ENERGY: 1200000 2.1971 1.5880 3.1411 0.0000 -10743.1968 1488.5145 0.0000 0.0000 1779.5964 -7468.1597 304.4479 -9247.7561 -7455.6594 299.9205 265.9097 352.6954 30425.8730 179.6737 249.7099
ENERGY: 1500000 0.6248 5.3237 2.9787 0.0000 -10575.4945 1419.9162 0.0000 0.0000 1760.1611 -7386.4900 301.1230 -9146.6511 -7452.3559 298.9943 121.9852 256.0772 30133.4324 138.5776 213.0126
TCL: Running FEP window  20: Lambda1 0.9500000000000003 Lambda2 1.0    [dLambda 0.04999999999999971]
TCL: Setting parameter firsttimestep to 0
TCL: Setting parameter alchLambda to 0.9500000000000003
Info: NONBONDED TABLE R-SQUARED SPACING: 0.0625
Info: NONBONDED TABLE SIZE: 705 POINTS
TCL: Setting parameter alchLambda2 to 1.0
Info: NONBONDED TABLE R-SQUARED SPACING: 0.0625
Info: NONBONDED TABLE SIZE: 705 POINTS
TCL: Running for 1500000 steps
ETITLE: TS BOND ANGLE DIHED IMPRP ELECT VDW BOUNDARY MISC KINETIC TOTAL TEMP POTENTIAL TOTALAVG TEMPAVG PRESSURE GPRESSURE VOLUME PRESSAVG GPRESSAVG
ENERGY: 0 0.6248 5.3237 2.9787 0.0000 -10577.4965 1421.0549 0.0000 0.0000 1759.2855 -7388.2289 300.9732 -9147.5145 -7388.2289 300.9732 201.1605 272.4949 30133.4324 201.1605 272.4949
ENERGY: 300000 1.4175 1.7256 1.7725 0.0000 -10673.7124 1398.6200 0.0000 0.0000 1753.4475 -7516.7293 299.9745 -9270.1768 -7465.2754 299.8392 -583.8074 -540.8231 30408.4075 -697.5536 -644.7761
ENERGY: 600000 1.3883 3.1443 2.4361 0.0000 -10751.6224 1498.5895 0.0000 0.0000 1775.6431 -7470.4210 303.7716 -9246.0641 -7469.2131 300.6044 540.9726 582.5350 30287.0723 -380.0353 -321.9321
ENERGY: 900000 1.5125 2.2069 2.6172 0.0000 -10721.4159 1456.0570 0.0000 0.0000 1778.0295 -7480.9929 304.1799 -9259.0224 -7460.2726 301.4208 265.7234 272.1371 30075.3126 -145.2395 -95.2906
ENERGY: 1200000 1.6559 2.5569 5.0162 0.0000 -10649.6673 1446.3582 0.0000 0.0000 1802.1244 -7391.9556 308.3020 -9194.0800 -7462.6238 301.0721 504.4625 530.0494 29864.9535 -86.5032 -33.2966
ENERGY: 1500000 3.4200 3.1680 4.4979 0.0000 -10682.1545 1447.6324 0.0000 0.0000 1711.9998 -7511.4364 292.8837 -9223.4361 -7472.3525 300.0880 267.4607 314.6365 30204.8977 -29.3882 24.0220
TCL: Exiting due to exit command.
