Info: SIMULATION PARAMETERS:
Info: TIMESTEP               2
Info: NUMBER OF STEPS        0
Info: STEPS PER CYCLE        10
Info: PERIODIC CELL BASIS 1  31.4196 0 0
Info: PERIODIC CELL BASIS 2  0 31.3224 0
Info: PERIODIC CELL BASIS 3  0 0 30.3603
Info: PERIODIC CELL CENTER   0 0 0
Info: WRAPPING WATERS AROUND PERIODIC BOUNDARIES ON OUTPUT.
Info: WRAPPING ALL CLUSTERS AROUND PERIODIC BOUNDARIES ON OUTPUT.
Info: FIRST LDB TIMESTEP     50
Info: LAST LDB TIMESTEP     -1
Info: HOM BACKGROUND SCALING 1
Info: PME BACKGROUND SCALING 1
Info: MIN ATOMS PER PATCH    40
Info: EMPTY PATCH LOAD       40 ATOMS
Info: VELOCITY FILE          mobley_9209581_equil.vel
Info: CENTER OF MASS MOVING INITIALLY? NO
Info: DIELECTRIC             1
Info: EXCLUDE                SCALED ONE-FOUR
Info: 1-4 ELECTROSTATICS SCALED BY 0.833333
Info: MODIFIED 1-4 VDW PARAMETERS WILL BE USED
Info: DCD FILENAME           mobley_9209581_prod.dcd
Info: DCD FREQUENCY          100000
Info: DCD FIRST STEP         100000
Info: DCD FILE WILL CONTAIN UNIT CELL DATA
Info: XST FILENAME           mobley_9209581_prod.xst
Info: XST FREQUENCY          100000
Info: NO VELOCITY DCD OUTPUT
Info: NO FORCE DCD OUTPUT
Info: OUTPUT FILENAME        mobley_9209581_prod
Info: BINARY OUTPUT FILES WILL BE USED
Info: RESTART FILENAME       mobley_9209581_prod.restart
Info: RESTART FREQUENCY      100000
Info: BINARY RESTART FILES WILL BE USED
Info: CUTOFF                 9
Info: PAIRLIST DISTANCE      11
Info: PAIRLIST SHRINK RATE   0.01
Info: PAIRLIST GROW RATE     0.01
Info: PAIRLIST TRIGGER       0.3
Info: PAIRLISTS PER CYCLE    2
Info: PAIRLISTS ENABLED
Info: MARGIN                 2
Info: HYDROGEN GROUP CUTOFF  2.5
Info: PATCH DIMENSION        15.5
Info: ENERGY OUTPUT STEPS    100000
Info: ENERGY EVALUATION STEPS    100000
Info: OUTPUT ENERGY PRECISION 4
Info: CROSSTERM ENERGY INCLUDED IN DIHEDRAL
Info: TIMING OUTPUT STEPS    1000000
Info: PRESSURE OUTPUT STEPS  100000
Info: ALCHEMICAL FEP ON
Info: FEP CURRENT LAMBDA VALUE     0
Info: FEP COMPARISON LAMBDA VALUE  0.05
Info: FEP INTRA-ALCHEMICAL NON-BONDED INTERACTIONS WILL BE RETAINED
Info: FEP INTRA-ALCHEMICAL BONDED INTERACTIONS WILL BE RETAINED
Info: FEP VDW SHIFTING COEFFICIENT 5
Info: FEP ELEC. ACTIVE FOR ANNIHILATED PARTICLES BETWEEN LAMBDA = 0 AND LAMBDA = 0.5
Info: FEP ELEC. ACTIVE FOR EXNIHILATED PARTICLES BETWEEN LAMBDA = 0.5 AND LAMBDA = 1
Info: FEP VDW ACTIVE FOR ANNIHILATED PARTICLES BETWEEN LAMBDA = 0 AND LAMBDA = 1
Info: FEP VDW ACTIVE FOR EXNIHILATED PARTICLES BETWEEN LAMBDA = 0 AND LAMBDA = 1
Info: FEP BOND ACTIVE FOR ANNIHILATED PARTICLES BETWEEN LAMBDA = 1 AND LAMBDA = 1
Info: FEP BOND ACTIVE FOR EXNIHILATED PARTICLES BETWEEN LAMBDA = 0 AND LAMBDA = 0
Info: LANGEVIN DYNAMICS ACTIVE
Info: LANGEVIN TEMPERATURE   300
Info: LANGEVIN USING BBK INTEGRATOR
Info: LANGEVIN DAMPING COEFFICIENT IS 1 INVERSE PS
Info: LANGEVIN DYNAMICS APPLIED TO HYDROGENS
Info: LANGEVIN PISTON PRESSURE CONTROL ACTIVE
Info:        TARGET PRESSURE IS 1.01325 BAR
Info:     OSCILLATION PERIOD IS 50 FS
Info:             DECAY TIME IS 25 FS
Info:     PISTON TEMPERATURE IS 300 K
Info:       PRESSURE CONTROL IS GROUP-BASED
Info:    INITIAL STRAIN RATE IS -0.000343566 -0.000343566 -0.000343566
Info:       CELL FLUCTUATION IS ISOTROPIC
Info: PARTICLE MESH EWALD (PME) ACTIVE
Info: PME TOLERANCE               1e-06
Info: PME EWALD COEFFICIENT       0.348832
Info: PME INTERPOLATION ORDER     4
Info: PME GRID DIMENSIONS         32 32 32
Info: PME MAXIMUM GRID SPACING    1
Info: PME CALCULATION WILL BE PERFORMED ON GPU
Info: FULL ELECTROSTATIC EVALUATION FREQUENCY      2
Info: USING VERLET I (r-RESPA) MTS SCHEME.
Info: C1 SPLITTING OF LONG RANGE ELECTROSTATICS
Info: PLACING ATOMS IN PATCHES BY HYDROGEN GROUPS
Info: RIGID BONDS TO HYDROGEN : ALL
Info:         ERROR TOLERANCE : 1e-08
Info:          MAX ITERATIONS : 100
Info: RIGID WATER USING SETTLE ALGORITHM
Info: RANDOM NUMBER SEED     1743555014
Info: USE HYDROGEN BONDS?    NO
Info: Using AMBER format force field!
Info: AMBER PARM FILE        mobley_9209581.prmtop
Info: COORDINATE PDB         mobley_9209581.pdb
Info: Exclusions will be read from PARM file!
Info: SCNB (VDW SCALING)     2
Info: USING ARITHMETIC MEAN TO COMBINE L-J SIGMA PARAMETERS
Info: BINARY COORDINATES     mobley_9209581_equil.coor
Info: SUMMARY OF PARAMETERS:
Info: 4 BONDS
Info: 3 ANGLES
Info:   3 HARMONIC
Info:   0 COSINE-BASED
Info: 1 DIHEDRAL
Info: 0 IMPROPER
Info: 0 CROSSTERM
Info: 0 VDW
Info: 15 VDW_PAIRS
Info: 0 NBTHOLE_PAIRS
Info: To read alchdata from file: mobley_9209581.pdb
Info: To read alchflag data from column: 5
Info: STRUCTURE SUMMARY:
Info: 2920 ATOMS
Info: 2919 BONDS
Info: 21 ANGLES
Info: 18 DIHEDRALS
Info: 0 IMPROPERS
Info: 0 CROSSTERMS
Info: 2958 EXCLUSIONS
Info: 2916 RIGID BONDS
Info: ALCH: 0 ATOMS TO DISAPPEAR IN FINAL STATE
Info: ALCH: 13 ATOMS TO APPEAR IN FINAL STATE
Info: 5844 DEGREES OF FREEDOM
Info: 973 HYDROGEN GROUPS
Info: 4 ATOMS IN LARGEST HYDROGEN GROUP
Info: 973 MIGRATION GROUPS
Info: 4 ATOMS IN LARGEST MIGRATION GROUP
Info: TOTAL MASS = 17516.6 amu
Info: TOTAL CHARGE = 0.000399988 e
Info: MASS DENSITY = 0.973527 g/cm^3
Info: ATOM DENSITY = 0.0977286 atoms/A^3
Info: ADDED 0 IMPLICIT EXCLUSIONS
Info: NONBONDED TABLE R-SQUARED SPACING: 0.0625
Info: NONBONDED TABLE SIZE: 705 POINTS
Info: REDUCING NUMBER OF PATCHES TO IMPROVE LOAD BALANCE
Info: REMOVING COM VELOCITY 0.219545 -0.0131256 -0.0737108
Info: Use 3D box decompostion in PME FFT.
Info: Updated CUDA force table with 4096 elements.
Info: Updated CUDA LJ table with 5 x 5 elements.
Info: Found 16 unique exclusion lists needing 28 bytes
TCL: Running for 1500000 steps
ETITLE: TS BOND ANGLE DIHED IMPRP ELECT VDW BOUNDARY MISC KINETIC TOTAL TEMP POTENTIAL TOTALAVG TEMPAVG PRESSURE GPRESSURE VOLUME PRESSAVG GPRESSAVG
ENERGY: 0 1.6844 4.5817 0.4226 0.0000 -10689.7263 1483.2505 0.0000 0.0000 1740.9625 -7458.8244 299.8262 -9199.7870 -7458.8244 299.8262 130.9265 222.9910 29878.6756 130.9265 222.9910
ENERGY: 300000 0.0757 4.6898 0.3381 0.0000 -10509.4623 1414.3678 0.0000 0.0000 1749.7739 -7340.2171 301.3437 -9089.9910 -7443.5356 299.5487 -52.4369 84.2124 29890.4600 -100.0984 -11.2447
ENERGY: 600000 1.9936 8.9183 1.7514 0.0000 -10493.8606 1431.4143 0.0000 0.0000 1725.5608 -7324.2223 297.1738 -9049.7831 -7405.8202 300.2467 323.5705 366.1939 29969.7783 77.0776 172.0549
ENERGY: 900000 0.6879 11.1368 0.8801 0.0000 -10535.5479 1386.3553 0.0000 0.0000 1765.1392 -7371.3486 303.9899 -9136.4878 -7392.3246 300.7221 -302.1588 -177.9269 29830.5932 -68.2720 21.0568
ENERGY: 1200000 1.1161 3.8752 0.2269 0.0000 -10531.5429 1400.0667 0.0000 0.0000 1749.2175 -7377.0405 301.2479 -9126.2580 -7393.9900 300.7230 -164.0370 -111.9223 30195.9116 -17.7609 67.3075
ENERGY: 1500000 0.6781 6.2303 1.3858 0.0000 -10716.2538 1485.4589 0.0000 0.0000 1721.0473 -7501.4534 296.3964 -9222.5007 -7402.9031 300.4045 250.7797 349.1235 29686.6952 59.0607 141.5550
TCL: Running FEP window   2: Lambda1 0.05   Lambda2 0.1    [dLambda 0.05  ]
TCL: Setting parameter firsttimestep to 0
TCL: Setting parameter alchLambda to 0.05
Info: NONBONDED TABLE R-SQUARED SPACING: 0.0625
Info: NONBONDED TABLE SIZE: 705 POINTS
TCL: Setting parameter alchLambda2 to 0.1
Info: NONBONDED TABLE R-SQUARED SPACING: 0.0625
Info: NONBONDED TABLE SIZE: 705 POINTS
TCL: Running for 1500000 steps
ETITLE: TS BOND ANGLE DIHED IMPRP ELECT VDW BOUNDARY MISC KINETIC TOTAL TEMP POTENTIAL TOTALAVG TEMPAVG PRESSURE GPRESSURE VOLUME PRESSAVG GPRESSAVG
ENERGY: 0 0.6781 6.2303 1.3858 0.0000 -10716.2532 1486.5356 0.0000 0.0000 1720.1362 -7501.2871 296.2395 -9221.4234 -7501.2871 296.2395 270.0778 353.7709 29686.6952 270.0778 353.7709
ENERGY: 300000 3.0474 6.2774 0.9999 0.0000 -10662.2435 1525.8939 0.0000 0.0000 1728.7478 -7397.2771 297.7226 -9126.0249 -7406.9605 296.9461 521.9368 527.8122 30426.6495 132.4891 219.7837
ENERGY: 600000 0.2434 7.0342 0.3599 0.0000 -10503.6286 1380.2868 0.0000 0.0000 1764.9326 -7350.7718 303.9543 -9115.7044 -7377.1265 299.4924 -520.8663 -425.5612 30467.1329 86.4180 162.8577
ENERGY: 900000 0.3007 2.6383 2.1966 0.0000 -10510.7198 1392.9562 0.0000 0.0000 1785.3348 -7327.2932 307.4680 -9112.6280 -7369.7984 300.6981 -103.1027 -43.3532 29885.6213 99.2347 166.9349
ENERGY: 1200000 0.6559 4.2422 0.4532 0.0000 -10513.9974 1416.6587 0.0000 0.0000 1696.3659 -7395.6215 292.1458 -9091.9874 -7376.9117 300.2880 -120.5524 -22.8297 30136.9814 -34.9874 37.8227
ENERGY: 1500000 0.3768 6.7485 0.4007 0.0000 -10324.2220 1279.5659 0.0000 0.0000 1727.4085 -7309.7216 297.4920 -9037.1301 -7372.7134 300.6482 -847.2852 -847.7924 30266.9055 -100.5721 -36.1349
TCL: Running FEP window   3: Lambda1 0.1    Lambda2 0.15000000000000002 [dLambda 0.05000000000000002]
TCL: Setting parameter firsttimestep to 0
TCL: Setting parameter alchLambda to 0.1
Info: NONBONDED TABLE R-SQUARED SPACING: 0.0625
Info: NONBONDED TABLE SIZE: 705 POINTS
TCL: Setting parameter alchLambda2 to 0.15000000000000002
Info: NONBONDED TABLE R-SQUARED SPACING: 0.0625
Info: NONBONDED TABLE SIZE: 705 POINTS
TCL: Running for 1500000 steps
ETITLE: TS BOND ANGLE DIHED IMPRP ELECT VDW BOUNDARY MISC KINETIC TOTAL TEMP POTENTIAL TOTALAVG TEMPAVG PRESSURE GPRESSURE VOLUME PRESSAVG GPRESSAVG
ENERGY: 0 0.3768 6.7485 0.4007 0.0000 -10324.2213 1280.2934 0.0000 0.0000 1726.5391 -7309.8628 297.3422 -9036.4019 -7309.8628 297.3422 -911.4109 -845.2595 30266.9055 -911.4109 -845.2595
ENERGY: 300000 1.9705 4.9227 1.4302 0.0000 -10577.8585 1403.2868 0.0000 0.0000 1753.2063 -7413.0421 301.9348 -9166.2484 -7381.0434 299.0114 22.7064 57.9729 29731.7965 -194.5342 -125.2380
ENERGY: 600000 0.4823 4.7579 0.8191 0.0000 -10537.5130 1422.0657 0.0000 0.0000 1770.2908 -7339.0972 304.8771 -9109.3880 -7366.0991 301.1136 -15.8371 86.1155 30085.0034 -168.3928 -110.9307
ENERGY: 900000 0.1612 4.3961 0.6240 0.0000 -10543.6984 1419.3807 0.0000 0.0000 1756.1984 -7362.9379 302.4501 -9119.1364 -7370.0855 302.3648 -186.7524 -129.3306 30274.2640 -130.4761 -76.3150
ENERGY: 1200000 0.8697 4.8645 2.3136 0.0000 -10389.7593 1259.0797 0.0000 0.0000 1711.6327 -7410.9991 294.7751 -9122.6318 -7373.1981 301.3553 -1164.2555 -1100.7707 29672.0095 -143.6437 -80.7329
ENERGY: 1500000 0.3228 4.1347 0.5823 0.0000 -10613.8452 1446.0174 0.0000 0.0000 1775.7680 -7387.0200 305.8204 -9162.7880 -7374.6861 302.1371 198.7496 253.3154 29694.9509 -125.1832 -56.2054
TCL: Running FEP window   4: Lambda1 0.15000000000000002 Lambda2 0.2    [dLambda 0.04999999999999999]
TCL: Setting parameter firsttimestep to 0
TCL: Setting parameter alchLambda to 0.15000000000000002
Info: NONBONDED TABLE R-SQUARED SPACING: 0.0625
Info: NONBONDED TABLE SIZE: 705 POINTS
TCL: Setting parameter alchLambda2 to 0.2
Info: NONBONDED TABLE R-SQUARED SPACING: 0.0625
Info: NONBONDED TABLE SIZE: 705 POINTS
TCL: Running for 1500000 steps
ETITLE: TS BOND ANGLE DIHED IMPRP ELECT VDW BOUNDARY MISC KINETIC TOTAL TEMP POTENTIAL TOTALAVG TEMPAVG PRESSURE GPRESSURE VOLUME PRESSAVG GPRESSAVG
ENERGY: 0 0.3228 4.1347 0.5823 0.0000 -10613.8447 1446.9182 0.0000 0.0000 1774.8911 -7386.9956 305.6693 -9161.8867 -7386.9956 305.6693 170.8709 258.6718 29694.9509 170.8709 258.6718
ENERGY: 300000 1.2175 4.3468 0.8318 0.0000 -10475.1932 1341.2059 0.0000 0.0000 1728.6706 -7398.9207 297.7093 -9127.5912 -7388.7919 301.4843 -385.5143 -364.7447 29737.8985 -154.9850 -112.1768
ENERGY: 600000 0.7918 4.6699 0.9063 0.0000 -10498.5058 1383.2353 0.0000 0.0000 1700.0405 -7408.8620 292.7787 -9108.9025 -7399.2044 300.7463 -266.3646 -274.1945 30024.0047 126.4610 170.5818
ENERGY: 900000 2.2301 8.0449 0.4266 0.0000 -10630.3606 1497.7987 0.0000 0.0000 1756.9156 -7364.9447 302.5736 -9121.8603 -7404.1661 299.7818 550.1047 577.1551 29837.0433 191.5259 242.5233
ENERGY: 1200000 0.4738 6.6330 3.2766 0.0000 -10757.6074 1600.6049 0.0000 0.0000 1743.4891 -7403.1301 300.2613 -9146.6192 -7407.3918 300.0567 1435.5523 1502.8004 29618.4411 240.1544 300.9187
ENERGY: 1500000 2.9540 3.7827 0.9446 0.0000 -10652.6520 1450.9419 0.0000 0.0000 1754.5428 -7439.4860 302.1650 -9194.0288 -7402.8604 300.9395 -67.2175 -22.3506 30032.0375 164.9797 226.0213
TCL: Running FEP window   5: Lambda1 0.2    Lambda2 0.25   [dLambda 0.04999999999999999]
TCL: Setting parameter firsttimestep to 0
TCL: Setting parameter alchLambda to 0.2
Info: NONBONDED TABLE R-SQUARED SPACING: 0.0625
Info: NONBONDED TABLE SIZE: 705 POINTS
TCL: Setting parameter alchLambda2 to 0.25
Info: NONBONDED TABLE R-SQUARED SPACING: 0.0625
Info: NONBONDED TABLE SIZE: 705 POINTS
TCL: Running for 1500000 steps
ETITLE: TS BOND ANGLE DIHED IMPRP ELECT VDW BOUNDARY MISC KINETIC TOTAL TEMP POTENTIAL TOTALAVG TEMPAVG PRESSURE GPRESSURE VOLUME PRESSAVG GPRESSAVG
ENERGY: 0 2.9540 3.7827 0.9446 0.0000 -10652.6538 1450.7726 0.0000 0.0000 1753.6546 -7440.5453 302.0120 -9194.1999 -7440.5453 302.0120 -119.0487 -18.3306 30032.0375 -119.0487 -18.3306
ENERGY: 300000 1.9539 5.5143 0.2634 0.0000 -10662.7061 1415.4814 0.0000 0.0000 1676.6460 -7562.8471 288.7497 -9239.4931 -7465.3456 299.0169 -141.5358 -132.6134 29456.9609 -173.9090 -105.3839
ENERGY: 600000 0.8124 5.8532 0.7525 0.0000 -10614.8592 1413.8043 0.0000 0.0000 1754.4894 -7439.1474 302.1558 -9193.6368 -7423.9774 299.8438 -287.6328 -185.8800 30030.2717 -132.9087 -44.5770
ENERGY: 900000 0.2819 5.7366 0.6197 0.0000 -10541.5875 1473.9707 0.0000 0.0000 1808.6072 -7252.3713 311.4759 -9060.9786 -7389.1568 302.2699 695.2815 677.3942 30029.7268 -27.4752 30.0654
ENERGY: 1200000 0.8144 4.2952 0.9243 0.0000 -10423.3794 1358.4952 0.0000 0.0000 1699.6500 -7359.2002 292.7114 -9058.8502 -7383.2835 301.2238 -497.0859 -383.1796 30189.3874 -6.8646 58.1340
ENERGY: 1500000 1.4533 6.1558 1.7711 0.0000 -10575.1812 1441.4200 0.0000 0.0000 1682.7323 -7441.6488 289.7979 -9124.3811 -7390.7339 300.1178 -44.9027 73.5566 30037.3100 -1.4928 61.9050
TCL: Running FEP window   6: Lambda1 0.25   Lambda2 0.3    [dLambda 0.04999999999999999]
TCL: Setting parameter firsttimestep to 0
TCL: Setting parameter alchLambda to 0.25
Info: NONBONDED TABLE R-SQUARED SPACING: 0.0625
Info: NONBONDED TABLE SIZE: 705 POINTS
TCL: Setting parameter alchLambda2 to 0.3
Info: NONBONDED TABLE R-SQUARED SPACING: 0.0625
Info: NONBONDED TABLE SIZE: 705 POINTS
TCL: Running for 1500000 steps
ETITLE: TS BOND ANGLE DIHED IMPRP ELECT VDW BOUNDARY MISC KINETIC TOTAL TEMP POTENTIAL TOTALAVG TEMPAVG PRESSURE GPRESSURE VOLUME PRESSAVG GPRESSAVG
ENERGY: 0 1.4533 6.1558 1.7711 0.0000 -10575.1810 1441.7534 0.0000 0.0000 1681.8784 -7442.1689 289.6508 -9124.0473 -7442.1689 289.6508 5.9541 78.3768 30037.3100 5.9541 78.3768
ENERGY: 300000 0.3078 6.2317 1.2345 0.0000 -10608.4854 1414.3167 0.0000 0.0000 1797.9571 -7388.4375 309.6417 -9186.3946 -7405.4943 299.3238 -126.1075 -27.7625 29660.1035 -202.5884 -131.9871
ENERGY: 600000 1.0086 7.7161 1.7382 0.0000 -10656.8666 1485.8802 0.0000 0.0000 1735.0903 -7425.4332 298.8149 -9160.5235 -7396.2191 300.7437 294.3387 395.6070 29875.7488 -20.2431 40.7428
ENERGY: 900000 2.3192 2.8263 1.6310 0.0000 -10608.6004 1430.8420 0.0000 0.0000 1778.1429 -7392.8391 306.2294 -9170.9820 -7402.9303 301.7207 99.3684 190.9671 29588.9499 7.7159 73.8964
ENERGY: 1200000 1.7256 6.4630 1.8364 0.0000 -10501.4266 1411.5165 0.0000 0.0000 1737.0807 -7342.8044 299.1577 -9079.8851 -7400.4936 301.2490 -125.3585 -39.4888 30255.5989 14.4957 84.7806
ENERGY: 1500000 0.6628 6.8036 0.3882 0.0000 -10771.0334 1549.2148 0.0000 0.0000 1691.6745 -7522.2895 291.3379 -9213.9640 -7403.8035 301.3940 911.4861 959.1458 29520.5679 38.3885 108.1451
TCL: Running FEP window   7: Lambda1 0.3    Lambda2 0.35   [dLambda 0.04999999999999999]
TCL: Setting parameter firsttimestep to 0
TCL: Setting parameter alchLambda to 0.3
Info: NONBONDED TABLE R-SQUARED SPACING: 0.0625
Info: NONBONDED TABLE SIZE: 705 POINTS
TCL: Setting parameter alchLambda2 to 0.35
Info: NONBONDED TABLE R-SQUARED SPACING: 0.0625
Info: NONBONDED TABLE SIZE: 705 POINTS
TCL: Running for 1500000 steps
ETITLE: TS BOND ANGLE DIHED IMPRP ELECT VDW BOUNDARY MISC KINETIC TOTAL TEMP POTENTIAL TOTALAVG TEMPAVG PRESSURE GPRESSURE VOLUME PRESSAVG GPRESSAVG
ENERGY: 0 0.6628 6.8036 0.3882 0.0000 -10771.0333 1549.1733 0.0000 0.0000 1690.7786 -7523.2268 291.1836 -9214.0054 -7523.2268 291.1836 879.3027 958.4061 29520.5679 879.3027 958.4061
ENERGY: 300000 2.0278 7.2616 1.6060 0.0000 -10573.7865 1478.3442 0.0000 0.0000 1754.4663 -7330.0804 302.1518 -9084.5467 -7406.0703 298.9755 786.5336 873.7710 29783.8111 381.2696 451.9063
ENERGY: 600000 1.5763 3.8211 1.0919 0.0000 -10639.3495 1401.3767 0.0000 0.0000 1738.8836 -7492.5999 299.4682 -9231.4835 -7394.6597 300.4800 -259.9152 -242.6213 29449.8458 123.4794 178.5819
ENERGY: 900000 1.2460 7.1122 0.5147 0.0000 -10599.1011 1446.6569 0.0000 0.0000 1696.2770 -7447.2944 292.1305 -9143.5713 -7402.4187 298.8981 88.7856 157.9480 29769.0336 11.8012 65.7111
ENERGY: 1200000 0.2755 10.4822 0.5635 0.0000 -10579.2933 1406.7015 0.0000 0.0000 1710.2748 -7450.9958 294.5412 -9161.2706 -7408.6959 299.3482 -422.1802 -382.6446 30193.2492 13.3026 66.7597
ENERGY: 1500000 1.2470 5.6601 0.8279 0.0000 -10492.2993 1368.7475 0.0000 0.0000 1678.7368 -7437.0800 289.1098 -9115.8168 -7409.0711 299.5023 -614.2603 -483.0265 30253.6358 -52.1138 10.2564
TCL: Running FEP window   8: Lambda1 0.35   Lambda2 0.39999999999999997 [dLambda 0.04999999999999999]
TCL: Setting parameter firsttimestep to 0
TCL: Setting parameter alchLambda to 0.35
Info: NONBONDED TABLE R-SQUARED SPACING: 0.0625
Info: NONBONDED TABLE SIZE: 705 POINTS
TCL: Setting parameter alchLambda2 to 0.39999999999999997
Info: NONBONDED TABLE R-SQUARED SPACING: 0.0625
Info: NONBONDED TABLE SIZE: 705 POINTS
TCL: Running for 1500000 steps
ETITLE: TS BOND ANGLE DIHED IMPRP ELECT VDW BOUNDARY MISC KINETIC TOTAL TEMP POTENTIAL TOTALAVG TEMPAVG PRESSURE GPRESSURE VOLUME PRESSAVG GPRESSAVG
ENERGY: 0 1.2470 5.6601 0.8279 0.0000 -10492.2987 1368.4903 0.0000 0.0000 1677.8549 -7438.2186 288.9579 -9116.0734 -7438.2186 288.9579 -588.7213 -482.1842 30253.6358 -588.7213 -482.1842
ENERGY: 300000 1.8948 3.9775 3.5080 0.0000 -10647.3444 1488.8405 0.0000 0.0000 1734.2181 -7414.9055 298.6647 -9149.1236 -7410.1485 297.0057 516.8899 572.9197 29811.2560 132.8030 205.7952
ENERGY: 600000 0.5545 7.5124 1.6207 0.0000 -10444.5810 1308.9663 0.0000 0.0000 1736.9880 -7388.9392 299.1417 -9125.9272 -7403.3837 296.8250 -897.2594 -869.6886 30238.8059 -262.2452 -201.2360
ENERGY: 900000 1.3036 4.0386 0.2964 0.0000 -10647.3051 1505.0090 0.0000 0.0000 1789.2816 -7347.3760 308.1477 -9136.6575 -7392.5580 298.2640 1074.6333 1106.4133 29460.9535 -102.0734 -39.1629
ENERGY: 1200000 0.1848 6.1431 4.0284 0.0000 -10538.7659 1390.2958 0.0000 0.0000 1722.6815 -7415.4323 296.6779 -9138.1138 -7400.1889 297.6709 -290.8478 -260.1883 30013.5744 -152.1433 -99.5607
ENERGY: 1500000 1.2988 7.9408 1.0788 0.0000 -10621.5001 1484.4406 0.0000 0.0000 1708.4684 -7418.2727 294.2301 -9126.7410 -7399.7044 297.9100 391.2781 404.2711 29818.0657 -96.2370 -44.1029
TCL: Running FEP window   9: Lambda1 0.39999999999999997 Lambda2 0.44999999999999996 [dLambda 0.04999999999999999]
TCL: Setting parameter firsttimestep to 0
TCL: Setting parameter alchLambda to 0.39999999999999997
Info: NONBONDED TABLE R-SQUARED SPACING: 0.0625
Info: NONBONDED TABLE SIZE: 705 POINTS
TCL: Setting parameter alchLambda2 to 0.44999999999999996
Info: NONBONDED TABLE R-SQUARED SPACING: 0.0625
Info: NONBONDED TABLE SIZE: 705 POINTS
TCL: Running for 1500000 steps
ETITLE: TS BOND ANGLE DIHED IMPRP ELECT VDW BOUNDARY MISC KINETIC TOTAL TEMP POTENTIAL TOTALAVG TEMPAVG PRESSURE GPRESSURE VOLUME PRESSAVG GPRESSAVG
ENERGY: 0 1.2988 7.9408 1.0788 0.0000 -10621.4997 1484.4714 0.0000 0.0000 1707.5638 -7419.1461 294.0743 -9126.7099 -7419.1461 294.0743 329.6638 409.7456 29818.0657 329.6638 409.7456
ENERGY: 300000 1.8260 5.4896 0.4370 0.0000 -10701.6248 1454.7615 0.0000 0.0000 1710.8561 -7528.2547 294.6413 -9239.1107 -7426.1530 295.6338 -155.1129 -135.1626 30113.3083 119.8528 196.4387
ENERGY: 600000 0.2906 4.7617 0.7160 0.0000 -10583.4588 1444.7478 0.0000 0.0000 1741.6518 -7391.2908 299.9449 -9132.9426 -7417.8873 298.5048 270.4283 351.4357 29981.5087 -39.0555 38.9655
ENERGY: 900000 1.4329 5.2990 0.4365 0.0000 -10625.1305 1438.7299 0.0000 0.0000 1775.9884 -7403.2439 305.8583 -9179.2322 -7405.4328 299.4176 -100.5926 -77.1552 29996.2354 -3.2261 52.3245
ENERGY: 1200000 1.2838 5.1147 1.7709 0.0000 -10606.5439 1406.2025 0.0000 0.0000 1717.1968 -7474.9752 295.7333 -9192.1720 -7409.8065 299.3108 -131.1459 -98.5526 29848.2431 -1.6983 47.4647
ENERGY: 1500000 0.5736 6.5901 1.4511 0.0000 -10602.6835 1434.5076 0.0000 0.0000 1716.5661 -7442.9951 295.6247 -9159.5611 -7407.0596 299.3430 -126.0994 -76.3514 30058.7858 -89.8073 -39.3468
TCL: Running FEP window  10: Lambda1 0.44999999999999996 Lambda2 0.49999999999999994 [dLambda 0.04999999999999999]
TCL: Setting parameter firsttimestep to 0
TCL: Setting parameter alchLambda to 0.44999999999999996
Info: NONBONDED TABLE R-SQUARED SPACING: 0.0625
Info: NONBONDED TABLE SIZE: 705 POINTS
TCL: Setting parameter alchLambda2 to 0.49999999999999994
Info: NONBONDED TABLE R-SQUARED SPACING: 0.0625
Info: NONBONDED TABLE SIZE: 705 POINTS
TCL: Running for 1500000 steps
ETITLE: TS BOND ANGLE DIHED IMPRP ELECT VDW BOUNDARY MISC KINETIC TOTAL TEMP POTENTIAL TOTALAVG TEMPAVG PRESSURE GPRESSURE VOLUME PRESSAVG GPRESSAVG
ENERGY: 0 0.5736 6.5901 1.4511 0.0000 -10602.6835 1434.1391 0.0000 0.0000 1715.7332 -7444.1966 295.4812 -9159.9297 -7444.1966 295.4812 -165.4652 -75.7566 30058.7858 -165.4652 -75.7566
ENERGY: 300000 0.7932 3.2322 0.9322 0.0000 -10497.9085 1332.3493 0.0000 0.0000 1739.8373 -7420.7644 299.6324 -9160.6017 -7423.4929 299.0379 -797.2972 -721.0970 29915.8335 -278.0269 -206.1210
ENERGY: 600000 1.6077 5.4480 0.4789 0.0000 -10564.3499 1465.4054 0.0000 0.0000 1761.1334 -7330.2765 303.3000 -9091.4099 -7412.3858 298.7508 352.8734 392.5935 30304.5324 20.2617 76.4823
ENERGY: 900000 0.6551 4.6516 0.2807 0.0000 -10527.4660 1418.4773 0.0000 0.0000 1767.9655 -7335.4357 304.4766 -9103.4012 -7406.2741 299.1651 -317.1143 -203.3741 30556.5124 -113.7723 -46.9615
ENERGY: 1200000 0.5882 10.8151 1.5288 0.0000 -10351.4753 1297.4101 0.0000 0.0000 1696.4084 -7344.7246 292.1532 -9041.1330 -7398.6512 299.3066 -545.7545 -542.3088 29704.9299 -118.1019 -51.4508
ENERGY: 1500000 0.9871 7.4009 0.5001 0.0000 -10517.9092 1382.0935 0.0000 0.0000 1692.5948 -7434.3329 291.4964 -9126.9277 -7410.1101 298.9274 -161.0039 -134.7551 29985.9175 -67.2970 -6.4048
TCL: Running FEP window  11: Lambda1 0.49999999999999994 Lambda2 0.5499999999999999 [dLambda 0.04999999999999999]
TCL: Setting parameter firsttimestep to 0
TCL: Setting parameter alchLambda to 0.49999999999999994
Info: NONBONDED TABLE R-SQUARED SPACING: 0.0625
Info: NONBONDED TABLE SIZE: 705 POINTS
TCL: Setting parameter alchLambda2 to 0.5499999999999999
Info: NONBONDED TABLE R-SQUARED SPACING: 0.0625
Info: NONBONDED TABLE SIZE: 705 POINTS
TCL: Running for 1500000 steps
ETITLE: TS BOND ANGLE DIHED IMPRP ELECT VDW BOUNDARY MISC KINETIC TOTAL TEMP POTENTIAL TOTALAVG TEMPAVG PRESSURE GPRESSURE VOLUME PRESSAVG GPRESSAVG
ENERGY: 0 0.9871 7.4009 0.5001 0.0000 -10517.9092 1382.4129 0.0000 0.0000 1691.7410 -7434.8673 291.3494 -9126.6083 -7434.8673 291.3494 -208.0776 -125.4637 29985.9175 -208.0776 -125.4637
ENERGY: 300000 1.0068 5.9617 2.8977 0.0000 -10651.9628 1465.9062 0.0000 0.0000 1740.1859 -7436.0044 299.6925 -9176.1903 -7401.8297 296.8534 210.6179 293.3330 29909.6440 221.3744 315.7472
ENERGY: 600000 1.4250 7.7454 0.9049 0.0000 -10432.1453 1361.2216 0.0000 0.0000 1770.5413 -7290.3071 304.9202 -9060.8483 -7391.9368 297.3756 -516.0391 -425.8621 30373.7883 25.0637 128.7066
ENERGY: 900000 0.7346 5.9349 3.0850 0.0000 -10375.7344 1328.5488 0.0000 0.0000 1703.5291 -7333.9019 293.3795 -9037.4310 -7381.0269 297.8332 -428.1216 -365.8024 29861.6378 106.1466 194.8264
ENERGY: 1200000 0.6186 5.5986 2.4136 0.0000 -10685.8821 1429.8683 0.0000 0.0000 1725.9259 -7521.4571 297.2366 -9247.3830 -7399.5014 298.3638 -103.2002 -27.1769 29901.0840 127.1926 207.4480
ENERGY: 1500000 0.8915 5.9464 0.6412 0.0000 -10473.4550 1356.2355 0.0000 0.0000 1730.3198 -7379.4205 297.9933 -9109.7403 -7402.6001 298.8208 -586.7984 -539.6411 30281.9450 141.3026 224.1041
TCL: Running FEP window  12: Lambda1 0.5499999999999999 Lambda2 0.6    [dLambda 0.050000000000000044]
TCL: Setting parameter firsttimestep to 0
TCL: Setting parameter alchLambda to 0.5499999999999999
Info: NONBONDED TABLE R-SQUARED SPACING: 0.0625
Info: NONBONDED TABLE SIZE: 705 POINTS
TCL: Setting parameter alchLambda2 to 0.6
Info: NONBONDED TABLE R-SQUARED SPACING: 0.0625
Info: NONBONDED TABLE SIZE: 705 POINTS
TCL: Running for 1500000 steps
ETITLE: TS BOND ANGLE DIHED IMPRP ELECT VDW BOUNDARY MISC KINETIC TOTAL TEMP POTENTIAL TOTALAVG TEMPAVG PRESSURE GPRESSURE VOLUME PRESSAVG GPRESSAVG
ENERGY: 0 0.8915 5.9464 0.6412 0.0000 -10473.4792 1356.6947 0.0000 0.0000 1729.4844 -7379.8210 297.8495 -9109.3054 -7379.8210 297.8495 -613.6867 -531.0941 30281.9450 -613.6867 -531.0941
ENERGY: 300000 2.4188 6.4364 0.1631 0.0000 -10512.0559 1345.6281 0.0000 0.0000 1750.4109 -7406.9986 301.4534 -9157.4095 -7379.9169 300.6862 -671.1446 -679.5947 30470.2285 -472.2594 -440.0026
ENERGY: 600000 1.2169 4.4538 1.5883 0.0000 -10421.8756 1319.5048 0.0000 0.0000 1718.3204 -7376.7912 295.9268 -9095.1116 -7396.4544 300.6572 -653.2977 -622.2999 29768.6092 -498.7197 -452.6038
ENERGY: 900000 0.8251 5.6675 0.3564 0.0000 -10501.3410 1430.0139 0.0000 0.0000 1790.3121 -7274.1661 308.3251 -9064.4781 -7377.2714 301.5955 246.3800 376.0344 30108.5816 -341.2645 -287.4207
ENERGY: 1200000 0.2071 3.3795 0.5032 0.0000 -10610.8352 1407.1842 0.0000 0.0000 1759.8171 -7439.7440 303.0733 -9199.5611 -7392.0105 301.2529 -176.5907 -86.5447 29773.9917 -322.6742 -261.9273
ENERGY: 1500000 0.7071 7.5543 1.0114 0.0000 -10498.1388 1371.2385 0.0000 0.0000 1725.0040 -7392.6235 297.0779 -9117.6275 -7383.5167 301.2867 -435.0856 -407.6847 30171.5462 -270.5326 -207.4688
TCL: Running FEP window  13: Lambda1 0.6    Lambda2 0.65   [dLambda 0.050000000000000044]
TCL: Setting parameter firsttimestep to 0
TCL: Setting parameter alchLambda to 0.6
Info: NONBONDED TABLE R-SQUARED SPACING: 0.0625
Info: NONBONDED TABLE SIZE: 705 POINTS
TCL: Setting parameter alchLambda2 to 0.65
Info: NONBONDED TABLE R-SQUARED SPACING: 0.0625
Info: NONBONDED TABLE SIZE: 705 POINTS
TCL: Running for 1500000 steps
ETITLE: TS BOND ANGLE DIHED IMPRP ELECT VDW BOUNDARY MISC KINETIC TOTAL TEMP POTENTIAL TOTALAVG TEMPAVG PRESSURE GPRESSURE VOLUME PRESSAVG GPRESSAVG
ENERGY: 0 0.7071 7.5543 1.0114 0.0000 -10498.3638 1370.9749 0.0000 0.0000 1724.1707 -7393.9455 296.9343 -9118.1162 -7393.9455 296.9343 -486.1642 -407.0224 30171.5462 -486.1642 -407.0224
ENERGY: 300000 1.7217 3.3929 0.7838 0.0000 -10544.8998 1447.8353 0.0000 0.0000 1768.9307 -7322.2355 304.6428 -9091.1661 -7361.9529 299.7282 354.8414 419.9772 29870.0498 150.3660 240.4307
ENERGY: 600000 0.4723 4.0632 0.6190 0.0000 -10546.9936 1363.1970 0.0000 0.0000 1759.8574 -7418.7848 303.0803 -9178.6421 -7375.2584 302.1253 -742.0946 -712.6860 30569.9702 96.0444 170.7166
ENERGY: 900000 0.9477 7.2589 0.5189 0.0000 -10493.6579 1411.7960 0.0000 0.0000 1723.2961 -7349.8403 296.7837 -9073.1365 -7369.3004 301.0833 -196.3339 -88.4254 30690.2584 114.0102 185.7271
ENERGY: 1200000 0.7982 7.0000 1.6075 0.0000 -10384.4622 1264.0811 0.0000 0.0000 1730.4128 -7380.5625 298.0094 -9110.9753 -7372.4275 300.9014 -1317.5988 -1233.0402 30100.4164 -65.8997 6.3788
ENERGY: 1500000 2.9808 5.2464 2.0835 0.0000 -10562.7306 1403.8059 0.0000 0.0000 1759.5368 -7389.0772 303.0250 -9148.6140 -7371.9500 300.9476 -521.5908 -372.8437 30452.2339 -113.1161 -40.2114
TCL: Running FEP window  14: Lambda1 0.65   Lambda2 0.7000000000000001 [dLambda 0.050000000000000044]
TCL: Setting parameter firsttimestep to 0
TCL: Setting parameter alchLambda to 0.65
Info: NONBONDED TABLE R-SQUARED SPACING: 0.0625
Info: NONBONDED TABLE SIZE: 705 POINTS
TCL: Setting parameter alchLambda2 to 0.7000000000000001
Info: NONBONDED TABLE R-SQUARED SPACING: 0.0625
Info: NONBONDED TABLE SIZE: 705 POINTS
TCL: Running for 1500000 steps
ETITLE: TS BOND ANGLE DIHED IMPRP ELECT VDW BOUNDARY MISC KINETIC TOTAL TEMP POTENTIAL TOTALAVG TEMPAVG PRESSURE GPRESSURE VOLUME PRESSAVG GPRESSAVG
ENERGY: 0 2.9808 5.2464 2.0835 0.0000 -10562.4411 1403.7343 0.0000 0.0000 1758.7042 -7389.6919 302.8817 -9148.3961 -7389.6919 302.8817 -456.7946 -365.3584 30452.2339 -456.7946 -365.3584
ENERGY: 300000 0.6714 2.9188 1.5342 0.0000 -10548.3672 1403.3846 0.0000 0.0000 1777.8785 -7361.9797 306.1838 -9139.8583 -7376.1559 302.2245 -196.3753 -164.7339 30054.8568 -135.2107 -57.9711
ENERGY: 600000 1.3565 9.9138 3.5718 0.0000 -10609.5331 1459.4758 0.0000 0.0000 1764.8758 -7370.3394 303.9445 -9135.2152 -7357.7839 302.3886 120.9058 197.4746 30270.6640 24.9677 99.4818
ENERGY: 900000 0.2983 10.5551 0.9610 0.0000 -10675.1763 1491.9585 0.0000 0.0000 1719.2290 -7452.1743 296.0833 -9171.4033 -7386.5088 300.8050 781.4767 809.0220 29315.0595 94.5654 157.2446
ENERGY: 1200000 0.6540 2.8622 2.4543 0.0000 -10607.0772 1423.2919 0.0000 0.0000 1765.5765 -7412.2383 304.0652 -9177.8148 -7402.1993 301.2350 -63.0409 33.6953 29736.0775 -35.1037 30.9991
ENERGY: 1500000 0.7191 6.4938 1.0550 0.0000 -10459.6106 1323.8684 0.0000 0.0000 1697.4015 -7430.0729 292.3242 -9127.4744 -7401.4724 300.8168 -806.1259 -743.1963 30334.5454 -90.0935 -20.8048
TCL: Running FEP window  15: Lambda1 0.7000000000000001 Lambda2 0.7500000000000001 [dLambda 0.050000000000000044]
TCL: Setting parameter firsttimestep to 0
TCL: Setting parameter alchLambda to 0.7000000000000001
Info: NONBONDED TABLE R-SQUARED SPACING: 0.0625
Info: NONBONDED TABLE SIZE: 705 POINTS
TCL: Setting parameter alchLambda2 to 0.7500000000000001
Info: NONBONDED TABLE R-SQUARED SPACING: 0.0625
Info: NONBONDED TABLE SIZE: 705 POINTS
TCL: Running for 1500000 steps
ETITLE: TS BOND ANGLE DIHED IMPRP ELECT VDW BOUNDARY MISC KINETIC TOTAL TEMP POTENTIAL TOTALAVG TEMPAVG PRESSURE GPRESSURE VOLUME PRESSAVG GPRESSAVG
ENERGY: 0 0.7191 6.4938 1.0550 0.0000 -10459.7717 1323.4001 0.0000 0.0000 1696.5343 -7431.5694 292.1748 -9128.1037 -7431.5694 292.1748 -804.6848 -742.1527 30334.5454 -804.6848 -742.1527
ENERGY: 300000 0.6298 8.1671 1.3116 0.0000 -10598.4152 1405.5656 0.0000 0.0000 1667.5536 -7515.1874 287.1838 -9182.7410 -7447.0555 289.1502 -337.0070 -290.2093 30239.5601 -298.5422 -237.2281
ENERGY: 600000 1.3372 4.0456 0.2872 0.0000 -10514.5346 1438.7964 0.0000 0.0000 1685.8143 -7384.2538 290.3287 -9070.0681 -7413.1727 294.3117 269.0317 372.1433 29724.0314 -306.3959 -239.8636
ENERGY: 900000 2.5743 5.6337 1.1612 0.0000 -10543.1820 1432.5040 0.0000 0.0000 1706.1762 -7395.1327 293.8354 -9101.3089 -7416.3077 295.2227 -0.8098 68.4729 30142.8272 -195.3415 -132.4140
ENERGY: 1200000 0.9629 4.7871 2.3930 0.0000 -10540.9357 1372.8083 0.0000 0.0000 1725.5533 -7434.4310 297.1725 -9159.9843 -7420.3156 296.3189 -405.9801 -386.0525 30201.9054 -226.8457 -172.8920
ENERGY: 1500000 1.8628 4.0494 0.5074 0.0000 -10716.0783 1514.1556 0.0000 0.0000 1736.8864 -7458.6167 299.1242 -9195.5031 -7415.0077 297.2047 813.5791 859.3854 29377.4223 -137.0569 -81.6569
TCL: Running FEP window  16: Lambda1 0.7500000000000001 Lambda2 0.8000000000000002 [dLambda 0.050000000000000044]
TCL: Setting parameter firsttimestep to 0
TCL: Setting parameter alchLambda to 0.7500000000000001
Info: NONBONDED TABLE R-SQUARED SPACING: 0.0625
Info: NONBONDED TABLE SIZE: 705 POINTS
TCL: Setting parameter alchLambda2 to 0.8000000000000002
Info: NONBONDED TABLE R-SQUARED SPACING: 0.0625
Info: NONBONDED TABLE SIZE: 705 POINTS
TCL: Running for 1500000 steps
ETITLE: TS BOND ANGLE DIHED IMPRP ELECT VDW BOUNDARY MISC KINETIC TOTAL TEMP POTENTIAL TOTALAVG TEMPAVG PRESSURE GPRESSURE VOLUME PRESSAVG GPRESSAVG
ENERGY: 0 1.8628 4.0494 0.5074 0.0000 -10717.2025 1515.0490 0.0000 0.0000 1736.0365 -7459.6974 298.9779 -9195.7339 -7459.6974 298.9779 805.4483 875.2467 29377.4223 805.4483 875.2467
ENERGY: 300000 3.1114 9.4958 0.7420 0.0000 -10578.0923 1427.8229 0.0000 0.0000 1738.6250 -7398.2953 299.4236 -9136.9203 -7394.6643 302.0803 2.3753 115.6945 29848.4644 267.0765 350.9746
ENERGY: 600000 1.0421 6.8008 1.6366 0.0000 -10572.3581 1385.1619 0.0000 0.0000 1775.5592 -7402.1575 305.7844 -9177.7166 -7409.8233 300.4942 -309.0214 -248.0678 30025.7018 151.0800 230.4947
ENERGY: 900000 0.6926 2.8765 1.3435 0.0000 -10426.0525 1341.9009 0.0000 0.0000 1724.2820 -7354.9570 296.9535 -9079.2390 -7401.9048 300.7700 -680.3798 -620.8011 30310.5558 23.2829 100.3982
ENERGY: 1200000 3.1629 3.2783 2.2465 0.0000 -10624.7294 1398.8010 0.0000 0.0000 1740.0654 -7477.1752 299.6717 -9217.2406 -7411.8602 301.7959 -436.2401 -355.2440 29685.4538 -55.4938 24.5328
ENERGY: 1500000 1.1615 6.3296 0.3841 0.0000 -10623.0017 1507.0249 0.0000 0.0000 1726.4724 -7381.6292 297.3307 -9108.1016 -7413.4191 301.3260 685.7210 666.2725 30290.3467 -37.3443 34.4464
TCL: Running FEP window  17: Lambda1 0.8000000000000002 Lambda2 0.8500000000000002 [dLambda 0.050000000000000044]
TCL: Setting parameter firsttimestep to 0
TCL: Setting parameter alchLambda to 0.8000000000000002
Info: NONBONDED TABLE R-SQUARED SPACING: 0.0625
Info: NONBONDED TABLE SIZE: 705 POINTS
TCL: Setting parameter alchLambda2 to 0.8500000000000002
Info: NONBONDED TABLE R-SQUARED SPACING: 0.0625
Info: NONBONDED TABLE SIZE: 705 POINTS
TCL: Running for 1500000 steps
ETITLE: TS BOND ANGLE DIHED IMPRP ELECT VDW BOUNDARY MISC KINETIC TOTAL TEMP POTENTIAL TOTALAVG TEMPAVG PRESSURE GPRESSURE VOLUME PRESSAVG GPRESSAVG
ENERGY: 0 1.1615 6.3296 0.3841 0.0000 -10623.8684 1507.1858 0.0000 0.0000 1725.5963 -7383.2111 297.1799 -9108.8075 -7383.2111 297.1799 599.5165 672.6473 30290.3467 599.5165 672.6473
ENERGY: 300000 0.1277 6.8071 1.0494 0.0000 -10570.7090 1395.1613 0.0000 0.0000 1685.7230 -7481.8405 290.3129 -9167.5634 -7402.1428 299.5879 -526.1475 -451.9839 30524.4250 279.5258 330.2747
ENERGY: 600000 1.1248 2.6062 0.4938 0.0000 -10538.8760 1394.1315 0.0000 0.0000 1741.4213 -7399.0984 299.9052 -9140.5197 -7397.7402 300.7732 -214.6997 -207.0453 30177.3346 213.8378 255.3410
ENERGY: 900000 2.7266 4.7895 2.8916 0.0000 -10525.6591 1407.8413 0.0000 0.0000 1720.8231 -7386.5869 296.3578 -9107.4100 -7389.2721 300.4483 -312.4248 -325.3401 30466.7228 -33.3573 20.7049
ENERGY: 1200000 0.0933 7.6262 0.4804 0.0000 -10547.6099 1435.1168 0.0000 0.0000 1754.5180 -7349.7752 302.1607 -9104.2932 -7372.2104 301.0316 176.8786 245.1288 30223.0924 40.4370 95.8329
ENERGY: 1500000 0.1621 5.4164 1.2680 0.0000 -10710.7921 1548.9437 0.0000 0.0000 1787.3932 -7367.6087 307.8224 -9155.0019 -7368.2242 302.4819 1319.2025 1293.3390 29521.4672 157.3369 202.0724
TCL: Running FEP window  18: Lambda1 0.8500000000000002 Lambda2 0.9000000000000002 [dLambda 0.050000000000000044]
TCL: Setting parameter firsttimestep to 0
TCL: Setting parameter alchLambda to 0.8500000000000002
Info: NONBONDED TABLE R-SQUARED SPACING: 0.0625
Info: NONBONDED TABLE SIZE: 705 POINTS
TCL: Setting parameter alchLambda2 to 0.9000000000000002
Info: NONBONDED TABLE R-SQUARED SPACING: 0.0625
Info: NONBONDED TABLE SIZE: 705 POINTS
TCL: Running for 1500000 steps
ETITLE: TS BOND ANGLE DIHED IMPRP ELECT VDW BOUNDARY MISC KINETIC TOTAL TEMP POTENTIAL TOTALAVG TEMPAVG PRESSURE GPRESSURE VOLUME PRESSAVG GPRESSAVG
ENERGY: 0 0.1621 5.4164 1.2680 0.0000 -10711.4507 1549.4609 0.0000 0.0000 1786.5202 -7368.6232 307.6721 -9155.1433 -7368.6232 307.6721 1230.3962 1307.4798 29521.4672 1230.3962 1307.4798
ENERGY: 300000 1.3110 3.9687 1.7174 0.0000 -10557.8481 1301.3173 0.0000 0.0000 1676.1045 -7573.4293 288.6564 -9249.5337 -7447.6632 301.0428 -1170.1601 -1127.1800 29713.0329 39.7150 104.2436
ENERGY: 600000 0.3566 10.9478 0.4718 0.0000 -10520.4908 1411.4952 0.0000 0.0000 1721.7179 -7375.5017 296.5119 -9097.2196 -7421.0977 300.2641 -128.4189 -47.3542 30058.8570 145.8291 206.2309
ENERGY: 900000 0.8569 6.8461 0.7751 0.0000 -10463.8043 1361.1799 0.0000 0.0000 1767.2046 -7326.9416 304.3456 -9094.1463 -7429.9445 299.4154 -453.7710 -398.9323 30074.1202 154.1288 211.0661
ENERGY: 1200000 0.7968 5.9384 2.4245 0.0000 -10491.4278 1355.3836 0.0000 0.0000 1746.4248 -7380.4596 300.7669 -9126.8844 -7428.9321 299.0197 -380.8789 -254.5808 29868.2528 144.2418 202.8411
ENERGY: 1500000 0.4041 5.3116 0.9092 0.0000 -10536.6967 1410.7511 0.0000 0.0000 1769.0092 -7350.3116 304.6564 -9119.3208 -7427.8260 298.4524 140.9527 222.1139 29801.5439 140.4591 200.3239
TCL: Running FEP window  19: Lambda1 0.9000000000000002 Lambda2 0.9500000000000003 [dLambda 0.050000000000000044]
TCL: Setting parameter firsttimestep to 0
TCL: Setting parameter alchLambda to 0.9000000000000002
Info: NONBONDED TABLE R-SQUARED SPACING: 0.0625
Info: NONBONDED TABLE SIZE: 705 POINTS
TCL: Setting parameter alchLambda2 to 0.9500000000000003
Info: NONBONDED TABLE R-SQUARED SPACING: 0.0625
Info: NONBONDED TABLE SIZE: 705 POINTS
TCL: Running for 1500000 steps
ETITLE: TS BOND ANGLE DIHED IMPRP ELECT VDW BOUNDARY MISC KINETIC TOTAL TEMP POTENTIAL TOTALAVG TEMPAVG PRESSURE GPRESSURE VOLUME PRESSAVG GPRESSAVG
ENERGY: 0 0.4041 5.3116 0.9092 0.0000 -10538.2527 1412.4004 0.0000 0.0000 1768.1373 -7351.0901 304.5062 -9119.2274 -7351.0901 304.5062 154.6532 244.4315 29801.5439 154.6532 244.4315
ENERGY: 300000 1.0462 4.9801 0.9473 0.0000 -10643.2908 1488.4154 0.0000 0.0000 1768.8585 -7379.0432 304.6304 -9147.9017 -7380.4849 301.0149 606.8646 683.1894 29775.6151 167.1689 231.1701
ENERGY: 600000 1.6253 2.5422 0.5280 0.0000 -10599.7951 1487.6006 0.0000 0.0000 1713.1278 -7394.3711 295.0326 -9107.4989 -7405.0937 300.0230 679.9235 727.6641 30116.0118 159.2079 211.9724
ENERGY: 900000 0.4430 4.2550 0.5092 0.0000 -10567.9808 1399.1878 0.0000 0.0000 1762.2414 -7401.3444 303.4908 -9163.5857 -7407.3922 300.6976 -135.5936 -59.8523 29858.1343 247.2356 304.5929
ENERGY: 1200000 0.8489 7.1156 0.8311 0.0000 -10534.7815 1401.7925 0.0000 0.0000 1740.2219 -7383.9715 299.6987 -9124.1934 -7404.9408 300.6615 -267.1087 -248.9865 30462.1530 228.6201 286.3887
ENERGY: 1500000 1.1739 7.3799 1.6929 0.0000 -10644.1259 1431.3036 0.0000 0.0000 1765.4936 -7437.0820 304.0509 -9202.5756 -7407.1979 300.7161 -31.1572 77.5730 29514.0439 215.0066 276.9332
TCL: Running FEP window  20: Lambda1 0.9500000000000003 Lambda2 1.0    [dLambda 0.04999999999999971]
TCL: Setting parameter firsttimestep to 0
TCL: Setting parameter alchLambda to 0.9500000000000003
Info: NONBONDED TABLE R-SQUARED SPACING: 0.0625
Info: NONBONDED TABLE SIZE: 705 POINTS
TCL: Setting parameter alchLambda2 to 1.0
Info: NONBONDED TABLE R-SQUARED SPACING: 0.0625
Info: NONBONDED TABLE SIZE: 705 POINTS
TCL: Running for 1500000 steps
ETITLE: TS BOND ANGLE DIHED IMPRP ELECT VDW BOUNDARY MISC KINETIC TOTAL TEMP POTENTIAL TOTALAVG TEMPAVG PRESSURE GPRESSURE VOLUME PRESSAVG GPRESSAVG
ENERGY: 0 1.1739 7.3799 1.6929 0.0000 -10645.2361 1431.8364 0.0000 0.0000 1764.6396 -7438.5134 303.9039 -9203.1530 -7438.5134 303.9039 10.2694 91.7317 29514.0439 10.2694 91.7317
ENERGY: 300000 0.5083 2.8757 0.3697 0.0000 -10714.2367 1513.2196 0.0000 0.0000 1745.6529 -7451.6106 300.6340 -9197.2634 -7371.1893 304.6400 834.0889 845.9199 29496.3412 456.0189 490.6020
ENERGY: 600000 0.2909 8.4478 0.8765 0.0000 -10631.0005 1412.9008 0.0000 0.0000 1682.0988 -7526.3857 289.6888 -9208.4844 -7375.0211 303.4772 -205.7669 -88.1461 29842.8380 167.7360 222.4172
ENERGY: 900000 0.3223 6.5945 0.6847 0.0000 -10639.9904 1400.5481 0.0000 0.0000 1754.8859 -7476.9549 302.2241 -9231.8408 -7397.9462 302.5921 -439.1685 -394.9183 30128.0278 146.1430 205.3072
ENERGY: 1200000 1.4092 3.4348 2.1453 0.0000 -10599.0706 1413.3701 0.0000 0.0000 1749.0141 -7429.6971 301.2128 -9178.7112 -7411.5815 301.9468 -165.0375 -93.7038 29989.1012 132.7262 185.6637
ENERGY: 1500000 0.1179 3.7432 1.0539 0.0000 -10575.8331 1482.0334 0.0000 0.0000 1781.2633 -7307.6214 306.7668 -9088.8847 -7404.1450 301.5573 462.0859 531.8378 30532.3436 89.0459 138.8571
TCL: Exiting due to exit command.
