Info: SIMULATION PARAMETERS:
Info: TIMESTEP               2
Info: NUMBER OF STEPS        0
Info: STEPS PER CYCLE        10
Info: PERIODIC CELL BASIS 1  31.1744 0 0
Info: PERIODIC CELL BASIS 2  0 29.7444 0
Info: PERIODIC CELL BASIS 3  0 0 33.12
Info: PERIODIC CELL CENTER   0 0 0
Info: WRAPPING WATERS AROUND PERIODIC BOUNDARIES ON OUTPUT.
Info: WRAPPING ALL CLUSTERS AROUND PERIODIC BOUNDARIES ON OUTPUT.
Info: FIRST LDB TIMESTEP     50
Info: LAST LDB TIMESTEP     -1
Info: HOM BACKGROUND SCALING 1
Info: PME BACKGROUND SCALING 1
Info: MIN ATOMS PER PATCH    40
Info: EMPTY PATCH LOAD       40 ATOMS
Info: VELOCITY FILE          mobley_1178614_equil.vel
Info: CENTER OF MASS MOVING INITIALLY? NO
Info: DIELECTRIC             1
Info: EXCLUDE                SCALED ONE-FOUR
Info: 1-4 ELECTROSTATICS SCALED BY 0.833333
Info: MODIFIED 1-4 VDW PARAMETERS WILL BE USED
Info: DCD FILENAME           mobley_1178614_prod.dcd
Info: DCD FREQUENCY          100000
Info: DCD FIRST STEP         100000
Info: DCD FILE WILL CONTAIN UNIT CELL DATA
Info: XST FILENAME           mobley_1178614_prod.xst
Info: XST FREQUENCY          100000
Info: NO VELOCITY DCD OUTPUT
Info: NO FORCE DCD OUTPUT
Info: OUTPUT FILENAME        mobley_1178614_prod
Info: BINARY OUTPUT FILES WILL BE USED
Info: RESTART FILENAME       mobley_1178614_prod.restart
Info: RESTART FREQUENCY      100000
Info: BINARY RESTART FILES WILL BE USED
Info: CUTOFF                 9
Info: PAIRLIST DISTANCE      11
Info: PAIRLIST SHRINK RATE   0.01
Info: PAIRLIST GROW RATE     0.01
Info: PAIRLIST TRIGGER       0.3
Info: PAIRLISTS PER CYCLE    2
Info: PAIRLISTS ENABLED
Info: MARGIN                 2
Info: HYDROGEN GROUP CUTOFF  2.5
Info: PATCH DIMENSION        15.5
Info: ENERGY OUTPUT STEPS    100000
Info: ENERGY EVALUATION STEPS    100000
Info: OUTPUT ENERGY PRECISION 4
Info: CROSSTERM ENERGY INCLUDED IN DIHEDRAL
Info: TIMING OUTPUT STEPS    1000000
Info: PRESSURE OUTPUT STEPS  100000
Info: ALCHEMICAL FEP ON
Info: FEP CURRENT LAMBDA VALUE     1
Info: FEP COMPARISON LAMBDA VALUE  0.95
Info: FEP INTRA-ALCHEMICAL NON-BONDED INTERACTIONS WILL BE RETAINED
Info: FEP INTRA-ALCHEMICAL BONDED INTERACTIONS WILL BE RETAINED
Info: FEP VDW SHIFTING COEFFICIENT 5
Info: FEP ELEC. ACTIVE FOR ANNIHILATED PARTICLES BETWEEN LAMBDA = 0 AND LAMBDA = 0.5
Info: FEP ELEC. ACTIVE FOR EXNIHILATED PARTICLES BETWEEN LAMBDA = 0.5 AND LAMBDA = 1
Info: FEP VDW ACTIVE FOR ANNIHILATED PARTICLES BETWEEN LAMBDA = 0 AND LAMBDA = 1
Info: FEP VDW ACTIVE FOR EXNIHILATED PARTICLES BETWEEN LAMBDA = 0 AND LAMBDA = 1
Info: FEP BOND ACTIVE FOR ANNIHILATED PARTICLES BETWEEN LAMBDA = 1 AND LAMBDA = 1
Info: FEP BOND ACTIVE FOR EXNIHILATED PARTICLES BETWEEN LAMBDA = 0 AND LAMBDA = 0
Info: LANGEVIN DYNAMICS ACTIVE
Info: LANGEVIN TEMPERATURE   300
Info: LANGEVIN USING BBK INTEGRATOR
Info: LANGEVIN DAMPING COEFFICIENT IS 1 INVERSE PS
Info: LANGEVIN DYNAMICS APPLIED TO HYDROGENS
Info: LANGEVIN PISTON PRESSURE CONTROL ACTIVE
Info:        TARGET PRESSURE IS 1.01325 BAR
Info:     OSCILLATION PERIOD IS 50 FS
Info:             DECAY TIME IS 25 FS
Info:     PISTON TEMPERATURE IS 300 K
Info:       PRESSURE CONTROL IS GROUP-BASED
Info:    INITIAL STRAIN RATE IS 8.53194e-05 8.53194e-05 8.53194e-05
Info:       CELL FLUCTUATION IS ISOTROPIC
Info: PARTICLE MESH EWALD (PME) ACTIVE
Info: PME TOLERANCE               1e-06
Info: PME EWALD COEFFICIENT       0.348832
Info: PME INTERPOLATION ORDER     4
Info: PME GRID DIMENSIONS         32 32 36
Info: PME MAXIMUM GRID SPACING    1
Info: PME CALCULATION WILL BE PERFORMED ON GPU
Info: FULL ELECTROSTATIC EVALUATION FREQUENCY      2
Info: USING VERLET I (r-RESPA) MTS SCHEME.
Info: C1 SPLITTING OF LONG RANGE ELECTROSTATICS
Info: PLACING ATOMS IN PATCHES BY HYDROGEN GROUPS
Info: RIGID BONDS TO HYDROGEN : ALL
Info:         ERROR TOLERANCE : 1e-08
Info:          MAX ITERATIONS : 100
Info: RIGID WATER USING SETTLE ALGORITHM
Info: RANDOM NUMBER SEED     1743559519
Info: USE HYDROGEN BONDS?    NO
Info: Using AMBER format force field!
Info: AMBER PARM FILE        mobley_1178614.prmtop
Info: COORDINATE PDB         mobley_1178614.pdb
Info: Exclusions will be read from PARM file!
Info: SCNB (VDW SCALING)     2
Info: USING ARITHMETIC MEAN TO COMBINE L-J SIGMA PARAMETERS
Info: BINARY COORDINATES     mobley_1178614_equil.coor
Info: SUMMARY OF PARAMETERS:
Info: 7 BONDS
Info: 5 ANGLES
Info:   5 HARMONIC
Info:   0 COSINE-BASED
Info: 3 DIHEDRAL
Info: 0 IMPROPER
Info: 0 CROSSTERM
Info: 0 VDW
Info: 21 VDW_PAIRS
Info: 0 NBTHOLE_PAIRS
Info: To read alchdata from file: mobley_1178614.pdb
Info: To read alchflag data from column: 5
Info: STRUCTURE SUMMARY:
Info: 2971 ATOMS
Info: 2971 BONDS
Info: 19 ANGLES
Info: 32 DIHEDRALS
Info: 0 IMPROPERS
Info: 0 CROSSTERMS
Info: 3013 EXCLUSIONS
Info: 2963 RIGID BONDS
Info: ALCH: 0 ATOMS TO DISAPPEAR IN FINAL STATE
Info: ALCH: 13 ATOMS TO APPEAR IN FINAL STATE
Info: 5950 DEGREES OF FREEDOM
Info: 994 HYDROGEN GROUPS
Info: 3 ATOMS IN LARGEST HYDROGEN GROUP
Info: 994 MIGRATION GROUPS
Info: 3 ATOMS IN LARGEST MIGRATION GROUP
Info: TOTAL MASS = 17892.3 amu
Info: TOTAL CHARGE = 0.000199974 e
Info: MASS DENSITY = 0.967457 g/cm^3
Info: ATOM DENSITY = 0.0967405 atoms/A^3
Info: ADDED 0 IMPLICIT EXCLUSIONS
Info: NONBONDED TABLE R-SQUARED SPACING: 0.0625
Info: NONBONDED TABLE SIZE: 705 POINTS
Info: REMOVING COM VELOCITY 0.175408 -0.0760709 -0.0706509
Info: Use 3D box decompostion in PME FFT.
Info: Updated CUDA force table with 4096 elements.
Info: Updated CUDA LJ table with 6 x 6 elements.
Info: Found 15 unique exclusion lists needing 28 bytes
TCL: Running for 1500000 steps
ETITLE: TS BOND ANGLE DIHED IMPRP ELECT VDW BOUNDARY MISC KINETIC TOTAL TEMP POTENTIAL TOTALAVG TEMPAVG PRESSURE GPRESSURE VOLUME PRESSAVG GPRESSAVG
ENERGY: 0 2.9000 2.6469 4.7750 0.0000 -10719.5621 1391.6427 0.0000 0.0000 1770.1645 -7547.4329 299.4243 -9317.5974 -7547.4329 299.4243 -592.0365 -506.1292 30711.0254 -592.0365 -506.1292
ENERGY: 300000 3.9466 3.4931 4.0928 0.0000 -10784.5818 1397.5687 0.0000 0.0000 1752.4408 -7623.0399 296.4263 -9375.4806 -7540.5392 301.5627 -837.9872 -772.1713 31014.7479 -549.7914 -478.7829
ENERGY: 600000 2.3473 2.3973 3.9831 0.0000 -10681.9863 1454.4196 0.0000 0.0000 1778.3481 -7440.4908 300.8086 -9218.8390 -7540.3051 300.6273 265.6249 374.6986 30896.6119 -223.9195 -156.6044
ENERGY: 900000 2.8974 2.7000 3.4253 0.0000 -10851.4909 1446.8199 0.0000 0.0000 1745.8536 -7649.7946 295.3121 -9395.6483 -7546.3419 300.8667 -178.7447 -155.2315 30523.8056 -75.8171 -10.9182
ENERGY: 1200000 3.4613 2.7828 3.6302 0.0000 -10762.9440 1468.1883 0.0000 0.0000 1785.5397 -7499.3417 302.0250 -9284.8814 -7539.8946 300.2865 304.3647 341.1437 30408.9327 -172.5343 -108.7932
ENERGY: 1500000 3.4392 3.8696 2.7035 0.0000 -10628.7264 1377.3473 0.0000 0.0000 1739.9632 -7501.4036 294.3157 -9241.3669 -7529.5396 300.9884 -279.3816 -232.8649 30516.7697 -168.1123 -105.9505
TCL: Running FEP window   2: Lambda1 0.95   Lambda2 0.8999999999999999 [dLambda -0.050000000000000044]
TCL: Setting parameter firsttimestep to 0
TCL: Setting parameter alchLambda to 0.95
Info: NONBONDED TABLE R-SQUARED SPACING: 0.0625
Info: NONBONDED TABLE SIZE: 705 POINTS
TCL: Setting parameter alchLambda2 to 0.8999999999999999
Info: NONBONDED TABLE R-SQUARED SPACING: 0.0625
Info: NONBONDED TABLE SIZE: 705 POINTS
TCL: Running for 1500000 steps
ETITLE: TS BOND ANGLE DIHED IMPRP ELECT VDW BOUNDARY MISC KINETIC TOTAL TEMP POTENTIAL TOTALAVG TEMPAVG PRESSURE GPRESSURE VOLUME PRESSAVG GPRESSAVG
ENERGY: 0 3.4392 3.8696 2.7035 0.0000 -10626.9765 1376.9283 0.0000 0.0000 1739.0855 -7500.9504 294.1673 -9240.0359 -7500.9504 294.1673 -337.0800 -241.4240 30516.7697 -337.0800 -241.4240
ENERGY: 300000 3.9389 3.0805 4.6057 0.0000 -10790.8307 1421.5141 0.0000 0.0000 1824.7108 -7532.9807 308.6508 -9357.6915 -7547.0770 301.0816 -392.6617 -339.9189 30583.2968 7.3373 67.7834
ENERGY: 600000 1.7447 3.9829 1.4388 0.0000 -10697.1564 1402.5296 0.0000 0.0000 1775.2941 -7512.1663 300.2920 -9287.4604 -7544.2831 300.6329 -419.2437 -272.4888 30955.2365 95.0340 178.1422
ENERGY: 900000 2.8216 2.0003 2.4644 0.0000 -10730.4067 1383.9299 0.0000 0.0000 1766.4941 -7572.6964 298.8034 -9339.1905 -7544.2810 301.4650 -838.6001 -792.9829 31177.6749 -160.8359 -91.4261
ENERGY: 1200000 1.5350 1.2706 2.7132 0.0000 -10697.9716 1369.7354 0.0000 0.0000 1701.7272 -7620.9902 287.8481 -9322.7173 -7557.5078 300.1374 -792.1587 -777.1886 30804.9816 -310.8382 -247.8984
ENERGY: 1500000 2.7131 3.8436 3.4670 0.0000 -10812.0347 1439.6319 0.0000 0.0000 1821.4369 -7540.9423 308.0971 -9362.3792 -7555.9716 300.9045 56.4261 80.1956 30399.8748 -293.4063 -236.8326
TCL: Running FEP window   3: Lambda1 0.8999999999999999 Lambda2 0.8499999999999999 [dLambda -0.050000000000000044]
TCL: Setting parameter firsttimestep to 0
TCL: Setting parameter alchLambda to 0.8999999999999999
Info: NONBONDED TABLE R-SQUARED SPACING: 0.0625
Info: NONBONDED TABLE SIZE: 705 POINTS
TCL: Setting parameter alchLambda2 to 0.8499999999999999
Info: NONBONDED TABLE R-SQUARED SPACING: 0.0625
Info: NONBONDED TABLE SIZE: 705 POINTS
TCL: Running for 1500000 steps
ETITLE: TS BOND ANGLE DIHED IMPRP ELECT VDW BOUNDARY MISC KINETIC TOTAL TEMP POTENTIAL TOTALAVG TEMPAVG PRESSURE GPRESSURE VOLUME PRESSAVG GPRESSAVG
ENERGY: 0 2.7131 3.8436 3.4670 0.0000 -10810.8253 1439.4474 0.0000 0.0000 1820.5469 -7540.8073 307.9465 -9361.3543 -7540.8073 307.9465 -8.6516 64.8003 30399.8748 -8.6516 64.8003
ENERGY: 300000 3.8143 3.7993 4.3165 0.0000 -10567.8001 1302.8723 0.0000 0.0000 1795.6964 -7457.3012 303.7430 -9252.9977 -7529.4787 302.9221 -1233.9829 -1188.2799 31232.3554 -601.5214 -537.2355
ENERGY: 600000 3.7724 3.8526 2.6906 0.0000 -10667.2477 1440.2444 0.0000 0.0000 1794.5511 -7422.1366 303.5493 -9216.6876 -7505.3666 303.6319 244.5656 365.4697 30672.0968 -241.5257 -175.1774
ENERGY: 900000 1.4758 2.8584 2.8627 0.0000 -10761.8013 1412.2078 0.0000 0.0000 1819.1796 -7523.2169 307.7152 -9342.3965 -7522.0611 303.1211 -450.0598 -391.2528 30983.7735 -343.3098 -281.4606
ENERGY: 1200000 1.5125 3.2735 1.5664 0.0000 -10785.1727 1438.7235 0.0000 0.0000 1780.6214 -7559.4753 301.1931 -9340.0968 -7522.6195 302.8161 79.1266 105.3560 30455.9434 -239.7567 -182.5980
ENERGY: 1500000 2.8728 2.7315 8.2464 0.0000 -10793.0360 1487.6658 0.0000 0.0000 1765.5964 -7525.9232 298.6516 -9291.5196 -7518.6093 302.1337 314.4288 383.5083 30833.6070 -154.5857 -88.6218
TCL: Running FEP window   4: Lambda1 0.8499999999999999 Lambda2 0.7999999999999998 [dLambda -0.050000000000000044]
TCL: Setting parameter firsttimestep to 0
TCL: Setting parameter alchLambda to 0.8499999999999999
Info: NONBONDED TABLE R-SQUARED SPACING: 0.0625
Info: NONBONDED TABLE SIZE: 705 POINTS
TCL: Setting parameter alchLambda2 to 0.7999999999999998
Info: NONBONDED TABLE R-SQUARED SPACING: 0.0625
Info: NONBONDED TABLE SIZE: 705 POINTS
TCL: Running for 1500000 steps
ETITLE: TS BOND ANGLE DIHED IMPRP ELECT VDW BOUNDARY MISC KINETIC TOTAL TEMP POTENTIAL TOTALAVG TEMPAVG PRESSURE GPRESSURE VOLUME PRESSAVG GPRESSAVG
ENERGY: 0 2.8728 2.7315 8.2464 0.0000 -10791.3523 1487.6179 0.0000 0.0000 1764.6844 -7525.1994 298.4973 -9289.8839 -7525.1994 298.4973 284.6931 374.8471 30833.6070 284.6931 374.8471
ENERGY: 300000 6.4511 5.0857 4.0153 0.0000 -10738.5558 1396.4223 0.0000 0.0000 1797.3356 -7529.2459 304.0203 -9326.5814 -7531.2043 299.9871 -396.0769 -249.1408 30474.9690 134.9891 198.8128
ENERGY: 600000 2.5730 1.6753 2.6687 0.0000 -10694.9579 1417.2890 0.0000 0.0000 1744.4792 -7526.2727 295.0796 -9270.7519 -7531.2451 299.7993 -205.3525 -139.8323 30740.7425 68.3538 115.6190
ENERGY: 900000 1.1801 4.5342 1.3273 0.0000 -10614.8524 1366.2738 0.0000 0.0000 1809.5569 -7431.9801 306.0875 -9241.5370 -7521.0091 301.1019 -519.0148 -418.8181 30875.0746 51.9380 108.2651
ENERGY: 1200000 1.5525 2.8959 2.2331 0.0000 -10723.7380 1405.9140 0.0000 0.0000 1780.0448 -7531.0976 301.0956 -9311.1424 -7520.4463 301.0541 -202.2262 -177.2163 30523.7394 -18.1974 33.4187
ENERGY: 1500000 4.9996 2.8567 4.7107 0.0000 -10695.8676 1346.7367 0.0000 0.0000 1726.2660 -7610.2979 291.9988 -9336.5639 -7526.8448 302.0201 -840.4584 -799.9765 30481.2949 -10.5829 37.5701
TCL: Running FEP window   5: Lambda1 0.7999999999999998 Lambda2 0.7499999999999998 [dLambda -0.050000000000000044]
TCL: Setting parameter firsttimestep to 0
TCL: Setting parameter alchLambda to 0.7999999999999998
Info: NONBONDED TABLE R-SQUARED SPACING: 0.0625
Info: NONBONDED TABLE SIZE: 705 POINTS
TCL: Setting parameter alchLambda2 to 0.7499999999999998
Info: NONBONDED TABLE R-SQUARED SPACING: 0.0625
Info: NONBONDED TABLE SIZE: 705 POINTS
TCL: Running for 1500000 steps
ETITLE: TS BOND ANGLE DIHED IMPRP ELECT VDW BOUNDARY MISC KINETIC TOTAL TEMP POTENTIAL TOTALAVG TEMPAVG PRESSURE GPRESSURE VOLUME PRESSAVG GPRESSAVG
ENERGY: 0 4.9996 2.8567 4.7107 0.0000 -10693.9085 1347.1106 0.0000 0.0000 1725.3931 -7608.8376 291.8512 -9334.2308 -7608.8376 291.8512 -881.7055 -800.3712 30481.2949 -881.7055 -800.3712
ENERGY: 300000 5.3552 2.9327 2.3175 0.0000 -10711.5773 1415.7685 0.0000 0.0000 1789.3793 -7495.8240 302.6745 -9285.2033 -7535.3271 299.8779 -70.9087 -27.9833 30686.6650 -540.5588 -468.5083
ENERGY: 600000 1.6102 4.8528 1.3204 0.0000 -10702.3174 1412.1418 0.0000 0.0000 1753.8922 -7528.4999 296.6718 -9282.3922 -7510.1131 301.3301 -323.1661 -278.4919 30667.0544 -530.5355 -469.0701
ENERGY: 900000 3.5543 2.5027 2.3105 0.0000 -10941.6023 1497.6494 0.0000 0.0000 1763.0793 -7672.5062 298.2258 -9435.5855 -7532.1162 300.5518 317.7070 372.5393 30164.2437 -264.4798 -212.0147
ENERGY: 1200000 2.4543 5.3254 2.4291 0.0000 -10758.9712 1412.8291 0.0000 0.0000 1803.5777 -7532.3556 305.0762 -9335.9334 -7536.4457 300.1876 -255.0283 -176.4596 30528.0769 -202.7188 -145.8458
ENERGY: 1500000 1.9523 4.5172 3.9500 0.0000 -10816.2778 1501.9250 0.0000 0.0000 1801.8458 -7502.0876 304.7832 -9303.9334 -7535.1353 300.0891 456.1079 573.7910 30366.8937 -175.0072 -112.6496
TCL: Running FEP window   6: Lambda1 0.7499999999999998 Lambda2 0.6999999999999997 [dLambda -0.050000000000000044]
TCL: Setting parameter firsttimestep to 0
TCL: Setting parameter alchLambda to 0.7499999999999998
Info: NONBONDED TABLE R-SQUARED SPACING: 0.0625
Info: NONBONDED TABLE SIZE: 705 POINTS
TCL: Setting parameter alchLambda2 to 0.6999999999999997
Info: NONBONDED TABLE R-SQUARED SPACING: 0.0625
Info: NONBONDED TABLE SIZE: 705 POINTS
TCL: Running for 1500000 steps
ETITLE: TS BOND ANGLE DIHED IMPRP ELECT VDW BOUNDARY MISC KINETIC TOTAL TEMP POTENTIAL TOTALAVG TEMPAVG PRESSURE GPRESSURE VOLUME PRESSAVG GPRESSAVG
ENERGY: 0 1.9523 4.5172 3.9500 0.0000 -10815.1092 1501.5118 0.0000 0.0000 1800.9284 -7502.2494 304.6280 -9303.1779 -7502.2494 304.6280 466.3961 560.4754 30366.8937 466.3961 560.4754
ENERGY: 300000 0.8667 3.0147 1.9409 0.0000 -10757.1396 1473.2279 0.0000 0.0000 1805.1430 -7472.9463 305.3409 -9278.0893 -7541.9179 299.9359 227.5979 316.3002 30713.2141 250.8540 307.8934
ENERGY: 600000 2.5741 1.5304 3.2795 0.0000 -10848.4761 1461.9772 0.0000 0.0000 1725.0389 -7654.0760 291.7913 -9379.1148 -7560.6881 298.3628 -330.6891 -302.3977 30704.6576 140.3010 198.2528
ENERGY: 900000 2.4591 1.5069 2.8553 0.0000 -10770.7965 1477.8309 0.0000 0.0000 1739.7582 -7546.3862 294.2811 -9286.1443 -7560.9804 298.3087 272.2772 261.6484 30778.3745 63.3167 112.2149
ENERGY: 1200000 5.5641 3.0223 3.0394 0.0000 -10705.7762 1362.6060 0.0000 0.0000 1760.3461 -7571.1982 297.7635 -9331.5443 -7564.7360 298.5867 -800.6776 -803.3660 30672.1621 109.3601 159.3140
ENERGY: 1500000 1.6637 2.6866 2.2834 0.0000 -10711.3645 1461.3933 0.0000 0.0000 1770.8875 -7472.4501 299.5466 -9243.3375 -7557.1725 298.5693 425.7659 522.2928 30779.6873 105.3664 162.1443
TCL: Running FEP window   7: Lambda1 0.6999999999999997 Lambda2 0.6499999999999997 [dLambda -0.050000000000000044]
TCL: Setting parameter firsttimestep to 0
TCL: Setting parameter alchLambda to 0.6999999999999997
Info: NONBONDED TABLE R-SQUARED SPACING: 0.0625
Info: NONBONDED TABLE SIZE: 705 POINTS
TCL: Setting parameter alchLambda2 to 0.6499999999999997
Info: NONBONDED TABLE R-SQUARED SPACING: 0.0625
Info: NONBONDED TABLE SIZE: 705 POINTS
TCL: Running for 1500000 steps
ETITLE: TS BOND ANGLE DIHED IMPRP ELECT VDW BOUNDARY MISC KINETIC TOTAL TEMP POTENTIAL TOTALAVG TEMPAVG PRESSURE GPRESSURE VOLUME PRESSAVG GPRESSAVG
ENERGY: 0 1.6637 2.6866 2.2834 0.0000 -10710.9422 1461.8149 0.0000 0.0000 1769.9779 -7472.5157 299.3927 -9242.4936 -7472.5157 299.3927 442.3607 518.3465 30779.6873 442.3607 518.3465
ENERGY: 300000 1.5253 1.4555 0.7973 0.0000 -10720.9141 1380.2056 0.0000 0.0000 1767.6366 -7569.2938 298.9967 -9336.9304 -7512.2820 301.7743 -669.5386 -556.6590 30682.3801 -300.3966 -224.0550
ENERGY: 600000 1.5007 3.1233 4.1451 0.0000 -10844.8052 1443.8252 0.0000 0.0000 1786.4179 -7605.7930 302.1736 -9392.2110 -7552.3275 300.4759 149.9148 230.3820 29973.9610 -199.8918 -133.1381
ENERGY: 900000 1.8347 4.3211 3.7525 0.0000 -10951.4851 1507.5819 0.0000 0.0000 1814.0888 -7619.9061 306.8541 -9433.9949 -7558.0030 300.9881 531.6502 555.3212 29761.1698 -182.8401 -123.5832
ENERGY: 1200000 2.2306 3.9502 1.9441 0.0000 -10687.8126 1423.9732 0.0000 0.0000 1811.1307 -7444.5838 306.3538 -9255.7145 -7542.2721 301.4011 161.3781 244.4640 30603.9313 -56.0339 0.8771
ENERGY: 1500000 2.1758 1.6152 0.9428 0.0000 -10759.6872 1452.5484 0.0000 0.0000 1765.6623 -7536.7427 298.6628 -9302.4050 -7544.1291 300.6210 193.1162 294.2033 30594.6821 -103.2553 -38.9044
TCL: Running FEP window   8: Lambda1 0.6499999999999997 Lambda2 0.5999999999999996 [dLambda -0.050000000000000044]
TCL: Setting parameter firsttimestep to 0
TCL: Setting parameter alchLambda to 0.6499999999999997
Info: NONBONDED TABLE R-SQUARED SPACING: 0.0625
Info: NONBONDED TABLE SIZE: 705 POINTS
TCL: Setting parameter alchLambda2 to 0.5999999999999996
Info: NONBONDED TABLE R-SQUARED SPACING: 0.0625
Info: NONBONDED TABLE SIZE: 705 POINTS
TCL: Running for 1500000 steps
ETITLE: TS BOND ANGLE DIHED IMPRP ELECT VDW BOUNDARY MISC KINETIC TOTAL TEMP POTENTIAL TOTALAVG TEMPAVG PRESSURE GPRESSURE VOLUME PRESSAVG GPRESSAVG
ENERGY: 0 2.1758 1.6152 0.9428 0.0000 -10759.4689 1452.9320 0.0000 0.0000 1764.8203 -7536.9827 298.5203 -9301.8030 -7536.9827 298.5203 198.8309 289.2463 30594.6821 198.8309 289.2463
ENERGY: 300000 2.2904 2.3022 4.3175 0.0000 -10756.4673 1429.4730 0.0000 0.0000 1761.1396 -7556.9446 297.8977 -9318.0842 -7502.0755 304.5153 -257.6087 -115.1156 30473.9303 417.2465 516.8490
ENERGY: 600000 1.2240 2.4033 2.0031 0.0000 -10656.4198 1397.2876 0.0000 0.0000 1785.5088 -7467.9929 302.0198 -9253.5018 -7503.4958 304.0306 -159.1946 -117.2562 30586.1893 249.7684 320.8802
ENERGY: 900000 4.2067 4.1123 2.1926 0.0000 -10729.6170 1483.6739 0.0000 0.0000 1729.2025 -7506.2290 292.4956 -9235.4315 -7521.2937 301.9538 137.7086 187.1186 31054.5860 251.5334 314.9817
ENERGY: 1200000 2.0190 5.2094 3.2854 0.0000 -10778.3503 1465.3408 0.0000 0.0000 1824.9856 -7477.5100 308.6973 -9302.4957 -7529.9074 302.3985 92.3287 149.7838 30798.0312 146.3044 204.5698
ENERGY: 1500000 2.5696 3.7579 2.6698 0.0000 -10833.3454 1525.3229 0.0000 0.0000 1777.1511 -7521.8741 300.6061 -9299.0252 -7536.2048 300.8174 853.3053 947.7360 29997.2831 128.0352 181.3220
TCL: Running FEP window   9: Lambda1 0.5999999999999996 Lambda2 0.5499999999999996 [dLambda -0.050000000000000044]
TCL: Setting parameter firsttimestep to 0
TCL: Setting parameter alchLambda to 0.5999999999999996
Info: NONBONDED TABLE R-SQUARED SPACING: 0.0625
Info: NONBONDED TABLE SIZE: 705 POINTS
TCL: Setting parameter alchLambda2 to 0.5499999999999996
Info: NONBONDED TABLE R-SQUARED SPACING: 0.0625
Info: NONBONDED TABLE SIZE: 705 POINTS
TCL: Running for 1500000 steps
ETITLE: TS BOND ANGLE DIHED IMPRP ELECT VDW BOUNDARY MISC KINETIC TOTAL TEMP POTENTIAL TOTALAVG TEMPAVG PRESSURE GPRESSURE VOLUME PRESSAVG GPRESSAVG
ENERGY: 0 2.5696 3.7579 2.6698 0.0000 -10832.8355 1525.6683 0.0000 0.0000 1776.2391 -7521.9309 300.4518 -9298.1700 -7521.9309 300.4518 864.9264 943.1466 29997.2831 864.9264 943.1466
ENERGY: 300000 2.1440 3.5769 2.0371 0.0000 -10612.8996 1351.8955 0.0000 0.0000 1821.4067 -7431.8395 308.0919 -9253.2461 -7526.1822 301.4604 -680.0773 -645.9275 30767.2190 83.4297 147.7079
ENERGY: 600000 1.8913 1.8655 2.8838 0.0000 -10738.6399 1444.3442 0.0000 0.0000 1729.2316 -7558.4235 292.5005 -9287.6551 -7530.4100 301.1543 30.5136 50.1688 30625.0516 -46.2035 12.8196
ENERGY: 900000 1.9774 3.1383 5.2329 0.0000 -10850.0580 1547.7024 0.0000 0.0000 1770.8368 -7521.1703 299.5380 -9292.0070 -7537.6354 299.4469 613.5501 779.2554 30692.9870 -117.3605 -47.9353
ENERGY: 1200000 6.7863 2.5575 3.0125 0.0000 -10793.2373 1460.0957 0.0000 0.0000 1775.3431 -7545.4422 300.3003 -9320.7853 -7537.8430 299.6409 -204.2615 -132.4103 30768.0718 -110.7843 -43.5001
ENERGY: 1500000 1.1295 3.1083 2.5957 0.0000 -10809.2024 1480.0424 0.0000 0.0000 1792.2752 -7530.0513 303.1643 -9322.3266 -7546.5434 299.2323 662.5256 679.7313 29941.3794 -62.7300 -1.2562
TCL: Running FEP window  10: Lambda1 0.5499999999999996 Lambda2 0.4999999999999996 [dLambda -0.04999999999999999]
TCL: Setting parameter firsttimestep to 0
TCL: Setting parameter alchLambda to 0.5499999999999996
Info: NONBONDED TABLE R-SQUARED SPACING: 0.0625
Info: NONBONDED TABLE SIZE: 705 POINTS
TCL: Setting parameter alchLambda2 to 0.4999999999999996
Info: NONBONDED TABLE R-SQUARED SPACING: 0.0625
Info: NONBONDED TABLE SIZE: 705 POINTS
TCL: Running for 1500000 steps
ETITLE: TS BOND ANGLE DIHED IMPRP ELECT VDW BOUNDARY MISC KINETIC TOTAL TEMP POTENTIAL TOTALAVG TEMPAVG PRESSURE GPRESSURE VOLUME PRESSAVG GPRESSAVG
ENERGY: 0 1.1295 3.1083 2.5957 0.0000 -10808.7674 1480.4275 0.0000 0.0000 1791.3998 -7530.1066 303.0163 -9321.5064 -7530.1066 303.0163 596.2513 677.2038 29941.3794 596.2513 677.2038
ENERGY: 300000 2.8557 1.9021 3.4534 0.0000 -10805.1366 1475.2465 0.0000 0.0000 1773.4680 -7548.2107 299.9831 -9321.6787 -7578.0028 300.6797 88.1176 106.2107 30465.6469 -93.8168 -35.4417
ENERGY: 600000 6.9114 3.9633 3.5652 0.0000 -10914.6219 1545.0344 0.0000 0.0000 1783.8597 -7571.2879 301.7409 -9355.1476 -7540.0170 301.1859 621.3229 688.6296 30339.7378 9.5005 69.5091
ENERGY: 900000 1.7094 1.7744 2.0062 0.0000 -10644.2168 1390.4150 0.0000 0.0000 1751.8047 -7496.5071 296.3187 -9248.3118 -7547.7460 298.4964 -387.0734 -287.6887 30629.7630 -59.5116 14.8913
ENERGY: 1200000 2.8602 2.0698 3.4470 0.0000 -10660.3032 1407.4343 0.0000 0.0000 1748.1053 -7496.3867 295.6930 -9244.4920 -7544.1621 298.9032 -390.1054 -348.3400 31092.9893 -112.8411 -41.8532
ENERGY: 1500000 1.7935 3.2575 1.6873 0.0000 -10819.3909 1495.0189 0.0000 0.0000 1727.2890 -7590.3447 292.1719 -9317.6337 -7536.7474 299.2089 211.6284 236.0709 30721.8339 -179.3936 -108.5480
TCL: Running FEP window  11: Lambda1 0.4999999999999996 Lambda2 0.4499999999999996 [dLambda -0.04999999999999999]
TCL: Setting parameter firsttimestep to 0
TCL: Setting parameter alchLambda to 0.4999999999999996
Info: NONBONDED TABLE R-SQUARED SPACING: 0.0625
Info: NONBONDED TABLE SIZE: 705 POINTS
TCL: Setting parameter alchLambda2 to 0.4499999999999996
Info: NONBONDED TABLE R-SQUARED SPACING: 0.0625
Info: NONBONDED TABLE SIZE: 705 POINTS
TCL: Running for 1500000 steps
ETITLE: TS BOND ANGLE DIHED IMPRP ELECT VDW BOUNDARY MISC KINETIC TOTAL TEMP POTENTIAL TOTALAVG TEMPAVG PRESSURE GPRESSURE VOLUME PRESSAVG GPRESSAVG
ENERGY: 0 1.7935 3.2575 1.6873 0.0000 -10818.9292 1495.0921 0.0000 0.0000 1726.4367 -7590.6621 292.0277 -9317.0988 -7590.6621 292.0277 141.5611 228.7274 30721.8339 141.5611 228.7274
ENERGY: 300000 1.2121 5.9157 3.7223 0.0000 -10812.2408 1444.4672 0.0000 0.0000 1765.0670 -7591.8564 298.5621 -9356.9235 -7545.9376 301.1485 63.6748 66.0279 30216.5965 -38.5605 13.9721
ENERGY: 600000 4.2396 2.9349 3.9108 0.0000 -10843.0164 1495.4800 0.0000 0.0000 1764.5673 -7571.8838 298.4775 -9336.4511 -7578.0405 298.7345 375.5382 443.2538 30300.6810 -60.9190 -8.6873
ENERGY: 900000 6.4409 3.2408 2.7411 0.0000 -10892.7141 1508.9471 0.0000 0.0000 1802.2915 -7569.0527 304.8586 -9371.3442 -7567.8615 300.3017 180.0336 295.6483 30210.1500 -24.9739 39.6187
ENERGY: 1200000 3.7505 3.9544 1.4809 0.0000 -10716.7420 1440.5708 0.0000 0.0000 1778.6322 -7488.3532 300.8566 -9266.9854 -7553.2585 300.4981 -179.4809 -65.5174 30806.8605 -39.9169 31.4702
ENERGY: 1500000 4.5554 2.1025 3.2737 0.0000 -10816.0047 1474.1147 0.0000 0.0000 1770.1929 -7561.7655 299.4291 -9331.9584 -7548.9039 300.0466 -6.0058 57.9699 30855.9841 -82.6271 -19.1611
TCL: Running FEP window  12: Lambda1 0.4499999999999996 Lambda2 0.39999999999999963 [dLambda -0.04999999999999999]
TCL: Setting parameter firsttimestep to 0
TCL: Setting parameter alchLambda to 0.4499999999999996
Info: NONBONDED TABLE R-SQUARED SPACING: 0.0625
Info: NONBONDED TABLE SIZE: 705 POINTS
TCL: Setting parameter alchLambda2 to 0.39999999999999963
Info: NONBONDED TABLE R-SQUARED SPACING: 0.0625
Info: NONBONDED TABLE SIZE: 705 POINTS
TCL: Running for 1500000 steps
ETITLE: TS BOND ANGLE DIHED IMPRP ELECT VDW BOUNDARY MISC KINETIC TOTAL TEMP POTENTIAL TOTALAVG TEMPAVG PRESSURE GPRESSURE VOLUME PRESSAVG GPRESSAVG
ENERGY: 0 4.5554 2.1025 3.2737 0.0000 -10816.0039 1474.4776 0.0000 0.0000 1769.3025 -7562.2922 299.2785 -9331.5948 -7562.2922 299.2785 -31.2645 55.8841 30855.9841 -31.2645 55.8841
ENERGY: 300000 1.5040 5.0850 4.9314 0.0000 -10768.3435 1484.6949 0.0000 0.0000 1710.3387 -7561.7896 289.3047 -9272.1283 -7576.2143 297.6630 22.4146 124.2231 31203.4727 38.4328 137.4027
ENERGY: 600000 1.2710 2.4213 7.1412 0.0000 -10496.3427 1310.6298 0.0000 0.0000 1704.3957 -7470.4836 288.2995 -9174.8794 -7539.0953 297.6604 -762.0229 -730.8399 30879.5001 -130.7287 -54.4865
ENERGY: 900000 4.7028 2.4366 4.8688 0.0000 -10814.7175 1535.9587 0.0000 0.0000 1804.3229 -7462.4278 305.2022 -9266.7507 -7526.0576 299.7096 674.1451 767.8684 30743.8092 62.9042 141.9972
ENERGY: 1200000 2.0312 2.5319 3.2405 0.0000 -10779.0545 1475.9352 0.0000 0.0000 1775.5391 -7519.7765 300.3334 -9295.3156 -7531.2984 299.3505 250.0708 296.8903 30227.2798 -36.4582 28.9335
ENERGY: 1500000 2.8808 4.0078 0.8295 0.0000 -10784.1551 1465.3372 0.0000 0.0000 1811.0131 -7500.0867 306.3339 -9311.0998 -7520.8667 299.9184 137.3097 193.4433 30560.6153 -57.4833 5.9484
TCL: Running FEP window  13: Lambda1 0.39999999999999963 Lambda2 0.34999999999999964 [dLambda -0.04999999999999999]
TCL: Setting parameter firsttimestep to 0
TCL: Setting parameter alchLambda to 0.39999999999999963
Info: NONBONDED TABLE R-SQUARED SPACING: 0.0625
Info: NONBONDED TABLE SIZE: 705 POINTS
TCL: Setting parameter alchLambda2 to 0.34999999999999964
Info: NONBONDED TABLE R-SQUARED SPACING: 0.0625
Info: NONBONDED TABLE SIZE: 705 POINTS
TCL: Running for 1500000 steps
ETITLE: TS BOND ANGLE DIHED IMPRP ELECT VDW BOUNDARY MISC KINETIC TOTAL TEMP POTENTIAL TOTALAVG TEMPAVG PRESSURE GPRESSURE VOLUME PRESSAVG GPRESSAVG
ENERGY: 0 2.8808 4.0078 0.8295 0.0000 -10784.1525 1465.2350 0.0000 0.0000 1810.1219 -7501.0776 306.1831 -9311.1995 -7501.0776 306.1831 95.7112 186.5014 30560.6153 95.7112 186.5014
ENERGY: 300000 2.7269 4.2442 6.8303 0.0000 -10821.5438 1402.2722 0.0000 0.0000 1808.6663 -7596.8040 305.9369 -9405.4703 -7550.4992 304.2582 -721.3755 -614.3060 30581.9040 -148.5117 -66.9423
ENERGY: 600000 3.2418 5.4153 1.7173 0.0000 -10735.3926 1417.6726 0.0000 0.0000 1792.8783 -7514.4674 303.2663 -9307.3457 -7533.7694 304.5650 -271.7249 -242.3248 30539.0762 -191.3147 -118.3197
ENERGY: 900000 0.9041 5.0273 3.4676 0.0000 -10802.6138 1452.3363 0.0000 0.0000 1826.4601 -7514.4184 308.9467 -9340.8785 -7523.2071 304.9376 315.8949 338.3632 30112.7492 -7.2943 58.4753
ENERGY: 1200000 1.9830 3.1009 3.1733 0.0000 -10867.4541 1542.1474 0.0000 0.0000 1793.0892 -7523.9602 303.3020 -9317.0494 -7534.3432 304.8933 625.9395 682.5669 30289.3171 61.7585 133.2672
ENERGY: 1500000 1.4550 1.7446 3.6247 0.0000 -10701.8324 1447.7762 0.0000 0.0000 1749.9617 -7497.2702 296.0070 -9247.2319 -7540.5457 303.8845 249.2160 332.2807 30523.1660 59.3742 127.8693
TCL: Running FEP window  14: Lambda1 0.34999999999999964 Lambda2 0.29999999999999966 [dLambda -0.04999999999999999]
TCL: Setting parameter firsttimestep to 0
TCL: Setting parameter alchLambda to 0.34999999999999964
Info: NONBONDED TABLE R-SQUARED SPACING: 0.0625
Info: NONBONDED TABLE SIZE: 705 POINTS
TCL: Setting parameter alchLambda2 to 0.29999999999999966
Info: NONBONDED TABLE R-SQUARED SPACING: 0.0625
Info: NONBONDED TABLE SIZE: 705 POINTS
TCL: Running for 1500000 steps
ETITLE: TS BOND ANGLE DIHED IMPRP ELECT VDW BOUNDARY MISC KINETIC TOTAL TEMP POTENTIAL TOTALAVG TEMPAVG PRESSURE GPRESSURE VOLUME PRESSAVG GPRESSAVG
ENERGY: 0 1.4550 1.7446 3.6247 0.0000 -10701.8312 1447.8312 0.0000 0.0000 1749.1041 -7498.0715 295.8619 -9247.1756 -7498.0715 295.8619 243.2576 327.0453 30523.1660 243.2576 327.0453
ENERGY: 300000 4.1179 2.9404 1.8850 0.0000 -10843.3119 1479.7143 0.0000 0.0000 1805.2770 -7549.3773 305.3636 -9354.6543 -7571.3292 296.1593 -24.5852 0.9024 30655.3090 43.2070 111.5180
ENERGY: 600000 1.4838 2.7462 2.1500 0.0000 -10765.4416 1449.9611 0.0000 0.0000 1771.0792 -7538.0212 299.5790 -9309.1004 -7558.3191 300.0394 161.8378 177.8820 30378.3383 35.3779 84.9393
ENERGY: 900000 1.3237 2.3404 3.5768 0.0000 -10860.6644 1527.2057 0.0000 0.0000 1771.7988 -7554.4190 299.7007 -9326.2178 -7569.6647 299.1704 487.6275 543.6780 30661.4128 79.7917 133.1463
ENERGY: 1200000 2.7495 4.8332 5.8828 0.0000 -10712.8760 1363.6686 0.0000 0.0000 1743.5240 -7592.2179 294.9180 -9335.7418 -7567.3402 298.7570 -588.5845 -554.1600 30402.0556 -66.4090 -18.2127
ENERGY: 1500000 1.4521 3.6593 1.7337 0.0000 -10705.6362 1423.5920 0.0000 0.0000 1769.8722 -7505.3270 299.3749 -9275.1991 -7564.8739 298.7434 -364.7782 -308.9099 30924.4633 -4.8551 43.4877
TCL: Running FEP window  15: Lambda1 0.29999999999999966 Lambda2 0.24999999999999967 [dLambda -0.04999999999999999]
TCL: Setting parameter firsttimestep to 0
TCL: Setting parameter alchLambda to 0.29999999999999966
Info: NONBONDED TABLE R-SQUARED SPACING: 0.0625
Info: NONBONDED TABLE SIZE: 705 POINTS
TCL: Setting parameter alchLambda2 to 0.24999999999999967
Info: NONBONDED TABLE R-SQUARED SPACING: 0.0625
Info: NONBONDED TABLE SIZE: 705 POINTS
TCL: Running for 1500000 steps
ETITLE: TS BOND ANGLE DIHED IMPRP ELECT VDW BOUNDARY MISC KINETIC TOTAL TEMP POTENTIAL TOTALAVG TEMPAVG PRESSURE GPRESSURE VOLUME PRESSAVG GPRESSAVG
ENERGY: 0 1.4521 3.6593 1.7337 0.0000 -10705.6361 1423.9793 0.0000 0.0000 1768.9357 -7505.8759 299.2164 -9274.8116 -7505.8759 299.2164 -394.5999 -311.4945 30924.4633 -394.5999 -311.4945
ENERGY: 300000 2.8330 5.9114 3.2941 0.0000 -10736.8153 1438.7788 0.0000 0.0000 1753.6479 -7532.3500 296.6305 -9285.9979 -7517.6429 298.7124 12.9711 55.0128 30698.3757 -203.7450 -150.0611
ENERGY: 600000 3.3142 1.4902 2.9715 0.0000 -10873.7627 1494.5449 0.0000 0.0000 1776.5356 -7594.9064 300.5020 -9371.4420 -7540.0121 299.0167 124.4256 148.8089 30380.0135 6.2307 60.0054
ENERGY: 900000 6.1008 2.7270 4.4786 0.0000 -10904.6978 1527.2612 0.0000 0.0000 1758.1204 -7606.0098 297.3870 -9364.1302 -7524.7913 299.8770 436.2134 401.0317 30252.1642 64.6694 112.1706
ENERGY: 1200000 4.9858 0.9569 1.7251 0.0000 -10901.1038 1533.4806 0.0000 0.0000 1755.2232 -7604.7321 296.8970 -9359.9553 -7533.1314 300.6956 569.0215 651.8082 30128.9792 82.7948 128.5408
ENERGY: 1500000 0.8622 1.7146 3.0517 0.0000 -10844.2664 1467.1451 0.0000 0.0000 1785.8827 -7585.6101 302.0830 -9371.4928 -7530.7592 301.1187 52.0352 132.2683 30433.6361 48.3761 95.5911
TCL: Running FEP window  16: Lambda1 0.24999999999999967 Lambda2 0.19999999999999968 [dLambda -0.04999999999999999]
TCL: Setting parameter firsttimestep to 0
TCL: Setting parameter alchLambda to 0.24999999999999967
Info: NONBONDED TABLE R-SQUARED SPACING: 0.0625
Info: NONBONDED TABLE SIZE: 705 POINTS
TCL: Setting parameter alchLambda2 to 0.19999999999999968
Info: NONBONDED TABLE R-SQUARED SPACING: 0.0625
Info: NONBONDED TABLE SIZE: 705 POINTS
TCL: Running for 1500000 steps
ETITLE: TS BOND ANGLE DIHED IMPRP ELECT VDW BOUNDARY MISC KINETIC TOTAL TEMP POTENTIAL TOTALAVG TEMPAVG PRESSURE GPRESSURE VOLUME PRESSAVG GPRESSAVG
ENERGY: 0 0.8622 1.7146 3.0517 0.0000 -10844.2649 1467.4023 0.0000 0.0000 1784.9914 -7586.2427 301.9323 -9371.2341 -7586.2427 301.9323 48.7965 126.2434 30433.6361 48.7965 126.2434
ENERGY: 300000 0.5805 6.1584 1.5938 0.0000 -10794.1708 1439.4558 0.0000 0.0000 1791.2772 -7555.1050 302.9955 -9346.3822 -7503.0854 305.4425 -32.5098 7.0938 30314.7879 -155.8149 -62.2476
ENERGY: 600000 3.3635 3.7398 2.5401 0.0000 -10850.5735 1493.0421 0.0000 0.0000 1789.2478 -7558.6401 302.6523 -9347.8879 -7520.9344 303.2019 309.9188 340.4294 30578.0044 -3.8097 70.4259
ENERGY: 900000 3.7605 3.2541 4.6176 0.0000 -10885.8240 1514.2017 0.0000 0.0000 1839.8941 -7520.0959 311.2191 -9359.9900 -7520.8944 304.4282 354.8425 420.0071 30432.7646 67.0184 137.7287
ENERGY: 1200000 2.2119 2.7354 2.7415 0.0000 -10834.8870 1468.2031 0.0000 0.0000 1741.3178 -7617.6773 294.5449 -9358.9951 -7534.8498 302.5805 190.6516 210.9000 30076.8623 112.4016 171.8083
ENERGY: 1500000 2.9805 2.9888 1.9214 0.0000 -10827.5727 1458.6426 0.0000 0.0000 1784.4111 -7576.6284 301.8341 -9361.0395 -7538.3695 302.6549 76.6676 94.9309 29931.3840 58.0124 122.7784
TCL: Running FEP window  17: Lambda1 0.19999999999999968 Lambda2 0.1499999999999997 [dLambda -0.04999999999999999]
TCL: Setting parameter firsttimestep to 0
TCL: Setting parameter alchLambda to 0.19999999999999968
Info: NONBONDED TABLE R-SQUARED SPACING: 0.0625
Info: NONBONDED TABLE SIZE: 705 POINTS
TCL: Setting parameter alchLambda2 to 0.1499999999999997
Info: NONBONDED TABLE R-SQUARED SPACING: 0.0625
Info: NONBONDED TABLE SIZE: 705 POINTS
TCL: Running for 1500000 steps
ETITLE: TS BOND ANGLE DIHED IMPRP ELECT VDW BOUNDARY MISC KINETIC TOTAL TEMP POTENTIAL TOTALAVG TEMPAVG PRESSURE GPRESSURE VOLUME PRESSAVG GPRESSAVG
ENERGY: 0 2.9805 2.9888 1.9214 0.0000 -10827.5724 1458.8449 0.0000 0.0000 1783.5128 -7577.3240 301.6822 -9360.8368 -7577.3240 301.6822 -12.9418 92.4235 29931.3840 -12.9418 92.4235
ENERGY: 300000 3.0496 1.0257 7.4021 0.0000 -10801.1286 1510.6449 0.0000 0.0000 1755.9869 -7523.0194 297.0262 -9279.0063 -7511.4110 302.5723 567.1756 632.6947 30235.7817 142.6431 220.0916
ENERGY: 600000 4.8937 1.1489 2.5997 0.0000 -10861.3740 1462.7548 0.0000 0.0000 1743.9803 -7645.9966 294.9952 -9389.9769 -7540.4831 301.2415 -328.5361 -285.8477 30987.0257 47.3560 106.0629
ENERGY: 900000 1.9564 3.9465 5.1380 0.0000 -10865.6140 1503.7790 0.0000 0.0000 1756.5146 -7594.2796 297.1154 -9350.7942 -7555.7740 299.5858 204.3225 269.7312 30293.2137 29.5319 80.1135
ENERGY: 1200000 2.6008 1.5472 2.2327 0.0000 -10779.9027 1438.0017 0.0000 0.0000 1754.1147 -7581.4056 296.7095 -9335.5203 -7558.0152 299.2118 -452.9855 -391.5736 30684.8085 -52.6929 -0.7431
ENERGY: 1500000 2.4648 4.6803 6.5317 0.0000 -10778.4328 1457.5950 0.0000 0.0000 1850.8869 -7456.2741 313.0785 -9307.1610 -7551.2389 300.5383 -131.5110 -53.8313 30780.5652 -73.5913 -21.7453
TCL: Running FEP window  18: Lambda1 0.1499999999999997 Lambda2 0.09999999999999969 [dLambda -0.05 ]
TCL: Setting parameter firsttimestep to 0
TCL: Setting parameter alchLambda to 0.1499999999999997
Info: NONBONDED TABLE R-SQUARED SPACING: 0.0625
Info: NONBONDED TABLE SIZE: 705 POINTS
TCL: Setting parameter alchLambda2 to 0.09999999999999969
Info: NONBONDED TABLE R-SQUARED SPACING: 0.0625
Info: NONBONDED TABLE SIZE: 705 POINTS
TCL: Running for 1500000 steps
ETITLE: TS BOND ANGLE DIHED IMPRP ELECT VDW BOUNDARY MISC KINETIC TOTAL TEMP POTENTIAL TOTALAVG TEMPAVG PRESSURE GPRESSURE VOLUME PRESSAVG GPRESSAVG
ENERGY: 0 2.4648 4.6803 6.5317 0.0000 -10778.4324 1458.0009 0.0000 0.0000 1850.0032 -7456.7516 312.9291 -9306.7548 -7456.7516 312.9291 -137.2290 -54.9192 30780.5652 -137.2290 -54.9192
ENERGY: 300000 1.1348 3.0099 4.0863 0.0000 -10844.0259 1520.0525 0.0000 0.0000 1807.9807 -7507.7616 305.8209 -9315.7424 -7505.5069 303.8107 656.3691 751.5585 30212.9398 -140.4611 -52.5700
ENERGY: 600000 0.4893 2.8946 1.9282 0.0000 -10658.5149 1337.1404 0.0000 0.0000 1782.4575 -7533.6049 301.5037 -9316.0624 -7530.3767 301.5693 -636.0525 -625.2241 30259.2499 -186.9935 -119.1086
ENERGY: 900000 1.0384 3.6932 3.7301 0.0000 -10747.4478 1401.8224 0.0000 0.0000 1757.8451 -7579.3186 297.3405 -9337.1637 -7526.3605 302.3815 -540.1845 -512.5988 30657.0882 -160.9126 -95.1894
ENERGY: 1200000 3.6572 4.1912 2.6986 0.0000 -10827.9296 1462.7793 0.0000 0.0000 1766.6102 -7587.9931 298.8231 -9354.6034 -7525.3422 302.3719 142.4557 241.3927 30337.5480 -150.8244 -82.0906
ENERGY: 1500000 1.5219 3.4705 5.8453 0.0000 -10901.2071 1540.7145 0.0000 0.0000 1740.5378 -7609.1171 294.4129 -9349.6550 -7532.9192 301.5035 447.1116 534.1400 30411.8139 -118.8760 -44.8084
TCL: Running FEP window  19: Lambda1 0.09999999999999969 Lambda2 0.049999999999999684 [dLambda -0.05 ]
TCL: Setting parameter firsttimestep to 0
TCL: Setting parameter alchLambda to 0.09999999999999969
Info: NONBONDED TABLE R-SQUARED SPACING: 0.0625
Info: NONBONDED TABLE SIZE: 705 POINTS
TCL: Setting parameter alchLambda2 to 0.049999999999999684
Info: NONBONDED TABLE R-SQUARED SPACING: 0.0625
Info: NONBONDED TABLE SIZE: 705 POINTS
TCL: Running for 1500000 steps
ETITLE: TS BOND ANGLE DIHED IMPRP ELECT VDW BOUNDARY MISC KINETIC TOTAL TEMP POTENTIAL TOTALAVG TEMPAVG PRESSURE GPRESSURE VOLUME PRESSAVG GPRESSAVG
ENERGY: 0 1.5219 3.4705 5.8453 0.0000 -10901.2067 1541.1512 0.0000 0.0000 1739.6700 -7609.5477 294.2661 -9349.2177 -7609.5477 294.2661 443.7260 536.5330 30411.8139 443.7260 536.5330
ENERGY: 300000 1.6844 1.7434 5.1512 0.0000 -10688.2474 1471.3416 0.0000 0.0000 1736.0181 -7472.3086 293.6484 -9208.3267 -7559.6588 295.2488 371.1642 450.0692 30571.9634 218.1353 262.9414
ENERGY: 600000 2.9919 3.3216 1.8892 0.0000 -10612.9715 1382.0290 0.0000 0.0000 1721.9181 -7500.8218 291.2634 -9222.7399 -7531.7506 295.3894 -595.6009 -532.0344 30963.3712 -6.3487 46.3396
ENERGY: 900000 2.4364 5.1508 3.2515 0.0000 -10957.2672 1635.8036 0.0000 0.0000 1741.7049 -7568.9200 294.6103 -9310.6249 -7538.1089 296.6650 1542.1643 1566.6042 30212.7589 234.0280 283.8924
ENERGY: 1200000 4.4914 1.1817 4.0781 0.0000 -10738.9399 1428.1190 0.0000 0.0000 1782.0796 -7518.9901 301.4397 -9301.0697 -7538.2117 298.1908 -496.8541 -431.9481 31065.1713 97.9827 151.2273
ENERGY: 1500000 5.0397 2.7515 4.7050 0.0000 -10550.5235 1293.3655 0.0000 0.0000 1831.8351 -7412.8268 309.8559 -9244.6619 -7531.6171 299.4720 -1390.6774 -1285.6055 30969.2673 1.4491 64.5918
TCL: Running FEP window  20: Lambda1 0.049999999999999684 Lambda2 0.0    [dLambda -0.049999999999999684]
TCL: Setting parameter firsttimestep to 0
TCL: Setting parameter alchLambda to 0.049999999999999684
Info: NONBONDED TABLE R-SQUARED SPACING: 0.0625
Info: NONBONDED TABLE SIZE: 705 POINTS
TCL: Setting parameter alchLambda2 to 0.0
Info: NONBONDED TABLE R-SQUARED SPACING: 0.0625
Info: NONBONDED TABLE SIZE: 705 POINTS
TCL: Running for 1500000 steps
ETITLE: TS BOND ANGLE DIHED IMPRP ELECT VDW BOUNDARY MISC KINETIC TOTAL TEMP POTENTIAL TOTALAVG TEMPAVG PRESSURE GPRESSURE VOLUME PRESSAVG GPRESSAVG
ENERGY: 0 5.0397 2.7515 4.7050 0.0000 -10550.5248 1292.6531 0.0000 0.0000 1830.9250 -7414.4504 309.7020 -9245.3754 -7414.4504 309.7020 -1373.7793 -1289.9292 30969.2673 -1373.7793 -1289.9292
ENERGY: 300000 2.3669 4.9228 3.7194 0.0000 -10770.2771 1459.3587 0.0000 0.0000 1802.2144 -7497.6950 304.8456 -9299.9094 -7497.5947 303.6571 -104.5050 -18.7912 30664.1321 -567.5093 -482.7530
ENERGY: 600000 1.6985 1.4401 4.4226 0.0000 -10728.5914 1330.1262 0.0000 0.0000 1785.3859 -7605.5181 301.9990 -9390.9040 -7545.4960 300.2407 -1107.5828 -1049.6521 30270.6070 -404.8096 -324.4206
ENERGY: 900000 1.3978 3.2788 5.0312 0.0000 -10708.1154 1394.8023 0.0000 0.0000 1805.5022 -7498.1030 305.4017 -9303.6052 -7542.9709 300.9533 -165.6625 -93.4935 30115.5335 -428.5466 -349.2273
ENERGY: 1200000 1.6514 1.6560 2.2662 0.0000 -10664.5780 1405.2900 0.0000 0.0000 1772.2715 -7481.4429 299.7807 -9253.7143 -7526.6652 300.7731 -225.5314 -183.9937 30865.7860 -314.3403 -239.8173
ENERGY: 1500000 2.3246 4.4423 3.8291 0.0000 -10765.5583 1457.2642 0.0000 0.0000 1762.0243 -7535.6737 298.0474 -9297.6980 -7530.4030 300.7916 190.8854 224.5760 30561.4392 -279.2677 -208.0766
TCL: Exiting due to exit command.
