Info: SIMULATION PARAMETERS:
Info: TIMESTEP               2
Info: NUMBER OF STEPS        0
Info: STEPS PER CYCLE        10
Info: PERIODIC CELL BASIS 1  30.1606 0 0
Info: PERIODIC CELL BASIS 2  0 31.5467 0
Info: PERIODIC CELL BASIS 3  0 0 31.6507
Info: PERIODIC CELL CENTER   0 0 0
Info: WRAPPING WATERS AROUND PERIODIC BOUNDARIES ON OUTPUT.
Info: WRAPPING ALL CLUSTERS AROUND PERIODIC BOUNDARIES ON OUTPUT.
Info: FIRST LDB TIMESTEP     50
Info: LAST LDB TIMESTEP     -1
Info: HOM BACKGROUND SCALING 1
Info: PME BACKGROUND SCALING 1
Info: MIN ATOMS PER PATCH    40
Info: EMPTY PATCH LOAD       40 ATOMS
Info: VELOCITY FILE          mobley_1036761_equil.vel
Info: CENTER OF MASS MOVING INITIALLY? NO
Info: DIELECTRIC             1
Info: EXCLUDE                SCALED ONE-FOUR
Info: 1-4 ELECTROSTATICS SCALED BY 0.833333
Info: MODIFIED 1-4 VDW PARAMETERS WILL BE USED
Info: DCD FILENAME           mobley_1036761_prod.dcd
Info: DCD FREQUENCY          100000
Info: DCD FIRST STEP         100000
Info: DCD FILE WILL CONTAIN UNIT CELL DATA
Info: XST FILENAME           mobley_1036761_prod.xst
Info: XST FREQUENCY          100000
Info: NO VELOCITY DCD OUTPUT
Info: NO FORCE DCD OUTPUT
Info: OUTPUT FILENAME        mobley_1036761_prod
Info: BINARY OUTPUT FILES WILL BE USED
Info: RESTART FILENAME       mobley_1036761_prod.restart
Info: RESTART FREQUENCY      100000
Info: BINARY RESTART FILES WILL BE USED
Info: CUTOFF                 9
Info: PAIRLIST DISTANCE      11
Info: PAIRLIST SHRINK RATE   0.01
Info: PAIRLIST GROW RATE     0.01
Info: PAIRLIST TRIGGER       0.3
Info: PAIRLISTS PER CYCLE    2
Info: PAIRLISTS ENABLED
Info: MARGIN                 2
Info: HYDROGEN GROUP CUTOFF  2.5
Info: PATCH DIMENSION        15.5
Info: ENERGY OUTPUT STEPS    100000
Info: ENERGY EVALUATION STEPS    100000
Info: OUTPUT ENERGY PRECISION 4
Info: CROSSTERM ENERGY INCLUDED IN DIHEDRAL
Info: TIMING OUTPUT STEPS    1000000
Info: PRESSURE OUTPUT STEPS  100000
Info: ALCHEMICAL FEP ON
Info: FEP CURRENT LAMBDA VALUE     0
Info: FEP COMPARISON LAMBDA VALUE  0.05
Info: FEP INTRA-ALCHEMICAL NON-BONDED INTERACTIONS WILL BE RETAINED
Info: FEP INTRA-ALCHEMICAL BONDED INTERACTIONS WILL BE RETAINED
Info: FEP VDW SHIFTING COEFFICIENT 5
Info: FEP ELEC. ACTIVE FOR ANNIHILATED PARTICLES BETWEEN LAMBDA = 0 AND LAMBDA = 0.5
Info: FEP ELEC. ACTIVE FOR EXNIHILATED PARTICLES BETWEEN LAMBDA = 0.5 AND LAMBDA = 1
Info: FEP VDW ACTIVE FOR ANNIHILATED PARTICLES BETWEEN LAMBDA = 0 AND LAMBDA = 1
Info: FEP VDW ACTIVE FOR EXNIHILATED PARTICLES BETWEEN LAMBDA = 0 AND LAMBDA = 1
Info: FEP BOND ACTIVE FOR ANNIHILATED PARTICLES BETWEEN LAMBDA = 1 AND LAMBDA = 1
Info: FEP BOND ACTIVE FOR EXNIHILATED PARTICLES BETWEEN LAMBDA = 0 AND LAMBDA = 0
Info: LANGEVIN DYNAMICS ACTIVE
Info: LANGEVIN TEMPERATURE   300
Info: LANGEVIN USING BBK INTEGRATOR
Info: LANGEVIN DAMPING COEFFICIENT IS 1 INVERSE PS
Info: LANGEVIN DYNAMICS APPLIED TO HYDROGENS
Info: LANGEVIN PISTON PRESSURE CONTROL ACTIVE
Info:        TARGET PRESSURE IS 1.01325 BAR
Info:     OSCILLATION PERIOD IS 50 FS
Info:             DECAY TIME IS 25 FS
Info:     PISTON TEMPERATURE IS 300 K
Info:       PRESSURE CONTROL IS GROUP-BASED
Info:    INITIAL STRAIN RATE IS 0.000423365 0.000423365 0.000423365
Info:       CELL FLUCTUATION IS ISOTROPIC
Info: PARTICLE MESH EWALD (PME) ACTIVE
Info: PME TOLERANCE               1e-06
Info: PME EWALD COEFFICIENT       0.348832
Info: PME INTERPOLATION ORDER     4
Info: PME GRID DIMENSIONS         32 32 32
Info: PME MAXIMUM GRID SPACING    1
Info: PME CALCULATION WILL BE PERFORMED ON GPU
Info: FULL ELECTROSTATIC EVALUATION FREQUENCY      2
Info: USING VERLET I (r-RESPA) MTS SCHEME.
Info: C1 SPLITTING OF LONG RANGE ELECTROSTATICS
Info: PLACING ATOMS IN PATCHES BY HYDROGEN GROUPS
Info: RIGID BONDS TO HYDROGEN : ALL
Info:         ERROR TOLERANCE : 1e-08
Info:          MAX ITERATIONS : 100
Info: RIGID WATER USING SETTLE ALGORITHM
Info: RANDOM NUMBER SEED     1743615761
Info: USE HYDROGEN BONDS?    NO
Info: Using AMBER format force field!
Info: AMBER PARM FILE        mobley_1036761.prmtop
Info: COORDINATE PDB         mobley_1036761.pdb
Info: Exclusions will be read from PARM file!
Info: SCNB (VDW SCALING)     2
Info: USING ARITHMETIC MEAN TO COMBINE L-J SIGMA PARAMETERS
Info: BINARY COORDINATES     mobley_1036761_equil.coor
Info: SUMMARY OF PARAMETERS:
Info: 7 BONDS
Info: 8 ANGLES
Info:   8 HARMONIC
Info:   0 COSINE-BASED
Info: 7 DIHEDRAL
Info: 0 IMPROPER
Info: 0 CROSSTERM
Info: 0 VDW
Info: 28 VDW_PAIRS
Info: 0 NBTHOLE_PAIRS
Info: To read alchdata from file: mobley_1036761.pdb
Info: To read alchflag data from column: 5
Info: STRUCTURE SUMMARY:
Info: 2954 ATOMS
Info: 2954 BONDS
Info: 39 ANGLES
Info: 72 DIHEDRALS
Info: 0 IMPROPERS
Info: 0 CROSSTERMS
Info: 3050 EXCLUSIONS
Info: 2947 RIGID BONDS
Info: ALCH: 0 ATOMS TO DISAPPEAR IN FINAL STATE
Info: ALCH: 20 ATOMS TO APPEAR IN FINAL STATE
Info: 5915 DEGREES OF FREEDOM
Info: 985 HYDROGEN GROUPS
Info: 3 ATOMS IN LARGEST HYDROGEN GROUP
Info: 985 MIGRATION GROUPS
Info: 3 ATOMS IN LARGEST MIGRATION GROUP
Info: TOTAL MASS = 17718.8 amu
Info: TOTAL CHARGE = 0.000100009 e
Info: MASS DENSITY = 0.977049 g/cm^3
Info: ATOM DENSITY = 0.0980918 atoms/A^3
Info: ADDED 0 IMPLICIT EXCLUSIONS
Info: NONBONDED TABLE R-SQUARED SPACING: 0.0625
Info: NONBONDED TABLE SIZE: 705 POINTS
Info: REMOVING COM VELOCITY 0.00238865 -0.0690565 -0.0213437
Info: Use 3D box decompostion in PME FFT.
Info: Updated CUDA force table with 4096 elements.
Info: Updated CUDA LJ table with 7 x 7 elements.
Info: Found 23 unique exclusion lists needing 68 bytes
TCL: Running for 1500000 steps
ETITLE: TS BOND ANGLE DIHED IMPRP ELECT VDW BOUNDARY MISC KINETIC TOTAL TEMP POTENTIAL TOTALAVG TEMPAVG PRESSURE GPRESSURE VOLUME PRESSAVG GPRESSAVG
ENERGY: 0 2.7905 2.9144 3.5212 0.0000 -10731.2673 1412.3617 0.0000 0.0000 1790.1177 -7519.5619 304.5911 -9309.6796 -7519.5619 304.5911 -297.6736 -204.2488 30114.6543 -297.6736 -204.2488
ENERGY: 300000 2.1608 5.2976 3.3207 0.0000 -10596.7883 1394.4709 0.0000 0.0000 1756.9983 -7434.5399 298.9558 -9191.5383 -7471.3724 302.3819 -223.3889 -154.3976 30069.8595 -460.7564 -378.0395
ENERGY: 600000 3.8359 5.4562 3.3359 0.0000 -10499.0598 1271.4581 0.0000 0.0000 1747.8255 -7467.1482 297.3950 -9214.9737 -7462.1600 301.6783 -1629.8805 -1436.7864 30667.1013 -557.3123 -451.5635
ENERGY: 900000 2.1876 6.9649 3.2342 0.0000 -10726.6988 1478.6817 0.0000 0.0000 1811.0664 -7424.5640 308.1556 -9235.6304 -7451.7346 302.6549 342.7610 426.4136 30028.5278 -382.6696 -288.7961
ENERGY: 1200000 2.9560 10.2537 4.8499 0.0000 -10739.0444 1526.7359 0.0000 0.0000 1752.2078 -7442.0411 298.1407 -9194.2489 -7454.3641 302.4600 493.6752 545.7462 30472.7203 -345.4627 -251.4657
ENERGY: 1500000 4.2993 8.9525 3.3238 0.0000 -10799.9494 1497.9570 0.0000 0.0000 1733.3629 -7552.0540 294.9342 -9285.4169 -7463.8561 301.7678 237.4950 276.1253 30437.3166 -242.3245 -159.3159
TCL: Running FEP window   2: Lambda1 0.05   Lambda2 0.1    [dLambda 0.05  ]
TCL: Setting parameter firsttimestep to 0
TCL: Setting parameter alchLambda to 0.05
Info: NONBONDED TABLE R-SQUARED SPACING: 0.0625
Info: NONBONDED TABLE SIZE: 705 POINTS
TCL: Setting parameter alchLambda2 to 0.1
Info: NONBONDED TABLE R-SQUARED SPACING: 0.0625
Info: NONBONDED TABLE SIZE: 705 POINTS
TCL: Running for 1500000 steps
ETITLE: TS BOND ANGLE DIHED IMPRP ELECT VDW BOUNDARY MISC KINETIC TOTAL TEMP POTENTIAL TOTALAVG TEMPAVG PRESSURE GPRESSURE VOLUME PRESSAVG GPRESSAVG
ENERGY: 0 4.2993 8.9525 3.3238 0.0000 -10799.9492 1505.0844 0.0000 0.0000 1732.4490 -7545.8403 294.7787 -9278.2893 -7545.8403 294.7787 202.3483 285.9472 30437.3166 202.3483 285.9472
ENERGY: 300000 1.6860 8.5580 4.2095 0.0000 -10702.0314 1430.0996 0.0000 0.0000 1813.7547 -7443.7237 308.6130 -9257.4784 -7463.1227 299.3985 -119.9877 -51.7106 30040.7607 37.1151 109.7790
ENERGY: 600000 4.0921 8.8980 4.5149 0.0000 -10722.3628 1435.9978 0.0000 0.0000 1738.9018 -7529.9583 295.8766 -9268.8601 -7469.9603 299.9822 -192.0378 -137.3298 30050.1676 -49.0141 9.0836
ENERGY: 900000 1.7319 10.2506 4.3337 0.0000 -10759.1784 1447.4202 0.0000 0.0000 1731.1091 -7564.3329 294.5507 -9295.4420 -7476.4365 299.0116 -307.0477 -229.6036 30142.8579 -65.1940 0.9061
ENERGY: 1200000 0.9740 7.3166 3.8238 0.0000 -10609.4112 1385.4351 0.0000 0.0000 1767.3664 -7444.4952 300.7199 -9211.8616 -7464.1500 300.0105 -421.0599 -368.9448 30392.3534 -97.8679 -34.3667
ENERGY: 1500000 3.4286 7.7456 3.4277 0.0000 -10570.7661 1420.7895 0.0000 0.0000 1839.3098 -7296.0649 312.9612 -9135.3747 -7438.7460 301.7070 249.3234 301.8013 30269.6850 -41.4993 14.4049
TCL: Running FEP window   3: Lambda1 0.1    Lambda2 0.15000000000000002 [dLambda 0.05000000000000002]
TCL: Setting parameter firsttimestep to 0
TCL: Setting parameter alchLambda to 0.1
Info: NONBONDED TABLE R-SQUARED SPACING: 0.0625
Info: NONBONDED TABLE SIZE: 705 POINTS
TCL: Setting parameter alchLambda2 to 0.15000000000000002
Info: NONBONDED TABLE R-SQUARED SPACING: 0.0625
Info: NONBONDED TABLE SIZE: 705 POINTS
TCL: Running for 1500000 steps
ETITLE: TS BOND ANGLE DIHED IMPRP ELECT VDW BOUNDARY MISC KINETIC TOTAL TEMP POTENTIAL TOTALAVG TEMPAVG PRESSURE GPRESSURE VOLUME PRESSAVG GPRESSAVG
ENERGY: 0 3.4286 7.7456 3.4277 0.0000 -10570.7671 1423.4616 0.0000 0.0000 1838.4451 -7294.2585 312.8141 -9132.7036 -7294.2585 312.8141 223.3930 313.7720 30269.6850 223.3930 313.7720
ENERGY: 300000 4.3390 7.3369 4.7442 0.0000 -10649.1594 1431.1973 0.0000 0.0000 1713.2605 -7488.2813 291.5137 -9201.5418 -7405.8114 302.6457 -187.7805 -70.1643 30217.8935 -115.2058 -30.4685
ENERGY: 600000 2.4591 8.9157 3.8898 0.0000 -10655.5700 1428.8825 0.0000 0.0000 1781.5942 -7429.8286 303.1408 -9211.4228 -7418.2677 301.9948 -286.7286 -179.2688 30282.1737 -106.9558 -33.5365
ENERGY: 900000 2.6936 12.8812 4.3740 0.0000 -10644.5812 1400.7478 0.0000 0.0000 1762.0326 -7461.8520 299.8124 -9223.8846 -7433.3309 303.0524 -495.6803 -388.3047 30363.6750 -131.0569 -56.4041
ENERGY: 1200000 1.5444 13.4929 3.9124 0.0000 -10626.1122 1373.3943 0.0000 0.0000 1811.7403 -7422.0280 308.2702 -9233.7683 -7434.4543 303.1702 -509.0611 -460.0063 30304.5352 -184.9806 -112.3583
ENERGY: 1500000 1.1108 12.1706 3.1667 0.0000 -10828.4722 1562.6086 0.0000 0.0000 1736.6879 -7512.7276 295.4999 -9249.4155 -7439.7502 303.2049 723.3100 819.3847 30217.7954 -53.2920 22.9343
TCL: Running FEP window   4: Lambda1 0.15000000000000002 Lambda2 0.2    [dLambda 0.04999999999999999]
TCL: Setting parameter firsttimestep to 0
TCL: Setting parameter alchLambda to 0.15000000000000002
Info: NONBONDED TABLE R-SQUARED SPACING: 0.0625
Info: NONBONDED TABLE SIZE: 705 POINTS
TCL: Setting parameter alchLambda2 to 0.2
Info: NONBONDED TABLE R-SQUARED SPACING: 0.0625
Info: NONBONDED TABLE SIZE: 705 POINTS
TCL: Running for 1500000 steps
ETITLE: TS BOND ANGLE DIHED IMPRP ELECT VDW BOUNDARY MISC KINETIC TOTAL TEMP POTENTIAL TOTALAVG TEMPAVG PRESSURE GPRESSURE VOLUME PRESSAVG GPRESSAVG
ENERGY: 0 1.1108 12.1706 3.1667 0.0000 -10828.4715 1562.4223 0.0000 0.0000 1735.7771 -7513.8239 295.3450 -9249.6010 -7513.8239 295.3450 736.4922 818.8486 30217.7954 736.4922 818.8486
ENERGY: 300000 1.8691 7.6684 4.6180 0.0000 -10653.9043 1492.1996 0.0000 0.0000 1810.3701 -7337.1790 308.0371 -9147.5492 -7438.6332 300.6603 500.8891 558.7997 30761.6368 186.8682 247.0243
ENERGY: 600000 1.6948 10.2008 4.2370 0.0000 -10634.2561 1384.1352 0.0000 0.0000 1722.5272 -7511.4610 293.0905 -9233.9882 -7462.2997 300.4611 -542.9163 -553.9151 30574.9982 50.1541 94.8041
ENERGY: 900000 3.0337 14.2461 4.2257 0.0000 -10500.5051 1298.1456 0.0000 0.0000 1694.8446 -7486.0094 288.3803 -9180.8540 -7473.5219 299.4563 -1318.9365 -1267.9094 30774.4524 -14.8943 25.0566
ENERGY: 1200000 1.3573 10.1950 4.6019 0.0000 -10714.6206 1409.0516 0.0000 0.0000 1793.3513 -7496.0636 305.1413 -9289.4149 -7481.3630 300.3100 -378.7700 -358.9592 30050.4662 1.0288 44.9026
ENERGY: 1500000 1.6563 9.8444 4.5947 0.0000 -10639.0514 1376.6287 0.0000 0.0000 1756.5541 -7489.7733 298.8802 -9246.3274 -7476.0455 300.7536 -821.7155 -727.6469 30594.4411 -7.5843 38.3389
TCL: Running FEP window   5: Lambda1 0.2    Lambda2 0.25   [dLambda 0.04999999999999999]
TCL: Setting parameter firsttimestep to 0
TCL: Setting parameter alchLambda to 0.2
Info: NONBONDED TABLE R-SQUARED SPACING: 0.0625
Info: NONBONDED TABLE SIZE: 705 POINTS
TCL: Setting parameter alchLambda2 to 0.25
Info: NONBONDED TABLE R-SQUARED SPACING: 0.0625
Info: NONBONDED TABLE SIZE: 705 POINTS
TCL: Running for 1500000 steps
ETITLE: TS BOND ANGLE DIHED IMPRP ELECT VDW BOUNDARY MISC KINETIC TOTAL TEMP POTENTIAL TOTALAVG TEMPAVG PRESSURE GPRESSURE VOLUME PRESSAVG GPRESSAVG
ENERGY: 0 1.6563 9.8444 4.5947 0.0000 -10639.0537 1377.2417 0.0000 0.0000 1755.6889 -7490.0278 298.7330 -9245.7167 -7490.0278 298.7330 -812.5371 -720.4176 30594.4411 -812.5371 -720.4176
ENERGY: 300000 4.1594 7.2221 3.1831 0.0000 -10780.5288 1498.1024 0.0000 0.0000 1760.2574 -7507.6044 299.5103 -9267.8618 -7446.0312 299.4058 398.6776 449.1458 30008.1176 -572.0669 -514.3295
ENERGY: 600000 1.8008 7.2991 3.4362 0.0000 -10648.8786 1454.4614 0.0000 0.0000 1822.7903 -7359.0908 310.1504 -9181.8811 -7441.3212 299.1797 60.3073 128.9315 30784.3719 -448.7182 -387.2279
ENERGY: 900000 1.7514 6.3902 4.4655 0.0000 -10737.6856 1501.9981 0.0000 0.0000 1808.8418 -7414.2386 307.7770 -9223.0804 -7457.1597 299.3256 367.7224 465.5668 30477.1686 -329.5761 -266.0994
ENERGY: 1200000 2.7391 11.0729 3.2867 0.0000 -10674.6431 1413.3000 0.0000 0.0000 1724.2010 -7520.0433 293.3753 -9244.2444 -7459.5093 299.3609 -205.3218 -190.2285 30217.4609 -291.1469 -229.4234
ENERGY: 1500000 2.9488 9.3797 3.4681 0.0000 -10845.7614 1527.7883 0.0000 0.0000 1798.7932 -7503.3833 306.0673 -9302.1765 -7460.3028 299.6214 666.1454 682.2086 29990.5812 -219.1985 -153.4601
TCL: Running FEP window   6: Lambda1 0.25   Lambda2 0.3    [dLambda 0.04999999999999999]
TCL: Setting parameter firsttimestep to 0
TCL: Setting parameter alchLambda to 0.25
Info: NONBONDED TABLE R-SQUARED SPACING: 0.0625
Info: NONBONDED TABLE SIZE: 705 POINTS
TCL: Setting parameter alchLambda2 to 0.3
Info: NONBONDED TABLE R-SQUARED SPACING: 0.0625
Info: NONBONDED TABLE SIZE: 705 POINTS
TCL: Running for 1500000 steps
ETITLE: TS BOND ANGLE DIHED IMPRP ELECT VDW BOUNDARY MISC KINETIC TOTAL TEMP POTENTIAL TOTALAVG TEMPAVG PRESSURE GPRESSURE VOLUME PRESSAVG GPRESSAVG
ENERGY: 0 2.9488 9.3797 3.4681 0.0000 -10845.7616 1527.8628 0.0000 0.0000 1797.9404 -7504.1617 305.9222 -9302.1022 -7504.1617 305.9222 605.7958 688.7447 29990.5812 605.7958 688.7447
ENERGY: 300000 1.4186 8.7997 4.3474 0.0000 -10638.3327 1384.4228 0.0000 0.0000 1763.3987 -7475.9456 300.0448 -9239.3443 -7449.0619 303.1946 -578.4365 -504.0710 30484.3543 -57.2980 -12.0807
ENERGY: 600000 1.7975 11.6282 3.2217 0.0000 -10529.2693 1336.4295 0.0000 0.0000 1742.3464 -7433.8461 296.4627 -9176.1925 -7454.3195 300.5582 -1038.5524 -904.0439 30757.0231 -136.2909 -70.1669
ENERGY: 900000 1.7831 11.0677 3.2986 0.0000 -10764.4454 1430.5004 0.0000 0.0000 1788.7089 -7529.0868 304.3514 -9317.7956 -7459.3144 300.6765 -42.7443 -0.6847 29937.0970 -96.0561 -39.1113
ENERGY: 1200000 4.4821 9.6649 3.4008 0.0000 -10632.9359 1390.8240 0.0000 0.0000 1742.6658 -7481.8983 296.5171 -9224.5641 -7462.1854 300.3789 -367.1916 -407.9541 30582.8829 -92.9707 -38.8381
ENERGY: 1500000 2.1297 9.6618 4.4266 0.0000 -10561.2599 1319.9057 0.0000 0.0000 1704.9623 -7520.1738 290.1018 -9225.1361 -7466.0110 300.3756 -1042.9650 -1009.4722 30526.3386 -112.7669 -59.7998
TCL: Running FEP window   7: Lambda1 0.3    Lambda2 0.35   [dLambda 0.04999999999999999]
TCL: Setting parameter firsttimestep to 0
TCL: Setting parameter alchLambda to 0.3
Info: NONBONDED TABLE R-SQUARED SPACING: 0.0625
Info: NONBONDED TABLE SIZE: 705 POINTS
TCL: Setting parameter alchLambda2 to 0.35
Info: NONBONDED TABLE R-SQUARED SPACING: 0.0625
Info: NONBONDED TABLE SIZE: 705 POINTS
TCL: Running for 1500000 steps
ETITLE: TS BOND ANGLE DIHED IMPRP ELECT VDW BOUNDARY MISC KINETIC TOTAL TEMP POTENTIAL TOTALAVG TEMPAVG PRESSURE GPRESSURE VOLUME PRESSAVG GPRESSAVG
ENERGY: 0 2.1297 9.6618 4.4266 0.0000 -10561.2610 1320.0471 0.0000 0.0000 1704.0951 -7520.9008 289.9542 -9224.9959 -7520.9008 289.9542 -1091.2878 -1005.8317 30526.3386 -1091.2878 -1005.8317
ENERGY: 300000 2.5286 6.4680 3.8292 0.0000 -10602.9349 1372.2400 0.0000 0.0000 1765.1665 -7452.7026 300.3456 -9217.8691 -7470.9532 299.8409 -647.0820 -568.7710 30270.1213 -656.9626 -563.2602
ENERGY: 600000 0.8689 5.1248 3.7163 0.0000 -10690.1864 1397.6895 0.0000 0.0000 1758.9581 -7523.8288 299.2893 -9282.7869 -7486.6000 299.9600 -583.6810 -522.9679 30739.3256 -407.6115 -342.3934
ENERGY: 900000 4.3434 10.1020 3.0507 0.0000 -10684.3295 1464.5823 0.0000 0.0000 1754.2537 -7447.9974 298.4888 -9202.2510 -7480.1128 300.3681 96.6891 178.9509 30558.1204 -265.9817 -202.3601
ENERGY: 1200000 0.6606 11.9412 3.9772 0.0000 -10784.0187 1522.0360 0.0000 0.0000 1712.6802 -7532.7236 291.4150 -9245.4038 -7487.4643 298.8597 752.0885 847.1022 29608.0639 -292.2723 -224.5793
ENERGY: 1500000 1.5309 7.5770 3.9755 0.0000 -10695.7152 1455.6082 0.0000 0.0000 1822.3414 -7404.6822 310.0740 -9227.0236 -7479.7647 300.1949 524.8366 612.6931 29842.3389 -212.6070 -145.8782
TCL: Running FEP window   8: Lambda1 0.35   Lambda2 0.39999999999999997 [dLambda 0.04999999999999999]
TCL: Setting parameter firsttimestep to 0
TCL: Setting parameter alchLambda to 0.35
Info: NONBONDED TABLE R-SQUARED SPACING: 0.0625
Info: NONBONDED TABLE SIZE: 705 POINTS
TCL: Setting parameter alchLambda2 to 0.39999999999999997
Info: NONBONDED TABLE R-SQUARED SPACING: 0.0625
Info: NONBONDED TABLE SIZE: 705 POINTS
TCL: Running for 1500000 steps
ETITLE: TS BOND ANGLE DIHED IMPRP ELECT VDW BOUNDARY MISC KINETIC TOTAL TEMP POTENTIAL TOTALAVG TEMPAVG PRESSURE GPRESSURE VOLUME PRESSAVG GPRESSAVG
ENERGY: 0 1.5309 7.5770 3.9755 0.0000 -10695.7153 1456.2975 0.0000 0.0000 1821.4547 -7404.8797 309.9231 -9226.3345 -7404.8797 309.9231 534.3858 623.1740 29842.3389 534.3858 623.1740
ENERGY: 300000 2.2421 6.7529 3.9444 0.0000 -10641.2991 1406.1631 0.0000 0.0000 1772.6579 -7449.5387 301.6203 -9222.1966 -7417.3251 302.9782 -281.2731 -194.1029 30613.4566 13.6052 81.2134
ENERGY: 600000 2.9945 12.8233 5.8285 0.0000 -10762.7878 1425.0272 0.0000 0.0000 1767.7260 -7548.3883 300.7811 -9316.1143 -7447.5547 302.2442 -280.0307 -230.7860 30082.4737 16.9730 89.4065
ENERGY: 900000 1.1748 4.8071 5.6778 0.0000 -10550.1582 1368.7544 0.0000 0.0000 1747.4620 -7422.2823 297.3332 -9169.7443 -7447.8547 301.4669 -484.3489 -479.7979 30545.0508 -10.0078 57.5096
ENERGY: 1200000 0.6183 9.3676 3.2914 0.0000 -10763.7470 1459.3184 0.0000 0.0000 1790.7074 -7500.4440 304.6914 -9291.1513 -7452.7877 302.2118 -6.2473 85.6057 30228.8999 -50.3039 18.7346
ENERGY: 1500000 1.9092 5.4795 3.8774 0.0000 -10765.2760 1489.3485 0.0000 0.0000 1814.2560 -7450.4055 308.6983 -9264.6615 -7453.6501 302.3508 526.9371 675.4849 29827.6788 -0.2437 80.5342
TCL: Running FEP window   9: Lambda1 0.39999999999999997 Lambda2 0.44999999999999996 [dLambda 0.04999999999999999]
TCL: Setting parameter firsttimestep to 0
TCL: Setting parameter alchLambda to 0.39999999999999997
Info: NONBONDED TABLE R-SQUARED SPACING: 0.0625
Info: NONBONDED TABLE SIZE: 705 POINTS
TCL: Setting parameter alchLambda2 to 0.44999999999999996
Info: NONBONDED TABLE R-SQUARED SPACING: 0.0625
Info: NONBONDED TABLE SIZE: 705 POINTS
TCL: Running for 1500000 steps
ETITLE: TS BOND ANGLE DIHED IMPRP ELECT VDW BOUNDARY MISC KINETIC TOTAL TEMP POTENTIAL TOTALAVG TEMPAVG PRESSURE GPRESSURE VOLUME PRESSAVG GPRESSAVG
ENERGY: 0 1.9092 5.4795 3.8774 0.0000 -10765.2785 1490.9699 0.0000 0.0000 1813.3479 -7449.6947 308.5438 -9263.0426 -7449.6947 308.5438 601.0968 692.3834 29827.6788 601.0968 692.3834
ENERGY: 300000 1.5975 9.6270 3.8156 0.0000 -10657.8538 1422.8177 0.0000 0.0000 1738.7174 -7481.2785 295.8453 -9219.9959 -7461.1497 300.1897 -131.8899 -55.5543 30476.0880 229.8134 297.1989
ENERGY: 600000 1.8774 8.5998 3.4216 0.0000 -10469.2921 1297.0039 0.0000 0.0000 1763.1171 -7395.2724 299.9969 -9158.3895 -7457.8629 300.7793 -821.1201 -786.2823 30334.1261 50.3883 116.8566
ENERGY: 900000 0.9827 10.9626 4.4191 0.0000 -10791.5917 1494.4587 0.0000 0.0000 1761.7033 -7519.0652 299.7564 -9280.7685 -7460.2834 301.1332 424.3415 493.4865 29999.8075 28.3369 109.2453
ENERGY: 1200000 2.1985 12.4185 3.9749 0.0000 -10717.0255 1452.5103 0.0000 0.0000 1815.0987 -7430.8246 308.8417 -9245.9233 -7451.2289 301.0625 54.2997 141.3626 30429.8171 74.0577 151.2875
ENERGY: 1500000 2.6888 11.2294 3.8617 0.0000 -10791.4013 1525.8904 0.0000 0.0000 1717.1970 -7530.5340 292.1836 -9247.7310 -7452.4665 300.3771 719.9624 787.6418 29966.0058 153.5465 223.5567
TCL: Running FEP window  10: Lambda1 0.44999999999999996 Lambda2 0.49999999999999994 [dLambda 0.04999999999999999]
TCL: Setting parameter firsttimestep to 0
TCL: Setting parameter alchLambda to 0.44999999999999996
Info: NONBONDED TABLE R-SQUARED SPACING: 0.0625
Info: NONBONDED TABLE SIZE: 705 POINTS
TCL: Setting parameter alchLambda2 to 0.49999999999999994
Info: NONBONDED TABLE R-SQUARED SPACING: 0.0625
Info: NONBONDED TABLE SIZE: 705 POINTS
TCL: Running for 1500000 steps
ETITLE: TS BOND ANGLE DIHED IMPRP ELECT VDW BOUNDARY MISC KINETIC TOTAL TEMP POTENTIAL TOTALAVG TEMPAVG PRESSURE GPRESSURE VOLUME PRESSAVG GPRESSAVG
ENERGY: 0 2.6888 11.2294 3.8617 0.0000 -10791.4033 1525.8177 0.0000 0.0000 1716.3570 -7531.4488 292.0406 -9247.8058 -7531.4488 292.0406 707.1721 794.3142 29966.0058 707.1721 794.3142
ENERGY: 300000 1.7257 8.6411 3.4075 0.0000 -10654.8987 1336.1679 0.0000 0.0000 1764.7286 -7540.2278 300.2711 -9304.9565 -7493.8438 298.8830 -943.9996 -897.5177 30101.4006 -158.6303 -91.4415
ENERGY: 600000 2.1784 8.1714 3.9330 0.0000 -10788.5710 1512.5338 0.0000 0.0000 1756.9002 -7504.8542 298.9391 -9261.7543 -7495.2932 298.4285 400.1190 499.1559 30067.3188 -75.8359 -4.9540
ENERGY: 900000 1.2475 9.7813 4.1510 0.0000 -10741.0186 1443.8844 0.0000 0.0000 1736.2397 -7545.7147 295.4237 -9281.9544 -7512.6256 297.6437 -171.5827 -98.2082 30369.1438 -6.8142 67.4033
ENERGY: 1200000 2.6308 6.4198 3.0843 0.0000 -10711.1664 1438.9107 0.0000 0.0000 1750.5217 -7509.5991 297.8538 -9260.1208 -7505.9136 298.2060 28.5467 74.0237 30206.6914 6.9255 76.6109
ENERGY: 1500000 1.8004 10.5660 3.5758 0.0000 -10798.6642 1476.2747 0.0000 0.0000 1757.0663 -7549.3810 298.9674 -9306.4473 -7503.7002 298.0734 215.6660 353.6280 29918.4045 -98.2892 -24.4514
TCL: Running FEP window  11: Lambda1 0.49999999999999994 Lambda2 0.5499999999999999 [dLambda 0.04999999999999999]
TCL: Setting parameter firsttimestep to 0
TCL: Setting parameter alchLambda to 0.49999999999999994
Info: NONBONDED TABLE R-SQUARED SPACING: 0.0625
Info: NONBONDED TABLE SIZE: 705 POINTS
TCL: Setting parameter alchLambda2 to 0.5499999999999999
Info: NONBONDED TABLE R-SQUARED SPACING: 0.0625
Info: NONBONDED TABLE SIZE: 705 POINTS
TCL: Running for 1500000 steps
ETITLE: TS BOND ANGLE DIHED IMPRP ELECT VDW BOUNDARY MISC KINETIC TOTAL TEMP POTENTIAL TOTALAVG TEMPAVG PRESSURE GPRESSURE VOLUME PRESSAVG GPRESSAVG
ENERGY: 0 1.8004 10.5660 3.5758 0.0000 -10798.6631 1476.2124 0.0000 0.0000 1756.2113 -7550.2972 298.8219 -9306.5085 -7550.2972 298.8219 284.9732 360.1536 29918.4045 284.9732 360.1536
ENERGY: 300000 3.9292 8.1627 4.1008 0.0000 -10685.0585 1447.8880 0.0000 0.0000 1735.5643 -7485.4134 295.3088 -9220.9777 -7485.0886 298.4782 145.7160 202.1094 30169.5062 189.2690 248.9530
ENERGY: 600000 2.4848 11.0495 4.2877 0.0000 -10633.5003 1385.0221 0.0000 0.0000 1786.7605 -7443.8958 304.0199 -9230.6563 -7483.7461 300.3191 -776.1892 -747.0009 30776.0828 -13.3046 39.1263
ENERGY: 900000 1.3280 10.7716 3.2020 0.0000 -10601.5012 1444.6850 0.0000 0.0000 1745.1005 -7396.4141 296.9314 -9141.5146 -7478.7246 299.6535 12.1432 52.3278 30905.3030 56.1348 99.7063
ENERGY: 1200000 1.2961 7.8670 3.4322 0.0000 -10779.4356 1526.7116 0.0000 0.0000 1783.2028 -7456.9259 303.4145 -9240.1288 -7468.4017 300.4444 883.7614 874.5010 30400.0269 -41.1209 5.1591
ENERGY: 1500000 1.3777 6.6246 4.0966 0.0000 -10689.2127 1377.4257 0.0000 0.0000 1747.9525 -7551.7355 297.4166 -9299.6881 -7477.4387 300.7864 -396.4409 -326.0159 29831.0348 -58.5416 -7.9336
TCL: Running FEP window  12: Lambda1 0.5499999999999999 Lambda2 0.6    [dLambda 0.050000000000000044]
TCL: Setting parameter firsttimestep to 0
TCL: Setting parameter alchLambda to 0.5499999999999999
Info: NONBONDED TABLE R-SQUARED SPACING: 0.0625
Info: NONBONDED TABLE SIZE: 705 POINTS
TCL: Setting parameter alchLambda2 to 0.6
Info: NONBONDED TABLE R-SQUARED SPACING: 0.0625
Info: NONBONDED TABLE SIZE: 705 POINTS
TCL: Running for 1500000 steps
ETITLE: TS BOND ANGLE DIHED IMPRP ELECT VDW BOUNDARY MISC KINETIC TOTAL TEMP POTENTIAL TOTALAVG TEMPAVG PRESSURE GPRESSURE VOLUME PRESSAVG GPRESSAVG
ENERGY: 0 1.3777 6.6246 4.0966 0.0000 -10689.0292 1376.9786 0.0000 0.0000 1747.0321 -7552.9195 297.2600 -9299.9516 -7552.9195 297.2600 -407.1190 -322.8627 29831.0348 -407.1190 -322.8627
ENERGY: 300000 3.0968 8.1192 4.2428 0.0000 -10698.8471 1451.5318 0.0000 0.0000 1749.2763 -7482.5802 297.6419 -9231.8565 -7499.5456 298.6212 60.3997 122.3901 30542.4422 -55.8965 11.2799
ENERGY: 600000 2.5937 7.5746 3.6406 0.0000 -10589.8286 1376.7398 0.0000 0.0000 1779.8355 -7419.4445 302.8416 -9199.2800 -7480.4611 298.2048 -356.2851 -256.4473 30129.4972 -42.5149 29.2308
ENERGY: 900000 1.9423 7.1378 3.4793 0.0000 -10663.1308 1424.5202 0.0000 0.0000 1771.6419 -7454.4095 301.4474 -9226.0513 -7469.6517 299.7708 -6.2924 57.8577 30280.3949 -110.0467 -27.9933
ENERGY: 1200000 1.8913 10.1375 4.3073 0.0000 -10784.3391 1503.2322 0.0000 0.0000 1737.1772 -7527.5937 295.5832 -9264.7709 -7487.6689 299.5180 308.5169 462.1559 30396.0960 -44.3028 40.2960
ENERGY: 1500000 1.6619 8.0657 3.6902 0.0000 -10719.9454 1475.6636 0.0000 0.0000 1794.2193 -7436.6446 305.2890 -9230.8640 -7483.4267 299.4949 396.5536 499.7551 30012.6643 70.5288 154.5673
TCL: Running FEP window  13: Lambda1 0.6    Lambda2 0.65   [dLambda 0.050000000000000044]
TCL: Setting parameter firsttimestep to 0
TCL: Setting parameter alchLambda to 0.6
Info: NONBONDED TABLE R-SQUARED SPACING: 0.0625
Info: NONBONDED TABLE SIZE: 705 POINTS
TCL: Setting parameter alchLambda2 to 0.65
Info: NONBONDED TABLE R-SQUARED SPACING: 0.0625
Info: NONBONDED TABLE SIZE: 705 POINTS
TCL: Running for 1500000 steps
ETITLE: TS BOND ANGLE DIHED IMPRP ELECT VDW BOUNDARY MISC KINETIC TOTAL TEMP POTENTIAL TOTALAVG TEMPAVG PRESSURE GPRESSURE VOLUME PRESSAVG GPRESSAVG
ENERGY: 0 1.6619 8.0657 3.6902 0.0000 -10719.9492 1475.4091 0.0000 0.0000 1793.3507 -7437.7716 305.1412 -9231.1223 -7437.7716 305.1412 424.3407 505.1971 30012.6643 424.3407 505.1971
ENERGY: 300000 1.7966 8.5197 3.6738 0.0000 -10600.8374 1333.6143 0.0000 0.0000 1793.3998 -7459.8331 305.1496 -9253.2329 -7468.6745 303.8356 -748.1557 -650.8708 30219.4075 -147.3943 -84.9007
ENERGY: 600000 1.3015 12.7180 5.6527 0.0000 -10765.7779 1482.9295 0.0000 0.0000 1752.3094 -7510.8668 298.1580 -9263.1762 -7478.3194 301.0697 -23.8707 65.3807 30593.3314 -27.0399 40.9547
ENERGY: 900000 4.0228 10.3682 3.3874 0.0000 -10533.1777 1342.9975 0.0000 0.0000 1799.1946 -7373.2071 306.1356 -9172.4017 -7480.9015 301.2413 -436.8928 -379.2116 30026.8616 -8.2588 57.8297
ENERGY: 1200000 0.9004 9.8271 3.4034 0.0000 -10798.5582 1476.8394 0.0000 0.0000 1735.2627 -7572.3253 295.2574 -9307.5880 -7499.2568 299.9501 70.7637 173.4038 30271.1239 54.0255 123.9437
ENERGY: 1500000 0.7040 12.4569 3.0900 0.0000 -10731.6261 1517.0408 0.0000 0.0000 1743.2658 -7455.0687 296.6192 -9198.3344 -7493.3769 299.4224 820.1314 899.1415 30119.5763 74.0049 134.4871
TCL: Running FEP window  14: Lambda1 0.65   Lambda2 0.7000000000000001 [dLambda 0.050000000000000044]
TCL: Setting parameter firsttimestep to 0
TCL: Setting parameter alchLambda to 0.65
Info: NONBONDED TABLE R-SQUARED SPACING: 0.0625
Info: NONBONDED TABLE SIZE: 705 POINTS
TCL: Setting parameter alchLambda2 to 0.7000000000000001
Info: NONBONDED TABLE R-SQUARED SPACING: 0.0625
Info: NONBONDED TABLE SIZE: 705 POINTS
TCL: Running for 1500000 steps
ETITLE: TS BOND ANGLE DIHED IMPRP ELECT VDW BOUNDARY MISC KINETIC TOTAL TEMP POTENTIAL TOTALAVG TEMPAVG PRESSURE GPRESSURE VOLUME PRESSAVG GPRESSAVG
ENERGY: 0 0.7040 12.4569 3.0900 0.0000 -10731.4751 1516.8909 0.0000 0.0000 1742.3808 -7455.9526 296.4686 -9198.3334 -7455.9526 296.4686 813.5331 907.0698 30119.5763 813.5331 907.0698
ENERGY: 300000 2.7966 5.1476 3.5223 0.0000 -10612.2277 1348.0198 0.0000 0.0000 1716.8310 -7535.9104 292.1213 -9252.7414 -7479.9472 298.1547 -655.7108 -584.6386 29989.2274 -14.8786 51.3326
ENERGY: 600000 2.2782 6.5122 3.1797 0.0000 -10730.6609 1464.9738 0.0000 0.0000 1773.8798 -7479.8371 301.8282 -9253.7170 -7496.0958 297.5445 311.9602 326.7543 30218.3288 -10.6758 40.1804
ENERGY: 900000 1.8319 6.7286 4.9180 0.0000 -10677.5611 1447.0656 0.0000 0.0000 1732.9466 -7484.0704 294.8634 -9217.0170 -7491.4796 297.8153 168.8560 276.2290 30284.3117 33.3289 91.2758
ENERGY: 1200000 1.6622 8.0357 3.9109 0.0000 -10832.1428 1569.1885 0.0000 0.0000 1755.0598 -7494.2856 298.6260 -9249.3455 -7479.0201 298.7905 986.4725 1028.8888 30263.9934 109.7024 170.9830
ENERGY: 1500000 0.4967 8.4585 3.0013 0.0000 -10700.3234 1466.9862 0.0000 0.0000 1767.5027 -7453.8780 300.7431 -9221.3807 -7479.2741 298.9980 528.3585 559.3462 30292.6779 188.4723 248.3826
TCL: Running FEP window  15: Lambda1 0.7000000000000001 Lambda2 0.7500000000000001 [dLambda 0.050000000000000044]
TCL: Setting parameter firsttimestep to 0
TCL: Setting parameter alchLambda to 0.7000000000000001
Info: NONBONDED TABLE R-SQUARED SPACING: 0.0625
Info: NONBONDED TABLE SIZE: 705 POINTS
TCL: Setting parameter alchLambda2 to 0.7500000000000001
Info: NONBONDED TABLE R-SQUARED SPACING: 0.0625
Info: NONBONDED TABLE SIZE: 705 POINTS
TCL: Running for 1500000 steps
ETITLE: TS BOND ANGLE DIHED IMPRP ELECT VDW BOUNDARY MISC KINETIC TOTAL TEMP POTENTIAL TOTALAVG TEMPAVG PRESSURE GPRESSURE VOLUME PRESSAVG GPRESSAVG
ENERGY: 0 0.4967 8.4585 3.0013 0.0000 -10700.7322 1466.6061 0.0000 0.0000 1766.6002 -7455.5693 300.5896 -9222.1696 -7455.5693 300.5896 467.4219 558.6031 30292.6779 467.4219 558.6031
ENERGY: 300000 3.5840 9.7176 4.3191 0.0000 -10792.9807 1461.9964 0.0000 0.0000 1729.5562 -7583.8073 294.2865 -9313.3635 -7513.3144 296.9611 7.3200 46.6390 30436.6737 -136.2878 -76.5259
ENERGY: 600000 3.4967 6.5908 3.2006 0.0000 -10579.3108 1323.3868 0.0000 0.0000 1779.4116 -7463.2243 302.7694 -9242.6358 -7506.4663 297.0521 -703.0269 -630.4397 30015.3562 -266.1174 -199.6869
ENERGY: 900000 1.8532 10.3030 4.5276 0.0000 -10850.4534 1557.7150 0.0000 0.0000 1726.2806 -7549.7740 293.7291 -9276.0546 -7489.9661 298.0863 976.2729 1073.0977 29921.5366 -96.0280 -31.3503
ENERGY: 1200000 1.4157 11.1628 3.3085 0.0000 -10673.0091 1427.8001 0.0000 0.0000 1805.8849 -7423.4372 307.2739 -9229.3221 -7474.3815 298.3049 -108.7014 -59.4299 30470.1467 -97.7564 -24.8945
ENERGY: 1500000 1.3773 11.6155 4.3128 0.0000 -10606.4367 1398.4507 0.0000 0.0000 1787.3347 -7403.3458 304.1176 -9190.6804 -7471.1584 299.3068 -187.8312 -201.6351 30640.3225 -48.1208 16.2081
TCL: Running FEP window  16: Lambda1 0.7500000000000001 Lambda2 0.8000000000000002 [dLambda 0.050000000000000044]
TCL: Setting parameter firsttimestep to 0
TCL: Setting parameter alchLambda to 0.7500000000000001
Info: NONBONDED TABLE R-SQUARED SPACING: 0.0625
Info: NONBONDED TABLE SIZE: 705 POINTS
TCL: Setting parameter alchLambda2 to 0.8000000000000002
Info: NONBONDED TABLE R-SQUARED SPACING: 0.0625
Info: NONBONDED TABLE SIZE: 705 POINTS
TCL: Running for 1500000 steps
ETITLE: TS BOND ANGLE DIHED IMPRP ELECT VDW BOUNDARY MISC KINETIC TOTAL TEMP POTENTIAL TOTALAVG TEMPAVG PRESSURE GPRESSURE VOLUME PRESSAVG GPRESSAVG
ENERGY: 0 1.3773 11.6155 4.3128 0.0000 -10606.5903 1398.0375 0.0000 0.0000 1786.4373 -7404.8099 303.9649 -9191.2472 -7404.8099 303.9649 -280.3199 -197.8797 30640.3225 -280.3199 -197.8797
ENERGY: 300000 4.2164 9.0766 3.7795 0.0000 -10715.2083 1502.1560 0.0000 0.0000 1793.6667 -7402.3131 305.1950 -9195.9798 -7431.2576 301.6097 710.6076 771.8237 30426.8425 -404.6147 -330.3833
ENERGY: 600000 3.3883 12.0020 3.0351 0.0000 -10853.9367 1527.6149 0.0000 0.0000 1714.7199 -7593.1765 291.7621 -9307.8964 -7463.2581 299.2889 406.1177 424.5314 30147.3041 -192.1050 -123.9900
ENERGY: 900000 1.6343 8.2239 3.7713 0.0000 -10796.7041 1477.0323 0.0000 0.0000 1753.8158 -7552.2265 298.4143 -9306.0424 -7487.7452 299.3708 302.6832 398.9351 30219.4585 -15.7619 45.8714
ENERGY: 1200000 1.3748 10.6665 3.4503 0.0000 -10831.1309 1593.2807 0.0000 0.0000 1773.1886 -7449.1699 301.7106 -9222.3586 -7486.2754 300.1948 1456.8841 1456.0466 30140.8243 129.1370 179.0221
ENERGY: 1500000 1.9763 15.7335 3.6517 0.0000 -10650.6911 1434.8490 0.0000 0.0000 1726.5248 -7467.9558 293.7707 -9194.4806 -7489.1487 299.8989 -151.9873 -95.5792 30755.5917 41.3562 97.0653
TCL: Running FEP window  17: Lambda1 0.8000000000000002 Lambda2 0.8500000000000002 [dLambda 0.050000000000000044]
TCL: Setting parameter firsttimestep to 0
TCL: Setting parameter alchLambda to 0.8000000000000002
Info: NONBONDED TABLE R-SQUARED SPACING: 0.0625
Info: NONBONDED TABLE SIZE: 705 POINTS
TCL: Setting parameter alchLambda2 to 0.8500000000000002
Info: NONBONDED TABLE R-SQUARED SPACING: 0.0625
Info: NONBONDED TABLE SIZE: 705 POINTS
TCL: Running for 1500000 steps
ETITLE: TS BOND ANGLE DIHED IMPRP ELECT VDW BOUNDARY MISC KINETIC TOTAL TEMP POTENTIAL TOTALAVG TEMPAVG PRESSURE GPRESSURE VOLUME PRESSAVG GPRESSAVG
ENERGY: 0 1.9763 15.7335 3.6517 0.0000 -10652.5016 1436.2585 0.0000 0.0000 1725.6879 -7469.1937 293.6283 -9194.8816 -7469.1937 293.6283 -151.8374 -71.1067 30755.5917 -151.8374 -71.1067
ENERGY: 300000 0.5126 7.5110 3.6666 0.0000 -10625.4766 1401.6749 0.0000 0.0000 1722.3095 -7489.8019 293.0534 -9212.1115 -7474.8611 296.5415 -80.0954 -49.0993 30177.1729 145.0988 198.9902
ENERGY: 600000 2.7667 6.6175 3.4079 0.0000 -10782.6563 1459.9758 0.0000 0.0000 1759.5578 -7550.3306 299.3913 -9309.8884 -7487.2106 298.0682 -55.4906 22.3538 30250.3556 90.2460 142.8284
ENERGY: 900000 1.1694 9.1717 3.3890 0.0000 -10655.6386 1437.0390 0.0000 0.0000 1742.1846 -7462.6848 296.4352 -9204.8694 -7483.3371 296.9300 -263.3589 -172.8861 31032.3184 -52.1020 -3.9648
ENERGY: 1200000 1.9973 8.6580 4.7030 0.0000 -10718.8045 1428.9591 0.0000 0.0000 1768.9588 -7505.5283 300.9909 -9274.4871 -7497.1597 296.5342 -89.2853 9.1671 30109.2899 -137.9558 -79.2176
ENERGY: 1500000 2.9552 8.0548 4.1700 0.0000 -10692.1737 1475.8305 0.0000 0.0000 1829.8607 -7371.3026 311.3534 -9201.1632 -7487.3676 297.0631 661.8737 721.4444 30075.3217 -40.8505 7.6538
TCL: Running FEP window  18: Lambda1 0.8500000000000002 Lambda2 0.9000000000000002 [dLambda 0.050000000000000044]
TCL: Setting parameter firsttimestep to 0
TCL: Setting parameter alchLambda to 0.8500000000000002
Info: NONBONDED TABLE R-SQUARED SPACING: 0.0625
Info: NONBONDED TABLE SIZE: 705 POINTS
TCL: Setting parameter alchLambda2 to 0.9000000000000002
Info: NONBONDED TABLE R-SQUARED SPACING: 0.0625
Info: NONBONDED TABLE SIZE: 705 POINTS
TCL: Running for 1500000 steps
ETITLE: TS BOND ANGLE DIHED IMPRP ELECT VDW BOUNDARY MISC KINETIC TOTAL TEMP POTENTIAL TOTALAVG TEMPAVG PRESSURE GPRESSURE VOLUME PRESSAVG GPRESSAVG
ENERGY: 0 2.9552 8.0548 4.1700 0.0000 -10693.3858 1476.8826 0.0000 0.0000 1828.9815 -7372.3418 311.2038 -9201.3233 -7372.3418 311.2038 655.9393 745.9165 30075.3217 655.9393 745.9165
ENERGY: 300000 2.0946 10.0326 3.4706 0.0000 -10697.1709 1416.5732 0.0000 0.0000 1779.6170 -7485.3830 302.8044 -9265.0000 -7443.5160 301.3329 -276.0680 -178.5285 30322.2943 -202.7469 -112.1516
ENERGY: 600000 1.1797 7.6787 3.2200 0.0000 -10789.8311 1475.1718 0.0000 0.0000 1743.5054 -7559.0755 296.6600 -9302.5809 -7469.4510 301.6072 -89.2650 56.2816 30718.3890 -266.4796 -164.4457
ENERGY: 900000 3.1976 9.3841 3.6157 0.0000 -10642.4481 1343.2699 0.0000 0.0000 1778.5329 -7504.4478 302.6199 -9282.9807 -7457.8934 301.3436 -1192.5234 -1080.2359 30788.0403 -375.1264 -277.3619
ENERGY: 1200000 1.4943 9.2753 5.4908 0.0000 -10560.7618 1367.7105 0.0000 0.0000 1743.3683 -7433.4226 296.6366 -9176.7909 -7457.4887 300.4779 -422.1752 -313.7195 30433.2203 -292.3468 -193.4340
ENERGY: 1500000 1.0132 9.6088 3.2171 0.0000 -10759.5218 1424.3579 0.0000 0.0000 1769.9933 -7551.3316 301.1669 -9321.3249 -7462.8764 300.2110 -207.9618 -78.2025 30057.3700 -196.9776 -99.8804
TCL: Running FEP window  19: Lambda1 0.9000000000000002 Lambda2 0.9500000000000003 [dLambda 0.050000000000000044]
TCL: Setting parameter firsttimestep to 0
TCL: Setting parameter alchLambda to 0.9000000000000002
Info: NONBONDED TABLE R-SQUARED SPACING: 0.0625
Info: NONBONDED TABLE SIZE: 705 POINTS
TCL: Setting parameter alchLambda2 to 0.9500000000000003
Info: NONBONDED TABLE R-SQUARED SPACING: 0.0625
Info: NONBONDED TABLE SIZE: 705 POINTS
TCL: Running for 1500000 steps
ETITLE: TS BOND ANGLE DIHED IMPRP ELECT VDW BOUNDARY MISC KINETIC TOTAL TEMP POTENTIAL TOTALAVG TEMPAVG PRESSURE GPRESSURE VOLUME PRESSAVG GPRESSAVG
ENERGY: 0 1.0132 9.6088 3.2171 0.0000 -10760.3700 1424.4821 0.0000 0.0000 1769.1121 -7552.9368 301.0170 -9322.0489 -7552.9368 301.0170 -169.2530 -68.2856 30057.3700 -169.2530 -68.2856
ENERGY: 300000 1.8025 7.4023 4.0297 0.0000 -10726.4703 1436.1624 0.0000 0.0000 1748.8605 -7528.2128 297.5711 -9277.0734 -7521.6976 300.0027 -55.7895 -55.5778 30315.8858 16.7634 73.9485
ENERGY: 600000 1.9396 6.9091 3.4752 0.0000 -10586.8697 1372.2040 0.0000 0.0000 1731.6102 -7470.7315 294.6360 -9202.3417 -7520.3898 299.2150 -480.0477 -529.7712 30703.1591 -68.4708 -17.2875
ENERGY: 900000 2.1750 5.4996 2.8514 0.0000 -10830.0789 1511.9655 0.0000 0.0000 1732.5554 -7575.0319 294.7968 -9307.5874 -7507.5610 298.9235 537.1656 584.4798 30048.7347 -11.6384 42.9313
ENERGY: 1200000 1.2296 7.4905 3.1831 0.0000 -10640.2595 1374.6796 0.0000 0.0000 1726.5967 -7527.0799 293.7829 -9253.6766 -7512.7755 298.4342 -509.9692 -485.6289 30486.9149 -89.4019 -36.6223
ENERGY: 1500000 1.8094 12.1332 4.5267 0.0000 -10685.7939 1389.9272 0.0000 0.0000 1777.8542 -7499.5432 302.5045 -9277.3974 -7507.1004 298.7248 -561.5085 -465.8342 30410.6092 -36.5643 23.7403
TCL: Running FEP window  20: Lambda1 0.9500000000000003 Lambda2 1.0    [dLambda 0.04999999999999971]
TCL: Setting parameter firsttimestep to 0
TCL: Setting parameter alchLambda to 0.9500000000000003
Info: NONBONDED TABLE R-SQUARED SPACING: 0.0625
Info: NONBONDED TABLE SIZE: 705 POINTS
TCL: Setting parameter alchLambda2 to 1.0
Info: NONBONDED TABLE R-SQUARED SPACING: 0.0625
Info: NONBONDED TABLE SIZE: 705 POINTS
TCL: Running for 1500000 steps
ETITLE: TS BOND ANGLE DIHED IMPRP ELECT VDW BOUNDARY MISC KINETIC TOTAL TEMP POTENTIAL TOTALAVG TEMPAVG PRESSURE GPRESSURE VOLUME PRESSAVG GPRESSAVG
ENERGY: 0 1.8094 12.1332 4.5267 0.0000 -10687.2415 1390.3078 0.0000 0.0000 1776.9852 -7501.4791 302.3566 -9278.4643 -7501.4791 302.3566 -539.1413 -452.1253 30410.6092 -539.1413 -452.1253
ENERGY: 300000 1.1896 10.9074 3.5525 0.0000 -10694.4127 1444.3383 0.0000 0.0000 1717.6039 -7516.8211 292.2528 -9234.4250 -7493.7146 295.9400 -62.7518 4.2546 30520.6617 -117.7864 -55.7924
ENERGY: 600000 1.7652 15.2365 4.6197 0.0000 -10792.9218 1536.1067 0.0000 0.0000 1777.9544 -7457.2391 302.5215 -9235.1936 -7484.0339 297.1227 682.6533 754.5883 30580.5502 -6.4430 81.6379
ENERGY: 900000 1.4377 11.0547 3.6040 0.0000 -10631.3123 1406.8136 0.0000 0.0000 1789.6839 -7418.7184 304.5173 -9208.4023 -7496.0168 296.2491 -92.0418 -53.1495 30452.1249 -60.0313 25.8558
ENERGY: 1200000 1.8714 10.1687 3.9315 0.0000 -10535.5173 1336.1576 0.0000 0.0000 1771.6663 -7411.7219 301.4516 -9183.3882 -7493.9841 297.5389 -804.8474 -739.6972 30800.1773 -88.4319 -10.6459
ENERGY: 1500000 6.6231 8.8844 3.3672 0.0000 -10723.3583 1467.6752 0.0000 0.0000 1812.6270 -7424.1813 308.4211 -9236.8084 -7494.3467 298.2903 457.3198 512.1554 30168.8371 -56.3848 18.9620
TCL: Exiting due to exit command.
