Info: SIMULATION PARAMETERS:
Info: TIMESTEP               2
Info: NUMBER OF STEPS        0
Info: STEPS PER CYCLE        10
Info: PERIODIC CELL BASIS 1  31.6717 0 0
Info: PERIODIC CELL BASIS 2  0 30.1367 0
Info: PERIODIC CELL BASIS 3  0 0 31.8423
Info: PERIODIC CELL CENTER   0 0 0
Info: WRAPPING WATERS AROUND PERIODIC BOUNDARIES ON OUTPUT.
Info: WRAPPING ALL CLUSTERS AROUND PERIODIC BOUNDARIES ON OUTPUT.
Info: FIRST LDB TIMESTEP     50
Info: LAST LDB TIMESTEP     -1
Info: HOM BACKGROUND SCALING 1
Info: PME BACKGROUND SCALING 1
Info: MIN ATOMS PER PATCH    40
Info: EMPTY PATCH LOAD       40 ATOMS
Info: VELOCITY FILE          mobley_5494918_equil.vel
Info: CENTER OF MASS MOVING INITIALLY? NO
Info: DIELECTRIC             1
Info: EXCLUDE                SCALED ONE-FOUR
Info: 1-4 ELECTROSTATICS SCALED BY 0.833333
Info: MODIFIED 1-4 VDW PARAMETERS WILL BE USED
Info: DCD FILENAME           mobley_5494918_prod.dcd
Info: DCD FREQUENCY          100000
Info: DCD FIRST STEP         100000
Info: DCD FILE WILL CONTAIN UNIT CELL DATA
Info: XST FILENAME           mobley_5494918_prod.xst
Info: XST FREQUENCY          100000
Info: NO VELOCITY DCD OUTPUT
Info: NO FORCE DCD OUTPUT
Info: OUTPUT FILENAME        mobley_5494918_prod
Info: BINARY OUTPUT FILES WILL BE USED
Info: RESTART FILENAME       mobley_5494918_prod.restart
Info: RESTART FREQUENCY      100000
Info: BINARY RESTART FILES WILL BE USED
Info: CUTOFF                 9
Info: PAIRLIST DISTANCE      11
Info: PAIRLIST SHRINK RATE   0.01
Info: PAIRLIST GROW RATE     0.01
Info: PAIRLIST TRIGGER       0.3
Info: PAIRLISTS PER CYCLE    2
Info: PAIRLISTS ENABLED
Info: MARGIN                 2
Info: HYDROGEN GROUP CUTOFF  2.5
Info: PATCH DIMENSION        15.5
Info: ENERGY OUTPUT STEPS    100000
Info: ENERGY EVALUATION STEPS    100000
Info: OUTPUT ENERGY PRECISION 4
Info: CROSSTERM ENERGY INCLUDED IN DIHEDRAL
Info: TIMING OUTPUT STEPS    1000000
Info: PRESSURE OUTPUT STEPS  100000
Info: ALCHEMICAL FEP ON
Info: FEP CURRENT LAMBDA VALUE     1
Info: FEP COMPARISON LAMBDA VALUE  0.95
Info: FEP INTRA-ALCHEMICAL NON-BONDED INTERACTIONS WILL BE RETAINED
Info: FEP INTRA-ALCHEMICAL BONDED INTERACTIONS WILL BE RETAINED
Info: FEP VDW SHIFTING COEFFICIENT 5
Info: FEP ELEC. ACTIVE FOR ANNIHILATED PARTICLES BETWEEN LAMBDA = 0 AND LAMBDA = 0.5
Info: FEP ELEC. ACTIVE FOR EXNIHILATED PARTICLES BETWEEN LAMBDA = 0.5 AND LAMBDA = 1
Info: FEP VDW ACTIVE FOR ANNIHILATED PARTICLES BETWEEN LAMBDA = 0 AND LAMBDA = 1
Info: FEP VDW ACTIVE FOR EXNIHILATED PARTICLES BETWEEN LAMBDA = 0 AND LAMBDA = 1
Info: FEP BOND ACTIVE FOR ANNIHILATED PARTICLES BETWEEN LAMBDA = 1 AND LAMBDA = 1
Info: FEP BOND ACTIVE FOR EXNIHILATED PARTICLES BETWEEN LAMBDA = 0 AND LAMBDA = 0
Info: LANGEVIN DYNAMICS ACTIVE
Info: LANGEVIN TEMPERATURE   300
Info: LANGEVIN USING BBK INTEGRATOR
Info: LANGEVIN DAMPING COEFFICIENT IS 1 INVERSE PS
Info: LANGEVIN DYNAMICS APPLIED TO HYDROGENS
Info: LANGEVIN PISTON PRESSURE CONTROL ACTIVE
Info:        TARGET PRESSURE IS 1.01325 BAR
Info:     OSCILLATION PERIOD IS 50 FS
Info:             DECAY TIME IS 25 FS
Info:     PISTON TEMPERATURE IS 300 K
Info:       PRESSURE CONTROL IS GROUP-BASED
Info:    INITIAL STRAIN RATE IS -0.000232886 -0.000232886 -0.000232886
Info:       CELL FLUCTUATION IS ISOTROPIC
Info: PARTICLE MESH EWALD (PME) ACTIVE
Info: PME TOLERANCE               1e-06
Info: PME EWALD COEFFICIENT       0.348832
Info: PME INTERPOLATION ORDER     4
Info: PME GRID DIMENSIONS         32 32 32
Info: PME MAXIMUM GRID SPACING    1
Info: PME CALCULATION WILL BE PERFORMED ON GPU
Info: FULL ELECTROSTATIC EVALUATION FREQUENCY      2
Info: USING VERLET I (r-RESPA) MTS SCHEME.
Info: C1 SPLITTING OF LONG RANGE ELECTROSTATICS
Info: PLACING ATOMS IN PATCHES BY HYDROGEN GROUPS
Info: RIGID BONDS TO HYDROGEN : ALL
Info:         ERROR TOLERANCE : 1e-08
Info:          MAX ITERATIONS : 100
Info: RIGID WATER USING SETTLE ALGORITHM
Info: RANDOM NUMBER SEED     1743515255
Info: USE HYDROGEN BONDS?    NO
Info: Using AMBER format force field!
Info: AMBER PARM FILE        mobley_5494918.prmtop
Info: COORDINATE PDB         mobley_5494918.pdb
Info: Exclusions will be read from PARM file!
Info: SCNB (VDW SCALING)     2
Info: USING ARITHMETIC MEAN TO COMBINE L-J SIGMA PARAMETERS
Info: BINARY COORDINATES     mobley_5494918_equil.coor
Info: SUMMARY OF PARAMETERS:
Info: 6 BONDS
Info: 6 ANGLES
Info:   6 HARMONIC
Info:   0 COSINE-BASED
Info: 3 DIHEDRAL
Info: 0 IMPROPER
Info: 0 CROSSTERM
Info: 0 VDW
Info: 15 VDW_PAIRS
Info: 0 NBTHOLE_PAIRS
Info: To read alchdata from file: mobley_5494918.pdb
Info: To read alchflag data from column: 5
Info: STRUCTURE SUMMARY:
Info: 2982 ATOMS
Info: 2981 BONDS
Info: 12 ANGLES
Info: 12 DIHEDRALS
Info: 0 IMPROPERS
Info: 0 CROSSTERMS
Info: 3003 EXCLUSIONS
Info: 2973 RIGID BONDS
Info: ALCH: 0 ATOMS TO DISAPPEAR IN FINAL STATE
Info: ALCH: 9 ATOMS TO APPEAR IN FINAL STATE
Info: 5973 DEGREES OF FREEDOM
Info: 1000 HYDROGEN GROUPS
Info: 3 ATOMS IN LARGEST HYDROGEN GROUP
Info: 1000 MIGRATION GROUPS
Info: 3 ATOMS IN LARGEST MIGRATION GROUP
Info: TOTAL MASS = 18003.9 amu
Info: TOTAL CHARGE = -4.84288e-08 e
Info: MASS DENSITY = 0.983683 g/cm^3
Info: ATOM DENSITY = 0.0981154 atoms/A^3
Info: ADDED 0 IMPLICIT EXCLUSIONS
Info: NONBONDED TABLE R-SQUARED SPACING: 0.0625
Info: NONBONDED TABLE SIZE: 705 POINTS
Info: REMOVING COM VELOCITY 0.0729926 0.0224396 -0.12718
Info: Use 3D box decompostion in PME FFT.
Info: Updated CUDA force table with 4096 elements.
Info: Updated CUDA LJ table with 5 x 5 elements.
Info: Found 12 unique exclusion lists needing 16 bytes
TCL: Running for 1500000 steps
ETITLE: TS BOND ANGLE DIHED IMPRP ELECT VDW BOUNDARY MISC KINETIC TOTAL TEMP POTENTIAL TOTALAVG TEMPAVG PRESSURE GPRESSURE VOLUME PRESSAVG GPRESSAVG
ENERGY: 0 1.8982 1.0663 0.5551 0.0000 -10964.8097 1609.8679 0.0000 0.0000 1774.5622 -7576.8600 299.0123 -9351.4222 -7576.8600 299.0123 1278.8517 1362.7084 30392.7812 1278.8517 1362.7084
ENERGY: 300000 2.8135 2.3706 0.3048 0.0000 -10841.0183 1423.9873 0.0000 0.0000 1787.4152 -7624.1269 301.1780 -9411.5421 -7556.7262 302.1024 -386.2672 -316.6642 30830.0417 141.7529 204.6184
ENERGY: 600000 0.9220 0.4800 0.2209 0.0000 -10786.6615 1387.1739 0.0000 0.0000 1848.1777 -7549.6868 311.4165 -9397.8645 -7575.2071 302.3680 -703.6113 -608.2229 30960.1058 -192.2623 -130.4414
ENERGY: 900000 1.8104 3.2889 1.2147 0.0000 -10823.6127 1428.2678 0.0000 0.0000 1780.1650 -7608.8658 299.9564 -9389.0309 -7573.0788 302.1176 128.9580 208.1569 30123.1687 -220.4308 -157.6414
ENERGY: 1200000 1.6941 0.8846 0.6108 0.0000 -10723.8810 1389.0509 0.0000 0.0000 1769.1643 -7562.4764 298.1028 -9331.6407 -7579.1615 301.0213 -414.4419 -331.1068 30690.9304 -239.8051 -182.8998
ENERGY: 1500000 1.4516 1.6395 0.2087 0.0000 -10738.2779 1454.2203 0.0000 0.0000 1751.6748 -7529.0830 295.1558 -9280.7577 -7578.7694 299.9141 155.7883 175.9352 31542.6436 -158.6524 -100.2066
TCL: Running FEP window   2: Lambda1 0.95   Lambda2 0.8999999999999999 [dLambda -0.050000000000000044]
TCL: Setting parameter firsttimestep to 0
TCL: Setting parameter alchLambda to 0.95
Info: NONBONDED TABLE R-SQUARED SPACING: 0.0625
Info: NONBONDED TABLE SIZE: 705 POINTS
TCL: Setting parameter alchLambda2 to 0.8999999999999999
Info: NONBONDED TABLE R-SQUARED SPACING: 0.0625
Info: NONBONDED TABLE SIZE: 705 POINTS
TCL: Running for 1500000 steps
ETITLE: TS BOND ANGLE DIHED IMPRP ELECT VDW BOUNDARY MISC KINETIC TOTAL TEMP POTENTIAL TOTALAVG TEMPAVG PRESSURE GPRESSURE VOLUME PRESSAVG GPRESSAVG
ENERGY: 0 1.4516 1.6395 0.2087 0.0000 -10738.2327 1454.4622 0.0000 0.0000 1750.8005 -7529.6701 295.0085 -9280.4707 -7529.6701 295.0085 118.6733 172.5894 31542.6436 118.6733 172.5894
ENERGY: 300000 1.1044 5.8585 1.4528 0.0000 -10711.5003 1386.9992 0.0000 0.0000 1753.1495 -7562.9358 295.4043 -9316.0853 -7554.2206 298.9860 -355.1899 -308.5989 30730.4179 -281.7580 -221.5571
ENERGY: 600000 2.9418 3.0431 0.1776 0.0000 -10880.0266 1549.3955 0.0000 0.0000 1818.8372 -7505.6315 306.4726 -9324.4687 -7544.8072 301.0216 847.9939 876.1402 30961.0177 148.7758 198.6601
ENERGY: 900000 1.2406 1.4239 0.6419 0.0000 -10720.9111 1364.6565 0.0000 0.0000 1739.3788 -7613.5694 293.0840 -9352.9482 -7560.2194 299.6596 -765.4497 -744.4353 31009.8288 -29.8820 16.6156
ENERGY: 1200000 2.9367 3.2834 0.6295 0.0000 -10699.2900 1371.2712 0.0000 0.0000 1853.2579 -7467.9113 312.2725 -9321.1691 -7559.1442 299.7361 -310.6245 -270.0844 30647.0073 -53.7008 -2.6546
ENERGY: 1500000 1.9773 3.0296 0.7478 0.0000 -10790.0396 1447.7452 0.0000 0.0000 1712.6112 -7623.9284 288.5736 -9336.5396 -7567.6597 298.5753 -126.3191 -113.5731 30946.7594 -55.7031 -5.0905
TCL: Running FEP window   3: Lambda1 0.8999999999999999 Lambda2 0.8499999999999999 [dLambda -0.050000000000000044]
TCL: Setting parameter firsttimestep to 0
TCL: Setting parameter alchLambda to 0.8999999999999999
Info: NONBONDED TABLE R-SQUARED SPACING: 0.0625
Info: NONBONDED TABLE SIZE: 705 POINTS
TCL: Setting parameter alchLambda2 to 0.8499999999999999
Info: NONBONDED TABLE R-SQUARED SPACING: 0.0625
Info: NONBONDED TABLE SIZE: 705 POINTS
TCL: Running for 1500000 steps
ETITLE: TS BOND ANGLE DIHED IMPRP ELECT VDW BOUNDARY MISC KINETIC TOTAL TEMP POTENTIAL TOTALAVG TEMPAVG PRESSURE GPRESSURE VOLUME PRESSAVG GPRESSAVG
ENERGY: 0 1.9773 3.0296 0.7478 0.0000 -10789.8128 1448.0399 0.0000 0.0000 1711.7297 -7624.2885 288.4251 -9336.0182 -7624.2885 288.4251 -197.5406 -116.8453 30946.7594 -197.5406 -116.8453
ENERGY: 300000 1.9424 1.9063 1.5755 0.0000 -11029.2717 1524.7311 0.0000 0.0000 1776.2740 -7722.8423 299.3008 -9499.1163 -7669.3109 293.9521 448.3107 449.5766 30353.3395 -97.0650 -28.2541
ENERGY: 600000 3.2451 0.9028 0.1900 0.0000 -10939.4309 1555.8790 0.0000 0.0000 1792.7586 -7586.4554 302.0784 -9379.2140 -7635.2032 297.6509 642.7933 694.1853 30840.1608 16.6908 68.9368
ENERGY: 900000 4.5825 3.4381 1.8808 0.0000 -10716.5342 1378.7800 0.0000 0.0000 1754.0199 -7573.8328 295.5510 -9327.8527 -7632.3245 296.7304 -749.8144 -725.5922 31351.8647 -123.5407 -71.7222
ENERGY: 1200000 2.1942 2.2191 0.7495 0.0000 -10918.1548 1523.8359 0.0000 0.0000 1777.0768 -7612.0794 299.4360 -9389.1561 -7615.3827 297.9759 312.6653 379.4484 30877.8685 -121.5029 -68.6400
ENERGY: 1500000 1.2916 3.3796 0.3940 0.0000 -10979.9264 1457.7559 0.0000 0.0000 1774.8540 -7742.2513 299.0615 -9517.1053 -7614.4463 298.4737 -71.0886 -25.4674 30493.8062 -141.7579 -86.2439
TCL: Running FEP window   4: Lambda1 0.8499999999999999 Lambda2 0.7999999999999998 [dLambda -0.050000000000000044]
TCL: Setting parameter firsttimestep to 0
TCL: Setting parameter alchLambda to 0.8499999999999999
Info: NONBONDED TABLE R-SQUARED SPACING: 0.0625
Info: NONBONDED TABLE SIZE: 705 POINTS
TCL: Setting parameter alchLambda2 to 0.7999999999999998
Info: NONBONDED TABLE R-SQUARED SPACING: 0.0625
Info: NONBONDED TABLE SIZE: 705 POINTS
TCL: Running for 1500000 steps
ETITLE: TS BOND ANGLE DIHED IMPRP ELECT VDW BOUNDARY MISC KINETIC TOTAL TEMP POTENTIAL TOTALAVG TEMPAVG PRESSURE GPRESSURE VOLUME PRESSAVG GPRESSAVG
ENERGY: 0 1.2916 3.3796 0.3940 0.0000 -10979.6207 1457.5482 0.0000 0.0000 1773.9776 -7743.0298 298.9138 -9517.0074 -7743.0298 298.9138 -119.8305 -36.2120 30493.8062 -119.8305 -36.2120
ENERGY: 300000 2.7955 1.8446 0.3981 0.0000 -10803.6163 1475.4713 0.0000 0.0000 1734.5527 -7588.5541 292.2708 -9323.1067 -7617.0506 299.6633 47.1589 51.2617 31278.4436 17.5206 69.6438
ENERGY: 600000 0.9922 2.2628 0.3322 0.0000 -10816.7983 1444.8545 0.0000 0.0000 1772.8203 -7595.5364 298.7188 -9368.3567 -7611.4706 299.0475 36.1801 135.1224 30850.8050 95.8918 150.4228
ENERGY: 900000 0.9818 3.0345 0.0424 0.0000 -10814.4038 1428.2461 0.0000 0.0000 1747.2447 -7634.8542 294.4094 -9382.0989 -7614.2092 298.6916 -291.8925 -221.4121 30896.3512 58.9561 121.0999
ENERGY: 1200000 3.4911 2.2842 2.9816 0.0000 -10799.1833 1450.8945 0.0000 0.0000 1789.9557 -7549.5763 301.6061 -9339.5319 -7603.3951 299.3238 -15.5867 47.3015 30891.9805 -5.7607 55.3139
ENERGY: 1500000 1.5555 3.4965 1.3030 0.0000 -10903.3039 1502.8920 0.0000 0.0000 1783.6628 -7610.3941 300.5458 -9394.0569 -7596.3864 299.3448 302.3720 371.1238 30793.2277 -25.8727 38.9978
TCL: Running FEP window   5: Lambda1 0.7999999999999998 Lambda2 0.7499999999999998 [dLambda -0.050000000000000044]
TCL: Setting parameter firsttimestep to 0
TCL: Setting parameter alchLambda to 0.7999999999999998
Info: NONBONDED TABLE R-SQUARED SPACING: 0.0625
Info: NONBONDED TABLE SIZE: 705 POINTS
TCL: Setting parameter alchLambda2 to 0.7499999999999998
Info: NONBONDED TABLE R-SQUARED SPACING: 0.0625
Info: NONBONDED TABLE SIZE: 705 POINTS
TCL: Running for 1500000 steps
ETITLE: TS BOND ANGLE DIHED IMPRP ELECT VDW BOUNDARY MISC KINETIC TOTAL TEMP POTENTIAL TOTALAVG TEMPAVG PRESSURE GPRESSURE VOLUME PRESSAVG GPRESSAVG
ENERGY: 0 1.5555 3.4965 1.3030 0.0000 -10903.2733 1503.1544 0.0000 0.0000 1782.7864 -7610.9775 300.3981 -9393.7639 -7610.9775 300.3981 300.1470 369.1963 30793.2277 300.1470 369.1963
ENERGY: 300000 3.7235 4.6757 0.7445 0.0000 -10851.6765 1448.5718 0.0000 0.0000 1764.3152 -7629.6457 297.2857 -9393.9610 -7592.2874 301.3423 -375.3319 -359.4960 31021.1285 -234.9417 -182.7883
ENERGY: 600000 2.1597 4.0421 0.9082 0.0000 -10872.1839 1416.5307 0.0000 0.0000 1747.1867 -7701.3566 294.3996 -9448.5433 -7578.6708 302.3699 -608.2748 -558.6983 30853.7242 -155.8963 -92.5442
ENERGY: 900000 1.0509 2.0402 0.9436 0.0000 -10806.5883 1456.9588 0.0000 0.0000 1723.2208 -7622.3739 290.3613 -9345.5947 -7578.6279 299.6554 -50.2615 9.9497 30705.5921 -157.0885 -109.3663
ENERGY: 1200000 0.8162 2.6262 0.3720 0.0000 -10940.1400 1516.3902 0.0000 0.0000 1732.4098 -7687.5256 291.9097 -9419.9354 -7575.1658 300.0621 119.0399 141.5261 31103.6824 -93.8557 -45.4274
ENERGY: 1500000 2.3150 1.4958 0.8356 0.0000 -10839.4934 1471.5309 0.0000 0.0000 1765.1381 -7598.1782 297.4244 -9363.3162 -7578.1171 300.3147 48.6627 96.6067 30777.2894 -68.6052 -22.9173
TCL: Running FEP window   6: Lambda1 0.7499999999999998 Lambda2 0.6999999999999997 [dLambda -0.050000000000000044]
TCL: Setting parameter firsttimestep to 0
TCL: Setting parameter alchLambda to 0.7499999999999998
Info: NONBONDED TABLE R-SQUARED SPACING: 0.0625
Info: NONBONDED TABLE SIZE: 705 POINTS
TCL: Setting parameter alchLambda2 to 0.6999999999999997
Info: NONBONDED TABLE R-SQUARED SPACING: 0.0625
Info: NONBONDED TABLE SIZE: 705 POINTS
TCL: Running for 1500000 steps
ETITLE: TS BOND ANGLE DIHED IMPRP ELECT VDW BOUNDARY MISC KINETIC TOTAL TEMP POTENTIAL TOTALAVG TEMPAVG PRESSURE GPRESSURE VOLUME PRESSAVG GPRESSAVG
ENERGY: 0 2.3150 1.4958 0.8356 0.0000 -10839.4603 1471.9334 0.0000 0.0000 1764.3001 -7598.5806 297.2832 -9362.8807 -7598.5806 297.2832 17.5521 95.4614 30777.2894 17.5521 95.4614
ENERGY: 300000 3.4112 2.0096 0.2072 0.0000 -10696.7782 1335.4331 0.0000 0.0000 1781.5952 -7574.1219 300.1974 -9355.7171 -7585.6776 299.5317 -861.9710 -782.0705 30486.1204 -297.6804 -241.8472
ENERGY: 600000 2.7630 3.7529 1.1730 0.0000 -10631.3029 1362.4537 0.0000 0.0000 1815.3261 -7445.8342 305.8810 -9261.1603 -7584.5868 299.8326 -540.7454 -505.1006 31339.4109 -385.5464 -339.2686
ENERGY: 900000 2.7161 2.6014 0.6051 0.0000 -10831.3291 1483.4038 0.0000 0.0000 1740.4856 -7601.5171 293.2705 -9342.0027 -7576.8336 299.7665 248.0766 307.6616 30674.8064 -351.0836 -305.9062
ENERGY: 1200000 1.8663 2.6908 0.6899 0.0000 -10816.7272 1429.6494 0.0000 0.0000 1709.4092 -7672.4217 288.0341 -9381.8309 -7578.0576 299.4113 -472.4256 -364.3128 31072.5610 -326.6464 -278.5638
ENERGY: 1500000 2.4350 3.1190 0.5702 0.0000 -10926.6441 1485.8647 0.0000 0.0000 1835.1335 -7599.5218 309.2185 -9434.6553 -7576.0363 300.1437 418.0583 447.8434 30144.0318 -225.1608 -183.3322
TCL: Running FEP window   7: Lambda1 0.6999999999999997 Lambda2 0.6499999999999997 [dLambda -0.050000000000000044]
TCL: Setting parameter firsttimestep to 0
TCL: Setting parameter alchLambda to 0.6999999999999997
Info: NONBONDED TABLE R-SQUARED SPACING: 0.0625
Info: NONBONDED TABLE SIZE: 705 POINTS
TCL: Setting parameter alchLambda2 to 0.6499999999999997
Info: NONBONDED TABLE R-SQUARED SPACING: 0.0625
Info: NONBONDED TABLE SIZE: 705 POINTS
TCL: Running for 1500000 steps
ETITLE: TS BOND ANGLE DIHED IMPRP ELECT VDW BOUNDARY MISC KINETIC TOTAL TEMP POTENTIAL TOTALAVG TEMPAVG PRESSURE GPRESSURE VOLUME PRESSAVG GPRESSAVG
ENERGY: 0 2.4350 3.1190 0.5702 0.0000 -10926.4999 1485.3995 0.0000 0.0000 1834.2253 -7600.7510 309.0655 -9434.9763 -7600.7510 309.0655 355.8436 437.7234 30144.0318 355.8436 437.7234
ENERGY: 300000 2.8004 4.9887 1.0843 0.0000 -10856.0822 1443.3631 0.0000 0.0000 1851.9780 -7551.8677 312.0568 -9403.8457 -7578.6807 306.5647 -476.2413 -370.1539 31193.5485 312.2559 366.3731
ENERGY: 600000 1.7183 3.0813 0.0817 0.0000 -10861.0389 1479.0236 0.0000 0.0000 1780.9653 -7596.1686 300.0912 -9377.1339 -7591.2707 302.5620 29.2577 99.6454 30780.3499 123.8329 168.5499
ENERGY: 900000 0.4520 3.8011 1.6308 0.0000 -10911.2521 1472.7062 0.0000 0.0000 1776.7142 -7655.9478 299.3749 -9432.6620 -7604.6305 301.5940 251.0436 264.7566 30333.5249 143.3372 187.0419
ENERGY: 1200000 2.4764 4.2399 1.4948 0.0000 -10934.8552 1501.6052 0.0000 0.0000 1793.0716 -7631.9672 302.1312 -9425.0388 -7617.4622 301.5327 182.1228 201.7559 30570.0939 156.1974 198.0413
ENERGY: 1500000 0.6452 2.2526 0.5962 0.0000 -10893.2746 1490.3760 0.0000 0.0000 1772.2879 -7627.1167 298.6291 -9399.4046 -7606.0156 301.6421 -0.4457 123.0645 31061.2769 118.5155 171.5431
TCL: Running FEP window   8: Lambda1 0.6499999999999997 Lambda2 0.5999999999999996 [dLambda -0.050000000000000044]
TCL: Setting parameter firsttimestep to 0
TCL: Setting parameter alchLambda to 0.6499999999999997
Info: NONBONDED TABLE R-SQUARED SPACING: 0.0625
Info: NONBONDED TABLE SIZE: 705 POINTS
TCL: Setting parameter alchLambda2 to 0.5999999999999996
Info: NONBONDED TABLE R-SQUARED SPACING: 0.0625
Info: NONBONDED TABLE SIZE: 705 POINTS
TCL: Running for 1500000 steps
ETITLE: TS BOND ANGLE DIHED IMPRP ELECT VDW BOUNDARY MISC KINETIC TOTAL TEMP POTENTIAL TOTALAVG TEMPAVG PRESSURE GPRESSURE VOLUME PRESSAVG GPRESSAVG
ENERGY: 0 0.6452 2.2526 0.5962 0.0000 -10893.2194 1490.2230 0.0000 0.0000 1771.4117 -7628.0907 298.4815 -9399.5024 -7628.0907 298.4815 24.5950 118.3959 31061.2769 24.5950 118.3959
ENERGY: 300000 3.8770 5.0140 0.8566 0.0000 -10908.1525 1493.0923 0.0000 0.0000 1821.9970 -7583.3156 307.0051 -9405.3126 -7591.9060 302.2771 187.3606 267.9683 30268.5714 318.1176 371.1945
ENERGY: 600000 2.1292 1.9971 0.7316 0.0000 -10812.4336 1487.1570 0.0000 0.0000 1687.4247 -7632.9940 284.3297 -9320.4187 -7618.0074 298.2139 250.6239 290.4677 30887.5339 177.2352 236.2923
ENERGY: 900000 7.8210 3.1409 2.6846 0.0000 -10779.8711 1505.3213 0.0000 0.0000 1845.8490 -7415.0543 311.0241 -9260.9033 -7580.7089 300.2292 441.7910 469.9419 30871.3426 36.3049 101.1552
ENERGY: 1200000 1.8260 1.2753 0.2222 0.0000 -10812.9364 1444.4257 0.0000 0.0000 1787.9695 -7577.2177 301.2714 -9365.1872 -7586.1612 300.6620 -245.9317 -232.1320 30945.3907 25.8129 82.0394
ENERGY: 1500000 2.7606 2.8611 1.6211 0.0000 -10846.5861 1465.8606 0.0000 0.0000 1767.5798 -7605.9029 297.8358 -9373.4827 -7589.8708 300.3607 36.0952 96.8162 30713.8209 -21.6467 29.3814
TCL: Running FEP window   9: Lambda1 0.5999999999999996 Lambda2 0.5499999999999996 [dLambda -0.050000000000000044]
TCL: Setting parameter firsttimestep to 0
TCL: Setting parameter alchLambda to 0.5999999999999996
Info: NONBONDED TABLE R-SQUARED SPACING: 0.0625
Info: NONBONDED TABLE SIZE: 705 POINTS
TCL: Setting parameter alchLambda2 to 0.5499999999999996
Info: NONBONDED TABLE R-SQUARED SPACING: 0.0625
Info: NONBONDED TABLE SIZE: 705 POINTS
TCL: Running for 1500000 steps
ETITLE: TS BOND ANGLE DIHED IMPRP ELECT VDW BOUNDARY MISC KINETIC TOTAL TEMP POTENTIAL TOTALAVG TEMPAVG PRESSURE GPRESSURE VOLUME PRESSAVG GPRESSAVG
ENERGY: 0 2.7606 2.8611 1.6211 0.0000 -10846.6534 1466.1711 0.0000 0.0000 1766.7128 -7606.5266 297.6897 -9373.2394 -7606.5266 297.6897 13.7851 94.7880 30713.8209 13.7851 94.7880
ENERGY: 300000 1.2365 2.7490 3.5513 0.0000 -10708.7165 1370.4034 0.0000 0.0000 1769.2366 -7561.5397 298.1150 -9330.7763 -7583.5082 298.4041 -618.0468 -584.4430 30865.4882 372.8506 407.9713
ENERGY: 600000 3.9051 1.4635 1.5113 0.0000 -10798.0646 1455.4019 0.0000 0.0000 1771.0228 -7564.7600 298.4159 -9335.7828 -7585.0607 297.9267 -66.8103 24.7965 30848.2098 197.5092 239.3386
ENERGY: 900000 2.4328 5.1065 0.7182 0.0000 -10968.3428 1530.6856 0.0000 0.0000 1811.0918 -7618.3079 305.1675 -9429.3997 -7592.5612 298.4507 563.9016 605.2683 30708.7504 239.2494 282.1805
ENERGY: 1200000 0.8347 0.9885 0.8863 0.0000 -10872.2695 1484.5606 0.0000 0.0000 1816.5352 -7568.4643 306.0847 -9384.9994 -7587.5485 299.7814 332.0919 425.5457 30594.3986 175.8487 227.2279
ENERGY: 1500000 4.7741 2.4204 0.5820 0.0000 -10857.9895 1397.2166 0.0000 0.0000 1817.3083 -7635.6882 306.2150 -9452.9965 -7585.9563 300.5659 -572.1674 -515.4959 30522.8863 117.6415 164.8754
TCL: Running FEP window  10: Lambda1 0.5499999999999996 Lambda2 0.4999999999999996 [dLambda -0.04999999999999999]
TCL: Setting parameter firsttimestep to 0
TCL: Setting parameter alchLambda to 0.5499999999999996
Info: NONBONDED TABLE R-SQUARED SPACING: 0.0625
Info: NONBONDED TABLE SIZE: 705 POINTS
TCL: Setting parameter alchLambda2 to 0.4999999999999996
Info: NONBONDED TABLE R-SQUARED SPACING: 0.0625
Info: NONBONDED TABLE SIZE: 705 POINTS
TCL: Running for 1500000 steps
ETITLE: TS BOND ANGLE DIHED IMPRP ELECT VDW BOUNDARY MISC KINETIC TOTAL TEMP POTENTIAL TOTALAVG TEMPAVG PRESSURE GPRESSURE VOLUME PRESSAVG GPRESSAVG
ENERGY: 0 4.7740 2.4204 0.5820 0.0000 -10858.0584 1397.3955 0.0000 0.0000 1816.3575 -7636.5289 306.0548 -9452.8864 -7636.5289 306.0548 -592.5369 -516.5235 30522.8863 -592.5369 -516.5235
ENERGY: 300000 4.9486 2.8364 0.9342 0.0000 -10990.7031 1565.8381 0.0000 0.0000 1755.9281 -7660.2177 295.8725 -9416.1458 -7642.1634 297.6716 505.2185 585.1071 30828.4513 251.1010 300.6879
ENERGY: 600000 6.4433 3.5672 0.8143 0.0000 -10790.7128 1417.5809 0.0000 0.0000 1796.6301 -7565.6770 302.7307 -9362.3071 -7612.6071 299.4082 -617.8873 -534.5640 31345.3410 111.5634 170.2696
ENERGY: 900000 2.3240 2.7568 0.8337 0.0000 -10882.4987 1473.7712 0.0000 0.0000 1735.8815 -7666.9315 292.4947 -9402.8130 -7620.3264 299.0109 6.7701 17.0432 30991.8342 109.8078 164.0726
ENERGY: 1200000 1.9017 1.0636 0.5948 0.0000 -10863.7505 1427.1833 0.0000 0.0000 1852.6285 -7580.3786 312.1664 -9433.0071 -7606.5972 299.3806 -152.1162 -118.0366 30476.4006 56.7254 104.1621
ENERGY: 1500000 5.5580 2.3423 0.0729 0.0000 -10809.5243 1501.2293 0.0000 0.0000 1792.4882 -7507.8336 302.0328 -9300.3218 -7590.4211 299.9737 629.2085 652.9865 30779.1150 -1.8982 49.6023
TCL: Running FEP window  11: Lambda1 0.4999999999999996 Lambda2 0.4499999999999996 [dLambda -0.04999999999999999]
TCL: Setting parameter firsttimestep to 0
TCL: Setting parameter alchLambda to 0.4999999999999996
Info: NONBONDED TABLE R-SQUARED SPACING: 0.0625
Info: NONBONDED TABLE SIZE: 705 POINTS
TCL: Setting parameter alchLambda2 to 0.4499999999999996
Info: NONBONDED TABLE R-SQUARED SPACING: 0.0625
Info: NONBONDED TABLE SIZE: 705 POINTS
TCL: Running for 1500000 steps
ETITLE: TS BOND ANGLE DIHED IMPRP ELECT VDW BOUNDARY MISC KINETIC TOTAL TEMP POTENTIAL TOTALAVG TEMPAVG PRESSURE GPRESSURE VOLUME PRESSAVG GPRESSAVG
ENERGY: 0 5.5580 2.3423 0.0729 0.0000 -10809.6000 1501.5411 0.0000 0.0000 1791.5797 -7508.5060 301.8798 -9300.0857 -7508.5060 301.8798 567.5815 651.0077 30779.1150 567.5815 651.0077
ENERGY: 300000 3.1063 2.8509 0.6137 0.0000 -10913.5844 1521.5174 0.0000 0.0000 1768.5290 -7616.9671 297.9957 -9385.4961 -7561.5820 302.5536 296.6944 384.8900 31199.4421 104.6870 224.7422
ENERGY: 600000 3.3685 1.8697 2.8302 0.0000 -10843.7506 1466.8318 0.0000 0.0000 1750.8599 -7617.9905 295.0185 -9368.8504 -7562.5823 301.1568 -44.9706 19.0618 30677.1950 54.2632 152.5247
ENERGY: 900000 2.9709 2.3868 0.2583 0.0000 -10797.3317 1491.9611 0.0000 0.0000 1827.3778 -7472.3768 307.9117 -9299.7546 -7545.8936 303.0498 354.3589 420.8957 30964.6073 157.7650 251.5675
ENERGY: 1200000 1.3911 0.8295 1.3187 0.0000 -10660.5291 1359.3170 0.0000 0.0000 1807.4433 -7490.2295 304.5528 -9297.6728 -7536.6672 303.0631 -616.3192 -581.6576 30884.4472 72.5827 159.4259
ENERGY: 1500000 2.8554 3.2751 1.3606 0.0000 -10815.8644 1446.9670 0.0000 0.0000 1758.1471 -7603.2592 296.2464 -9361.4063 -7554.8592 301.3440 -137.7136 -83.0006 30922.5405 37.4530 115.2067
TCL: Running FEP window  12: Lambda1 0.4499999999999996 Lambda2 0.39999999999999963 [dLambda -0.04999999999999999]
TCL: Setting parameter firsttimestep to 0
TCL: Setting parameter alchLambda to 0.4499999999999996
Info: NONBONDED TABLE R-SQUARED SPACING: 0.0625
Info: NONBONDED TABLE SIZE: 705 POINTS
TCL: Setting parameter alchLambda2 to 0.39999999999999963
Info: NONBONDED TABLE R-SQUARED SPACING: 0.0625
Info: NONBONDED TABLE SIZE: 705 POINTS
TCL: Running for 1500000 steps
ETITLE: TS BOND ANGLE DIHED IMPRP ELECT VDW BOUNDARY MISC KINETIC TOTAL TEMP POTENTIAL TOTALAVG TEMPAVG PRESSURE GPRESSURE VOLUME PRESSAVG GPRESSAVG
ENERGY: 0 2.8554 3.2751 1.3606 0.0000 -10815.8643 1447.0854 0.0000 0.0000 1757.2769 -7604.0108 296.0998 -9361.2878 -7604.0108 296.0998 -146.8328 -87.7520 30922.5405 -146.8328 -87.7520
ENERGY: 300000 3.8836 1.7344 2.1811 0.0000 -10738.7997 1386.1785 0.0000 0.0000 1755.4436 -7589.3785 295.7909 -9344.8221 -7615.7129 296.7804 -589.3234 -476.2397 30720.8405 -10.4637 32.5041
ENERGY: 600000 1.8706 1.4158 3.2979 0.0000 -10703.1753 1398.2737 0.0000 0.0000 1793.5972 -7504.7201 302.2197 -9298.3174 -7595.3740 296.9063 -413.4688 -290.9675 30857.9555 -153.8825 -94.7485
ENERGY: 900000 4.6007 3.5670 0.6976 0.0000 -10806.1086 1371.8311 0.0000 0.0000 1763.1172 -7662.2950 297.0839 -9425.4122 -7602.2301 296.8874 -886.3429 -840.7375 30610.1596 -171.0825 -121.0840
ENERGY: 1200000 4.4891 3.4774 1.9308 0.0000 -10829.9315 1489.2230 0.0000 0.0000 1775.2266 -7555.5847 299.1243 -9330.8113 -7597.7364 298.0509 342.7892 436.8228 30822.2033 -103.2001 -50.2939
ENERGY: 1500000 1.6938 1.3641 1.6258 0.0000 -10989.6862 1580.8339 0.0000 0.0000 1796.3837 -7607.7849 302.6892 -9404.1686 -7594.3662 299.2120 1284.9158 1317.8630 30149.2482 70.9120 122.3927
TCL: Running FEP window  13: Lambda1 0.39999999999999963 Lambda2 0.34999999999999964 [dLambda -0.04999999999999999]
TCL: Setting parameter firsttimestep to 0
TCL: Setting parameter alchLambda to 0.39999999999999963
Info: NONBONDED TABLE R-SQUARED SPACING: 0.0625
Info: NONBONDED TABLE SIZE: 705 POINTS
TCL: Setting parameter alchLambda2 to 0.34999999999999964
Info: NONBONDED TABLE R-SQUARED SPACING: 0.0625
Info: NONBONDED TABLE SIZE: 705 POINTS
TCL: Running for 1500000 steps
ETITLE: TS BOND ANGLE DIHED IMPRP ELECT VDW BOUNDARY MISC KINETIC TOTAL TEMP POTENTIAL TOTALAVG TEMPAVG PRESSURE GPRESSURE VOLUME PRESSAVG GPRESSAVG
ENERGY: 0 1.6938 1.3641 1.6258 0.0000 -10989.6862 1580.7234 0.0000 0.0000 1795.4900 -7608.7891 302.5386 -9404.2791 -7608.7891 302.5386 1215.8569 1315.3282 30149.2482 1215.8569 1315.3282
ENERGY: 300000 2.8299 2.7090 0.9279 0.0000 -10944.4930 1512.2340 0.0000 0.0000 1722.2149 -7703.5773 290.1919 -9425.7922 -7591.5272 298.4964 208.1150 188.5422 30451.6605 123.7668 178.0477
ENERGY: 600000 1.4237 2.5104 0.4971 0.0000 -10826.9364 1479.4575 0.0000 0.0000 1744.6029 -7598.4448 293.9642 -9343.0477 -7565.7039 298.4715 417.3049 434.9216 30451.4878 158.3181 204.3429
ENERGY: 900000 2.2325 2.4016 0.1575 0.0000 -11015.5369 1582.6206 0.0000 0.0000 1743.1157 -7685.0091 293.7136 -9428.1248 -7577.8663 297.9998 761.1110 765.2183 30631.0540 116.2399 152.9831
ENERGY: 1200000 3.7045 3.9513 0.3189 0.0000 -10796.8162 1451.8733 0.0000 0.0000 1776.7839 -7560.1843 299.3867 -9336.9682 -7580.4472 299.0772 224.5342 264.9121 30598.2644 103.2885 146.4362
ENERGY: 1500000 1.0656 3.0235 0.3854 0.0000 -10992.6209 1570.9032 0.0000 0.0000 1766.2432 -7650.9999 297.6106 -9417.2431 -7587.1321 299.0158 911.1063 1043.4568 30170.0584 180.6649 230.9508
TCL: Running FEP window  14: Lambda1 0.34999999999999964 Lambda2 0.29999999999999966 [dLambda -0.04999999999999999]
TCL: Setting parameter firsttimestep to 0
TCL: Setting parameter alchLambda to 0.34999999999999964
Info: NONBONDED TABLE R-SQUARED SPACING: 0.0625
Info: NONBONDED TABLE SIZE: 705 POINTS
TCL: Setting parameter alchLambda2 to 0.29999999999999966
Info: NONBONDED TABLE R-SQUARED SPACING: 0.0625
Info: NONBONDED TABLE SIZE: 705 POINTS
TCL: Running for 1500000 steps
ETITLE: TS BOND ANGLE DIHED IMPRP ELECT VDW BOUNDARY MISC KINETIC TOTAL TEMP POTENTIAL TOTALAVG TEMPAVG PRESSURE GPRESSURE VOLUME PRESSAVG GPRESSAVG
ENERGY: 0 1.0656 3.0235 0.3854 0.0000 -10992.6205 1570.4869 0.0000 0.0000 1765.2886 -7652.3705 297.4497 -9417.6591 -7652.3705 297.4497 953.6319 1036.6328 30170.0584 953.6319 1036.6328
ENERGY: 300000 3.0999 4.3920 1.0557 0.0000 -10944.1677 1505.9243 0.0000 0.0000 1746.5695 -7683.1263 294.2956 -9429.6958 -7623.4912 298.3105 413.8509 445.9870 30318.9647 224.8499 270.8379
ENERGY: 600000 2.6027 1.4174 0.5073 0.0000 -10735.0997 1401.4717 0.0000 0.0000 1797.7465 -7531.3540 302.9189 -9329.1006 -7606.2802 298.6562 -173.4977 -155.0709 30690.5163 26.1354 79.2396
ENERGY: 900000 1.0155 2.8997 0.7235 0.0000 -10926.8055 1473.7832 0.0000 0.0000 1803.9490 -7644.4346 303.9640 -9448.3836 -7609.0213 298.2708 265.7841 290.0447 30020.5782 11.7824 71.0916
ENERGY: 1200000 0.4561 2.7256 1.8022 0.0000 -10914.5795 1507.7734 0.0000 0.0000 1821.0513 -7580.7710 306.8457 -9401.8223 -7604.2592 299.4214 455.9509 470.3665 30455.0049 -108.6574 -53.5529
ENERGY: 1500000 1.9158 4.9959 1.0643 0.0000 -10921.4385 1543.2956 0.0000 0.0000 1762.5102 -7607.6567 296.9816 -9370.1669 -7601.3545 299.8200 647.4566 686.6173 30603.5399 -12.7634 40.2067
TCL: Running FEP window  15: Lambda1 0.29999999999999966 Lambda2 0.24999999999999967 [dLambda -0.04999999999999999]
TCL: Setting parameter firsttimestep to 0
TCL: Setting parameter alchLambda to 0.29999999999999966
Info: NONBONDED TABLE R-SQUARED SPACING: 0.0625
Info: NONBONDED TABLE SIZE: 705 POINTS
TCL: Setting parameter alchLambda2 to 0.24999999999999967
Info: NONBONDED TABLE R-SQUARED SPACING: 0.0625
Info: NONBONDED TABLE SIZE: 705 POINTS
TCL: Running for 1500000 steps
ETITLE: TS BOND ANGLE DIHED IMPRP ELECT VDW BOUNDARY MISC KINETIC TOTAL TEMP POTENTIAL TOTALAVG TEMPAVG PRESSURE GPRESSURE VOLUME PRESSAVG GPRESSAVG
ENERGY: 0 1.9158 4.9959 1.0643 0.0000 -10921.4395 1543.1237 0.0000 0.0000 1761.6489 -7608.6910 296.8364 -9370.3399 -7608.6910 296.8364 600.9937 681.1895 30603.5399 600.9937 681.1895
ENERGY: 300000 1.5001 2.9646 1.7786 0.0000 -10801.1889 1478.1596 0.0000 0.0000 1831.6565 -7485.1297 308.6327 -9316.7861 -7587.5145 299.6015 329.6339 328.6305 30787.4079 287.3182 335.9045
ENERGY: 600000 3.2791 4.2660 0.4053 0.0000 -10770.4783 1400.3270 0.0000 0.0000 1780.9931 -7581.2078 300.0959 -9362.2009 -7590.8272 299.8105 -637.1763 -548.9849 30820.4529 -69.7640 -2.6094
ENERGY: 900000 1.9787 2.7231 0.9458 0.0000 -10894.3459 1500.5108 0.0000 0.0000 1817.0085 -7571.1791 306.1645 -9388.1876 -7593.6054 300.5804 267.7127 330.7409 30758.5108 -18.1420 59.3541
ENERGY: 1200000 0.2928 2.6327 2.3110 0.0000 -10832.6343 1405.7804 0.0000 0.0000 1796.3646 -7625.2528 302.6860 -9421.6173 -7591.6780 301.3223 -376.3502 -298.2157 30428.2177 -70.7094 7.9309
ENERGY: 1500000 1.1682 5.9688 0.8759 0.0000 -10775.4714 1450.2841 0.0000 0.0000 1841.1699 -7476.0046 310.2357 -9317.1745 -7581.3451 301.5566 193.1817 267.0908 30683.7008 -61.9617 13.0865
TCL: Running FEP window  16: Lambda1 0.24999999999999967 Lambda2 0.19999999999999968 [dLambda -0.04999999999999999]
TCL: Setting parameter firsttimestep to 0
TCL: Setting parameter alchLambda to 0.24999999999999967
Info: NONBONDED TABLE R-SQUARED SPACING: 0.0625
Info: NONBONDED TABLE SIZE: 705 POINTS
TCL: Setting parameter alchLambda2 to 0.19999999999999968
Info: NONBONDED TABLE R-SQUARED SPACING: 0.0625
Info: NONBONDED TABLE SIZE: 705 POINTS
TCL: Running for 1500000 steps
ETITLE: TS BOND ANGLE DIHED IMPRP ELECT VDW BOUNDARY MISC KINETIC TOTAL TEMP POTENTIAL TOTALAVG TEMPAVG PRESSURE GPRESSURE VOLUME PRESSAVG GPRESSAVG
ENERGY: 0 1.1682 5.9688 0.8759 0.0000 -10775.4726 1449.6106 0.0000 0.0000 1840.2446 -7477.6045 310.0798 -9317.8491 -7477.6045 310.0798 174.5012 260.5376 30683.7008 174.5012 260.5376
ENERGY: 300000 1.4855 1.5850 0.0123 0.0000 -10699.1871 1386.7311 0.0000 0.0000 1812.6439 -7496.7293 305.4291 -9309.3733 -7510.4938 306.7286 -531.9116 -537.7231 31266.0362 66.3139 85.6812
ENERGY: 600000 1.9856 1.8156 1.4266 0.0000 -10811.7093 1404.7302 0.0000 0.0000 1799.5262 -7602.2250 303.2187 -9401.7512 -7540.9247 305.2547 -568.1809 -499.8131 30358.5155 -197.4731 -154.8690
ENERGY: 900000 2.3451 1.4484 0.3199 0.0000 -10833.3354 1430.9794 0.0000 0.0000 1702.1782 -7696.0645 286.8157 -9398.2427 -7549.4533 303.3430 -123.4056 -34.0904 30172.9287 -187.0875 -121.2392
ENERGY: 1200000 1.6909 2.8217 0.4113 0.0000 -10740.2839 1383.5408 0.0000 0.0000 1739.0968 -7612.7224 293.0364 -9351.8192 -7565.2504 302.0234 -438.6810 -373.8338 30469.1850 -272.6259 -212.6769
ENERGY: 1500000 0.9967 1.9921 2.1661 0.0000 -10762.1486 1470.9044 0.0000 0.0000 1804.0107 -7482.0786 303.9744 -9286.0893 -7565.9113 301.9370 348.2866 371.3141 30600.3346 -191.4011 -137.3395
TCL: Running FEP window  17: Lambda1 0.19999999999999968 Lambda2 0.1499999999999997 [dLambda -0.04999999999999999]
TCL: Setting parameter firsttimestep to 0
TCL: Setting parameter alchLambda to 0.19999999999999968
Info: NONBONDED TABLE R-SQUARED SPACING: 0.0625
Info: NONBONDED TABLE SIZE: 705 POINTS
TCL: Setting parameter alchLambda2 to 0.1499999999999997
Info: NONBONDED TABLE R-SQUARED SPACING: 0.0625
Info: NONBONDED TABLE SIZE: 705 POINTS
TCL: Running for 1500000 steps
ETITLE: TS BOND ANGLE DIHED IMPRP ELECT VDW BOUNDARY MISC KINETIC TOTAL TEMP POTENTIAL TOTALAVG TEMPAVG PRESSURE GPRESSURE VOLUME PRESSAVG GPRESSAVG
ENERGY: 0 0.9967 1.9921 2.1661 0.0000 -10762.1463 1470.8369 0.0000 0.0000 1803.1210 -7483.0334 303.8245 -9286.1544 -7483.0334 303.8245 269.4345 367.7840 30600.3346 269.4345 367.7840
ENERGY: 300000 3.3033 2.7573 0.6277 0.0000 -10765.9010 1432.7726 0.0000 0.0000 1770.5982 -7555.8420 298.3444 -9326.4401 -7515.3443 302.2045 -367.4029 -350.3350 31098.3082 -209.0912 -167.4530
ENERGY: 600000 3.5212 3.5181 2.8875 0.0000 -10833.2259 1516.4573 0.0000 0.0000 1775.7074 -7531.1343 299.2053 -9306.8417 -7524.2224 301.8368 306.6908 352.5831 30943.7347 -97.1038 -34.0091
ENERGY: 900000 2.9424 2.4682 1.4359 0.0000 -10805.5695 1429.5330 0.0000 0.0000 1710.8793 -7658.3107 288.2818 -9369.1900 -7557.1134 299.8906 -346.3744 -262.9357 30826.5984 52.9068 110.0147
ENERGY: 1200000 1.5219 2.8747 1.0325 0.0000 -10884.2874 1511.1679 0.0000 0.0000 1803.2920 -7564.3983 303.8533 -9367.6903 -7559.3868 300.9473 649.0386 746.7328 30261.7686 74.6625 136.5198
ENERGY: 1500000 3.0167 0.9524 0.5175 0.0000 -10943.8251 1546.1138 0.0000 0.0000 1803.4854 -7589.7394 303.8859 -9393.2248 -7572.3219 300.5132 783.7613 864.3567 30441.8154 203.4840 263.6833
TCL: Running FEP window  18: Lambda1 0.1499999999999997 Lambda2 0.09999999999999969 [dLambda -0.05 ]
TCL: Setting parameter firsttimestep to 0
TCL: Setting parameter alchLambda to 0.1499999999999997
Info: NONBONDED TABLE R-SQUARED SPACING: 0.0625
Info: NONBONDED TABLE SIZE: 705 POINTS
TCL: Setting parameter alchLambda2 to 0.09999999999999969
Info: NONBONDED TABLE R-SQUARED SPACING: 0.0625
Info: NONBONDED TABLE SIZE: 705 POINTS
TCL: Running for 1500000 steps
ETITLE: TS BOND ANGLE DIHED IMPRP ELECT VDW BOUNDARY MISC KINETIC TOTAL TEMP POTENTIAL TOTALAVG TEMPAVG PRESSURE GPRESSURE VOLUME PRESSAVG GPRESSAVG
ENERGY: 0 3.0167 0.9524 0.5175 0.0000 -10943.8255 1545.6030 0.0000 0.0000 1802.5622 -7591.1737 303.7303 -9393.7359 -7591.1737 303.7303 767.1782 861.2592 30441.8154 767.1782 861.2592
ENERGY: 300000 1.8139 3.7572 0.7061 0.0000 -10803.5771 1427.0356 0.0000 0.0000 1800.4954 -7569.7689 303.3820 -9370.2642 -7576.1790 304.3940 -179.4546 -148.5908 30529.4261 27.9006 86.8533
ENERGY: 600000 2.8599 0.8351 0.0150 0.0000 -10784.7300 1426.3027 0.0000 0.0000 1750.3301 -7604.3872 294.9292 -9354.7173 -7581.8710 301.6333 -504.3494 -500.2925 31149.7253 -161.0792 -101.6073
ENERGY: 900000 2.7881 2.4215 0.1583 0.0000 -10889.5081 1521.0638 0.0000 0.0000 1838.5628 -7524.5137 309.7964 -9363.0765 -7584.8679 300.9530 462.9098 521.9561 30681.9482 -84.1944 -17.6207
ENERGY: 1200000 1.2865 3.2856 0.2651 0.0000 -10953.4986 1513.6786 0.0000 0.0000 1817.4726 -7617.5102 306.2427 -9434.9828 -7590.4220 301.8125 238.6514 340.7971 30646.4766 -97.5240 -25.6790
ENERGY: 1500000 1.6161 2.4047 0.2601 0.0000 -10668.6544 1428.4322 0.0000 0.0000 1774.7089 -7461.2323 299.0370 -9235.9412 -7593.4091 301.0100 -66.7840 12.4853 30942.5895 -136.9964 -65.7129
TCL: Running FEP window  19: Lambda1 0.09999999999999969 Lambda2 0.049999999999999684 [dLambda -0.05 ]
TCL: Setting parameter firsttimestep to 0
TCL: Setting parameter alchLambda to 0.09999999999999969
Info: NONBONDED TABLE R-SQUARED SPACING: 0.0625
Info: NONBONDED TABLE SIZE: 705 POINTS
TCL: Setting parameter alchLambda2 to 0.049999999999999684
Info: NONBONDED TABLE R-SQUARED SPACING: 0.0625
Info: NONBONDED TABLE SIZE: 705 POINTS
TCL: Running for 1500000 steps
ETITLE: TS BOND ANGLE DIHED IMPRP ELECT VDW BOUNDARY MISC KINETIC TOTAL TEMP POTENTIAL TOTALAVG TEMPAVG PRESSURE GPRESSURE VOLUME PRESSAVG GPRESSAVG
ENERGY: 0 1.6161 2.4047 0.2601 0.0000 -10668.6541 1427.7917 0.0000 0.0000 1773.8290 -7462.7524 298.8888 -9236.5814 -7462.7524 298.8888 -75.0248 9.2126 30942.5895 -75.0248 9.2126
ENERGY: 300000 1.1700 5.1576 1.7670 0.0000 -10899.9805 1417.6230 0.0000 0.0000 1759.0562 -7715.2066 296.3996 -9474.2629 -7626.7040 300.0152 -860.1047 -721.3359 30651.7887 -416.6602 -345.8436
ENERGY: 600000 2.5697 5.9842 0.7995 0.0000 -10791.0135 1444.3496 0.0000 0.0000 1751.3607 -7585.9498 295.1029 -9337.3105 -7599.9860 300.2105 -143.0587 -53.9412 30626.8189 -228.1087 -155.2488
ENERGY: 900000 2.4208 0.5077 0.0233 0.0000 -10866.6605 1463.0014 0.0000 0.0000 1782.1066 -7618.6007 300.2836 -9400.7073 -7605.0396 300.2336 128.9385 212.3888 30392.3991 -241.8812 -171.3967
ENERGY: 1200000 1.4205 2.2234 0.8154 0.0000 -10767.7947 1383.8058 0.0000 0.0000 1782.5401 -7596.9895 300.3566 -9379.5297 -7598.5288 300.6591 -612.8921 -517.4548 30529.4275 -251.0839 -177.3752
ENERGY: 1500000 2.4789 2.1250 0.2067 0.0000 -10827.1869 1424.4155 0.0000 0.0000 1757.7495 -7640.2114 296.1794 -9397.9609 -7589.1650 300.8746 -292.0731 -254.0846 30568.2617 -199.3646 -128.8699
TCL: Running FEP window  20: Lambda1 0.049999999999999684 Lambda2 0.0    [dLambda -0.049999999999999684]
TCL: Setting parameter firsttimestep to 0
TCL: Setting parameter alchLambda to 0.049999999999999684
Info: NONBONDED TABLE R-SQUARED SPACING: 0.0625
Info: NONBONDED TABLE SIZE: 705 POINTS
TCL: Setting parameter alchLambda2 to 0.0
Info: NONBONDED TABLE R-SQUARED SPACING: 0.0625
Info: NONBONDED TABLE SIZE: 705 POINTS
TCL: Running for 1500000 steps
ETITLE: TS BOND ANGLE DIHED IMPRP ELECT VDW BOUNDARY MISC KINETIC TOTAL TEMP POTENTIAL TOTALAVG TEMPAVG PRESSURE GPRESSURE VOLUME PRESSAVG GPRESSAVG
ENERGY: 0 2.4789 2.1250 0.2067 0.0000 -10827.1892 1423.3221 0.0000 0.0000 1756.8468 -7642.2098 296.0273 -9399.0566 -7642.2098 296.0273 -342.5304 -259.5210 30568.2617 -342.5304 -259.5210
ENERGY: 300000 3.6971 1.2466 3.3615 0.0000 -10978.4636 1518.1242 0.0000 0.0000 1771.5133 -7680.5208 298.4986 -9452.0341 -7612.0479 299.6332 562.7903 671.5498 29900.9708 129.6596 190.1205
ENERGY: 600000 3.9935 2.2159 0.7290 0.0000 -10791.4364 1456.8997 0.0000 0.0000 1821.6531 -7505.9451 306.9471 -9327.5982 -7588.0360 300.5363 104.4069 160.2354 30612.4477 294.5828 351.7871
ENERGY: 900000 2.6508 5.1434 1.3967 0.0000 -10803.7198 1472.0844 0.0000 0.0000 1840.5532 -7481.8914 310.1318 -9322.4446 -7576.7963 301.5750 147.8690 204.6619 31076.1822 186.8772 243.3891
ENERGY: 1200000 1.6011 3.2925 1.3373 0.0000 -10879.5691 1498.2252 0.0000 0.0000 1757.2905 -7617.8226 296.1021 -9375.1131 -7581.1139 301.1151 238.9500 282.9487 30709.8689 139.7700 196.4606
ENERGY: 1500000 0.6950 2.6028 2.3880 0.0000 -10832.5479 1462.2972 0.0000 0.0000 1799.8943 -7564.6707 303.2808 -9364.5650 -7572.3724 301.5051 370.6005 327.0568 30550.6498 179.2222 228.3894
TCL: Exiting due to exit command.
