Info: SIMULATION PARAMETERS:
Info: TIMESTEP               2
Info: NUMBER OF STEPS        0
Info: STEPS PER CYCLE        10
Info: PERIODIC CELL BASIS 1  30.8634 0 0
Info: PERIODIC CELL BASIS 2  0 29.3884 0
Info: PERIODIC CELL BASIS 3  0 0 33.038
Info: PERIODIC CELL CENTER   0 0 0
Info: WRAPPING WATERS AROUND PERIODIC BOUNDARIES ON OUTPUT.
Info: WRAPPING ALL CLUSTERS AROUND PERIODIC BOUNDARIES ON OUTPUT.
Info: FIRST LDB TIMESTEP     50
Info: LAST LDB TIMESTEP     -1
Info: HOM BACKGROUND SCALING 1
Info: PME BACKGROUND SCALING 1
Info: MIN ATOMS PER PATCH    40
Info: EMPTY PATCH LOAD       40 ATOMS
Info: VELOCITY FILE          mobley_7599023_equil.vel
Info: CENTER OF MASS MOVING INITIALLY? NO
Info: DIELECTRIC             1
Info: EXCLUDE                SCALED ONE-FOUR
Info: 1-4 ELECTROSTATICS SCALED BY 0.833333
Info: MODIFIED 1-4 VDW PARAMETERS WILL BE USED
Info: DCD FILENAME           mobley_7599023_prod.dcd
Info: DCD FREQUENCY          100000
Info: DCD FIRST STEP         100000
Info: DCD FILE WILL CONTAIN UNIT CELL DATA
Info: XST FILENAME           mobley_7599023_prod.xst
Info: XST FREQUENCY          100000
Info: NO VELOCITY DCD OUTPUT
Info: NO FORCE DCD OUTPUT
Info: OUTPUT FILENAME        mobley_7599023_prod
Info: BINARY OUTPUT FILES WILL BE USED
Info: RESTART FILENAME       mobley_7599023_prod.restart
Info: RESTART FREQUENCY      100000
Info: BINARY RESTART FILES WILL BE USED
Info: CUTOFF                 9
Info: PAIRLIST DISTANCE      11
Info: PAIRLIST SHRINK RATE   0.01
Info: PAIRLIST GROW RATE     0.01
Info: PAIRLIST TRIGGER       0.3
Info: PAIRLISTS PER CYCLE    2
Info: PAIRLISTS ENABLED
Info: MARGIN                 2
Info: HYDROGEN GROUP CUTOFF  2.5
Info: PATCH DIMENSION        15.5
Info: ENERGY OUTPUT STEPS    100000
Info: ENERGY EVALUATION STEPS    100000
Info: OUTPUT ENERGY PRECISION 4
Info: CROSSTERM ENERGY INCLUDED IN DIHEDRAL
Info: TIMING OUTPUT STEPS    1000000
Info: PRESSURE OUTPUT STEPS  100000
Info: ALCHEMICAL FEP ON
Info: FEP CURRENT LAMBDA VALUE     1
Info: FEP COMPARISON LAMBDA VALUE  0.95
Info: FEP INTRA-ALCHEMICAL NON-BONDED INTERACTIONS WILL BE RETAINED
Info: FEP INTRA-ALCHEMICAL BONDED INTERACTIONS WILL BE RETAINED
Info: FEP VDW SHIFTING COEFFICIENT 5
Info: FEP ELEC. ACTIVE FOR ANNIHILATED PARTICLES BETWEEN LAMBDA = 0 AND LAMBDA = 0.5
Info: FEP ELEC. ACTIVE FOR EXNIHILATED PARTICLES BETWEEN LAMBDA = 0.5 AND LAMBDA = 1
Info: FEP VDW ACTIVE FOR ANNIHILATED PARTICLES BETWEEN LAMBDA = 0 AND LAMBDA = 1
Info: FEP VDW ACTIVE FOR EXNIHILATED PARTICLES BETWEEN LAMBDA = 0 AND LAMBDA = 1
Info: FEP BOND ACTIVE FOR ANNIHILATED PARTICLES BETWEEN LAMBDA = 1 AND LAMBDA = 1
Info: FEP BOND ACTIVE FOR EXNIHILATED PARTICLES BETWEEN LAMBDA = 0 AND LAMBDA = 0
Info: LANGEVIN DYNAMICS ACTIVE
Info: LANGEVIN TEMPERATURE   300
Info: LANGEVIN USING BBK INTEGRATOR
Info: LANGEVIN DAMPING COEFFICIENT IS 1 INVERSE PS
Info: LANGEVIN DYNAMICS APPLIED TO HYDROGENS
Info: LANGEVIN PISTON PRESSURE CONTROL ACTIVE
Info:        TARGET PRESSURE IS 1.01325 BAR
Info:     OSCILLATION PERIOD IS 50 FS
Info:             DECAY TIME IS 25 FS
Info:     PISTON TEMPERATURE IS 300 K
Info:       PRESSURE CONTROL IS GROUP-BASED
Info:    INITIAL STRAIN RATE IS 0.00044252 0.00044252 0.00044252
Info:       CELL FLUCTUATION IS ISOTROPIC
Info: PARTICLE MESH EWALD (PME) ACTIVE
Info: PME TOLERANCE               1e-06
Info: PME EWALD COEFFICIENT       0.348832
Info: PME INTERPOLATION ORDER     4
Info: PME GRID DIMENSIONS         32 32 36
Info: PME MAXIMUM GRID SPACING    1
Info: PME CALCULATION WILL BE PERFORMED ON GPU
Info: FULL ELECTROSTATIC EVALUATION FREQUENCY      2
Info: USING VERLET I (r-RESPA) MTS SCHEME.
Info: C1 SPLITTING OF LONG RANGE ELECTROSTATICS
Info: PLACING ATOMS IN PATCHES BY HYDROGEN GROUPS
Info: RIGID BONDS TO HYDROGEN : ALL
Info:         ERROR TOLERANCE : 1e-08
Info:          MAX ITERATIONS : 100
Info: RIGID WATER USING SETTLE ALGORITHM
Info: RANDOM NUMBER SEED     1743551998
Info: USE HYDROGEN BONDS?    NO
Info: Using AMBER format force field!
Info: AMBER PARM FILE        mobley_7599023.prmtop
Info: COORDINATE PDB         mobley_7599023.pdb
Info: Exclusions will be read from PARM file!
Info: SCNB (VDW SCALING)     2
Info: USING ARITHMETIC MEAN TO COMBINE L-J SIGMA PARAMETERS
Info: BINARY COORDINATES     mobley_7599023_equil.coor
Info: SUMMARY OF PARAMETERS:
Info: 5 BONDS
Info: 3 ANGLES
Info:   3 HARMONIC
Info:   0 COSINE-BASED
Info: 2 DIHEDRAL
Info: 0 IMPROPER
Info: 0 CROSSTERM
Info: 0 VDW
Info: 15 VDW_PAIRS
Info: 0 NBTHOLE_PAIRS
Info: To read alchdata from file: mobley_7599023.pdb
Info: To read alchflag data from column: 5
Info: STRUCTURE SUMMARY:
Info: 2925 ATOMS
Info: 2925 BONDS
Info: 18 ANGLES
Info: 30 DIHEDRALS
Info: 0 IMPROPERS
Info: 0 CROSSTERMS
Info: 2964 EXCLUSIONS
Info: 2918 RIGID BONDS
Info: ALCH: 0 ATOMS TO DISAPPEAR IN FINAL STATE
Info: ALCH: 12 ATOMS TO APPEAR IN FINAL STATE
Info: 5857 DEGREES OF FREEDOM
Info: 978 HYDROGEN GROUPS
Info: 3 ATOMS IN LARGEST HYDROGEN GROUP
Info: 978 MIGRATION GROUPS
Info: 3 ATOMS IN LARGEST MIGRATION GROUP
Info: TOTAL MASS = 17650.5 amu
Info: TOTAL CHARGE = -5.58794e-09 e
Info: MASS DENSITY = 0.9781 g/cm^3
Info: ATOM DENSITY = 0.0976095 atoms/A^3
Info: ADDED 0 IMPLICIT EXCLUSIONS
Info: NONBONDED TABLE R-SQUARED SPACING: 0.0625
Info: NONBONDED TABLE SIZE: 705 POINTS
Info: REMOVING COM VELOCITY -0.0889622 -0.104482 0.108769
Info: Use 3D box decompostion in PME FFT.
Info: Updated CUDA force table with 4096 elements.
Info: Updated CUDA LJ table with 5 x 5 elements.
Info: Found 14 unique exclusion lists needing 24 bytes
TCL: Running for 1500000 steps
ETITLE: TS BOND ANGLE DIHED IMPRP ELECT VDW BOUNDARY MISC KINETIC TOTAL TEMP POTENTIAL TOTALAVG TEMPAVG PRESSURE GPRESSURE VOLUME PRESSAVG GPRESSAVG
ENERGY: 0 1.7014 3.4082 2.2545 0.0000 -10747.6805 1482.7556 0.0000 0.0000 1770.5038 -7487.0570 304.2370 -9257.5608 -7487.0570 304.2370 489.1514 568.6006 29966.3510 489.1514 568.6006
ENERGY: 300000 4.8220 1.8475 2.6160 0.0000 -10479.0454 1343.1967 0.0000 0.0000 1801.2164 -7325.3467 309.5145 -9126.5631 -7409.5184 304.8669 -492.4988 -361.1498 30190.7435 -281.7214 -204.2975
ENERGY: 600000 3.8812 1.3972 2.3325 0.0000 -10434.2429 1335.5957 0.0000 0.0000 1770.5679 -7320.4685 304.2480 -9091.0364 -7402.9388 303.2453 -465.3893 -474.1042 30668.7916 -204.4800 -147.7986
ENERGY: 900000 6.8892 2.3437 1.4937 0.0000 -10655.8087 1524.9071 0.0000 0.0000 1725.6096 -7394.5654 296.5225 -9120.1751 -7411.5072 301.7929 829.7995 899.5118 30203.2937 68.4181 129.5495
ENERGY: 1200000 1.5448 4.8799 1.7108 0.0000 -10600.3676 1415.6011 0.0000 0.0000 1767.7289 -7408.9021 303.7602 -9176.6310 -7407.0364 302.0801 -310.1602 -193.9843 30372.3597 -35.8301 27.9400
ENERGY: 1500000 4.8600 2.3193 2.6278 0.0000 -10607.9240 1413.4123 0.0000 0.0000 1754.0379 -7430.6667 301.4076 -9184.7046 -7410.2323 302.3227 -88.2083 -15.8772 29918.5667 -63.5470 -1.4037
TCL: Running FEP window   2: Lambda1 0.95   Lambda2 0.8999999999999999 [dLambda -0.050000000000000044]
TCL: Setting parameter firsttimestep to 0
TCL: Setting parameter alchLambda to 0.95
Info: NONBONDED TABLE R-SQUARED SPACING: 0.0625
Info: NONBONDED TABLE SIZE: 705 POINTS
TCL: Setting parameter alchLambda2 to 0.8999999999999999
Info: NONBONDED TABLE R-SQUARED SPACING: 0.0625
Info: NONBONDED TABLE SIZE: 705 POINTS
TCL: Running for 1500000 steps
ETITLE: TS BOND ANGLE DIHED IMPRP ELECT VDW BOUNDARY MISC KINETIC TOTAL TEMP POTENTIAL TOTALAVG TEMPAVG PRESSURE GPRESSURE VOLUME PRESSAVG GPRESSAVG
ENERGY: 0 4.8600 2.3193 2.6278 0.0000 -10607.0607 1413.0617 0.0000 0.0000 1753.1755 -7431.0165 301.2594 -9184.1920 -7431.0165 301.2594 -114.3567 -30.7189 29918.5667 -114.3567 -30.7189
ENERGY: 300000 2.8002 1.3209 0.8255 0.0000 -10733.0619 1497.5104 0.0000 0.0000 1786.5167 -7444.0881 306.9886 -9230.6048 -7437.5703 301.6526 199.9243 298.6831 30344.8466 -147.6301 -65.6796
ENERGY: 600000 3.1827 3.2647 1.4926 0.0000 -10618.6713 1447.2696 0.0000 0.0000 1705.0550 -7458.4067 292.9905 -9163.4618 -7437.2540 300.0770 375.6969 436.5372 29950.9387 -12.1427 71.9285
ENERGY: 900000 2.3313 2.0385 4.0231 0.0000 -10584.9417 1403.5934 0.0000 0.0000 1730.2543 -7442.7012 297.3207 -9172.9555 -7446.1467 298.8074 -195.4620 -173.3506 30304.1494 -72.1283 -7.0383
ENERGY: 1200000 1.9133 2.7844 1.6191 0.0000 -10652.9208 1421.1986 0.0000 0.0000 1726.0506 -7499.3549 296.5983 -9225.4055 -7446.1961 299.5765 -78.7625 -19.9197 29677.1281 -33.2942 34.4139
ENERGY: 1500000 0.2992 1.2267 3.3436 0.0000 -10734.7553 1529.1711 0.0000 0.0000 1655.3189 -7545.3958 284.4440 -9200.7147 -7444.1702 298.6174 709.9522 735.6871 30247.0878 84.4393 145.9461
TCL: Running FEP window   3: Lambda1 0.8999999999999999 Lambda2 0.8499999999999999 [dLambda -0.050000000000000044]
TCL: Setting parameter firsttimestep to 0
TCL: Setting parameter alchLambda to 0.8999999999999999
Info: NONBONDED TABLE R-SQUARED SPACING: 0.0625
Info: NONBONDED TABLE SIZE: 705 POINTS
TCL: Setting parameter alchLambda2 to 0.8499999999999999
Info: NONBONDED TABLE R-SQUARED SPACING: 0.0625
Info: NONBONDED TABLE SIZE: 705 POINTS
TCL: Running for 1500000 steps
ETITLE: TS BOND ANGLE DIHED IMPRP ELECT VDW BOUNDARY MISC KINETIC TOTAL TEMP POTENTIAL TOTALAVG TEMPAVG PRESSURE GPRESSURE VOLUME PRESSAVG GPRESSAVG
ENERGY: 0 0.2992 1.2267 3.3436 0.0000 -10734.3882 1529.3723 0.0000 0.0000 1654.4293 -7545.7171 284.2912 -9200.1464 -7545.7171 284.2912 644.8556 731.1391 30247.0878 644.8556 731.1391
ENERGY: 300000 1.5883 4.3055 3.0639 0.0000 -10647.2230 1449.5967 0.0000 0.0000 1740.3242 -7448.3444 299.0510 -9188.6687 -7443.3051 297.8771 151.1922 196.6296 30226.0527 200.1256 243.8715
ENERGY: 600000 3.0994 2.1451 3.3861 0.0000 -10579.3475 1478.0256 0.0000 0.0000 1812.7268 -7279.9644 311.4924 -9092.6912 -7413.5240 300.3353 343.8717 388.1058 30653.5985 106.2819 162.7897
ENERGY: 900000 3.7302 2.6184 3.4217 0.0000 -10754.6891 1551.4081 0.0000 0.0000 1775.4752 -7418.0354 305.0913 -9193.5107 -7409.3402 300.9560 1174.1096 1217.9454 29628.4358 132.4741 200.0819
ENERGY: 1200000 1.8233 2.9936 1.5309 0.0000 -10574.6106 1414.7430 0.0000 0.0000 1736.4802 -7417.0396 298.3905 -9153.5198 -7412.3299 300.8546 -206.9233 -127.3732 30509.0640 31.1896 102.0577
ENERGY: 1500000 2.2900 3.0853 3.2124 0.0000 -10341.3191 1312.0827 0.0000 0.0000 1746.6199 -7274.0288 300.1329 -9020.6487 -7403.8522 301.0662 -604.9741 -556.2197 30589.0446 23.9558 92.9294
TCL: Running FEP window   4: Lambda1 0.8499999999999999 Lambda2 0.7999999999999998 [dLambda -0.050000000000000044]
TCL: Setting parameter firsttimestep to 0
TCL: Setting parameter alchLambda to 0.8499999999999999
Info: NONBONDED TABLE R-SQUARED SPACING: 0.0625
Info: NONBONDED TABLE SIZE: 705 POINTS
TCL: Setting parameter alchLambda2 to 0.7999999999999998
Info: NONBONDED TABLE R-SQUARED SPACING: 0.0625
Info: NONBONDED TABLE SIZE: 705 POINTS
TCL: Running for 1500000 steps
ETITLE: TS BOND ANGLE DIHED IMPRP ELECT VDW BOUNDARY MISC KINETIC TOTAL TEMP POTENTIAL TOTALAVG TEMPAVG PRESSURE GPRESSURE VOLUME PRESSAVG GPRESSAVG
ENERGY: 0 2.2900 3.0853 3.2124 0.0000 -10341.1891 1312.1040 0.0000 0.0000 1745.7356 -7274.7618 299.9809 -9020.4974 -7274.7618 299.9809 -650.9581 -564.2806 30589.0446 -650.9581 -564.2806
ENERGY: 300000 3.7080 2.0451 1.9162 0.0000 -10555.9530 1443.2545 0.0000 0.0000 1758.0560 -7346.9732 302.0980 -9105.0292 -7368.5697 297.3578 133.7434 178.3534 30679.3328 -332.3337 -259.3489
ENERGY: 600000 0.2583 3.0327 3.9795 0.0000 -10583.9300 1393.1889 0.0000 0.0000 1754.9844 -7428.4862 301.5702 -9183.4706 -7405.0595 298.2118 -368.3946 -287.6530 30383.5180 -255.6987 -190.5298
ENERGY: 900000 1.3761 2.8492 2.5487 0.0000 -10537.6050 1391.7062 0.0000 0.0000 1752.2727 -7386.8521 301.1042 -9139.1248 -7417.7237 298.7434 -423.9284 -341.3328 30614.4724 -281.2106 -208.8885
ENERGY: 1200000 1.5500 0.4895 3.4639 0.0000 -10542.4032 1424.3800 0.0000 0.0000 1709.3036 -7403.2161 293.7206 -9112.5197 -7419.1552 297.6737 75.4085 180.8777 30627.9866 -117.8693 -47.9355
ENERGY: 1500000 0.8475 1.8121 1.7201 0.0000 -10513.4891 1368.0141 0.0000 0.0000 1763.2168 -7377.8784 302.9848 -9141.0952 -7419.6691 298.5532 -268.9148 -187.3128 30031.6059 -134.0166 -64.7618
TCL: Running FEP window   5: Lambda1 0.7999999999999998 Lambda2 0.7499999999999998 [dLambda -0.050000000000000044]
TCL: Setting parameter firsttimestep to 0
TCL: Setting parameter alchLambda to 0.7999999999999998
Info: NONBONDED TABLE R-SQUARED SPACING: 0.0625
Info: NONBONDED TABLE SIZE: 705 POINTS
TCL: Setting parameter alchLambda2 to 0.7499999999999998
Info: NONBONDED TABLE R-SQUARED SPACING: 0.0625
Info: NONBONDED TABLE SIZE: 705 POINTS
TCL: Running for 1500000 steps
ETITLE: TS BOND ANGLE DIHED IMPRP ELECT VDW BOUNDARY MISC KINETIC TOTAL TEMP POTENTIAL TOTALAVG TEMPAVG PRESSURE GPRESSURE VOLUME PRESSAVG GPRESSAVG
ENERGY: 0 0.8475 1.8121 1.7201 0.0000 -10512.8620 1368.5094 0.0000 0.0000 1762.3776 -7377.5953 302.8406 -9139.9729 -7377.5953 302.8406 -278.9442 -189.7641 30031.6059 -278.9442 -189.7641
ENERGY: 300000 3.2884 1.3063 3.1229 0.0000 -10638.7908 1434.5991 0.0000 0.0000 1721.9836 -7474.4905 295.8995 -9196.4741 -7448.6045 297.2778 -168.5013 -91.9989 30305.8722 -307.9198 -247.5970
ENERGY: 600000 1.6001 3.9549 2.8815 0.0000 -10540.8200 1377.5128 0.0000 0.0000 1702.3068 -7452.5639 292.5183 -9154.8707 -7419.7729 299.1596 -260.7538 -267.2695 30012.5314 -278.4567 -228.5427
ENERGY: 900000 1.0399 0.6157 2.9575 0.0000 -10535.6360 1365.3805 0.0000 0.0000 1702.8367 -7462.8057 292.6093 -9165.6424 -7417.4014 298.9060 -399.0449 -363.5473 30064.4843 -295.7613 -239.7000
ENERGY: 1200000 3.3495 1.7619 2.7098 0.0000 -10608.7011 1394.6850 0.0000 0.0000 1761.9454 -7444.2495 302.7663 -9206.1949 -7426.1595 299.1183 -320.3054 -279.0238 29972.5697 -292.5634 -239.9484
ENERGY: 1500000 1.6254 1.1379 3.6586 0.0000 -10524.5869 1298.9960 0.0000 0.0000 1775.1393 -7444.0297 305.0335 -9219.1690 -7430.9527 298.6877 -1211.3831 -1196.4207 30396.2643 -402.7677 -350.7223
TCL: Running FEP window   6: Lambda1 0.7499999999999998 Lambda2 0.6999999999999997 [dLambda -0.050000000000000044]
TCL: Setting parameter firsttimestep to 0
TCL: Setting parameter alchLambda to 0.7499999999999998
Info: NONBONDED TABLE R-SQUARED SPACING: 0.0625
Info: NONBONDED TABLE SIZE: 705 POINTS
TCL: Setting parameter alchLambda2 to 0.6999999999999997
Info: NONBONDED TABLE R-SQUARED SPACING: 0.0625
Info: NONBONDED TABLE SIZE: 705 POINTS
TCL: Running for 1500000 steps
ETITLE: TS BOND ANGLE DIHED IMPRP ELECT VDW BOUNDARY MISC KINETIC TOTAL TEMP POTENTIAL TOTALAVG TEMPAVG PRESSURE GPRESSURE VOLUME PRESSAVG GPRESSAVG
ENERGY: 0 1.6254 1.1379 3.6586 0.0000 -10524.6422 1299.4401 0.0000 0.0000 1774.2215 -7444.5587 304.8758 -9218.7802 -7444.5587 304.8758 -1284.7971 -1199.7146 30396.2643 -1284.7971 -1199.7146
ENERGY: 300000 7.3512 2.6596 2.5098 0.0000 -10690.7162 1435.7937 0.0000 0.0000 1705.4936 -7536.9083 293.0659 -9242.4019 -7437.8873 299.5500 -337.4719 -253.1865 29869.6549 -484.1820 -409.2910
ENERGY: 600000 0.6852 5.2497 2.8718 0.0000 -10472.8128 1392.9161 0.0000 0.0000 1721.8402 -7349.2497 295.8748 -9071.0899 -7419.7798 299.3096 -142.4167 -54.2484 30583.9960 -333.4588 -261.9869
ENERGY: 900000 2.7436 1.8292 1.4309 0.0000 -10723.8464 1456.5498 0.0000 0.0000 1726.9283 -7534.3646 296.7491 -9261.2930 -7432.2047 298.8416 129.9398 137.9971 29564.0039 -246.4361 -178.5437
ENERGY: 1200000 1.3601 2.2760 3.1341 0.0000 -10673.8722 1438.9577 0.0000 0.0000 1742.3575 -7485.7868 299.4004 -9228.1443 -7432.5614 299.6826 25.6187 39.0373 29942.1637 -280.9746 -219.5858
ENERGY: 1500000 0.4736 3.0627 3.3063 0.0000 -10557.3743 1443.5607 0.0000 0.0000 1759.0508 -7347.9201 302.2690 -9106.9710 -7429.2418 299.8276 372.3914 408.6724 30125.1108 -226.7666 -173.3955
TCL: Running FEP window   7: Lambda1 0.6999999999999997 Lambda2 0.6499999999999997 [dLambda -0.050000000000000044]
TCL: Setting parameter firsttimestep to 0
TCL: Setting parameter alchLambda to 0.6999999999999997
Info: NONBONDED TABLE R-SQUARED SPACING: 0.0625
Info: NONBONDED TABLE SIZE: 705 POINTS
TCL: Setting parameter alchLambda2 to 0.6499999999999997
Info: NONBONDED TABLE R-SQUARED SPACING: 0.0625
Info: NONBONDED TABLE SIZE: 705 POINTS
TCL: Running for 1500000 steps
ETITLE: TS BOND ANGLE DIHED IMPRP ELECT VDW BOUNDARY MISC KINETIC TOTAL TEMP POTENTIAL TOTALAVG TEMPAVG PRESSURE GPRESSURE VOLUME PRESSAVG GPRESSAVG
ENERGY: 0 0.4736 3.0627 3.3063 0.0000 -10557.0401 1444.1582 0.0000 0.0000 1758.2266 -7347.8126 302.1273 -9106.0392 -7347.8126 302.1273 336.4859 407.9793 30125.1108 336.4859 407.9793
ENERGY: 300000 0.7539 0.5806 2.6405 0.0000 -10464.2609 1293.0584 0.0000 0.0000 1813.9592 -7353.2683 311.7042 -9167.2275 -7370.8858 301.3103 -1251.1593 -1123.7689 30406.0240 -359.6781 -298.2464
ENERGY: 600000 2.2068 2.5562 1.7993 0.0000 -10549.7627 1409.3191 0.0000 0.0000 1748.2628 -7385.6185 300.4152 -9133.8813 -7380.7815 301.0861 -16.2525 -13.2335 30346.8138 -232.7405 -172.1487
ENERGY: 900000 1.5911 4.4900 4.3038 0.0000 -10600.1266 1414.2746 0.0000 0.0000 1785.0019 -7390.4652 306.7283 -9175.4671 -7385.1498 301.9515 97.2208 167.1037 29824.8018 -151.5618 -84.0731
ENERGY: 1200000 3.1470 2.8961 2.0115 0.0000 -10687.4626 1516.0246 0.0000 0.0000 1743.5686 -7419.8147 299.6085 -9163.3833 -7395.3850 301.4846 465.8681 493.9571 30611.1561 -147.8511 -81.7365
ENERGY: 1500000 2.7550 2.1838 4.8147 0.0000 -10722.2611 1510.0232 0.0000 0.0000 1804.1366 -7398.3477 310.0163 -9202.4843 -7395.2683 302.0815 415.2588 490.8895 30159.3548 -85.4154 -17.8333
TCL: Running FEP window   8: Lambda1 0.6499999999999997 Lambda2 0.5999999999999996 [dLambda -0.050000000000000044]
TCL: Setting parameter firsttimestep to 0
TCL: Setting parameter alchLambda to 0.6499999999999997
Info: NONBONDED TABLE R-SQUARED SPACING: 0.0625
Info: NONBONDED TABLE SIZE: 705 POINTS
TCL: Setting parameter alchLambda2 to 0.5999999999999996
Info: NONBONDED TABLE R-SQUARED SPACING: 0.0625
Info: NONBONDED TABLE SIZE: 705 POINTS
TCL: Running for 1500000 steps
ETITLE: TS BOND ANGLE DIHED IMPRP ELECT VDW BOUNDARY MISC KINETIC TOTAL TEMP POTENTIAL TOTALAVG TEMPAVG PRESSURE GPRESSURE VOLUME PRESSAVG GPRESSAVG
ENERGY: 0 2.7550 2.1838 4.8147 0.0000 -10721.5796 1510.1009 0.0000 0.0000 1803.2276 -7398.4975 309.8601 -9201.7251 -7398.4975 309.8601 401.8792 481.1277 30159.3548 401.8792 481.1277
ENERGY: 300000 2.4130 1.6298 4.5027 0.0000 -10631.9842 1460.1237 0.0000 0.0000 1740.7152 -7422.5999 299.1182 -9163.3151 -7385.9353 304.8441 278.8054 314.0385 30135.4031 138.2166 196.5073
ENERGY: 600000 3.1881 1.6252 1.2475 0.0000 -10672.7121 1500.9185 0.0000 0.0000 1794.2965 -7371.4363 308.3254 -9165.7328 -7391.8216 303.4467 743.1960 765.9541 29824.7335 205.5832 248.5260
ENERGY: 900000 1.7272 2.0701 0.7363 0.0000 -10752.0501 1493.4291 0.0000 0.0000 1753.3008 -7500.7865 301.2809 -9254.0873 -7419.7518 302.1300 584.5974 620.8973 29589.6978 39.1792 85.6298
ENERGY: 1200000 1.0066 2.3905 2.5239 0.0000 -10726.9730 1463.9963 0.0000 0.0000 1772.6765 -7484.3791 304.6103 -9257.0557 -7431.4799 301.2777 322.3818 434.5956 29456.0896 59.4974 114.0430
ENERGY: 1500000 5.6365 1.3127 0.6428 0.0000 -10756.2427 1431.8533 0.0000 0.0000 1768.1162 -7548.6813 303.8267 -9316.7974 -7436.2495 301.6938 -35.6656 9.9856 29652.8406 43.1073 97.3608
TCL: Running FEP window   9: Lambda1 0.5999999999999996 Lambda2 0.5499999999999996 [dLambda -0.050000000000000044]
TCL: Setting parameter firsttimestep to 0
TCL: Setting parameter alchLambda to 0.5999999999999996
Info: NONBONDED TABLE R-SQUARED SPACING: 0.0625
Info: NONBONDED TABLE SIZE: 705 POINTS
TCL: Setting parameter alchLambda2 to 0.5499999999999996
Info: NONBONDED TABLE R-SQUARED SPACING: 0.0625
Info: NONBONDED TABLE SIZE: 705 POINTS
TCL: Running for 1500000 steps
ETITLE: TS BOND ANGLE DIHED IMPRP ELECT VDW BOUNDARY MISC KINETIC TOTAL TEMP POTENTIAL TOTALAVG TEMPAVG PRESSURE GPRESSURE VOLUME PRESSAVG GPRESSAVG
ENERGY: 0 5.6365 1.3127 0.6428 0.0000 -10756.1844 1432.1410 0.0000 0.0000 1767.2823 -7549.1691 303.6834 -9316.4514 -7549.1691 303.6834 -79.1827 6.1663 29652.8406 -79.1827 6.1663
ENERGY: 300000 2.4338 0.8512 2.6983 0.0000 -10627.6309 1458.6754 0.0000 0.0000 1763.3865 -7399.5857 303.0140 -9162.9722 -7452.0573 300.8092 420.1177 410.6028 29613.8078 362.0846 416.2469
ENERGY: 600000 2.1500 2.5445 3.2244 0.0000 -10578.4447 1406.4647 0.0000 0.0000 1754.4088 -7409.6522 301.4713 -9164.0611 -7442.5687 301.1879 -344.3620 -308.6463 30522.1859 -64.0802 1.6357
ENERGY: 900000 0.8739 3.1138 3.6043 0.0000 -10495.3876 1342.2718 0.0000 0.0000 1750.7114 -7394.8123 300.8359 -9145.5237 -7435.9801 300.7153 -486.3778 -480.2885 30247.6570 -57.2158 -2.6079
ENERGY: 1200000 3.2648 2.5446 2.7482 0.0000 -10603.4039 1443.6861 0.0000 0.0000 1764.0585 -7387.1016 303.1295 -9151.1601 -7436.8355 301.1624 157.1618 211.0386 29915.1869 -90.2837 -35.1864
ENERGY: 1500000 0.8514 4.9579 1.2265 0.0000 -10749.5833 1467.9440 0.0000 0.0000 1654.7367 -7619.8668 284.3440 -9274.6035 -7441.4329 300.2735 -31.6505 59.2826 29968.8333 -113.8089 -51.1457
TCL: Running FEP window  10: Lambda1 0.5499999999999996 Lambda2 0.4999999999999996 [dLambda -0.04999999999999999]
TCL: Setting parameter firsttimestep to 0
TCL: Setting parameter alchLambda to 0.5499999999999996
Info: NONBONDED TABLE R-SQUARED SPACING: 0.0625
Info: NONBONDED TABLE SIZE: 705 POINTS
TCL: Setting parameter alchLambda2 to 0.4999999999999996
Info: NONBONDED TABLE R-SQUARED SPACING: 0.0625
Info: NONBONDED TABLE SIZE: 705 POINTS
TCL: Running for 1500000 steps
ETITLE: TS BOND ANGLE DIHED IMPRP ELECT VDW BOUNDARY MISC KINETIC TOTAL TEMP POTENTIAL TOTALAVG TEMPAVG PRESSURE GPRESSURE VOLUME PRESSAVG GPRESSAVG
ENERGY: 0 0.8514 4.9579 1.2265 0.0000 -10749.6749 1468.1133 0.0000 0.0000 1653.8755 -7620.6502 284.1960 -9274.5257 -7620.6502 284.1960 -20.9186 55.1631 29968.8333 -20.9186 55.1631
ENERGY: 300000 1.8166 2.1839 3.4265 0.0000 -10554.4410 1443.6202 0.0000 0.0000 1759.2870 -7344.1068 302.3095 -9103.3938 -7444.7505 298.2494 -3.7645 73.4360 30394.4375 -157.1097 -101.8711
ENERGY: 600000 2.0915 2.2350 1.9472 0.0000 -10509.5822 1364.8620 0.0000 0.0000 1741.3669 -7397.0795 299.2302 -9138.4464 -7428.3789 297.8309 -281.8530 -248.9837 29908.6527 -211.2777 -155.3803
ENERGY: 900000 1.5959 3.2708 7.1560 0.0000 -10608.9889 1431.6958 0.0000 0.0000 1768.3230 -7396.9475 303.8623 -9165.2704 -7420.1976 299.9034 -65.2112 -23.0609 30056.8235 -277.6362 -223.6873
ENERGY: 1200000 2.8308 2.7359 3.5915 0.0000 -10579.3668 1407.5687 0.0000 0.0000 1758.0655 -7404.5745 302.0996 -9162.6399 -7422.2344 300.1838 -114.9421 2.5005 30032.8364 -200.6995 -136.2260
ENERGY: 1500000 0.7473 2.3074 3.7397 0.0000 -10725.5141 1454.0826 0.0000 0.0000 1726.5465 -7538.0905 296.6835 -9264.6370 -7418.9509 300.6186 265.1387 320.4186 29593.6978 -219.7907 -152.5162
TCL: Running FEP window  11: Lambda1 0.4999999999999996 Lambda2 0.4499999999999996 [dLambda -0.04999999999999999]
TCL: Setting parameter firsttimestep to 0
TCL: Setting parameter alchLambda to 0.4999999999999996
Info: NONBONDED TABLE R-SQUARED SPACING: 0.0625
Info: NONBONDED TABLE SIZE: 705 POINTS
TCL: Setting parameter alchLambda2 to 0.4499999999999996
Info: NONBONDED TABLE R-SQUARED SPACING: 0.0625
Info: NONBONDED TABLE SIZE: 705 POINTS
TCL: Running for 1500000 steps
ETITLE: TS BOND ANGLE DIHED IMPRP ELECT VDW BOUNDARY MISC KINETIC TOTAL TEMP POTENTIAL TOTALAVG TEMPAVG PRESSURE GPRESSURE VOLUME PRESSAVG GPRESSAVG
ENERGY: 0 0.7473 2.3074 3.7397 0.0000 -10725.3992 1453.6163 0.0000 0.0000 1725.6468 -7539.3416 296.5289 -9264.9885 -7539.3416 296.5289 222.2155 308.7297 29593.6978 222.2155 308.7297
ENERGY: 300000 2.1673 3.0982 3.0854 0.0000 -10442.6662 1370.0795 0.0000 0.0000 1743.8441 -7320.3918 299.6559 -9064.2359 -7419.8415 298.8301 -300.5402 -250.0389 30467.3737 -68.2343 9.3143
ENERGY: 600000 1.2278 3.0705 0.8044 0.0000 -10526.5307 1359.9353 0.0000 0.0000 1780.0062 -7381.4864 305.8699 -9161.4926 -7415.8404 300.1678 -618.7314 -511.1331 30154.3690 -124.2841 -45.5133
ENERGY: 900000 1.6860 2.6950 3.0493 0.0000 -10692.7223 1526.0868 0.0000 0.0000 1787.8470 -7371.3582 307.2172 -9159.2052 -7398.8937 301.6743 858.8538 917.3038 29989.1035 72.6641 150.6650
ENERGY: 1200000 1.1354 2.2876 4.0148 0.0000 -10557.4631 1385.7928 0.0000 0.0000 1760.3456 -7403.8869 302.4914 -9164.2325 -7396.7630 301.7610 -13.5226 -32.3965 29663.9522 58.7458 124.8749
ENERGY: 1500000 2.6278 2.1799 3.6637 0.0000 -10629.3984 1470.1666 0.0000 0.0000 1714.9803 -7435.7800 294.6960 -9150.7603 -7392.5524 301.7742 357.0600 414.0730 30247.6151 54.5267 119.7184
TCL: Running FEP window  12: Lambda1 0.4499999999999996 Lambda2 0.39999999999999963 [dLambda -0.04999999999999999]
TCL: Setting parameter firsttimestep to 0
TCL: Setting parameter alchLambda to 0.4499999999999996
Info: NONBONDED TABLE R-SQUARED SPACING: 0.0625
Info: NONBONDED TABLE SIZE: 705 POINTS
TCL: Setting parameter alchLambda2 to 0.39999999999999963
Info: NONBONDED TABLE R-SQUARED SPACING: 0.0625
Info: NONBONDED TABLE SIZE: 705 POINTS
TCL: Running for 1500000 steps
ETITLE: TS BOND ANGLE DIHED IMPRP ELECT VDW BOUNDARY MISC KINETIC TOTAL TEMP POTENTIAL TOTALAVG TEMPAVG PRESSURE GPRESSURE VOLUME PRESSAVG GPRESSAVG
ENERGY: 0 2.6279 2.1799 3.6637 0.0000 -10629.3986 1470.5762 0.0000 0.0000 1714.1116 -7436.2392 294.5468 -9150.3508 -7436.2392 294.5468 324.9318 409.5224 30247.6151 324.9318 409.5224
ENERGY: 300000 2.0847 2.9008 3.0528 0.0000 -10628.2797 1463.0806 0.0000 0.0000 1762.9994 -7394.1614 302.9475 -9157.1608 -7389.9732 303.7931 100.9121 227.6642 30025.6918 158.3082 230.9273
ENERGY: 600000 2.6429 3.5088 2.3412 0.0000 -10637.6173 1439.7392 0.0000 0.0000 1763.7079 -7425.6773 303.0692 -9189.3852 -7408.4897 302.0337 158.7685 220.9487 30035.5678 112.7373 186.9224
ENERGY: 900000 4.1195 2.5567 3.6872 0.0000 -10452.7507 1342.6763 0.0000 0.0000 1692.6375 -7407.0733 290.8567 -9099.7109 -7403.4797 299.2979 -735.4453 -653.4588 30238.7626 -31.8896 40.2573
ENERGY: 1200000 3.0183 3.9678 1.4789 0.0000 -10400.2373 1354.6214 0.0000 0.0000 1773.3175 -7263.8335 304.7205 -9037.1510 -7394.5186 299.4615 -75.5655 -3.5667 29904.6858 11.7935 81.1238
ENERGY: 1500000 2.4807 4.4257 1.9048 0.0000 -10637.5057 1477.1292 0.0000 0.0000 1744.7231 -7406.8422 299.8069 -9151.5653 -7396.2742 300.1857 408.3485 410.5303 30184.0588 110.9289 174.4729
TCL: Running FEP window  13: Lambda1 0.39999999999999963 Lambda2 0.34999999999999964 [dLambda -0.04999999999999999]
TCL: Setting parameter firsttimestep to 0
TCL: Setting parameter alchLambda to 0.39999999999999963
Info: NONBONDED TABLE R-SQUARED SPACING: 0.0625
Info: NONBONDED TABLE SIZE: 705 POINTS
TCL: Setting parameter alchLambda2 to 0.34999999999999964
Info: NONBONDED TABLE R-SQUARED SPACING: 0.0625
Info: NONBONDED TABLE SIZE: 705 POINTS
TCL: Running for 1500000 steps
ETITLE: TS BOND ANGLE DIHED IMPRP ELECT VDW BOUNDARY MISC KINETIC TOTAL TEMP POTENTIAL TOTALAVG TEMPAVG PRESSURE GPRESSURE VOLUME PRESSAVG GPRESSAVG
ENERGY: 0 2.4807 4.4257 1.9048 0.0000 -10637.5057 1477.5838 0.0000 0.0000 1743.8833 -7407.2274 299.6626 -9151.1107 -7407.2274 299.6626 326.1839 411.5102 30184.0588 326.1839 411.5102
ENERGY: 300000 4.3623 3.3259 4.9173 0.0000 -10537.1639 1310.5304 0.0000 0.0000 1744.4957 -7469.5323 299.7679 -9214.0280 -7452.2071 296.6514 -1271.1734 -1179.9233 30104.0887 -555.3521 -485.6667
ENERGY: 600000 3.4449 2.7172 1.9323 0.0000 -10779.8189 1540.0421 0.0000 0.0000 1741.0824 -7490.6000 299.1813 -9231.6824 -7465.0873 297.5726 384.2718 388.0443 30476.4502 -220.6149 -169.1755
ENERGY: 900000 5.6697 2.2643 4.3799 0.0000 -10635.4380 1394.1367 0.0000 0.0000 1790.4155 -7438.5720 307.6586 -9228.9875 -7460.4160 299.5093 -665.3479 -602.3645 29905.2347 -249.0832 -195.9123
ENERGY: 1200000 1.5672 0.3673 2.0147 0.0000 -10547.7354 1440.4131 0.0000 0.0000 1757.1676 -7346.2055 301.9454 -9103.3731 -7444.4340 300.0054 368.0887 424.6481 30040.9026 -263.1643 -205.3754
ENERGY: 1500000 3.3896 2.1936 2.2965 0.0000 -10619.5918 1445.3871 0.0000 0.0000 1757.1509 -7409.1741 301.9425 -9166.3250 -7434.3653 300.8295 68.9379 183.5500 30038.5893 -142.9715 -81.4923
TCL: Running FEP window  14: Lambda1 0.34999999999999964 Lambda2 0.29999999999999966 [dLambda -0.04999999999999999]
TCL: Setting parameter firsttimestep to 0
TCL: Setting parameter alchLambda to 0.34999999999999964
Info: NONBONDED TABLE R-SQUARED SPACING: 0.0625
Info: NONBONDED TABLE SIZE: 705 POINTS
TCL: Setting parameter alchLambda2 to 0.29999999999999966
Info: NONBONDED TABLE R-SQUARED SPACING: 0.0625
Info: NONBONDED TABLE SIZE: 705 POINTS
TCL: Running for 1500000 steps
ETITLE: TS BOND ANGLE DIHED IMPRP ELECT VDW BOUNDARY MISC KINETIC TOTAL TEMP POTENTIAL TOTALAVG TEMPAVG PRESSURE GPRESSURE VOLUME PRESSAVG GPRESSAVG
ENERGY: 0 3.3896 2.1936 2.2965 0.0000 -10619.5922 1445.4737 0.0000 0.0000 1756.2558 -7409.9831 301.7887 -9166.2388 -7409.9831 301.7887 104.2061 177.3128 30038.5893 104.2061 177.3128
ENERGY: 300000 4.1539 1.9110 2.3398 0.0000 -10526.9422 1387.1206 0.0000 0.0000 1728.9834 -7402.4336 297.1023 -9131.4170 -7395.1733 300.5296 -261.9769 -174.2999 29824.1273 -354.8545 -280.2623
ENERGY: 600000 3.4106 2.9120 2.0209 0.0000 -10495.4943 1317.4955 0.0000 0.0000 1738.5622 -7431.0932 298.7483 -9169.6554 -7405.3226 300.8691 -1104.9335 -1071.5246 30579.0685 -260.0209 -204.9493
ENERGY: 900000 0.9945 2.4875 2.8698 0.0000 -10569.9376 1337.8320 0.0000 0.0000 1727.3947 -7498.3592 296.8293 -9225.7539 -7412.8013 299.8895 -976.1681 -821.9778 29939.1649 -254.9860 -198.0557
ENERGY: 1200000 2.1527 3.2781 1.8268 0.0000 -10474.1852 1356.0800 0.0000 0.0000 1784.5840 -7326.2636 306.6565 -9110.8476 -7409.0632 300.2605 -581.2797 -517.1489 30382.0964 -262.4725 -199.8587
ENERGY: 1500000 2.8328 2.8686 3.3603 0.0000 -10493.2664 1330.4198 0.0000 0.0000 1738.6200 -7415.1649 298.7582 -9153.7850 -7409.9487 300.0962 -854.9438 -744.1324 30016.6905 -217.7032 -154.9021
TCL: Running FEP window  15: Lambda1 0.29999999999999966 Lambda2 0.24999999999999967 [dLambda -0.04999999999999999]
TCL: Setting parameter firsttimestep to 0
TCL: Setting parameter alchLambda to 0.29999999999999966
Info: NONBONDED TABLE R-SQUARED SPACING: 0.0625
Info: NONBONDED TABLE SIZE: 705 POINTS
TCL: Setting parameter alchLambda2 to 0.24999999999999967
Info: NONBONDED TABLE R-SQUARED SPACING: 0.0625
Info: NONBONDED TABLE SIZE: 705 POINTS
TCL: Running for 1500000 steps
ETITLE: TS BOND ANGLE DIHED IMPRP ELECT VDW BOUNDARY MISC KINETIC TOTAL TEMP POTENTIAL TOTALAVG TEMPAVG PRESSURE GPRESSURE VOLUME PRESSAVG GPRESSAVG
ENERGY: 0 2.8328 2.8686 3.3603 0.0000 -10493.2663 1330.8278 0.0000 0.0000 1737.7192 -7415.6576 298.6034 -9153.3768 -7415.6576 298.6034 -817.8362 -744.3533 30016.6905 -817.8362 -744.3533
ENERGY: 300000 2.0959 2.6365 2.6236 0.0000 -10495.8868 1390.5548 0.0000 0.0000 1772.3558 -7325.6201 304.5552 -9097.9759 -7430.0999 298.9820 15.6202 -1.0674 30154.2121 -144.6211 -112.2156
ENERGY: 600000 0.9712 2.5330 3.6446 0.0000 -10552.7740 1389.5372 0.0000 0.0000 1745.4620 -7410.6260 299.9339 -9156.0880 -7425.6208 297.9538 -67.4603 -55.6114 29762.2758 -306.0227 -277.3514
ENERGY: 900000 0.9306 1.2730 1.3312 0.0000 -10558.4072 1461.0233 0.0000 0.0000 1783.6421 -7310.2070 306.4946 -9093.8490 -7407.2696 298.5250 637.3303 706.3454 29840.1064 -161.4084 -121.6779
ENERGY: 1200000 3.5205 1.2677 3.5250 0.0000 -10664.3460 1433.9059 0.0000 0.0000 1811.3401 -7410.7867 311.2542 -9222.1268 -7410.7409 300.8207 261.3823 303.3386 29372.9504 -135.2545 -90.9570
ENERGY: 1500000 2.3532 4.7278 2.7462 0.0000 -10881.4626 1544.6203 0.0000 0.0000 1770.7099 -7556.3052 304.2724 -9327.0151 -7420.6798 301.8668 354.0838 406.7231 29872.0014 -53.8404 -5.3741
TCL: Running FEP window  16: Lambda1 0.24999999999999967 Lambda2 0.19999999999999968 [dLambda -0.04999999999999999]
TCL: Setting parameter firsttimestep to 0
TCL: Setting parameter alchLambda to 0.24999999999999967
Info: NONBONDED TABLE R-SQUARED SPACING: 0.0625
Info: NONBONDED TABLE SIZE: 705 POINTS
TCL: Setting parameter alchLambda2 to 0.19999999999999968
Info: NONBONDED TABLE R-SQUARED SPACING: 0.0625
Info: NONBONDED TABLE SIZE: 705 POINTS
TCL: Running for 1500000 steps
ETITLE: TS BOND ANGLE DIHED IMPRP ELECT VDW BOUNDARY MISC KINETIC TOTAL TEMP POTENTIAL TOTALAVG TEMPAVG PRESSURE GPRESSURE VOLUME PRESSAVG GPRESSAVG
ENERGY: 0 2.3532 4.7278 2.7462 0.0000 -10881.4650 1544.6258 0.0000 0.0000 1769.8201 -7557.1920 304.1195 -9327.0121 -7557.1920 304.1195 310.6499 404.0501 29872.0014 310.6499 404.0501
ENERGY: 300000 3.5913 4.0434 5.3065 0.0000 -10764.3729 1451.4607 0.0000 0.0000 1809.1767 -7490.7942 310.8824 -9299.9709 -7474.8318 303.2651 -464.9859 -366.6828 29914.0731 -462.1721 -378.7486
ENERGY: 600000 4.0517 4.3661 1.6970 0.0000 -10557.1217 1411.1544 0.0000 0.0000 1717.3472 -7418.5052 295.1027 -9135.8524 -7438.7840 303.0111 -63.7671 -52.1095 30166.9532 -413.2957 -334.9159
ENERGY: 900000 1.6689 4.5905 0.4993 0.0000 -10403.7789 1306.6939 0.0000 0.0000 1765.7374 -7324.5889 303.4180 -9090.3263 -7429.2837 302.7951 -792.5518 -695.9618 30136.0826 -385.8668 -310.1897
ENERGY: 1200000 2.7041 4.3380 3.2817 0.0000 -10506.4572 1363.2449 0.0000 0.0000 1734.3228 -7398.5657 298.0198 -9132.8885 -7426.1101 302.3759 -591.6605 -561.4710 30306.8730 -358.6707 -288.9139
ENERGY: 1500000 1.4313 3.1243 3.4097 0.0000 -10523.6363 1348.1334 0.0000 0.0000 1685.4982 -7482.0393 289.6299 -9167.5376 -7427.9382 301.9100 -596.4572 -530.2960 30022.9840 -366.8788 -302.8525
TCL: Running FEP window  17: Lambda1 0.19999999999999968 Lambda2 0.1499999999999997 [dLambda -0.04999999999999999]
TCL: Setting parameter firsttimestep to 0
TCL: Setting parameter alchLambda to 0.19999999999999968
Info: NONBONDED TABLE R-SQUARED SPACING: 0.0625
Info: NONBONDED TABLE SIZE: 705 POINTS
TCL: Setting parameter alchLambda2 to 0.1499999999999997
Info: NONBONDED TABLE R-SQUARED SPACING: 0.0625
Info: NONBONDED TABLE SIZE: 705 POINTS
TCL: Running for 1500000 steps
ETITLE: TS BOND ANGLE DIHED IMPRP ELECT VDW BOUNDARY MISC KINETIC TOTAL TEMP POTENTIAL TOTALAVG TEMPAVG PRESSURE GPRESSURE VOLUME PRESSAVG GPRESSAVG
ENERGY: 0 1.4314 3.1243 3.4097 0.0000 -10523.6357 1348.6062 0.0000 0.0000 1684.6756 -7482.3886 289.4886 -9167.0641 -7482.3886 289.4886 -615.1339 -531.9285 30022.9840 -615.1339 -531.9285
ENERGY: 300000 1.9022 3.0391 2.5116 0.0000 -10574.2358 1357.0200 0.0000 0.0000 1755.7212 -7454.0417 301.6968 -9209.7629 -7436.4313 298.3296 -947.0750 -896.1813 30331.9094 -349.2143 -310.2844
ENERGY: 600000 4.8117 4.3066 3.2980 0.0000 -10490.2472 1362.7088 0.0000 0.0000 1758.3851 -7356.7370 302.1546 -9115.1222 -7427.1285 299.6258 -433.5329 -366.6123 29801.9240 -322.5296 -273.7092
ENERGY: 900000 1.7243 4.4022 3.6698 0.0000 -10788.1275 1483.6793 0.0000 0.0000 1768.5815 -7526.0704 303.9067 -9294.6519 -7432.8554 300.4813 29.2585 90.5650 29899.8768 -189.8938 -137.5614
ENERGY: 1200000 1.5924 2.3807 1.5910 0.0000 -10521.8303 1328.1239 0.0000 0.0000 1823.0090 -7365.1334 313.2593 -9188.1423 -7428.7335 301.0321 -864.6339 -772.2023 30103.0694 -316.0245 -255.9666
ENERGY: 1500000 1.9908 4.2043 2.8276 0.0000 -10603.4647 1390.1822 0.0000 0.0000 1797.7949 -7406.4648 308.9266 -9204.2597 -7435.9627 300.1587 -670.4219 -610.3114 30361.7183 -306.8804 -249.2343
TCL: Running FEP window  18: Lambda1 0.1499999999999997 Lambda2 0.09999999999999969 [dLambda -0.05 ]
TCL: Setting parameter firsttimestep to 0
TCL: Setting parameter alchLambda to 0.1499999999999997
Info: NONBONDED TABLE R-SQUARED SPACING: 0.0625
Info: NONBONDED TABLE SIZE: 705 POINTS
TCL: Setting parameter alchLambda2 to 0.09999999999999969
Info: NONBONDED TABLE R-SQUARED SPACING: 0.0625
Info: NONBONDED TABLE SIZE: 705 POINTS
TCL: Running for 1500000 steps
ETITLE: TS BOND ANGLE DIHED IMPRP ELECT VDW BOUNDARY MISC KINETIC TOTAL TEMP POTENTIAL TOTALAVG TEMPAVG PRESSURE GPRESSURE VOLUME PRESSAVG GPRESSAVG
ENERGY: 0 1.9908 4.2043 2.8277 0.0000 -10603.4651 1390.1152 0.0000 0.0000 1796.8813 -7407.4458 308.7696 -9204.3271 -7407.4458 308.7696 -701.1284 -617.8193 30361.7183 -701.1284 -617.8193
ENERGY: 300000 2.3717 1.0141 3.4836 0.0000 -10633.8813 1495.8593 0.0000 0.0000 1752.2668 -7378.8858 301.1032 -9131.1526 -7388.0801 302.5752 302.3212 446.5467 30150.7357 -260.6191 -165.4589
ENERGY: 600000 3.1857 1.6580 3.7316 0.0000 -10497.0159 1344.6235 0.0000 0.0000 1729.3081 -7414.5091 297.1581 -9143.8172 -7400.1980 300.0141 -826.1439 -684.8075 30085.6652 -430.9559 -335.7910
ENERGY: 900000 2.7543 1.8670 2.3348 0.0000 -10465.4926 1323.3425 0.0000 0.0000 1768.8035 -7366.3904 303.9448 -9135.1939 -7405.5177 299.8805 -823.6049 -761.4325 30471.6835 -347.5933 -261.6013
ENERGY: 1200000 1.2657 3.1891 2.9415 0.0000 -10576.8496 1414.0162 0.0000 0.0000 1777.0035 -7378.4336 305.3539 -9155.4371 -7399.3461 300.2619 -69.7032 3.6417 29760.6730 -357.3695 -275.4657
ENERGY: 1500000 0.8020 3.2222 2.4411 0.0000 -10519.6720 1412.7572 0.0000 0.0000 1751.1144 -7349.3351 300.9052 -9100.4495 -7407.3625 299.6246 -84.1384 -13.0872 30440.1081 -368.9331 -291.3626
TCL: Running FEP window  19: Lambda1 0.09999999999999969 Lambda2 0.049999999999999684 [dLambda -0.05 ]
TCL: Setting parameter firsttimestep to 0
TCL: Setting parameter alchLambda to 0.09999999999999969
Info: NONBONDED TABLE R-SQUARED SPACING: 0.0625
Info: NONBONDED TABLE SIZE: 705 POINTS
TCL: Setting parameter alchLambda2 to 0.049999999999999684
Info: NONBONDED TABLE R-SQUARED SPACING: 0.0625
Info: NONBONDED TABLE SIZE: 705 POINTS
TCL: Running for 1500000 steps
ETITLE: TS BOND ANGLE DIHED IMPRP ELECT VDW BOUNDARY MISC KINETIC TOTAL TEMP POTENTIAL TOTALAVG TEMPAVG PRESSURE GPRESSURE VOLUME PRESSAVG GPRESSAVG
ENERGY: 0 0.8020 3.2222 2.4411 0.0000 -10519.6717 1412.0090 0.0000 0.0000 1750.2634 -7350.9340 300.7590 -9101.1974 -7350.9340 300.7590 -99.7578 -18.6120 30440.1081 -99.7578 -18.6120
ENERGY: 300000 2.3397 2.7036 2.1334 0.0000 -10500.4691 1332.2710 0.0000 0.0000 1733.8817 -7427.1396 297.9440 -9161.0213 -7408.6588 301.2956 -683.3624 -643.2195 30174.4674 -365.6509 -303.6588
ENERGY: 600000 1.4323 1.5920 2.7176 0.0000 -10582.0229 1380.9431 0.0000 0.0000 1707.3157 -7488.0222 293.3790 -9195.3378 -7415.3183 300.8073 -390.9465 -389.2779 30008.1120 -458.2039 -403.9223
ENERGY: 900000 1.6885 3.5774 0.9608 0.0000 -10706.2692 1463.1347 0.0000 0.0000 1804.2893 -7432.6185 310.0426 -9236.9078 -7411.3625 302.6251 62.5165 116.8314 30290.8494 -264.2122 -217.3230
ENERGY: 1200000 4.1089 5.9832 1.2280 0.0000 -10734.4256 1545.7363 0.0000 0.0000 1767.0929 -7410.2764 303.6509 -9177.3693 -7414.2894 301.9729 928.7109 917.5868 29708.3180 -176.6329 -129.8391
ENERGY: 1500000 4.6959 3.5812 2.7432 0.0000 -10740.4785 1508.5664 0.0000 0.0000 1756.8675 -7464.0244 301.8938 -9220.8918 -7419.2787 301.2974 542.6740 512.6567 29698.0224 -52.4133 -11.9096
TCL: Running FEP window  20: Lambda1 0.049999999999999684 Lambda2 0.0    [dLambda -0.049999999999999684]
TCL: Setting parameter firsttimestep to 0
TCL: Setting parameter alchLambda to 0.049999999999999684
Info: NONBONDED TABLE R-SQUARED SPACING: 0.0625
Info: NONBONDED TABLE SIZE: 705 POINTS
TCL: Setting parameter alchLambda2 to 0.0
Info: NONBONDED TABLE R-SQUARED SPACING: 0.0625
Info: NONBONDED TABLE SIZE: 705 POINTS
TCL: Running for 1500000 steps
ETITLE: TS BOND ANGLE DIHED IMPRP ELECT VDW BOUNDARY MISC KINETIC TOTAL TEMP POTENTIAL TOTALAVG TEMPAVG PRESSURE GPRESSURE VOLUME PRESSAVG GPRESSAVG
ENERGY: 0 4.6959 3.5812 2.7432 0.0000 -10740.4781 1509.0265 0.0000 0.0000 1755.9480 -7464.4833 301.7358 -9220.4314 -7464.4833 301.7358 442.6708 512.7034 29698.0224 442.6708 512.7034
ENERGY: 300000 3.1546 2.6669 1.1210 0.0000 -10545.7355 1449.0899 0.0000 0.0000 1692.6551 -7397.0481 290.8598 -9089.7032 -7416.2419 300.4407 202.0009 279.4439 29911.0987 -145.2186 -65.1618
ENERGY: 600000 0.6400 2.2523 1.6276 0.0000 -10553.4143 1418.8060 0.0000 0.0000 1738.0363 -7392.0520 298.6579 -9130.0884 -7392.7346 301.6619 -179.3969 -133.4617 30191.9266 -50.5523 17.9183
ENERGY: 900000 3.2642 1.8407 3.7343 0.0000 -10639.1478 1466.1667 0.0000 0.0000 1729.6719 -7434.4700 297.2206 -9164.1419 -7405.1603 299.8454 277.5791 326.7560 29780.0635 10.6739 79.6575
ENERGY: 1200000 2.4616 4.0286 1.2817 0.0000 -10468.7436 1375.3754 0.0000 0.0000 1729.1291 -7356.4673 297.1273 -9085.5964 -7400.3824 299.7890 -228.7181 -133.5343 29943.8962 -66.3768 0.3330
ENERGY: 1500000 1.8199 2.9618 7.2642 0.0000 -10550.3392 1398.6671 0.0000 0.0000 1789.5923 -7350.0339 307.5171 -9139.6262 -7410.5905 299.9343 -209.2632 -90.9580 29806.3155 -39.9716 29.2779
TCL: Exiting due to exit command.
