Info: SIMULATION PARAMETERS:
Info: TIMESTEP               2
Info: NUMBER OF STEPS        0
Info: STEPS PER CYCLE        10
Info: PERIODIC CELL BASIS 1  28.9974 0 0
Info: PERIODIC CELL BASIS 2  0 32.4476 0
Info: PERIODIC CELL BASIS 3  0 0 31.9507
Info: PERIODIC CELL CENTER   0 0 0
Info: WRAPPING WATERS AROUND PERIODIC BOUNDARIES ON OUTPUT.
Info: WRAPPING ALL CLUSTERS AROUND PERIODIC BOUNDARIES ON OUTPUT.
Info: FIRST LDB TIMESTEP     50
Info: LAST LDB TIMESTEP     -1
Info: HOM BACKGROUND SCALING 1
Info: PME BACKGROUND SCALING 1
Info: MIN ATOMS PER PATCH    40
Info: EMPTY PATCH LOAD       40 ATOMS
Info: VELOCITY FILE          mobley_2782339_equil.vel
Info: CENTER OF MASS MOVING INITIALLY? NO
Info: DIELECTRIC             1
Info: EXCLUDE                SCALED ONE-FOUR
Info: 1-4 ELECTROSTATICS SCALED BY 0.833333
Info: MODIFIED 1-4 VDW PARAMETERS WILL BE USED
Info: DCD FILENAME           mobley_2782339_prod.dcd
Info: DCD FREQUENCY          100000
Info: DCD FIRST STEP         100000
Info: DCD FILE WILL CONTAIN UNIT CELL DATA
Info: XST FILENAME           mobley_2782339_prod.xst
Info: XST FREQUENCY          100000
Info: NO VELOCITY DCD OUTPUT
Info: NO FORCE DCD OUTPUT
Info: OUTPUT FILENAME        mobley_2782339_prod
Info: BINARY OUTPUT FILES WILL BE USED
Info: RESTART FILENAME       mobley_2782339_prod.restart
Info: RESTART FREQUENCY      100000
Info: BINARY RESTART FILES WILL BE USED
Info: CUTOFF                 9
Info: PAIRLIST DISTANCE      11
Info: PAIRLIST SHRINK RATE   0.01
Info: PAIRLIST GROW RATE     0.01
Info: PAIRLIST TRIGGER       0.3
Info: PAIRLISTS PER CYCLE    2
Info: PAIRLISTS ENABLED
Info: MARGIN                 2
Info: HYDROGEN GROUP CUTOFF  2.5
Info: PATCH DIMENSION        15.5
Info: ENERGY OUTPUT STEPS    100000
Info: ENERGY EVALUATION STEPS    100000
Info: OUTPUT ENERGY PRECISION 4
Info: CROSSTERM ENERGY INCLUDED IN DIHEDRAL
Info: TIMING OUTPUT STEPS    1000000
Info: PRESSURE OUTPUT STEPS  100000
Info: ALCHEMICAL FEP ON
Info: FEP CURRENT LAMBDA VALUE     1
Info: FEP COMPARISON LAMBDA VALUE  0.95
Info: FEP INTRA-ALCHEMICAL NON-BONDED INTERACTIONS WILL BE RETAINED
Info: FEP INTRA-ALCHEMICAL BONDED INTERACTIONS WILL BE RETAINED
Info: FEP VDW SHIFTING COEFFICIENT 5
Info: FEP ELEC. ACTIVE FOR ANNIHILATED PARTICLES BETWEEN LAMBDA = 0 AND LAMBDA = 0.5
Info: FEP ELEC. ACTIVE FOR EXNIHILATED PARTICLES BETWEEN LAMBDA = 0.5 AND LAMBDA = 1
Info: FEP VDW ACTIVE FOR ANNIHILATED PARTICLES BETWEEN LAMBDA = 0 AND LAMBDA = 1
Info: FEP VDW ACTIVE FOR EXNIHILATED PARTICLES BETWEEN LAMBDA = 0 AND LAMBDA = 1
Info: FEP BOND ACTIVE FOR ANNIHILATED PARTICLES BETWEEN LAMBDA = 1 AND LAMBDA = 1
Info: FEP BOND ACTIVE FOR EXNIHILATED PARTICLES BETWEEN LAMBDA = 0 AND LAMBDA = 0
Info: LANGEVIN DYNAMICS ACTIVE
Info: LANGEVIN TEMPERATURE   300
Info: LANGEVIN USING BBK INTEGRATOR
Info: LANGEVIN DAMPING COEFFICIENT IS 1 INVERSE PS
Info: LANGEVIN DYNAMICS APPLIED TO HYDROGENS
Info: LANGEVIN PISTON PRESSURE CONTROL ACTIVE
Info:        TARGET PRESSURE IS 1.01325 BAR
Info:     OSCILLATION PERIOD IS 50 FS
Info:             DECAY TIME IS 25 FS
Info:     PISTON TEMPERATURE IS 300 K
Info:       PRESSURE CONTROL IS GROUP-BASED
Info:    INITIAL STRAIN RATE IS -4.22372e-05 -4.22372e-05 -4.22372e-05
Info:       CELL FLUCTUATION IS ISOTROPIC
Info: PARTICLE MESH EWALD (PME) ACTIVE
Info: PME TOLERANCE               1e-06
Info: PME EWALD COEFFICIENT       0.348832
Info: PME INTERPOLATION ORDER     4
Info: PME GRID DIMENSIONS         32 36 32
Info: PME MAXIMUM GRID SPACING    1
Info: PME CALCULATION WILL BE PERFORMED ON GPU
Info: FULL ELECTROSTATIC EVALUATION FREQUENCY      2
Info: USING VERLET I (r-RESPA) MTS SCHEME.
Info: C1 SPLITTING OF LONG RANGE ELECTROSTATICS
Info: PLACING ATOMS IN PATCHES BY HYDROGEN GROUPS
Info: RIGID BONDS TO HYDROGEN : ALL
Info:         ERROR TOLERANCE : 1e-08
Info:          MAX ITERATIONS : 100
Info: RIGID WATER USING SETTLE ALGORITHM
Info: RANDOM NUMBER SEED     1743593180
Info: USE HYDROGEN BONDS?    NO
Info: Using AMBER format force field!
Info: AMBER PARM FILE        mobley_2782339.prmtop
Info: COORDINATE PDB         mobley_2782339.pdb
Info: Exclusions will be read from PARM file!
Info: SCNB (VDW SCALING)     2
Info: USING ARITHMETIC MEAN TO COMBINE L-J SIGMA PARAMETERS
Info: BINARY COORDINATES     mobley_2782339_equil.coor
Info: SUMMARY OF PARAMETERS:
Info: 8 BONDS
Info: 8 ANGLES
Info:   8 HARMONIC
Info:   0 COSINE-BASED
Info: 6 DIHEDRAL
Info: 0 IMPROPER
Info: 0 CROSSTERM
Info: 0 VDW
Info: 28 VDW_PAIRS
Info: 0 NBTHOLE_PAIRS
Info: To read alchdata from file: mobley_2782339.pdb
Info: To read alchflag data from column: 5
Info: STRUCTURE SUMMARY:
Info: 2905 ATOMS
Info: 2906 BONDS
Info: 27 ANGLES
Info: 51 DIHEDRALS
Info: 0 IMPROPERS
Info: 0 CROSSTERMS
Info: 2965 EXCLUSIONS
Info: 2894 RIGID BONDS
Info: ALCH: 0 ATOMS TO DISAPPEAR IN FINAL STATE
Info: ALCH: 16 ATOMS TO APPEAR IN FINAL STATE
Info: 5821 DEGREES OF FREEDOM
Info: 974 HYDROGEN GROUPS
Info: 3 ATOMS IN LARGEST HYDROGEN GROUP
Info: 974 MIGRATION GROUPS
Info: 3 ATOMS IN LARGEST MIGRATION GROUP
Info: TOTAL MASS = 17496.5 amu
Info: TOTAL CHARGE = 5.21541e-08 e
Info: MASS DENSITY = 0.966474 g/cm^3
Info: ATOM DENSITY = 0.0966329 atoms/A^3
Info: ADDED 0 IMPLICIT EXCLUSIONS
Info: NONBONDED TABLE R-SQUARED SPACING: 0.0625
Info: NONBONDED TABLE SIZE: 705 POINTS
Info: REMOVING COM VELOCITY 0.0558677 -0.116688 -0.00507671
Info: Use 3D box decompostion in PME FFT.
Info: Updated CUDA force table with 4096 elements.
Info: Updated CUDA LJ table with 7 x 7 elements.
Info: Found 18 unique exclusion lists needing 40 bytes
TCL: Running for 1500000 steps
ETITLE: TS BOND ANGLE DIHED IMPRP ELECT VDW BOUNDARY MISC KINETIC TOTAL TEMP POTENTIAL TOTALAVG TEMPAVG PRESSURE GPRESSURE VOLUME PRESSAVG GPRESSAVG
ENERGY: 0 3.0957 25.7023 11.1730 0.0000 -10576.3860 1429.8199 0.0000 0.0000 1694.1094 -7412.4857 292.9100 -9106.5951 -7412.4857 292.9100 -23.0095 69.3547 30062.2258 -23.0095 69.3547
ENERGY: 300000 4.1898 24.5215 13.1273 0.0000 -10618.8259 1422.4243 0.0000 0.0000 1703.3131 -7451.2501 294.5013 -9154.5632 -7413.0107 297.8593 -53.8595 7.1025 29912.9885 2.7130 86.2397
ENERGY: 600000 4.3383 24.6083 11.8425 0.0000 -10696.1835 1405.2357 0.0000 0.0000 1736.0873 -7514.0716 300.1680 -9250.1588 -7437.8881 297.0298 -238.4969 -110.6499 29674.2906 -74.5072 11.1964
ENERGY: 900000 2.8305 22.0380 10.9090 0.0000 -10691.2570 1429.7681 0.0000 0.0000 1748.6411 -7477.0703 302.3385 -9225.7114 -7450.2142 297.7973 -291.4547 -238.8832 30000.5342 -181.4867 -95.9527
ENERGY: 1200000 3.0969 24.2972 11.0724 0.0000 -10513.2675 1393.8306 0.0000 0.0000 1732.3871 -7348.5833 299.5282 -9080.9704 -7438.1814 297.4469 30.8715 69.8823 29816.7269 -104.5247 -33.0769
ENERGY: 1500000 8.3232 23.8733 12.0419 0.0000 -10638.4108 1504.3112 0.0000 0.0000 1755.1300 -7334.7310 303.4604 -9089.8611 -7426.0385 298.8780 1340.8711 1418.7509 29654.2741 4.1639 78.3536
TCL: Running FEP window   2: Lambda1 0.95   Lambda2 0.8999999999999999 [dLambda -0.050000000000000044]
TCL: Setting parameter firsttimestep to 0
TCL: Setting parameter alchLambda to 0.95
Info: NONBONDED TABLE R-SQUARED SPACING: 0.0625
Info: NONBONDED TABLE SIZE: 705 POINTS
TCL: Setting parameter alchLambda2 to 0.8999999999999999
Info: NONBONDED TABLE R-SQUARED SPACING: 0.0625
Info: NONBONDED TABLE SIZE: 705 POINTS
TCL: Running for 1500000 steps
ETITLE: TS BOND ANGLE DIHED IMPRP ELECT VDW BOUNDARY MISC KINETIC TOTAL TEMP POTENTIAL TOTALAVG TEMPAVG PRESSURE GPRESSURE VOLUME PRESSAVG GPRESSAVG
ENERGY: 0 8.3232 23.8733 12.0419 0.0000 -10635.8587 1502.1578 0.0000 0.0000 1754.2563 -7335.2061 303.3094 -9089.4624 -7335.2061 303.3094 1299.9515 1382.2085 29654.2741 1299.9515 1382.2085
ENERGY: 300000 4.0405 23.6187 13.8698 0.0000 -10462.1114 1309.4939 0.0000 0.0000 1827.3514 -7283.7370 315.9475 -9111.0884 -7353.1894 303.5285 -612.0738 -523.9677 30089.2393 463.4245 544.6532
ENERGY: 600000 4.0640 24.7912 12.9158 0.0000 -10700.3016 1437.3346 0.0000 0.0000 1747.8012 -7473.3948 302.1933 -9221.1960 -7388.8262 300.2549 -233.3706 -190.6295 30276.9101 329.8524 403.0016
ENERGY: 900000 3.5859 24.4038 9.4336 0.0000 -10606.3397 1375.9578 0.0000 0.0000 1732.7074 -7460.2512 299.5836 -9192.9586 -7384.4101 300.6114 -442.1296 -355.6593 30158.5637 195.5545 260.9147
ENERGY: 1200000 6.1950 25.4164 12.8697 0.0000 -10475.1773 1317.6765 0.0000 0.0000 1704.3604 -7408.6593 294.6824 -9113.0197 -7397.0047 299.7257 -841.8428 -738.5832 30475.4232 158.9986 225.1314
ENERGY: 1500000 6.8362 25.6593 16.1809 0.0000 -10416.4036 1292.7120 0.0000 0.0000 1704.6973 -7370.3179 294.7407 -9075.0152 -7397.9557 299.7991 -698.7798 -612.1323 30083.5965 67.5755 138.3096
TCL: Running FEP window   3: Lambda1 0.8999999999999999 Lambda2 0.8499999999999999 [dLambda -0.050000000000000044]
TCL: Setting parameter firsttimestep to 0
TCL: Setting parameter alchLambda to 0.8999999999999999
Info: NONBONDED TABLE R-SQUARED SPACING: 0.0625
Info: NONBONDED TABLE SIZE: 705 POINTS
TCL: Setting parameter alchLambda2 to 0.8499999999999999
Info: NONBONDED TABLE R-SQUARED SPACING: 0.0625
Info: NONBONDED TABLE SIZE: 705 POINTS
TCL: Running for 1500000 steps
ETITLE: TS BOND ANGLE DIHED IMPRP ELECT VDW BOUNDARY MISC KINETIC TOTAL TEMP POTENTIAL TOTALAVG TEMPAVG PRESSURE GPRESSURE VOLUME PRESSAVG GPRESSAVG
ENERGY: 0 6.8362 25.6593 16.1809 0.0000 -10412.8365 1292.2881 0.0000 0.0000 1703.8467 -7368.0253 294.5936 -9071.8720 -7368.0253 294.5936 -699.9337 -624.6915 30083.5965 -699.9337 -624.6915
ENERGY: 300000 3.6182 23.8634 10.6652 0.0000 -10630.2025 1359.3013 0.0000 0.0000 1782.3741 -7450.3804 308.1709 -9232.7544 -7408.5629 300.6615 -495.1395 -467.3653 29677.7855 -118.9008 -85.5097
ENERGY: 600000 7.1934 24.6989 10.1524 0.0000 -10621.9117 1448.8111 0.0000 0.0000 1709.4539 -7421.6020 295.5631 -9131.0559 -7422.9313 298.9544 398.6464 424.8606 29886.5639 41.2566 75.7490
ENERGY: 900000 3.3384 26.5224 11.0469 0.0000 -10716.9491 1487.5614 0.0000 0.0000 1697.0589 -7491.4210 293.4200 -9188.4799 -7442.1454 298.0600 350.2465 401.2933 30355.1336 -32.2301 10.0491
ENERGY: 1200000 3.0758 25.5781 14.8452 0.0000 -10652.8202 1478.2142 0.0000 0.0000 1676.5767 -7454.5303 289.8786 -9131.1070 -7434.5325 298.3033 620.1566 665.7661 29915.7572 -38.1642 9.2566
ENERGY: 1500000 3.3367 23.9018 11.2715 0.0000 -10479.1639 1343.6079 0.0000 0.0000 1687.8410 -7409.2049 291.8262 -9097.0459 -7427.5652 298.4802 -553.5803 -515.5148 30403.1405 -108.9344 -57.7626
TCL: Running FEP window   4: Lambda1 0.8499999999999999 Lambda2 0.7999999999999998 [dLambda -0.050000000000000044]
TCL: Setting parameter firsttimestep to 0
TCL: Setting parameter alchLambda to 0.8499999999999999
Info: NONBONDED TABLE R-SQUARED SPACING: 0.0625
Info: NONBONDED TABLE SIZE: 705 POINTS
TCL: Setting parameter alchLambda2 to 0.7999999999999998
Info: NONBONDED TABLE R-SQUARED SPACING: 0.0625
Info: NONBONDED TABLE SIZE: 705 POINTS
TCL: Running for 1500000 steps
ETITLE: TS BOND ANGLE DIHED IMPRP ELECT VDW BOUNDARY MISC KINETIC TOTAL TEMP POTENTIAL TOTALAVG TEMPAVG PRESSURE GPRESSURE VOLUME PRESSAVG GPRESSAVG
ENERGY: 0 3.3367 23.9018 11.2715 0.0000 -10476.3894 1343.6271 0.0000 0.0000 1686.9738 -7407.2784 291.6763 -9094.2523 -7407.2784 291.6763 -598.4297 -522.5896 30403.1405 -598.4297 -522.5896
ENERGY: 300000 9.1680 27.7536 12.2866 0.0000 -10580.6844 1392.8047 0.0000 0.0000 1766.3174 -7372.3541 305.3947 -9138.6715 -7406.6004 299.4409 -185.2941 -146.4682 30151.9664 -312.6996 -245.3302
ENERGY: 600000 3.0415 22.6119 13.4361 0.0000 -10592.3359 1397.0596 0.0000 0.0000 1739.4020 -7416.7847 300.7411 -9156.1868 -7400.7286 299.5549 -201.7850 -109.2948 29743.2525 -162.5900 -87.9753
ENERGY: 900000 5.8656 22.2107 11.9276 0.0000 -10615.2452 1434.7832 0.0000 0.0000 1712.6900 -7427.7682 296.1226 -9140.4582 -7427.4507 297.9577 46.2075 74.1859 29937.6595 -35.5612 26.7184
ENERGY: 1200000 4.4644 23.2593 13.4576 0.0000 -10469.4253 1310.4937 0.0000 0.0000 1741.9973 -7375.7531 301.1898 -9117.7504 -7419.9242 298.8836 -409.9858 -373.5763 29516.0202 -3.0892 54.4596
ENERGY: 1500000 1.8415 25.5897 13.8802 0.0000 -10769.1595 1497.1601 0.0000 0.0000 1675.0391 -7555.6490 289.6128 -9230.6881 -7430.0379 298.4418 286.1678 338.1705 29883.7191 78.9896 140.8838
TCL: Running FEP window   5: Lambda1 0.7999999999999998 Lambda2 0.7499999999999998 [dLambda -0.050000000000000044]
TCL: Setting parameter firsttimestep to 0
TCL: Setting parameter alchLambda to 0.7999999999999998
Info: NONBONDED TABLE R-SQUARED SPACING: 0.0625
Info: NONBONDED TABLE SIZE: 705 POINTS
TCL: Setting parameter alchLambda2 to 0.7499999999999998
Info: NONBONDED TABLE R-SQUARED SPACING: 0.0625
Info: NONBONDED TABLE SIZE: 705 POINTS
TCL: Running for 1500000 steps
ETITLE: TS BOND ANGLE DIHED IMPRP ELECT VDW BOUNDARY MISC KINETIC TOTAL TEMP POTENTIAL TOTALAVG TEMPAVG PRESSURE GPRESSURE VOLUME PRESSAVG GPRESSAVG
ENERGY: 0 1.8415 25.5897 13.8802 0.0000 -10766.9901 1497.5714 0.0000 0.0000 1674.2208 -7553.8866 289.4713 -9228.1074 -7553.8866 289.4713 267.5413 338.9258 29883.7191 267.5413 338.9258
ENERGY: 300000 4.6385 25.8332 13.7923 0.0000 -10675.6603 1381.8881 0.0000 0.0000 1782.7054 -7466.8028 308.2282 -9249.5082 -7474.5535 296.1711 -826.6273 -717.5471 29906.9131 -191.5482 -91.2881
ENERGY: 600000 7.1706 23.4853 9.9035 0.0000 -10601.7357 1471.3233 0.0000 0.0000 1732.6020 -7357.2511 299.5654 -9089.8530 -7427.2521 298.3765 607.1861 616.0843 30106.2555 -130.1994 -43.8137
ENERGY: 900000 2.3270 29.7477 9.5981 0.0000 -10666.1870 1511.6108 0.0000 0.0000 1721.2177 -7391.6857 297.5970 -9112.9034 -7408.7694 299.8384 1103.7098 1166.7441 29308.6753 -41.0280 38.1361
ENERGY: 1200000 3.1207 23.0738 16.6637 0.0000 -10462.0811 1361.8904 0.0000 0.0000 1685.8960 -7371.4366 291.4899 -9057.3326 -7394.4049 299.6990 -443.4599 -337.7287 30269.1583 -123.2508 -38.9735
ENERGY: 1500000 1.6308 27.0840 11.2327 0.0000 -10626.1182 1413.0109 0.0000 0.0000 1704.9534 -7468.2062 294.7849 -9173.1597 -7406.8272 299.1923 16.0334 111.4199 29643.4504 -105.9080 -20.9895
TCL: Running FEP window   6: Lambda1 0.7499999999999998 Lambda2 0.6999999999999997 [dLambda -0.050000000000000044]
TCL: Setting parameter firsttimestep to 0
TCL: Setting parameter alchLambda to 0.7499999999999998
Info: NONBONDED TABLE R-SQUARED SPACING: 0.0625
Info: NONBONDED TABLE SIZE: 705 POINTS
TCL: Setting parameter alchLambda2 to 0.6999999999999997
Info: NONBONDED TABLE R-SQUARED SPACING: 0.0625
Info: NONBONDED TABLE SIZE: 705 POINTS
TCL: Running for 1500000 steps
ETITLE: TS BOND ANGLE DIHED IMPRP ELECT VDW BOUNDARY MISC KINETIC TOTAL TEMP POTENTIAL TOTALAVG TEMPAVG PRESSURE GPRESSURE VOLUME PRESSAVG GPRESSAVG
ENERGY: 0 1.6308 27.0840 11.2327 0.0000 -10625.1236 1413.8453 0.0000 0.0000 1704.0968 -7467.2339 294.6368 -9171.3308 -7467.2339 294.6368 25.2256 113.2704 29643.4504 25.2256 113.2704
ENERGY: 300000 1.6448 24.8728 12.2225 0.0000 -10572.1881 1368.8048 0.0000 0.0000 1727.2313 -7437.4119 298.6368 -9164.6432 -7440.8325 296.8669 -592.2554 -531.9518 30131.0574 -159.4726 -88.3583
ENERGY: 600000 3.6716 23.7139 13.2591 0.0000 -10542.1102 1372.1272 0.0000 0.0000 1734.5094 -7394.8290 299.8951 -9129.3384 -7432.2765 298.6930 -236.5447 -228.4964 30093.8941 -106.4093 -36.3030
ENERGY: 900000 2.1126 26.4302 15.3291 0.0000 -10584.4635 1432.6156 0.0000 0.0000 1716.5716 -7391.4044 296.7937 -9107.9760 -7408.4204 298.8652 175.4366 232.9468 29937.5110 -147.7347 -78.1160
ENERGY: 1200000 9.9615 25.3003 10.6016 0.0000 -10548.2591 1424.8279 0.0000 0.0000 1674.2696 -7403.2982 289.4797 -9077.5678 -7406.4286 298.2376 -81.5508 4.5298 30059.9003 -224.0672 -161.9222
ENERGY: 1500000 3.0194 24.0486 11.9793 0.0000 -10630.2308 1493.5432 0.0000 0.0000 1685.1157 -7412.5246 291.3550 -9097.6403 -7403.5551 297.4410 889.9947 892.2612 29807.5661 -103.3575 -47.0821
TCL: Running FEP window   7: Lambda1 0.6999999999999997 Lambda2 0.6499999999999997 [dLambda -0.050000000000000044]
TCL: Setting parameter firsttimestep to 0
TCL: Setting parameter alchLambda to 0.6999999999999997
Info: NONBONDED TABLE R-SQUARED SPACING: 0.0625
Info: NONBONDED TABLE SIZE: 705 POINTS
TCL: Setting parameter alchLambda2 to 0.6499999999999997
Info: NONBONDED TABLE R-SQUARED SPACING: 0.0625
Info: NONBONDED TABLE SIZE: 705 POINTS
TCL: Running for 1500000 steps
ETITLE: TS BOND ANGLE DIHED IMPRP ELECT VDW BOUNDARY MISC KINETIC TOTAL TEMP POTENTIAL TOTALAVG TEMPAVG PRESSURE GPRESSURE VOLUME PRESSAVG GPRESSAVG
ENERGY: 0 3.0194 24.0486 11.9793 0.0000 -10628.1019 1493.4788 0.0000 0.0000 1684.2735 -7411.3024 291.2094 -9095.5758 -7411.3024 291.2094 808.4443 883.6378 29807.5661 808.4443 883.6378
ENERGY: 300000 3.0555 25.1248 11.8124 0.0000 -10603.7648 1400.2166 0.0000 0.0000 1696.5668 -7466.9886 293.3349 -9163.5555 -7443.1991 295.3450 -311.7829 -268.4013 29677.0913 16.1589 91.1767
ENERGY: 600000 3.6681 25.6506 14.0425 0.0000 -10673.8276 1472.3785 0.0000 0.0000 1721.4992 -7436.5886 297.6457 -9158.0879 -7441.7796 296.3148 282.5204 359.0339 29772.8249 -66.2843 3.7133
ENERGY: 900000 2.6188 25.7755 12.3041 0.0000 -10487.5829 1362.3369 0.0000 0.0000 1684.4923 -7400.0553 291.2472 -9084.5477 -7416.1343 297.2492 -522.1921 -412.1340 30391.7575 -22.9436 41.3794
ENERGY: 1200000 7.1195 25.2990 12.5482 0.0000 -10579.7466 1401.0834 0.0000 0.0000 1758.1100 -7375.5864 303.9757 -9133.6964 -7420.7974 298.1263 101.9416 148.5273 29924.4442 43.5783 103.1861
ENERGY: 1500000 3.9322 26.2411 9.9236 0.0000 -10540.9688 1448.6219 0.0000 0.0000 1761.9100 -7290.3401 304.6327 -9052.2500 -7407.1082 298.9437 369.7273 392.7042 30484.5015 105.6678 167.6145
TCL: Running FEP window   8: Lambda1 0.6499999999999997 Lambda2 0.5999999999999996 [dLambda -0.050000000000000044]
TCL: Setting parameter firsttimestep to 0
TCL: Setting parameter alchLambda to 0.6499999999999997
Info: NONBONDED TABLE R-SQUARED SPACING: 0.0625
Info: NONBONDED TABLE SIZE: 705 POINTS
TCL: Setting parameter alchLambda2 to 0.5999999999999996
Info: NONBONDED TABLE R-SQUARED SPACING: 0.0625
Info: NONBONDED TABLE SIZE: 705 POINTS
TCL: Running for 1500000 steps
ETITLE: TS BOND ANGLE DIHED IMPRP ELECT VDW BOUNDARY MISC KINETIC TOTAL TEMP POTENTIAL TOTALAVG TEMPAVG PRESSURE GPRESSURE VOLUME PRESSAVG GPRESSAVG
ENERGY: 0 3.9322 26.2411 9.9236 0.0000 -10539.1515 1448.2213 0.0000 0.0000 1761.0813 -7289.7519 304.4894 -9050.8332 -7289.7519 304.4894 316.1072 379.9573 30484.5015 316.1072 379.9573
ENERGY: 300000 1.6939 23.7932 13.2062 0.0000 -10562.1594 1351.0918 0.0000 0.0000 1784.0463 -7388.3280 308.4600 -9172.3743 -7376.9582 301.0440 -395.0882 -356.3779 29816.4440 -463.8908 -385.8204
ENERGY: 600000 2.8705 28.1181 10.4802 0.0000 -10630.2526 1470.4577 0.0000 0.0000 1757.2960 -7361.0301 303.8349 -9118.3261 -7380.8400 301.4236 365.0846 383.9537 30177.2846 -51.0167 20.0868
ENERGY: 900000 4.8784 21.7998 12.4931 0.0000 -10588.6803 1396.2222 0.0000 0.0000 1726.6221 -7426.6647 298.5314 -9153.2868 -7382.8210 301.5633 -396.8711 -389.9179 29784.8403 -86.0995 -15.8726
ENERGY: 1200000 2.7231 26.3100 9.9517 0.0000 -10597.5487 1412.3666 0.0000 0.0000 1760.0457 -7386.1516 304.3103 -9146.1973 -7395.0451 300.6422 -33.4224 5.1262 30229.6866 -131.1782 -70.2408
ENERGY: 1500000 3.9839 25.8521 11.8391 0.0000 -10431.4376 1353.9630 0.0000 0.0000 1779.5864 -7256.2132 307.6889 -9035.7995 -7391.6105 300.5594 -147.9242 -122.5488 30095.1594 -145.0124 -84.6390
TCL: Running FEP window   9: Lambda1 0.5999999999999996 Lambda2 0.5499999999999996 [dLambda -0.050000000000000044]
TCL: Setting parameter firsttimestep to 0
TCL: Setting parameter alchLambda to 0.5999999999999996
Info: NONBONDED TABLE R-SQUARED SPACING: 0.0625
Info: NONBONDED TABLE SIZE: 705 POINTS
TCL: Setting parameter alchLambda2 to 0.5499999999999996
Info: NONBONDED TABLE R-SQUARED SPACING: 0.0625
Info: NONBONDED TABLE SIZE: 705 POINTS
TCL: Running for 1500000 steps
ETITLE: TS BOND ANGLE DIHED IMPRP ELECT VDW BOUNDARY MISC KINETIC TOTAL TEMP POTENTIAL TOTALAVG TEMPAVG PRESSURE GPRESSURE VOLUME PRESSAVG GPRESSAVG
ENERGY: 0 3.9839 25.8521 11.8391 0.0000 -10430.6269 1354.0294 0.0000 0.0000 1778.7190 -7256.2034 307.5390 -9034.9224 -7256.2034 307.5390 -198.7916 -126.5184 30095.1594 -198.7916 -126.5184
ENERGY: 300000 6.0001 24.1280 13.1369 0.0000 -10505.6778 1416.6534 0.0000 0.0000 1710.7403 -7335.0190 295.7855 -9045.7593 -7322.0503 300.5495 321.6458 434.7609 29881.8910 63.9391 133.7889
ENERGY: 600000 2.6782 25.0365 12.1027 0.0000 -10813.4251 1518.5509 0.0000 0.0000 1733.5802 -7521.4765 299.7345 -9255.0567 -7363.3881 299.5968 609.1062 644.6871 29521.8432 216.9886 276.2961
ENERGY: 900000 1.8132 22.8206 13.5713 0.0000 -10492.0477 1342.6681 0.0000 0.0000 1772.1462 -7339.0283 306.4025 -9111.1745 -7365.7917 301.5785 -532.9799 -443.8099 29747.4106 109.6056 164.3791
ENERGY: 1200000 3.1812 24.4879 15.3354 0.0000 -10540.3794 1346.5940 0.0000 0.0000 1709.8021 -7440.9788 295.6233 -9150.7809 -7378.1256 300.4978 -539.7808 -491.0156 29729.5944 50.3313 114.4993
ENERGY: 1500000 6.8219 23.2078 11.4342 0.0000 -10598.0005 1377.5717 0.0000 0.0000 1663.5793 -7515.3856 287.6314 -9178.9649 -7388.9680 300.0397 -275.0194 -221.6409 29535.7764 -46.9032 14.7766
TCL: Running FEP window  10: Lambda1 0.5499999999999996 Lambda2 0.4999999999999996 [dLambda -0.04999999999999999]
TCL: Setting parameter firsttimestep to 0
TCL: Setting parameter alchLambda to 0.5499999999999996
Info: NONBONDED TABLE R-SQUARED SPACING: 0.0625
Info: NONBONDED TABLE SIZE: 705 POINTS
TCL: Setting parameter alchLambda2 to 0.4999999999999996
Info: NONBONDED TABLE R-SQUARED SPACING: 0.0625
Info: NONBONDED TABLE SIZE: 705 POINTS
TCL: Running for 1500000 steps
ETITLE: TS BOND ANGLE DIHED IMPRP ELECT VDW BOUNDARY MISC KINETIC TOTAL TEMP POTENTIAL TOTALAVG TEMPAVG PRESSURE GPRESSURE VOLUME PRESSAVG GPRESSAVG
ENERGY: 0 6.8219 23.2078 11.4341 0.0000 -10596.1589 1377.6127 0.0000 0.0000 1662.6958 -7514.3865 287.4786 -9177.0823 -7514.3865 287.4786 -318.2538 -227.7587 29535.7764 -318.2538 -227.7587
ENERGY: 300000 2.9667 27.1919 11.9686 0.0000 -10559.7701 1385.0747 0.0000 0.0000 1736.3619 -7396.2064 300.2154 -9132.5683 -7404.9121 299.7032 -382.1810 -321.1500 30355.8219 -227.3931 -152.2579
ENERGY: 600000 5.8090 21.9428 14.0632 0.0000 -10538.2058 1386.6785 0.0000 0.0000 1754.0731 -7355.6393 303.2777 -9109.7124 -7416.5850 299.3952 -551.2881 -420.9050 30341.3680 -130.0808 -41.1269
ENERGY: 900000 4.6819 27.6360 12.0693 0.0000 -10574.1699 1353.8014 0.0000 0.0000 1689.7685 -7486.2127 292.1595 -9175.9812 -7405.8626 300.1279 -642.2452 -602.9253 29709.3100 -57.1821 19.1207
ENERGY: 1200000 3.9428 24.8351 12.0612 0.0000 -10506.6462 1377.0770 0.0000 0.0000 1687.4274 -7401.3027 291.7547 -9088.7301 -7407.7250 299.5386 -162.1708 -37.0370 29770.3121 -31.5361 51.2264
ENERGY: 1500000 1.6598 25.0746 11.1092 0.0000 -10581.8392 1445.5693 0.0000 0.0000 1719.3686 -7379.0576 297.2773 -9098.4263 -7406.1822 299.1702 163.8788 298.2682 30140.2071 -15.8390 62.6175
TCL: Running FEP window  11: Lambda1 0.4999999999999996 Lambda2 0.4499999999999996 [dLambda -0.04999999999999999]
TCL: Setting parameter firsttimestep to 0
TCL: Setting parameter alchLambda to 0.4999999999999996
Info: NONBONDED TABLE R-SQUARED SPACING: 0.0625
Info: NONBONDED TABLE SIZE: 705 POINTS
TCL: Setting parameter alchLambda2 to 0.4499999999999996
Info: NONBONDED TABLE R-SQUARED SPACING: 0.0625
Info: NONBONDED TABLE SIZE: 705 POINTS
TCL: Running for 1500000 steps
ETITLE: TS BOND ANGLE DIHED IMPRP ELECT VDW BOUNDARY MISC KINETIC TOTAL TEMP POTENTIAL TOTALAVG TEMPAVG PRESSURE GPRESSURE VOLUME PRESSAVG GPRESSAVG
ENERGY: 0 1.6598 25.0746 11.1092 0.0000 -10580.5344 1445.8657 0.0000 0.0000 1718.5227 -7378.3023 297.1311 -9096.8250 -7378.3023 297.1311 222.7937 295.4591 30140.2071 222.7937 295.4591
ENERGY: 300000 4.9151 26.4128 12.0237 0.0000 -10503.7159 1385.8176 0.0000 0.0000 1822.9072 -7251.6393 315.1791 -9074.5466 -7334.2931 303.8450 -144.2748 -123.1790 29991.5458 -543.6283 -498.4066
ENERGY: 600000 2.9359 22.3463 12.7298 0.0000 -10614.4722 1447.5947 0.0000 0.0000 1686.3835 -7442.4819 291.5742 -9128.8654 -7348.6261 301.4832 75.3726 218.3293 29977.8828 -308.1486 -249.8763
ENERGY: 900000 4.9868 25.3050 12.2481 0.0000 -10392.6479 1307.3034 0.0000 0.0000 1748.4929 -7294.3116 302.3129 -9042.8045 -7351.0037 302.0400 -476.1060 -448.0521 30002.8331 -255.2696 -197.3105
ENERGY: 1200000 4.3280 22.7198 12.8329 0.0000 -10760.6791 1507.3490 0.0000 0.0000 1741.2375 -7472.2119 301.0584 -9213.4494 -7367.4602 300.8661 590.0479 658.0926 29805.4574 -171.2109 -115.4686
ENERGY: 1500000 6.0895 24.4788 10.6238 0.0000 -10606.8000 1398.5542 0.0000 0.0000 1713.6327 -7453.4210 296.2856 -9167.0537 -7378.5263 299.7498 4.1138 74.9416 29647.4743 -127.7946 -66.5830
TCL: Running FEP window  12: Lambda1 0.4499999999999996 Lambda2 0.39999999999999963 [dLambda -0.04999999999999999]
TCL: Setting parameter firsttimestep to 0
TCL: Setting parameter alchLambda to 0.4499999999999996
Info: NONBONDED TABLE R-SQUARED SPACING: 0.0625
Info: NONBONDED TABLE SIZE: 705 POINTS
TCL: Setting parameter alchLambda2 to 0.39999999999999963
Info: NONBONDED TABLE R-SQUARED SPACING: 0.0625
Info: NONBONDED TABLE SIZE: 705 POINTS
TCL: Running for 1500000 steps
ETITLE: TS BOND ANGLE DIHED IMPRP ELECT VDW BOUNDARY MISC KINETIC TOTAL TEMP POTENTIAL TOTALAVG TEMPAVG PRESSURE GPRESSURE VOLUME PRESSAVG GPRESSAVG
ENERGY: 0 6.0895 24.4788 10.6238 0.0000 -10606.7985 1398.7021 0.0000 0.0000 1712.7824 -7454.1219 296.1386 -9166.9043 -7454.1219 296.1386 -26.3236 68.1886 29647.4743 -26.3236 68.1886
ENERGY: 300000 3.2554 24.5067 12.1482 0.0000 -10691.5518 1511.9978 0.0000 0.0000 1683.9708 -7455.6729 291.1571 -9139.6437 -7433.8175 296.5749 835.9132 851.4091 29572.5554 180.9089 252.4918
ENERGY: 600000 4.8060 26.2114 13.1239 0.0000 -10601.6586 1449.4677 0.0000 0.0000 1763.5752 -7344.4744 304.9206 -9108.0496 -7409.1369 299.4075 179.7412 155.5784 29889.2274 135.4613 187.6007
ENERGY: 900000 6.0557 24.1273 19.3552 0.0000 -10744.5812 1556.1734 0.0000 0.0000 1735.4993 -7403.3703 300.0663 -9138.8696 -7412.5300 298.1687 932.4817 995.4004 29673.7822 273.0082 323.6278
ENERGY: 1200000 3.6636 25.6467 9.6698 0.0000 -10599.7861 1459.2318 0.0000 0.0000 1726.5331 -7375.0411 298.5161 -9101.5743 -7397.7153 299.2955 344.3042 404.6807 30140.8174 287.7091 338.7554
ENERGY: 1500000 1.6742 23.7966 13.3314 0.0000 -10388.9290 1300.9783 0.0000 0.0000 1738.1262 -7311.0223 300.5205 -9049.1485 -7394.3848 300.2280 -742.4618 -761.6752 30088.8425 129.9477 179.0836
TCL: Running FEP window  13: Lambda1 0.39999999999999963 Lambda2 0.34999999999999964 [dLambda -0.04999999999999999]
TCL: Setting parameter firsttimestep to 0
TCL: Setting parameter alchLambda to 0.39999999999999963
Info: NONBONDED TABLE R-SQUARED SPACING: 0.0625
Info: NONBONDED TABLE SIZE: 705 POINTS
TCL: Setting parameter alchLambda2 to 0.34999999999999964
Info: NONBONDED TABLE R-SQUARED SPACING: 0.0625
Info: NONBONDED TABLE SIZE: 705 POINTS
TCL: Running for 1500000 steps
ETITLE: TS BOND ANGLE DIHED IMPRP ELECT VDW BOUNDARY MISC KINETIC TOTAL TEMP POTENTIAL TOTALAVG TEMPAVG PRESSURE GPRESSURE VOLUME PRESSAVG GPRESSAVG
ENERGY: 0 1.6742 23.7966 13.3314 0.0000 -10388.9310 1300.9406 0.0000 0.0000 1737.2455 -7311.9427 300.3682 -9049.1882 -7311.9427 300.3682 -843.9321 -770.0298 30088.8425 -843.9321 -770.0298
ENERGY: 300000 6.8971 24.0990 13.1293 0.0000 -10593.1290 1435.1036 0.0000 0.0000 1774.1031 -7339.7969 306.7409 -9113.9000 -7314.5880 301.9702 12.5643 9.2209 30165.4082 -48.1555 3.5639
ENERGY: 600000 4.6701 24.5164 10.0986 0.0000 -10405.6031 1358.8451 0.0000 0.0000 1779.2427 -7228.2303 307.6295 -9007.4730 -7307.8424 303.1385 -217.0092 -89.3183 30461.0847 -180.1721 -120.2001
ENERGY: 900000 4.1078 23.7787 16.0133 0.0000 -10586.4564 1435.8352 0.0000 0.0000 1754.1761 -7352.5453 303.2955 -9106.7214 -7325.4633 302.1214 -54.1313 72.8221 29908.0021 -84.2325 -16.5987
ENERGY: 1200000 3.9022 24.6372 10.0221 0.0000 -10514.7475 1334.0217 0.0000 0.0000 1719.8343 -7422.3301 297.3578 -9142.1644 -7339.6769 301.7127 -631.1705 -596.8401 29633.9107 -133.1979 -67.1945
ENERGY: 1500000 6.3905 25.7853 12.5027 0.0000 -10741.5894 1520.4704 0.0000 0.0000 1794.8320 -7381.6086 310.3249 -9176.4406 -7349.0864 302.1091 993.1152 1006.5535 29713.7024 -34.8036 26.0756
TCL: Running FEP window  14: Lambda1 0.34999999999999964 Lambda2 0.29999999999999966 [dLambda -0.04999999999999999]
TCL: Setting parameter firsttimestep to 0
TCL: Setting parameter alchLambda to 0.34999999999999964
Info: NONBONDED TABLE R-SQUARED SPACING: 0.0625
Info: NONBONDED TABLE SIZE: 705 POINTS
TCL: Setting parameter alchLambda2 to 0.29999999999999966
Info: NONBONDED TABLE R-SQUARED SPACING: 0.0625
Info: NONBONDED TABLE SIZE: 705 POINTS
TCL: Running for 1500000 steps
ETITLE: TS BOND ANGLE DIHED IMPRP ELECT VDW BOUNDARY MISC KINETIC TOTAL TEMP POTENTIAL TOTALAVG TEMPAVG PRESSURE GPRESSURE VOLUME PRESSAVG GPRESSAVG
ENERGY: 0 6.3905 25.7853 12.5027 0.0000 -10741.5899 1520.7076 0.0000 0.0000 1793.9394 -7382.2643 310.1706 -9176.2038 -7382.2643 310.1706 916.2361 1004.0907 29713.7024 916.2361 1004.0907
ENERGY: 300000 5.0290 27.4746 10.5235 0.0000 -10634.6850 1429.7471 0.0000 0.0000 1723.2231 -7438.6876 297.9438 -9161.9107 -7424.0320 302.4889 -476.3151 -414.9485 30335.5336 366.9688 404.6848
ENERGY: 600000 3.5437 28.6799 15.0487 0.0000 -10783.3941 1543.2518 0.0000 0.0000 1732.8467 -7460.0234 299.6077 -9192.8701 -7411.2781 301.6753 804.7811 942.5861 29637.6891 243.7251 287.9960
ENERGY: 900000 7.1902 27.6073 13.8779 0.0000 -10534.9918 1420.4477 0.0000 0.0000 1834.7122 -7231.1565 317.2201 -9065.8687 -7394.2655 302.4475 214.0768 265.8175 29768.1528 151.7864 208.1886
ENERGY: 1200000 2.7179 23.4532 10.2277 0.0000 -10445.5697 1312.8025 0.0000 0.0000 1739.6583 -7356.7102 300.7854 -9096.3685 -7397.4616 302.2147 -643.9914 -552.6202 29994.6450 150.9563 205.4738
ENERGY: 1500000 3.0218 24.1145 16.0631 0.0000 -10694.8930 1494.0428 0.0000 0.0000 1754.8948 -7402.7560 303.4198 -9157.6508 -7402.1530 301.1283 801.3452 911.5435 29449.1536 151.2152 212.0211
TCL: Running FEP window  15: Lambda1 0.29999999999999966 Lambda2 0.24999999999999967 [dLambda -0.04999999999999999]
TCL: Setting parameter firsttimestep to 0
TCL: Setting parameter alchLambda to 0.29999999999999966
Info: NONBONDED TABLE R-SQUARED SPACING: 0.0625
Info: NONBONDED TABLE SIZE: 705 POINTS
TCL: Setting parameter alchLambda2 to 0.24999999999999967
Info: NONBONDED TABLE R-SQUARED SPACING: 0.0625
Info: NONBONDED TABLE SIZE: 705 POINTS
TCL: Running for 1500000 steps
ETITLE: TS BOND ANGLE DIHED IMPRP ELECT VDW BOUNDARY MISC KINETIC TOTAL TEMP POTENTIAL TOTALAVG TEMPAVG PRESSURE GPRESSURE VOLUME PRESSAVG GPRESSAVG
ENERGY: 0 3.0218 24.1145 16.0631 0.0000 -10694.8944 1494.7433 0.0000 0.0000 1753.9964 -7402.9553 303.2644 -9156.9516 -7402.9553 303.2644 824.9843 911.2942 29449.1536 824.9843 911.2942
ENERGY: 300000 4.5633 23.1858 11.4001 0.0000 -10635.7140 1441.3993 0.0000 0.0000 1665.3166 -7489.8489 287.9318 -9155.1655 -7458.1515 294.7016 248.3482 332.9765 29405.6355 308.1914 365.5218
ENERGY: 600000 9.5905 25.8604 11.8205 0.0000 -10507.3014 1315.4374 0.0000 0.0000 1748.7139 -7395.8788 302.3511 -9144.5927 -7419.8717 298.9204 -917.3692 -865.4297 30141.1278 69.4061 117.9805
ENERGY: 900000 3.1275 23.8094 13.4599 0.0000 -10604.4881 1336.4153 0.0000 0.0000 1705.0278 -7522.6481 294.7978 -9227.6760 -7440.6327 297.5929 -859.4673 -852.0096 29666.6723 -101.7725 -52.3883
ENERGY: 1200000 5.3527 26.3436 12.1407 0.0000 -10689.6768 1455.8470 0.0000 0.0000 1730.6173 -7459.3755 299.2222 -9189.9928 -7443.0419 298.9582 -189.2924 -21.0167 29973.8727 -101.9054 -49.9372
ENERGY: 1500000 3.3961 27.9306 15.8028 0.0000 -10586.9051 1462.5128 0.0000 0.0000 1790.3292 -7286.9337 309.5463 -9077.2629 -7435.0837 299.0979 226.9024 267.9158 30327.8668 -74.7394 -25.5533
TCL: Running FEP window  16: Lambda1 0.24999999999999967 Lambda2 0.19999999999999968 [dLambda -0.04999999999999999]
TCL: Setting parameter firsttimestep to 0
TCL: Setting parameter alchLambda to 0.24999999999999967
Info: NONBONDED TABLE R-SQUARED SPACING: 0.0625
Info: NONBONDED TABLE SIZE: 705 POINTS
TCL: Setting parameter alchLambda2 to 0.19999999999999968
Info: NONBONDED TABLE R-SQUARED SPACING: 0.0625
Info: NONBONDED TABLE SIZE: 705 POINTS
TCL: Running for 1500000 steps
ETITLE: TS BOND ANGLE DIHED IMPRP ELECT VDW BOUNDARY MISC KINETIC TOTAL TEMP POTENTIAL TOTALAVG TEMPAVG PRESSURE GPRESSURE VOLUME PRESSAVG GPRESSAVG
ENERGY: 0 3.3961 27.9306 15.8028 0.0000 -10586.9073 1462.3946 0.0000 0.0000 1789.4575 -7287.9257 309.3956 -9077.3832 -7287.9257 309.3956 178.8057 258.0840 30327.8668 178.8057 258.0840
ENERGY: 300000 3.4121 25.6328 10.4921 0.0000 -10553.0762 1422.9564 0.0000 0.0000 1740.1647 -7350.4181 300.8730 -9090.5828 -7337.4127 303.9935 -3.3373 51.3469 29956.2222 246.5829 291.4630
ENERGY: 600000 2.5288 24.7802 16.9492 0.0000 -10593.7240 1425.5651 0.0000 0.0000 1765.8375 -7358.0632 305.3117 -9123.9007 -7334.5368 305.9342 -65.7592 12.0941 30039.6894 27.9797 81.4120
ENERGY: 900000 5.3263 22.8189 12.1656 0.0000 -10686.1593 1447.5714 0.0000 0.0000 1725.4717 -7472.8054 298.3325 -9198.2771 -7372.8159 303.1082 24.7071 74.1258 29556.4805 18.5898 75.2619
ENERGY: 1200000 3.1365 26.1674 13.6211 0.0000 -10484.3882 1330.8131 0.0000 0.0000 1671.5776 -7439.0725 289.0143 -9110.6501 -7389.0363 301.7878 -599.5477 -574.1910 29927.1753 -52.4178 1.4226
ENERGY: 1500000 2.2069 26.2161 13.3810 0.0000 -10611.7252 1398.0457 0.0000 0.0000 1750.7086 -7421.1669 302.6960 -9171.8755 -7384.7225 301.6668 -218.8247 -188.7313 29903.2415 -82.6673 -34.9341
TCL: Running FEP window  17: Lambda1 0.19999999999999968 Lambda2 0.1499999999999997 [dLambda -0.04999999999999999]
TCL: Setting parameter firsttimestep to 0
TCL: Setting parameter alchLambda to 0.19999999999999968
Info: NONBONDED TABLE R-SQUARED SPACING: 0.0625
Info: NONBONDED TABLE SIZE: 705 POINTS
TCL: Setting parameter alchLambda2 to 0.1499999999999997
Info: NONBONDED TABLE R-SQUARED SPACING: 0.0625
Info: NONBONDED TABLE SIZE: 705 POINTS
TCL: Running for 1500000 steps
ETITLE: TS BOND ANGLE DIHED IMPRP ELECT VDW BOUNDARY MISC KINETIC TOTAL TEMP POTENTIAL TOTALAVG TEMPAVG PRESSURE GPRESSURE VOLUME PRESSAVG GPRESSAVG
ENERGY: 0 2.2069 26.2161 13.3810 0.0000 -10611.7245 1398.7288 0.0000 0.0000 1749.8685 -7421.3233 302.5507 -9171.1917 -7421.3233 302.5507 -257.1526 -185.8992 29903.2415 -257.1526 -185.8992
ENERGY: 300000 2.7924 25.0143 11.7339 0.0000 -10653.6865 1445.9036 0.0000 0.0000 1758.0275 -7410.2148 303.9614 -9168.2424 -7429.1818 299.3280 107.1267 197.2572 29830.1948 -165.5538 -83.4583
ENERGY: 600000 2.9197 23.8468 14.3962 0.0000 -10612.5996 1445.4980 0.0000 0.0000 1701.8618 -7424.0770 294.2504 -9125.9389 -7400.7448 300.1194 432.2060 449.8560 29460.4464 -31.6431 38.9750
ENERGY: 900000 2.5011 25.1040 12.5782 0.0000 -10659.7936 1452.2749 0.0000 0.0000 1726.3983 -7440.9372 298.4927 -9167.3354 -7406.4324 299.8267 58.6037 71.6581 30064.7163 41.2566 107.2766
ENERGY: 1200000 3.1840 24.6269 12.4729 0.0000 -10704.9594 1449.3493 0.0000 0.0000 1734.2915 -7481.0348 299.8575 -9215.3263 -7415.1252 299.2534 -147.2010 -83.9659 29676.4144 5.7969 67.9056
ENERGY: 1500000 5.0341 25.4499 11.7921 0.0000 -10617.5064 1471.3894 0.0000 0.0000 1739.1735 -7364.6673 300.7016 -9103.8408 -7415.6514 300.0687 323.5902 339.1010 29992.5257 36.0520 95.4560
TCL: Running FEP window  18: Lambda1 0.1499999999999997 Lambda2 0.09999999999999969 [dLambda -0.05 ]
TCL: Setting parameter firsttimestep to 0
TCL: Setting parameter alchLambda to 0.1499999999999997
Info: NONBONDED TABLE R-SQUARED SPACING: 0.0625
Info: NONBONDED TABLE SIZE: 705 POINTS
TCL: Setting parameter alchLambda2 to 0.09999999999999969
Info: NONBONDED TABLE R-SQUARED SPACING: 0.0625
Info: NONBONDED TABLE SIZE: 705 POINTS
TCL: Running for 1500000 steps
ETITLE: TS BOND ANGLE DIHED IMPRP ELECT VDW BOUNDARY MISC KINETIC TOTAL TEMP POTENTIAL TOTALAVG TEMPAVG PRESSURE GPRESSURE VOLUME PRESSAVG GPRESSAVG
ENERGY: 0 5.0341 25.4499 11.7921 0.0000 -10617.5077 1471.8695 0.0000 0.0000 1738.3358 -7365.0263 300.5567 -9103.3621 -7365.0263 300.5567 269.3990 337.9698 29992.5257 269.3990 337.9698
ENERGY: 300000 5.4141 25.1633 10.4050 0.0000 -10573.9178 1410.2644 0.0000 0.0000 1731.5574 -7391.1137 299.3847 -9122.6711 -7378.5650 301.0528 62.2087 62.4350 29696.9484 -106.9683 -44.6193
ENERGY: 600000 6.0655 25.2504 10.3450 0.0000 -10544.6444 1365.1448 0.0000 0.0000 1737.0488 -7400.7899 300.3342 -9137.8387 -7377.7975 303.1670 -630.2882 -546.5705 29888.8881 -131.1694 -61.2686
ENERGY: 900000 8.1154 25.5214 9.1929 0.0000 -10558.2870 1396.2816 0.0000 0.0000 1743.8208 -7375.3549 301.5051 -9119.1757 -7384.9159 302.3725 -35.2821 92.5054 29545.5481 -76.2540 -3.4810
ENERGY: 1200000 2.6663 25.5102 10.9439 0.0000 -10621.9614 1481.8822 0.0000 0.0000 1702.8386 -7398.1202 294.4193 -9100.9588 -7389.9110 301.1245 731.7837 765.2804 29870.1441 -89.8203 -24.4439
ENERGY: 1500000 6.9543 26.6386 11.7722 0.0000 -10751.8216 1508.9935 0.0000 0.0000 1741.9249 -7455.5382 301.1773 -9197.4631 -7393.3030 300.8113 416.6090 432.5751 29703.2343 -112.0028 -43.2658
TCL: Running FEP window  19: Lambda1 0.09999999999999969 Lambda2 0.049999999999999684 [dLambda -0.05 ]
TCL: Setting parameter firsttimestep to 0
TCL: Setting parameter alchLambda to 0.09999999999999969
Info: NONBONDED TABLE R-SQUARED SPACING: 0.0625
Info: NONBONDED TABLE SIZE: 705 POINTS
TCL: Setting parameter alchLambda2 to 0.049999999999999684
Info: NONBONDED TABLE R-SQUARED SPACING: 0.0625
Info: NONBONDED TABLE SIZE: 705 POINTS
TCL: Running for 1500000 steps
ETITLE: TS BOND ANGLE DIHED IMPRP ELECT VDW BOUNDARY MISC KINETIC TOTAL TEMP POTENTIAL TOTALAVG TEMPAVG PRESSURE GPRESSURE VOLUME PRESSAVG GPRESSAVG
ENERGY: 0 6.9543 26.6386 11.7722 0.0000 -10751.8223 1509.0861 0.0000 0.0000 1741.0885 -7456.2827 301.0327 -9197.3712 -7456.2827 301.0327 358.2839 428.2524 29703.2343 358.2839 428.2524
ENERGY: 300000 7.3007 24.1059 17.7598 0.0000 -10540.9376 1441.9387 0.0000 0.0000 1740.0340 -7309.7985 300.8503 -9049.8325 -7380.5907 300.8500 261.3388 339.7678 29885.8284 636.7981 709.8566
ENERGY: 600000 3.2160 23.5342 12.1060 0.0000 -10725.4038 1477.7530 0.0000 0.0000 1717.9066 -7490.8881 297.0245 -9208.7946 -7414.6341 298.6566 430.6522 527.5214 29277.7632 315.5192 387.0384
ENERGY: 900000 1.4147 23.5247 12.5720 0.0000 -10505.7205 1410.3841 0.0000 0.0000 1767.1387 -7290.6863 305.5367 -9057.8250 -7387.4088 300.8721 -198.7222 -102.3242 30320.1249 139.6213 209.1306
ENERGY: 1200000 4.0590 23.8136 13.2601 0.0000 -10635.8878 1398.1800 0.0000 0.0000 1758.6180 -7437.9570 304.0635 -9196.5750 -7387.5634 301.3257 -460.1973 -399.5575 29855.9060 53.7519 122.8040
ENERGY: 1500000 1.9217 26.4888 10.9453 0.0000 -10511.7972 1337.3003 0.0000 0.0000 1750.9483 -7384.1928 302.7374 -9135.1411 -7391.7096 301.5655 -839.7354 -756.7729 30285.6532 -73.2617 -3.8642
TCL: Running FEP window  20: Lambda1 0.049999999999999684 Lambda2 0.0    [dLambda -0.049999999999999684]
TCL: Setting parameter firsttimestep to 0
TCL: Setting parameter alchLambda to 0.049999999999999684
Info: NONBONDED TABLE R-SQUARED SPACING: 0.0625
Info: NONBONDED TABLE SIZE: 705 POINTS
TCL: Setting parameter alchLambda2 to 0.0
Info: NONBONDED TABLE R-SQUARED SPACING: 0.0625
Info: NONBONDED TABLE SIZE: 705 POINTS
TCL: Running for 1500000 steps
ETITLE: TS BOND ANGLE DIHED IMPRP ELECT VDW BOUNDARY MISC KINETIC TOTAL TEMP POTENTIAL TOTALAVG TEMPAVG PRESSURE GPRESSURE VOLUME PRESSAVG GPRESSAVG
ENERGY: 0 1.9217 26.4888 10.9453 0.0000 -10511.7958 1336.7641 0.0000 0.0000 1750.1042 -7385.5717 302.5915 -9135.6759 -7385.5717 302.5915 -837.9618 -759.6242 30285.6532 -837.9618 -759.6242
ENERGY: 300000 5.9342 25.5894 11.9270 0.0000 -10632.3150 1463.8017 0.0000 0.0000 1743.9862 -7381.0765 301.5337 -9125.0627 -7379.7957 301.6224 57.9740 181.3269 29949.5547 -64.3540 28.3297
ENERGY: 600000 5.5423 22.7794 10.5903 0.0000 -10649.5727 1415.5876 0.0000 0.0000 1804.2246 -7390.8485 311.9488 -9195.0731 -7396.4651 302.9709 229.4525 268.2846 29434.1978 -33.8201 47.9340
ENERGY: 900000 6.4196 26.7789 16.6042 0.0000 -10645.3772 1418.2761 0.0000 0.0000 1699.7105 -7477.5879 293.8785 -9177.2984 -7390.8384 302.2273 -222.0426 -228.7727 29740.1351 -86.8450 -16.7389
ENERGY: 1200000 4.7919 24.2282 13.1477 0.0000 -10633.9806 1439.5760 0.0000 0.0000 1709.2922 -7442.9446 295.5351 -9152.2368 -7402.1093 300.2372 207.5611 317.5434 29256.2125 -158.9083 -92.1934
ENERGY: 1500000 10.7805 27.2131 11.3721 0.0000 -10605.8805 1487.6531 0.0000 0.0000 1719.5624 -7349.2992 297.3108 -9068.8617 -7402.9086 300.0399 657.7928 771.1346 29442.9497 -43.5844 24.5039
TCL: Exiting due to exit command.
