Info: SIMULATION PARAMETERS:
Info: TIMESTEP               2
Info: NUMBER OF STEPS        0
Info: STEPS PER CYCLE        10
Info: PERIODIC CELL BASIS 1  31.2961 0 0
Info: PERIODIC CELL BASIS 2  0 29.8809 0
Info: PERIODIC CELL BASIS 3  0 0 33.2721
Info: PERIODIC CELL CENTER   0 0 0
Info: WRAPPING WATERS AROUND PERIODIC BOUNDARIES ON OUTPUT.
Info: WRAPPING ALL CLUSTERS AROUND PERIODIC BOUNDARIES ON OUTPUT.
Info: FIRST LDB TIMESTEP     50
Info: LAST LDB TIMESTEP     -1
Info: HOM BACKGROUND SCALING 1
Info: PME BACKGROUND SCALING 1
Info: MIN ATOMS PER PATCH    40
Info: EMPTY PATCH LOAD       40 ATOMS
Info: VELOCITY FILE          mobley_1873346_equil.vel
Info: CENTER OF MASS MOVING INITIALLY? NO
Info: DIELECTRIC             1
Info: EXCLUDE                SCALED ONE-FOUR
Info: 1-4 ELECTROSTATICS SCALED BY 0.833333
Info: MODIFIED 1-4 VDW PARAMETERS WILL BE USED
Info: DCD FILENAME           mobley_1873346_prod.dcd
Info: DCD FREQUENCY          100000
Info: DCD FIRST STEP         100000
Info: DCD FILE WILL CONTAIN UNIT CELL DATA
Info: XST FILENAME           mobley_1873346_prod.xst
Info: XST FREQUENCY          100000
Info: NO VELOCITY DCD OUTPUT
Info: NO FORCE DCD OUTPUT
Info: OUTPUT FILENAME        mobley_1873346_prod
Info: BINARY OUTPUT FILES WILL BE USED
Info: RESTART FILENAME       mobley_1873346_prod.restart
Info: RESTART FREQUENCY      100000
Info: BINARY RESTART FILES WILL BE USED
Info: CUTOFF                 9
Info: PAIRLIST DISTANCE      11
Info: PAIRLIST SHRINK RATE   0.01
Info: PAIRLIST GROW RATE     0.01
Info: PAIRLIST TRIGGER       0.3
Info: PAIRLISTS PER CYCLE    2
Info: PAIRLISTS ENABLED
Info: MARGIN                 2
Info: HYDROGEN GROUP CUTOFF  2.5
Info: PATCH DIMENSION        15.5
Info: ENERGY OUTPUT STEPS    100000
Info: ENERGY EVALUATION STEPS    100000
Info: OUTPUT ENERGY PRECISION 4
Info: CROSSTERM ENERGY INCLUDED IN DIHEDRAL
Info: TIMING OUTPUT STEPS    1000000
Info: PRESSURE OUTPUT STEPS  100000
Info: ALCHEMICAL FEP ON
Info: FEP CURRENT LAMBDA VALUE     1
Info: FEP COMPARISON LAMBDA VALUE  0.95
Info: FEP INTRA-ALCHEMICAL NON-BONDED INTERACTIONS WILL BE RETAINED
Info: FEP INTRA-ALCHEMICAL BONDED INTERACTIONS WILL BE RETAINED
Info: FEP VDW SHIFTING COEFFICIENT 5
Info: FEP ELEC. ACTIVE FOR ANNIHILATED PARTICLES BETWEEN LAMBDA = 0 AND LAMBDA = 0.5
Info: FEP ELEC. ACTIVE FOR EXNIHILATED PARTICLES BETWEEN LAMBDA = 0.5 AND LAMBDA = 1
Info: FEP VDW ACTIVE FOR ANNIHILATED PARTICLES BETWEEN LAMBDA = 0 AND LAMBDA = 1
Info: FEP VDW ACTIVE FOR EXNIHILATED PARTICLES BETWEEN LAMBDA = 0 AND LAMBDA = 1
Info: FEP BOND ACTIVE FOR ANNIHILATED PARTICLES BETWEEN LAMBDA = 1 AND LAMBDA = 1
Info: FEP BOND ACTIVE FOR EXNIHILATED PARTICLES BETWEEN LAMBDA = 0 AND LAMBDA = 0
Info: LANGEVIN DYNAMICS ACTIVE
Info: LANGEVIN TEMPERATURE   300
Info: LANGEVIN USING BBK INTEGRATOR
Info: LANGEVIN DAMPING COEFFICIENT IS 1 INVERSE PS
Info: LANGEVIN DYNAMICS APPLIED TO HYDROGENS
Info: LANGEVIN PISTON PRESSURE CONTROL ACTIVE
Info:        TARGET PRESSURE IS 1.01325 BAR
Info:     OSCILLATION PERIOD IS 50 FS
Info:             DECAY TIME IS 25 FS
Info:     PISTON TEMPERATURE IS 300 K
Info:       PRESSURE CONTROL IS GROUP-BASED
Info:    INITIAL STRAIN RATE IS 0.000305633 0.000305633 0.000305633
Info:       CELL FLUCTUATION IS ISOTROPIC
Info: PARTICLE MESH EWALD (PME) ACTIVE
Info: PME TOLERANCE               1e-06
Info: PME EWALD COEFFICIENT       0.348832
Info: PME INTERPOLATION ORDER     4
Info: PME GRID DIMENSIONS         32 32 36
Info: PME MAXIMUM GRID SPACING    1
Info: PME CALCULATION WILL BE PERFORMED ON GPU
Info: FULL ELECTROSTATIC EVALUATION FREQUENCY      2
Info: USING VERLET I (r-RESPA) MTS SCHEME.
Info: C1 SPLITTING OF LONG RANGE ELECTROSTATICS
Info: PLACING ATOMS IN PATCHES BY HYDROGEN GROUPS
Info: RIGID BONDS TO HYDROGEN : ALL
Info:         ERROR TOLERANCE : 1e-08
Info:          MAX ITERATIONS : 100
Info: RIGID WATER USING SETTLE ALGORITHM
Info: RANDOM NUMBER SEED     1743588036
Info: USE HYDROGEN BONDS?    NO
Info: Using AMBER format force field!
Info: AMBER PARM FILE        mobley_1873346.prmtop
Info: COORDINATE PDB         mobley_1873346.pdb
Info: Exclusions will be read from PARM file!
Info: SCNB (VDW SCALING)     2
Info: USING ARITHMETIC MEAN TO COMBINE L-J SIGMA PARAMETERS
Info: BINARY COORDINATES     mobley_1873346_equil.coor
Info: SUMMARY OF PARAMETERS:
Info: 6 BONDS
Info: 5 ANGLES
Info:   5 HARMONIC
Info:   0 COSINE-BASED
Info: 3 DIHEDRAL
Info: 0 IMPROPER
Info: 0 CROSSTERM
Info: 0 VDW
Info: 21 VDW_PAIRS
Info: 0 NBTHOLE_PAIRS
Info: To read alchdata from file: mobley_1873346.pdb
Info: To read alchflag data from column: 5
Info: STRUCTURE SUMMARY:
Info: 2964 ATOMS
Info: 2964 BONDS
Info: 24 ANGLES
Info: 36 DIHEDRALS
Info: 0 IMPROPERS
Info: 0 CROSSTERMS
Info: 3015 EXCLUSIONS
Info: 2957 RIGID BONDS
Info: ALCH: 0 ATOMS TO DISAPPEAR IN FINAL STATE
Info: ALCH: 15 ATOMS TO APPEAR IN FINAL STATE
Info: 5935 DEGREES OF FREEDOM
Info: 990 HYDROGEN GROUPS
Info: 4 ATOMS IN LARGEST HYDROGEN GROUP
Info: 990 MIGRATION GROUPS
Info: 4 ATOMS IN LARGEST MIGRATION GROUP
Info: TOTAL MASS = 17801.9 amu
Info: TOTAL CHARGE = 6.33299e-08 e
Info: MASS DENSITY = 0.950081 g/cm^3
Info: ATOM DENSITY = 0.0952608 atoms/A^3
Info: ADDED 0 IMPLICIT EXCLUSIONS
Info: NONBONDED TABLE R-SQUARED SPACING: 0.0625
Info: NONBONDED TABLE SIZE: 705 POINTS
Info: REMOVING COM VELOCITY 0.255918 0.0813084 0.276296
Info: Use 3D box decompostion in PME FFT.
Info: Updated CUDA force table with 4096 elements.
Info: Updated CUDA LJ table with 6 x 6 elements.
Info: Found 14 unique exclusion lists needing 32 bytes
TCL: Running for 1500000 steps
ETITLE: TS BOND ANGLE DIHED IMPRP ELECT VDW BOUNDARY MISC KINETIC TOTAL TEMP POTENTIAL TOTALAVG TEMPAVG PRESSURE GPRESSURE VOLUME PRESSAVG GPRESSAVG
ENERGY: 0 3.2539 2.8472 2.9589 0.0000 -10686.2493 1429.9776 0.0000 0.0000 1769.2614 -7477.9503 300.0279 -9247.2118 -7477.9503 300.0279 -355.6982 -276.0333 31114.5769 -355.6982 -276.0333
ENERGY: 300000 2.7101 5.2555 1.5150 0.0000 -10753.3968 1472.3527 0.0000 0.0000 1771.3012 -7500.2623 300.3738 -9271.5635 -7501.1398 302.0878 136.4481 150.4510 30818.7767 -322.3235 -254.4982
ENERGY: 600000 1.5861 6.2376 1.5854 0.0000 -10853.9662 1517.4975 0.0000 0.0000 1737.8822 -7589.1775 294.7067 -9327.0597 -7521.7520 299.2983 648.3629 705.8645 29972.5812 -205.5913 -137.0729
ENERGY: 900000 2.3907 3.5666 5.5008 0.0000 -10588.7380 1344.9188 0.0000 0.0000 1756.2427 -7476.1185 297.8202 -9232.3611 -7506.9951 299.7156 -593.0314 -475.3617 30433.7328 -293.3936 -227.6704
ENERGY: 1200000 2.2399 2.7340 3.3753 0.0000 -10728.7498 1443.3947 0.0000 0.0000 1782.4253 -7494.5806 302.2602 -9277.0059 -7510.1585 300.0269 208.2170 201.7839 30541.4830 -245.2503 -186.3005
ENERGY: 1500000 2.2624 5.1563 4.0245 0.0000 -10741.2325 1427.5876 0.0000 0.0000 1764.2386 -7537.9630 299.1762 -9302.2016 -7517.6896 300.0850 -192.0893 -193.4999 30818.3704 -240.8497 -179.7144
TCL: Running FEP window   2: Lambda1 0.95   Lambda2 0.8999999999999999 [dLambda -0.050000000000000044]
TCL: Setting parameter firsttimestep to 0
TCL: Setting parameter alchLambda to 0.95
Info: NONBONDED TABLE R-SQUARED SPACING: 0.0625
Info: NONBONDED TABLE SIZE: 705 POINTS
TCL: Setting parameter alchLambda2 to 0.8999999999999999
Info: NONBONDED TABLE R-SQUARED SPACING: 0.0625
Info: NONBONDED TABLE SIZE: 705 POINTS
TCL: Running for 1500000 steps
ETITLE: TS BOND ANGLE DIHED IMPRP ELECT VDW BOUNDARY MISC KINETIC TOTAL TEMP POTENTIAL TOTALAVG TEMPAVG PRESSURE GPRESSURE VOLUME PRESSAVG GPRESSAVG
ENERGY: 0 2.2624 5.1563 4.0245 0.0000 -10740.8497 1427.7718 0.0000 0.0000 1763.3463 -7538.2884 299.0248 -9301.6347 -7538.2884 299.0248 -279.8288 -200.9065 30818.3704 -279.8288 -200.9065
ENERGY: 300000 2.6581 2.8514 4.7291 0.0000 -10767.0564 1477.5473 0.0000 0.0000 1828.9812 -7450.2893 310.1551 -9279.2705 -7494.0935 304.5872 528.6667 592.4648 30257.7948 -52.5733 31.7792
ENERGY: 600000 2.0107 2.7567 3.6990 0.0000 -10698.8734 1416.0838 0.0000 0.0000 1754.5809 -7519.7422 297.5384 -9274.3231 -7494.6785 302.6196 -177.6026 -142.6365 30460.0412 -30.8767 33.1813
ENERGY: 900000 0.4819 6.2783 1.9948 0.0000 -10747.2246 1411.6424 0.0000 0.0000 1786.4636 -7540.3636 302.9450 -9326.8273 -7511.9606 301.8118 -171.8393 -103.0034 30300.7091 -57.5443 4.5583
ENERGY: 1200000 3.1103 3.7938 3.1722 0.0000 -10747.7387 1467.6315 0.0000 0.0000 1826.2377 -7443.7931 309.6898 -9270.0308 -7515.1048 300.4920 246.3060 277.4413 30606.1092 -25.0412 40.2866
ENERGY: 1500000 3.9615 5.8703 2.4781 0.0000 -10791.9715 1537.5126 0.0000 0.0000 1707.2082 -7534.9408 289.5050 -9242.1490 -7519.5317 299.4386 761.2898 867.4385 30423.6506 -41.3279 26.0533
TCL: Running FEP window   3: Lambda1 0.8999999999999999 Lambda2 0.8499999999999999 [dLambda -0.050000000000000044]
TCL: Setting parameter firsttimestep to 0
TCL: Setting parameter alchLambda to 0.8999999999999999
Info: NONBONDED TABLE R-SQUARED SPACING: 0.0625
Info: NONBONDED TABLE SIZE: 705 POINTS
TCL: Setting parameter alchLambda2 to 0.8499999999999999
Info: NONBONDED TABLE R-SQUARED SPACING: 0.0625
Info: NONBONDED TABLE SIZE: 705 POINTS
TCL: Running for 1500000 steps
ETITLE: TS BOND ANGLE DIHED IMPRP ELECT VDW BOUNDARY MISC KINETIC TOTAL TEMP POTENTIAL TOTALAVG TEMPAVG PRESSURE GPRESSURE VOLUME PRESSAVG GPRESSAVG
ENERGY: 0 3.9615 5.8703 2.4781 0.0000 -10791.0823 1535.9739 0.0000 0.0000 1706.3408 -7536.4576 289.3580 -9242.7984 -7536.4576 289.3580 758.9415 840.2210 30423.6506 758.9415 840.2210
ENERGY: 300000 3.5225 2.2868 2.6386 0.0000 -10793.7526 1438.3212 0.0000 0.0000 1750.4852 -7596.4982 296.8439 -9346.9833 -7535.9269 295.5958 -70.6457 12.7414 30244.5251 52.3745 131.2842
ENERGY: 600000 0.7395 4.9928 3.9313 0.0000 -10824.8889 1420.7940 0.0000 0.0000 1767.6234 -7626.8079 299.7502 -9394.4313 -7559.2761 296.3327 -614.4860 -510.8885 30442.4494 -99.5625 -17.6049
ENERGY: 900000 5.6254 3.1877 3.1384 0.0000 -10718.7361 1423.5531 0.0000 0.0000 1788.2696 -7494.9619 303.2513 -9283.2315 -7530.2155 298.1576 78.6101 73.8329 30423.1802 -39.9724 31.3448
ENERGY: 1200000 2.4278 4.2886 2.9520 0.0000 -10709.6336 1431.5758 0.0000 0.0000 1759.2005 -7509.1889 298.3218 -9268.3894 -7530.2673 297.7235 -260.5684 -158.5570 30834.6319 -17.8163 51.7192
ENERGY: 1500000 0.7368 3.1336 4.6748 0.0000 -10609.3591 1358.3166 0.0000 0.0000 1711.0481 -7531.4493 290.1562 -9242.4974 -7532.1717 297.0535 -479.9310 -444.9260 30296.7759 -34.3382 33.3743
TCL: Running FEP window   4: Lambda1 0.8499999999999999 Lambda2 0.7999999999999998 [dLambda -0.050000000000000044]
TCL: Setting parameter firsttimestep to 0
TCL: Setting parameter alchLambda to 0.8499999999999999
Info: NONBONDED TABLE R-SQUARED SPACING: 0.0625
Info: NONBONDED TABLE SIZE: 705 POINTS
TCL: Setting parameter alchLambda2 to 0.7999999999999998
Info: NONBONDED TABLE R-SQUARED SPACING: 0.0625
Info: NONBONDED TABLE SIZE: 705 POINTS
TCL: Running for 1500000 steps
ETITLE: TS BOND ANGLE DIHED IMPRP ELECT VDW BOUNDARY MISC KINETIC TOTAL TEMP POTENTIAL TOTALAVG TEMPAVG PRESSURE GPRESSURE VOLUME PRESSAVG GPRESSAVG
ENERGY: 0 0.7368 3.1336 4.6748 0.0000 -10608.4023 1357.6711 0.0000 0.0000 1710.1425 -7532.0435 290.0027 -9242.1861 -7532.0435 290.0027 -546.7130 -461.9088 30296.7759 -546.7130 -461.9088
ENERGY: 300000 0.8912 5.7846 3.7065 0.0000 -10563.2268 1302.7739 0.0000 0.0000 1798.8183 -7451.2523 305.0401 -9250.0705 -7477.6282 300.2648 -1166.1472 -1101.2798 30971.4718 -354.4874 -289.9678
ENERGY: 600000 3.2782 2.1132 5.0193 0.0000 -10882.4631 1542.2504 0.0000 0.0000 1772.3312 -7557.4708 300.5485 -9329.8021 -7501.9974 300.1675 373.4023 426.5207 30682.3116 -89.6879 -29.1565
ENERGY: 900000 6.2545 4.7201 1.7856 0.0000 -10789.7397 1549.6003 0.0000 0.0000 1751.3535 -7476.0257 296.9911 -9227.3792 -7496.6015 301.7236 752.4815 794.0474 30595.4831 96.1067 166.3848
ENERGY: 1200000 3.9935 6.1839 3.7495 0.0000 -10713.6077 1444.0776 0.0000 0.0000 1746.6610 -7508.9422 296.1954 -9255.6033 -7494.4761 301.6962 -231.7410 -104.9899 30955.2792 -32.8693 43.4174
ENERGY: 1500000 1.2658 2.1213 1.2146 0.0000 -10804.9486 1497.2071 0.0000 0.0000 1828.6571 -7474.4827 310.1001 -9303.1398 -7497.2843 301.8549 531.1480 533.5105 30399.7539 -4.7214 61.7599
TCL: Running FEP window   5: Lambda1 0.7999999999999998 Lambda2 0.7499999999999998 [dLambda -0.050000000000000044]
TCL: Setting parameter firsttimestep to 0
TCL: Setting parameter alchLambda to 0.7999999999999998
Info: NONBONDED TABLE R-SQUARED SPACING: 0.0625
Info: NONBONDED TABLE SIZE: 705 POINTS
TCL: Setting parameter alchLambda2 to 0.7499999999999998
Info: NONBONDED TABLE R-SQUARED SPACING: 0.0625
Info: NONBONDED TABLE SIZE: 705 POINTS
TCL: Running for 1500000 steps
ETITLE: TS BOND ANGLE DIHED IMPRP ELECT VDW BOUNDARY MISC KINETIC TOTAL TEMP POTENTIAL TOTALAVG TEMPAVG PRESSURE GPRESSURE VOLUME PRESSAVG GPRESSAVG
ENERGY: 0 1.2658 2.1213 1.2146 0.0000 -10804.5570 1497.3894 0.0000 0.0000 1827.7590 -7474.8068 309.9478 -9302.5658 -7474.8068 309.9478 435.4633 525.1118 30399.7539 435.4633 525.1118
ENERGY: 300000 3.8732 5.4125 2.6151 0.0000 -10689.9913 1419.2880 0.0000 0.0000 1747.0301 -7511.7724 296.2580 -9258.8025 -7492.1614 299.4069 -333.2792 -270.9247 30709.2821 -124.7616 -52.6828
ENERGY: 600000 3.7639 3.1317 1.9055 0.0000 -10733.0683 1421.4996 0.0000 0.0000 1786.5340 -7516.2336 302.9570 -9302.7676 -7489.2280 300.6615 -159.9422 -130.9499 30324.2559 -63.9047 1.6709
ENERGY: 900000 4.2339 1.7261 4.0950 0.0000 -10748.4353 1436.7841 0.0000 0.0000 1713.4629 -7588.1333 290.5657 -9301.5962 -7513.8944 299.1030 -532.1465 -434.4784 31246.5117 -86.3288 -21.6701
ENERGY: 1200000 1.4310 5.4744 2.8813 0.0000 -10840.4086 1498.4211 0.0000 0.0000 1754.6926 -7577.5082 297.5574 -9332.2008 -7522.7401 298.6723 238.9030 221.9829 30573.1102 -62.3463 -8.9208
ENERGY: 1500000 1.2442 3.5848 0.9519 0.0000 -10793.6537 1441.3822 0.0000 0.0000 1725.0963 -7621.3942 292.5385 -9346.4905 -7525.4083 298.6738 -553.4603 -498.2122 30890.4658 -88.6256 -35.4222
TCL: Running FEP window   6: Lambda1 0.7499999999999998 Lambda2 0.6999999999999997 [dLambda -0.050000000000000044]
TCL: Setting parameter firsttimestep to 0
TCL: Setting parameter alchLambda to 0.7499999999999998
Info: NONBONDED TABLE R-SQUARED SPACING: 0.0625
Info: NONBONDED TABLE SIZE: 705 POINTS
TCL: Setting parameter alchLambda2 to 0.6999999999999997
Info: NONBONDED TABLE R-SQUARED SPACING: 0.0625
Info: NONBONDED TABLE SIZE: 705 POINTS
TCL: Running for 1500000 steps
ETITLE: TS BOND ANGLE DIHED IMPRP ELECT VDW BOUNDARY MISC KINETIC TOTAL TEMP POTENTIAL TOTALAVG TEMPAVG PRESSURE GPRESSURE VOLUME PRESSAVG GPRESSAVG
ENERGY: 0 1.2442 3.5848 0.9519 0.0000 -10793.2237 1440.3911 0.0000 0.0000 1724.2508 -7622.8008 292.3951 -9347.0517 -7622.8008 292.3951 -596.8875 -518.8537 30890.4658 -596.8875 -518.8537
ENERGY: 300000 2.8637 4.1722 1.0722 0.0000 -10684.8397 1443.4934 0.0000 0.0000 1757.1743 -7476.0639 297.9782 -9233.2382 -7558.9746 298.2656 136.8639 187.6612 30847.0823 -200.1645 -145.5482
ENERGY: 600000 2.3724 6.7296 5.0429 0.0000 -10735.0536 1505.9675 0.0000 0.0000 1764.6251 -7450.3161 299.2417 -9214.9412 -7541.0725 298.8430 644.2101 678.4675 30392.8362 -198.8765 -135.3614
ENERGY: 900000 1.8242 5.1672 4.2234 0.0000 -10801.0402 1485.0728 0.0000 0.0000 1733.7218 -7571.0307 294.0012 -9304.7525 -7539.5659 299.1941 67.7418 165.1071 30549.3685 -115.9378 -45.8485
ENERGY: 1200000 2.6394 3.5383 2.5298 0.0000 -10784.2388 1388.1159 0.0000 0.0000 1715.4815 -7671.9339 290.9080 -9387.4154 -7543.4938 299.2484 -738.0222 -708.3760 30354.2492 -144.4935 -82.7268
ENERGY: 1500000 1.7008 4.1595 3.4786 0.0000 -10735.2289 1416.8122 0.0000 0.0000 1717.9566 -7591.1213 291.3277 -9309.0778 -7548.4973 298.6393 -537.9663 -500.7343 30731.7906 -119.0880 -60.4059
TCL: Running FEP window   7: Lambda1 0.6999999999999997 Lambda2 0.6499999999999997 [dLambda -0.050000000000000044]
TCL: Setting parameter firsttimestep to 0
TCL: Setting parameter alchLambda to 0.6999999999999997
Info: NONBONDED TABLE R-SQUARED SPACING: 0.0625
Info: NONBONDED TABLE SIZE: 705 POINTS
TCL: Setting parameter alchLambda2 to 0.6499999999999997
Info: NONBONDED TABLE R-SQUARED SPACING: 0.0625
Info: NONBONDED TABLE SIZE: 705 POINTS
TCL: Running for 1500000 steps
ETITLE: TS BOND ANGLE DIHED IMPRP ELECT VDW BOUNDARY MISC KINETIC TOTAL TEMP POTENTIAL TOTALAVG TEMPAVG PRESSURE GPRESSURE VOLUME PRESSAVG GPRESSAVG
ENERGY: 0 1.7008 4.1595 3.4786 0.0000 -10734.9933 1417.0478 0.0000 0.0000 1717.0330 -7591.5737 291.1711 -9308.6067 -7591.5737 291.1711 -588.9695 -509.2143 30731.7906 -588.9695 -509.2143
ENERGY: 300000 3.2303 3.8425 2.4502 0.0000 -10658.6654 1456.6909 0.0000 0.0000 1731.1189 -7461.3325 293.5598 -9192.4515 -7506.7574 297.2960 309.7791 354.8143 30654.1964 -182.2787 -119.7800
ENERGY: 600000 2.0907 4.6907 3.8385 0.0000 -10834.6366 1554.9544 0.0000 0.0000 1748.9840 -7520.0784 296.5893 -9269.0624 -7510.2626 297.2659 898.3262 948.2421 30447.6939 -69.5323 -13.3292
ENERGY: 900000 2.2057 3.9110 2.6703 0.0000 -10744.8485 1461.6400 0.0000 0.0000 1786.6659 -7487.7556 302.9793 -9274.4215 -7496.3207 298.6016 -13.3482 88.5857 30721.9583 78.1167 140.3432
ENERGY: 1200000 1.0492 5.9085 0.9771 0.0000 -10790.1978 1455.5848 0.0000 0.0000 1756.1755 -7570.5027 297.8088 -9326.6781 -7496.5965 299.2871 131.2391 185.2184 30116.5777 206.1804 265.5768
ENERGY: 1500000 2.1012 6.1505 4.1839 0.0000 -10716.0153 1478.2256 0.0000 0.0000 1803.2438 -7422.1103 305.7906 -9225.3541 -7484.2515 299.5801 661.8754 698.9574 30330.5666 149.7049 203.3843
TCL: Running FEP window   8: Lambda1 0.6499999999999997 Lambda2 0.5999999999999996 [dLambda -0.050000000000000044]
TCL: Setting parameter firsttimestep to 0
TCL: Setting parameter alchLambda to 0.6499999999999997
Info: NONBONDED TABLE R-SQUARED SPACING: 0.0625
Info: NONBONDED TABLE SIZE: 705 POINTS
TCL: Setting parameter alchLambda2 to 0.5999999999999996
Info: NONBONDED TABLE R-SQUARED SPACING: 0.0625
Info: NONBONDED TABLE SIZE: 705 POINTS
TCL: Running for 1500000 steps
ETITLE: TS BOND ANGLE DIHED IMPRP ELECT VDW BOUNDARY MISC KINETIC TOTAL TEMP POTENTIAL TOTALAVG TEMPAVG PRESSURE GPRESSURE VOLUME PRESSAVG GPRESSAVG
ENERGY: 0 2.1012 6.1505 4.1839 0.0000 -10715.9452 1478.2341 0.0000 0.0000 1802.3644 -7422.9112 305.6415 -9225.2756 -7422.9112 305.6415 595.7638 689.0855 30330.5666 595.7638 689.0855
ENERGY: 300000 1.4947 2.2517 3.0780 0.0000 -10806.7384 1492.7692 0.0000 0.0000 1765.2038 -7541.9410 299.3398 -9307.1448 -7450.7511 306.8417 647.8776 620.2739 30076.5737 529.9756 570.6074
ENERGY: 600000 2.7685 2.1702 2.8257 0.0000 -10735.8352 1443.1546 0.0000 0.0000 1723.7527 -7561.1634 292.3106 -9284.9161 -7486.0470 302.9171 -169.7184 -138.7750 30403.2067 397.3418 440.5296
ENERGY: 900000 1.1834 8.6063 2.1176 0.0000 -10618.6550 1426.1661 0.0000 0.0000 1826.4915 -7354.0901 309.7329 -9180.5816 -7480.5648 302.0340 -124.8560 -16.0629 31189.8741 231.7385 271.7691
ENERGY: 1200000 2.3461 2.8484 1.6617 0.0000 -10768.2156 1449.0054 0.0000 0.0000 1748.0156 -7564.3383 296.4251 -9312.3540 -7498.6480 302.0399 119.2728 264.7074 30248.4393 103.4220 163.5866
ENERGY: 1500000 2.6237 5.4000 2.7632 0.0000 -10616.4810 1362.6781 0.0000 0.0000 1749.2092 -7493.8068 296.6275 -9243.0160 -7503.6465 301.1390 -411.5730 -368.7129 30207.4450 34.2392 96.6032
TCL: Running FEP window   9: Lambda1 0.5999999999999996 Lambda2 0.5499999999999996 [dLambda -0.050000000000000044]
TCL: Setting parameter firsttimestep to 0
TCL: Setting parameter alchLambda to 0.5999999999999996
Info: NONBONDED TABLE R-SQUARED SPACING: 0.0625
Info: NONBONDED TABLE SIZE: 705 POINTS
TCL: Setting parameter alchLambda2 to 0.5499999999999996
Info: NONBONDED TABLE R-SQUARED SPACING: 0.0625
Info: NONBONDED TABLE SIZE: 705 POINTS
TCL: Running for 1500000 steps
ETITLE: TS BOND ANGLE DIHED IMPRP ELECT VDW BOUNDARY MISC KINETIC TOTAL TEMP POTENTIAL TOTALAVG TEMPAVG PRESSURE GPRESSURE VOLUME PRESSAVG GPRESSAVG
ENERGY: 0 2.6237 5.4000 2.7632 0.0000 -10616.2712 1362.8185 0.0000 0.0000 1748.3316 -7494.3342 296.4787 -9242.6658 -7494.3342 296.4787 -455.6227 -374.3002 30207.4450 -455.6227 -374.3002
ENERGY: 300000 2.2229 5.6691 1.7227 0.0000 -10760.8710 1460.0937 0.0000 0.0000 1749.9981 -7541.1645 296.7613 -9291.1627 -7529.6633 300.1842 70.4970 134.7834 30637.3280 -495.4132 -445.8396
ENERGY: 600000 0.3871 5.2549 0.8612 0.0000 -10813.5956 1465.7011 0.0000 0.0000 1759.3841 -7582.0071 298.3529 -9341.3912 -7532.8672 300.0683 406.4597 484.8286 29813.8052 -283.9389 -223.8997
ENERGY: 900000 1.7547 5.8647 3.9362 0.0000 -10835.5875 1517.6092 0.0000 0.0000 1783.3330 -7523.0897 302.4142 -9306.4227 -7515.3654 301.6742 483.4001 533.9309 30271.6197 -267.8670 -205.6303
ENERGY: 1200000 1.2560 6.0607 2.1593 0.0000 -10608.7825 1404.4485 0.0000 0.0000 1737.8981 -7456.9600 294.7094 -9194.8581 -7515.3707 299.8861 -41.2047 52.8367 30493.2425 -253.5912 -186.0418
ENERGY: 1500000 2.3515 6.3461 3.4261 0.0000 -10735.3323 1446.5335 0.0000 0.0000 1768.6687 -7508.0063 299.9274 -9276.6750 -7522.3882 300.2886 93.3026 171.5369 30221.5214 -196.1305 -118.6348
TCL: Running FEP window  10: Lambda1 0.5499999999999996 Lambda2 0.4999999999999996 [dLambda -0.04999999999999999]
TCL: Setting parameter firsttimestep to 0
TCL: Setting parameter alchLambda to 0.5499999999999996
Info: NONBONDED TABLE R-SQUARED SPACING: 0.0625
Info: NONBONDED TABLE SIZE: 705 POINTS
TCL: Setting parameter alchLambda2 to 0.4999999999999996
Info: NONBONDED TABLE R-SQUARED SPACING: 0.0625
Info: NONBONDED TABLE SIZE: 705 POINTS
TCL: Running for 1500000 steps
ETITLE: TS BOND ANGLE DIHED IMPRP ELECT VDW BOUNDARY MISC KINETIC TOTAL TEMP POTENTIAL TOTALAVG TEMPAVG PRESSURE GPRESSURE VOLUME PRESSAVG GPRESSAVG
ENERGY: 0 2.3515 6.3461 3.4261 0.0000 -10734.8342 1446.5742 0.0000 0.0000 1767.7531 -7508.3831 299.7721 -9276.1362 -7508.3831 299.7721 59.9193 165.0199 30221.5214 59.9193 165.0199
ENERGY: 300000 3.5482 4.9002 1.6733 0.0000 -10715.5134 1447.5209 0.0000 0.0000 1789.4715 -7468.3992 303.4551 -9257.8707 -7512.9179 299.1119 -132.2626 -63.5172 30681.2745 71.3278 146.8571
ENERGY: 600000 2.5552 2.7155 2.4875 0.0000 -10713.6194 1431.2737 0.0000 0.0000 1769.0116 -7505.5759 299.9856 -9274.5875 -7521.5696 299.4636 -377.5926 -259.5456 30672.2222 203.5257 276.2299
ENERGY: 900000 2.1532 4.0775 1.9608 0.0000 -10744.2104 1489.3602 0.0000 0.0000 1729.4943 -7517.1644 293.2843 -9246.6587 -7520.9920 299.9702 538.4284 592.3535 30155.8094 224.8551 288.6490
ENERGY: 1200000 2.3461 5.5839 1.8426 0.0000 -10626.1144 1350.0148 0.0000 0.0000 1748.3675 -7517.9595 296.4848 -9266.3270 -7521.2070 299.4811 -938.5640 -918.8460 30860.8385 93.7301 148.9845
ENERGY: 1500000 0.4356 4.2185 3.0771 0.0000 -10976.9202 1600.4121 0.0000 0.0000 1787.4830 -7581.2940 303.1179 -9368.7770 -7522.3744 299.8267 1220.0721 1223.9595 30023.5653 159.6886 214.1607
TCL: Running FEP window  11: Lambda1 0.4999999999999996 Lambda2 0.4499999999999996 [dLambda -0.04999999999999999]
TCL: Setting parameter firsttimestep to 0
TCL: Setting parameter alchLambda to 0.4999999999999996
Info: NONBONDED TABLE R-SQUARED SPACING: 0.0625
Info: NONBONDED TABLE SIZE: 705 POINTS
TCL: Setting parameter alchLambda2 to 0.4499999999999996
Info: NONBONDED TABLE R-SQUARED SPACING: 0.0625
Info: NONBONDED TABLE SIZE: 705 POINTS
TCL: Running for 1500000 steps
ETITLE: TS BOND ANGLE DIHED IMPRP ELECT VDW BOUNDARY MISC KINETIC TOTAL TEMP POTENTIAL TOTALAVG TEMPAVG PRESSURE GPRESSURE VOLUME PRESSAVG GPRESSAVG
ENERGY: 0 0.4356 4.2185 3.0771 0.0000 -10976.5656 1600.5986 0.0000 0.0000 1786.5532 -7581.6826 302.9602 -9368.2358 -7581.6826 302.9602 1137.1188 1219.6524 30023.5653 1137.1188 1219.6524
ENERGY: 300000 3.0106 3.3748 1.2842 0.0000 -10675.8363 1420.5030 0.0000 0.0000 1749.5852 -7498.0785 296.6913 -9247.6637 -7498.1732 301.8384 -24.0045 59.9053 30741.2307 70.3630 173.4193
ENERGY: 600000 1.8346 6.3705 2.1923 0.0000 -10906.8191 1542.3003 0.0000 0.0000 1721.1053 -7633.0162 291.8617 -9354.1215 -7528.1304 298.5852 465.4521 653.0829 30227.1867 199.4524 305.6490
ENERGY: 900000 4.0368 2.5433 3.8431 0.0000 -10667.8066 1346.3214 0.0000 0.0000 1801.9263 -7509.1357 305.5672 -9311.0620 -7530.9530 298.6288 -925.4163 -849.3495 30464.4555 17.2982 112.7832
ENERGY: 1200000 3.3913 6.8642 2.9545 0.0000 -10831.3832 1525.2891 0.0000 0.0000 1710.8061 -7582.0780 290.1152 -9292.8841 -7528.0744 298.0752 498.2084 505.7843 30299.7151 -34.7199 42.1616
ENERGY: 1500000 2.0403 3.3507 2.1997 0.0000 -10700.7627 1442.9048 0.0000 0.0000 1800.6859 -7449.5812 305.3568 -9250.2671 -7521.1945 298.8519 -121.9604 -61.7870 30844.9711 -44.6224 26.2149
TCL: Running FEP window  12: Lambda1 0.4499999999999996 Lambda2 0.39999999999999963 [dLambda -0.04999999999999999]
TCL: Setting parameter firsttimestep to 0
TCL: Setting parameter alchLambda to 0.4499999999999996
Info: NONBONDED TABLE R-SQUARED SPACING: 0.0625
Info: NONBONDED TABLE SIZE: 705 POINTS
TCL: Setting parameter alchLambda2 to 0.39999999999999963
Info: NONBONDED TABLE R-SQUARED SPACING: 0.0625
Info: NONBONDED TABLE SIZE: 705 POINTS
TCL: Running for 1500000 steps
ETITLE: TS BOND ANGLE DIHED IMPRP ELECT VDW BOUNDARY MISC KINETIC TOTAL TEMP POTENTIAL TOTALAVG TEMPAVG PRESSURE GPRESSURE VOLUME PRESSAVG GPRESSAVG
ENERGY: 0 2.0403 3.3507 2.1997 0.0000 -10700.7621 1443.3071 0.0000 0.0000 1799.7847 -7450.0795 305.2040 -9249.8642 -7450.0795 305.2040 -145.6852 -61.9442 30844.9711 -145.6852 -61.9442
ENERGY: 300000 1.0025 2.5918 3.8685 0.0000 -10812.0909 1489.6754 0.0000 0.0000 1734.6185 -7580.3343 294.1532 -9314.9527 -7544.4974 295.7915 354.0559 391.3391 30316.6877 -61.9750 -2.0594
ENERGY: 600000 3.5612 4.5920 7.4102 0.0000 -10746.8988 1452.3334 0.0000 0.0000 1814.3870 -7464.6151 307.6802 -9279.0020 -7536.8805 299.9538 -185.0824 -55.9852 30510.9434 -51.4427 17.0133
ENERGY: 900000 1.0841 6.0787 1.7454 0.0000 -10682.9406 1389.5085 0.0000 0.0000 1750.6780 -7533.8459 296.8766 -9284.5239 -7541.3089 298.4369 -219.4003 -125.2952 30082.2556 -25.7779 36.7112
ENERGY: 1200000 2.8851 3.2915 2.0745 0.0000 -10714.5559 1479.0053 0.0000 0.0000 1728.5346 -7498.7647 293.1216 -9227.2994 -7540.7027 298.2886 435.5155 529.1799 30345.9819 18.6988 80.4891
ENERGY: 1500000 1.7083 2.6479 2.5623 0.0000 -10635.2809 1327.1550 0.0000 0.0000 1791.9452 -7509.2623 303.8746 -9301.2074 -7532.1745 299.0741 -1000.5355 -961.8022 30927.6139 -16.8640 41.1128
TCL: Running FEP window  13: Lambda1 0.39999999999999963 Lambda2 0.34999999999999964 [dLambda -0.04999999999999999]
TCL: Setting parameter firsttimestep to 0
TCL: Setting parameter alchLambda to 0.39999999999999963
Info: NONBONDED TABLE R-SQUARED SPACING: 0.0625
Info: NONBONDED TABLE SIZE: 705 POINTS
TCL: Setting parameter alchLambda2 to 0.34999999999999964
Info: NONBONDED TABLE R-SQUARED SPACING: 0.0625
Info: NONBONDED TABLE SIZE: 705 POINTS
TCL: Running for 1500000 steps
ETITLE: TS BOND ANGLE DIHED IMPRP ELECT VDW BOUNDARY MISC KINETIC TOTAL TEMP POTENTIAL TOTALAVG TEMPAVG PRESSURE GPRESSURE VOLUME PRESSAVG GPRESSAVG
ENERGY: 0 1.7083 2.6479 2.5623 0.0000 -10635.2815 1326.6528 0.0000 0.0000 1791.1041 -7510.6062 303.7320 -9301.7103 -7510.6062 303.7320 -1044.1957 -971.2432 30927.6139 -1044.1957 -971.2432
ENERGY: 300000 3.5555 2.1330 5.4993 0.0000 -10704.1539 1436.3520 0.0000 0.0000 1771.3680 -7485.2460 300.3852 -9256.6140 -7505.0929 299.0712 -132.5798 -59.7623 30611.0644 -454.2613 -405.7821
ENERGY: 600000 4.3712 9.1188 1.7835 0.0000 -10817.5050 1510.2509 0.0000 0.0000 1796.8880 -7495.0926 304.7128 -9291.9806 -7502.3738 299.7295 460.0815 494.8901 30471.4043 -339.9625 -285.6769
ENERGY: 900000 0.9408 1.5538 1.7071 0.0000 -10775.8204 1441.4634 0.0000 0.0000 1818.7250 -7511.4303 308.4159 -9330.1552 -7515.7458 299.7188 -213.8378 -129.1982 30674.1431 -268.9757 -215.5297
ENERGY: 1200000 1.0851 3.3669 3.5063 0.0000 -10619.9232 1348.8076 0.0000 0.0000 1784.7282 -7478.4290 302.6507 -9263.1572 -7498.6947 301.6905 -774.3189 -663.6211 30594.5220 -227.5589 -167.2648
ENERGY: 1500000 3.0032 2.1814 3.4704 0.0000 -10763.7828 1425.6488 0.0000 0.0000 1820.7229 -7508.7562 308.7547 -9329.4791 -7494.4444 303.2556 -363.2125 -286.6315 30521.9355 -209.0144 -147.3028
TCL: Running FEP window  14: Lambda1 0.34999999999999964 Lambda2 0.29999999999999966 [dLambda -0.04999999999999999]
TCL: Setting parameter firsttimestep to 0
TCL: Setting parameter alchLambda to 0.34999999999999964
Info: NONBONDED TABLE R-SQUARED SPACING: 0.0625
Info: NONBONDED TABLE SIZE: 705 POINTS
TCL: Setting parameter alchLambda2 to 0.29999999999999966
Info: NONBONDED TABLE R-SQUARED SPACING: 0.0625
Info: NONBONDED TABLE SIZE: 705 POINTS
TCL: Running for 1500000 steps
ETITLE: TS BOND ANGLE DIHED IMPRP ELECT VDW BOUNDARY MISC KINETIC TOTAL TEMP POTENTIAL TOTALAVG TEMPAVG PRESSURE GPRESSURE VOLUME PRESSAVG GPRESSAVG
ENERGY: 0 3.0032 2.1814 3.4704 0.0000 -10763.7835 1425.3880 0.0000 0.0000 1819.8539 -7509.8867 308.6073 -9329.7406 -7509.8867 308.6073 -381.8958 -293.5282 30521.9355 -381.8958 -293.5282
ENERGY: 300000 1.6239 2.3692 1.4041 0.0000 -10736.5583 1450.8030 0.0000 0.0000 1760.2049 -7520.1534 298.4921 -9280.3582 -7487.7554 303.9762 158.6886 172.5463 30408.4257 -259.9765 -204.0907
ENERGY: 600000 2.2270 3.2111 1.5737 0.0000 -10713.2122 1410.7188 0.0000 0.0000 1754.1695 -7541.3122 297.4687 -9295.4816 -7489.2768 303.5527 -22.5219 -16.5305 30301.1225 -180.7533 -124.1792
ENERGY: 900000 1.8081 7.6847 2.6678 0.0000 -10896.7308 1541.9228 0.0000 0.0000 1762.7927 -7579.8547 298.9310 -9342.6474 -7507.3811 302.0072 451.6058 576.5712 30305.1685 -38.3618 20.9031
ENERGY: 1200000 2.9503 5.7279 3.0113 0.0000 -10879.7294 1470.1147 0.0000 0.0000 1768.5254 -7629.3998 299.9031 -9397.9252 -7519.5987 301.8344 -17.5788 19.4313 30113.4573 -115.2679 -58.0526
ENERGY: 1500000 1.5783 3.2491 1.5257 0.0000 -10719.7053 1445.6286 0.0000 0.0000 1784.3464 -7483.3772 302.5860 -9267.7236 -7517.7231 301.4142 -144.4580 -64.2574 30732.3165 -103.7829 -43.0398
TCL: Running FEP window  15: Lambda1 0.29999999999999966 Lambda2 0.24999999999999967 [dLambda -0.04999999999999999]
TCL: Setting parameter firsttimestep to 0
TCL: Setting parameter alchLambda to 0.29999999999999966
Info: NONBONDED TABLE R-SQUARED SPACING: 0.0625
Info: NONBONDED TABLE SIZE: 705 POINTS
TCL: Setting parameter alchLambda2 to 0.24999999999999967
Info: NONBONDED TABLE R-SQUARED SPACING: 0.0625
Info: NONBONDED TABLE SIZE: 705 POINTS
TCL: Running for 1500000 steps
ETITLE: TS BOND ANGLE DIHED IMPRP ELECT VDW BOUNDARY MISC KINETIC TOTAL TEMP POTENTIAL TOTALAVG TEMPAVG PRESSURE GPRESSURE VOLUME PRESSAVG GPRESSAVG
ENERGY: 0 1.5783 3.2491 1.5257 0.0000 -10719.7046 1444.9260 0.0000 0.0000 1783.4310 -7484.9945 302.4308 -9268.4255 -7484.9945 302.4308 -142.5602 -73.8918 30732.3165 -142.5602 -73.8918
ENERGY: 300000 4.8508 4.3123 3.0088 0.0000 -10782.8488 1442.3731 0.0000 0.0000 1711.8764 -7616.4274 290.2967 -9328.3038 -7512.6898 299.7677 -414.3733 -365.8415 30165.9296 -238.2166 -161.6854
ENERGY: 600000 1.6384 3.0027 2.1087 0.0000 -10811.0671 1506.4891 0.0000 0.0000 1726.5666 -7571.2615 292.7878 -9297.8281 -7515.8199 299.0244 534.5092 580.1685 30278.4054 1.2655 76.9036
ENERGY: 900000 0.3085 4.3061 4.5493 0.0000 -10797.4445 1477.8886 0.0000 0.0000 1820.9366 -7489.4555 308.7909 -9310.3921 -7511.3350 300.2808 211.1695 364.7324 30344.9297 132.3467 216.3610
ENERGY: 1200000 0.6611 8.0029 0.4735 0.0000 -10735.3887 1430.8348 0.0000 0.0000 1726.2489 -7569.1676 292.7339 -9295.4165 -7522.5558 299.8029 -270.5838 -178.2671 30448.2156 30.8664 111.2588
ENERGY: 1500000 3.2370 3.1889 2.7220 0.0000 -10773.6640 1430.7532 0.0000 0.0000 1779.7789 -7553.9839 301.8115 -9333.7628 -7511.9546 300.2379 -760.0705 -661.1688 30881.0589 41.5278 121.3292
TCL: Running FEP window  16: Lambda1 0.24999999999999967 Lambda2 0.19999999999999968 [dLambda -0.04999999999999999]
TCL: Setting parameter firsttimestep to 0
TCL: Setting parameter alchLambda to 0.24999999999999967
Info: NONBONDED TABLE R-SQUARED SPACING: 0.0625
Info: NONBONDED TABLE SIZE: 705 POINTS
TCL: Setting parameter alchLambda2 to 0.19999999999999968
Info: NONBONDED TABLE R-SQUARED SPACING: 0.0625
Info: NONBONDED TABLE SIZE: 705 POINTS
TCL: Running for 1500000 steps
ETITLE: TS BOND ANGLE DIHED IMPRP ELECT VDW BOUNDARY MISC KINETIC TOTAL TEMP POTENTIAL TOTALAVG TEMPAVG PRESSURE GPRESSURE VOLUME PRESSAVG GPRESSAVG
ENERGY: 0 3.2370 3.1889 2.7220 0.0000 -10773.6646 1430.9629 0.0000 0.0000 1778.8854 -7554.6683 301.6599 -9333.5537 -7554.6683 301.6599 -753.2300 -664.5924 30881.0589 -753.2300 -664.5924
ENERGY: 300000 1.9603 3.8444 3.6546 0.0000 -10759.5399 1459.0865 0.0000 0.0000 1803.0341 -7487.9600 305.7550 -9290.9942 -7521.0446 300.0416 94.2397 138.3418 30509.1513 -181.7652 -97.3996
ENERGY: 600000 3.4623 3.5319 1.3172 0.0000 -10854.4630 1415.5496 0.0000 0.0000 1743.5033 -7687.0988 295.6599 -9430.6021 -7509.8163 301.5514 -529.4867 -457.0083 30269.1758 -221.2126 -142.5461
ENERGY: 900000 1.2579 4.2879 1.2516 0.0000 -10786.8830 1501.3000 0.0000 0.0000 1795.4109 -7483.3748 304.4623 -9278.7857 -7499.7379 301.7809 304.1638 359.2263 30601.4516 -96.7383 -24.3217
ENERGY: 1200000 3.1268 3.5137 2.6233 0.0000 -10624.7702 1380.1284 0.0000 0.0000 1730.9808 -7504.3971 293.5364 -9235.3779 -7493.3480 301.6288 -572.2225 -487.7749 30558.9715 -151.5153 -80.2610
ENERGY: 1500000 2.5850 3.4644 2.3170 0.0000 -10783.1784 1483.3095 0.0000 0.0000 1843.2567 -7448.2458 312.5759 -9291.5025 -7491.4416 302.6089 322.6302 386.4791 30489.7761 -45.8074 25.8232
TCL: Running FEP window  17: Lambda1 0.19999999999999968 Lambda2 0.1499999999999997 [dLambda -0.04999999999999999]
TCL: Setting parameter firsttimestep to 0
TCL: Setting parameter alchLambda to 0.19999999999999968
Info: NONBONDED TABLE R-SQUARED SPACING: 0.0625
Info: NONBONDED TABLE SIZE: 705 POINTS
TCL: Setting parameter alchLambda2 to 0.1499999999999997
Info: NONBONDED TABLE R-SQUARED SPACING: 0.0625
Info: NONBONDED TABLE SIZE: 705 POINTS
TCL: Running for 1500000 steps
ETITLE: TS BOND ANGLE DIHED IMPRP ELECT VDW BOUNDARY MISC KINETIC TOTAL TEMP POTENTIAL TOTALAVG TEMPAVG PRESSURE GPRESSURE VOLUME PRESSAVG GPRESSAVG
ENERGY: 0 2.5849 3.4644 2.3170 0.0000 -10783.1772 1483.3243 0.0000 0.0000 1842.4120 -7449.0746 312.4327 -9291.4866 -7449.0746 312.4327 303.0022 383.5121 30489.7761 303.0022 383.5121
ENERGY: 300000 4.3904 4.9033 3.2989 0.0000 -10685.7207 1410.1837 0.0000 0.0000 1688.4866 -7574.4578 286.3303 -9262.9443 -7473.9961 300.6706 -398.1987 -364.6530 30521.9773 -192.6483 -132.5275
ENERGY: 600000 2.4936 2.0475 1.3770 0.0000 -10735.8410 1379.5258 0.0000 0.0000 1771.4144 -7578.9827 300.3930 -9350.3971 -7504.7193 298.8094 -690.1952 -626.9565 30296.0331 -125.6999 -71.6219
ENERGY: 900000 1.4643 3.6059 1.7901 0.0000 -10616.5198 1383.6245 0.0000 0.0000 1778.3414 -7447.6936 301.5677 -9226.0350 -7493.7173 298.7396 -526.7947 -471.7159 30695.5968 -235.4128 -175.8663
ENERGY: 1200000 5.5534 5.4481 3.1485 0.0000 -10731.7155 1431.0821 0.0000 0.0000 1752.6268 -7533.8566 297.2071 -9286.4834 -7497.8204 298.8371 -219.8186 -165.8085 30236.3183 -217.0362 -153.1551
ENERGY: 1500000 2.8560 5.2446 0.6575 0.0000 -10680.9374 1388.4475 0.0000 0.0000 1773.4422 -7510.2896 300.7369 -9283.7318 -7495.2869 298.8593 -620.2713 -577.7822 30849.6898 -231.9048 -173.1274
TCL: Running FEP window  18: Lambda1 0.1499999999999997 Lambda2 0.09999999999999969 [dLambda -0.05 ]
TCL: Setting parameter firsttimestep to 0
TCL: Setting parameter alchLambda to 0.1499999999999997
Info: NONBONDED TABLE R-SQUARED SPACING: 0.0625
Info: NONBONDED TABLE SIZE: 705 POINTS
TCL: Setting parameter alchLambda2 to 0.09999999999999969
Info: NONBONDED TABLE R-SQUARED SPACING: 0.0625
Info: NONBONDED TABLE SIZE: 705 POINTS
TCL: Running for 1500000 steps
ETITLE: TS BOND ANGLE DIHED IMPRP ELECT VDW BOUNDARY MISC KINETIC TOTAL TEMP POTENTIAL TOTALAVG TEMPAVG PRESSURE GPRESSURE VOLUME PRESSAVG GPRESSAVG
ENERGY: 0 2.8560 5.2446 0.6575 0.0000 -10680.9377 1388.7593 0.0000 0.0000 1772.5816 -7510.8387 300.5909 -9283.4203 -7510.8387 300.5909 -667.1693 -578.5979 30849.6898 -667.1693 -578.5979
ENERGY: 300000 1.7671 2.2050 0.9212 0.0000 -10592.0378 1358.2254 0.0000 0.0000 1755.9626 -7472.9565 297.7727 -9228.9192 -7488.4876 299.8279 -749.7363 -741.8302 30923.9391 -439.1590 -395.2436
ENERGY: 600000 5.5798 2.7397 2.2056 0.0000 -10763.7854 1461.5476 0.0000 0.0000 1759.1788 -7532.5340 298.3181 -9291.7128 -7505.7052 300.4547 -264.7810 -169.0607 30519.5436 -335.7822 -285.8981
ENERGY: 900000 2.9674 6.1929 2.0607 0.0000 -10767.3197 1436.4010 0.0000 0.0000 1763.5571 -7556.1406 299.0606 -9319.6977 -7511.8781 299.9798 -388.6957 -306.9651 30554.8721 -309.1576 -252.2946
ENERGY: 1200000 1.2080 4.1634 2.7524 0.0000 -10635.8270 1389.0205 0.0000 0.0000 1801.8419 -7436.8408 305.5529 -9238.6827 -7496.1268 300.1158 -214.1034 -168.0602 30268.8895 -265.1866 -206.1151
ENERGY: 1500000 2.1062 5.8640 1.9090 0.0000 -10729.1475 1417.0372 0.0000 0.0000 1820.1351 -7482.0958 308.6550 -9302.2310 -7503.2142 300.7700 -283.5013 -161.2141 30502.4341 -256.6001 -185.6482
TCL: Running FEP window  19: Lambda1 0.09999999999999969 Lambda2 0.049999999999999684 [dLambda -0.05 ]
TCL: Setting parameter firsttimestep to 0
TCL: Setting parameter alchLambda to 0.09999999999999969
Info: NONBONDED TABLE R-SQUARED SPACING: 0.0625
Info: NONBONDED TABLE SIZE: 705 POINTS
TCL: Setting parameter alchLambda2 to 0.049999999999999684
Info: NONBONDED TABLE R-SQUARED SPACING: 0.0625
Info: NONBONDED TABLE SIZE: 705 POINTS
TCL: Running for 1500000 steps
ETITLE: TS BOND ANGLE DIHED IMPRP ELECT VDW BOUNDARY MISC KINETIC TOTAL TEMP POTENTIAL TOTALAVG TEMPAVG PRESSURE GPRESSURE VOLUME PRESSAVG GPRESSAVG
ENERGY: 0 2.1062 5.8640 1.9090 0.0000 -10729.1469 1417.3039 0.0000 0.0000 1819.2617 -7482.7020 308.5069 -9301.9637 -7482.7020 308.5069 -245.9593 -160.8679 30502.4341 -245.9593 -160.8679
ENERGY: 300000 1.1652 5.2485 5.6864 0.0000 -10679.1351 1414.0008 0.0000 0.0000 1816.3221 -7436.7121 308.0084 -9253.0342 -7477.8396 304.6723 -385.9992 -284.2917 30409.3768 -532.2911 -458.9301
ENERGY: 600000 1.5376 4.1710 1.9512 0.0000 -10665.7566 1361.8576 0.0000 0.0000 1774.7250 -7521.5141 300.9544 -9296.2391 -7499.3286 303.9180 -654.4321 -587.8987 30256.5179 -632.1495 -556.6967
ENERGY: 900000 2.1604 5.9056 1.4004 0.0000 -10879.1079 1499.5919 0.0000 0.0000 1787.6612 -7582.3884 303.1481 -9370.0495 -7496.9552 303.0690 72.4467 166.2643 30456.2982 -396.6000 -327.4776
ENERGY: 1200000 2.0093 2.8255 1.7973 0.0000 -10706.1514 1470.7480 0.0000 0.0000 1724.9404 -7503.8309 292.5120 -9228.7712 -7503.0457 301.5112 345.5981 359.5460 30409.4201 -264.3289 -203.1609
ENERGY: 1500000 1.1753 3.5853 4.3319 0.0000 -10659.4872 1368.2372 0.0000 0.0000 1769.6031 -7512.5545 300.0859 -9282.1575 -7493.9929 302.3913 -686.5649 -606.4546 30312.8087 -308.1138 -244.0704
TCL: Running FEP window  20: Lambda1 0.049999999999999684 Lambda2 0.0    [dLambda -0.049999999999999684]
TCL: Setting parameter firsttimestep to 0
TCL: Setting parameter alchLambda to 0.049999999999999684
Info: NONBONDED TABLE R-SQUARED SPACING: 0.0625
Info: NONBONDED TABLE SIZE: 705 POINTS
TCL: Setting parameter alchLambda2 to 0.0
Info: NONBONDED TABLE R-SQUARED SPACING: 0.0625
Info: NONBONDED TABLE SIZE: 705 POINTS
TCL: Running for 1500000 steps
ETITLE: TS BOND ANGLE DIHED IMPRP ELECT VDW BOUNDARY MISC KINETIC TOTAL TEMP POTENTIAL TOTALAVG TEMPAVG PRESSURE GPRESSURE VOLUME PRESSAVG GPRESSAVG
ENERGY: 0 1.1754 3.5853 4.3319 0.0000 -10659.4871 1368.0324 0.0000 0.0000 1768.7255 -7513.6365 299.9370 -9282.3621 -7513.6365 299.9370 -675.3867 -609.0610 30312.8087 -675.3867 -609.0610
ENERGY: 300000 7.1190 4.7096 1.5806 0.0000 -10932.2597 1556.9382 0.0000 0.0000 1705.5862 -7656.3259 289.2300 -9361.9122 -7505.2167 298.5904 448.9671 477.2658 30189.3957 167.0006 229.4885
ENERGY: 600000 0.9118 7.0843 3.1348 0.0000 -10818.0051 1473.0665 0.0000 0.0000 1772.4032 -7561.4046 300.5607 -9333.8078 -7503.0429 299.1051 37.4823 116.5593 30072.4392 144.4629 209.9673
ENERGY: 900000 0.4577 2.6622 5.6701 0.0000 -10778.3465 1477.3196 0.0000 0.0000 1729.5652 -7562.6717 293.2963 -9292.2370 -7495.1396 299.2261 265.7654 336.3066 30130.6339 92.1129 152.6760
ENERGY: 1200000 1.0429 7.9275 1.9793 0.0000 -10738.3116 1448.1686 0.0000 0.0000 1745.0582 -7534.1352 295.9236 -9279.1934 -7496.1929 299.2635 51.6617 100.5500 30282.7983 20.8215 80.5341
ENERGY: 1500000 0.9640 6.0894 2.8082 0.0000 -10692.9145 1460.0959 0.0000 0.0000 1766.2919 -7456.6652 299.5244 -9222.9571 -7495.1093 299.2497 85.9694 185.7734 30613.5077 -37.2188 30.8331
TCL: Exiting due to exit command.
