Info: SIMULATION PARAMETERS:
Info: TIMESTEP               2
Info: NUMBER OF STEPS        0
Info: STEPS PER CYCLE        10
Info: PERIODIC CELL BASIS 1  30.2435 0 0
Info: PERIODIC CELL BASIS 2  0 31.6334 0
Info: PERIODIC CELL BASIS 3  0 0 31.5839
Info: PERIODIC CELL CENTER   0 0 0
Info: WRAPPING WATERS AROUND PERIODIC BOUNDARIES ON OUTPUT.
Info: WRAPPING ALL CLUSTERS AROUND PERIODIC BOUNDARIES ON OUTPUT.
Info: FIRST LDB TIMESTEP     50
Info: LAST LDB TIMESTEP     -1
Info: HOM BACKGROUND SCALING 1
Info: PME BACKGROUND SCALING 1
Info: MIN ATOMS PER PATCH    40
Info: EMPTY PATCH LOAD       40 ATOMS
Info: VELOCITY FILE          mobley_9705941_equil.vel
Info: CENTER OF MASS MOVING INITIALLY? NO
Info: DIELECTRIC             1
Info: EXCLUDE                SCALED ONE-FOUR
Info: 1-4 ELECTROSTATICS SCALED BY 0.833333
Info: MODIFIED 1-4 VDW PARAMETERS WILL BE USED
Info: DCD FILENAME           mobley_9705941_prod.dcd
Info: DCD FREQUENCY          100000
Info: DCD FIRST STEP         100000
Info: DCD FILE WILL CONTAIN UNIT CELL DATA
Info: XST FILENAME           mobley_9705941_prod.xst
Info: XST FREQUENCY          100000
Info: NO VELOCITY DCD OUTPUT
Info: NO FORCE DCD OUTPUT
Info: OUTPUT FILENAME        mobley_9705941_prod
Info: BINARY OUTPUT FILES WILL BE USED
Info: RESTART FILENAME       mobley_9705941_prod.restart
Info: RESTART FREQUENCY      100000
Info: BINARY RESTART FILES WILL BE USED
Info: CUTOFF                 9
Info: PAIRLIST DISTANCE      11
Info: PAIRLIST SHRINK RATE   0.01
Info: PAIRLIST GROW RATE     0.01
Info: PAIRLIST TRIGGER       0.3
Info: PAIRLISTS PER CYCLE    2
Info: PAIRLISTS ENABLED
Info: MARGIN                 2
Info: HYDROGEN GROUP CUTOFF  2.5
Info: PATCH DIMENSION        15.5
Info: ENERGY OUTPUT STEPS    100000
Info: ENERGY EVALUATION STEPS    100000
Info: OUTPUT ENERGY PRECISION 4
Info: CROSSTERM ENERGY INCLUDED IN DIHEDRAL
Info: TIMING OUTPUT STEPS    1000000
Info: PRESSURE OUTPUT STEPS  100000
Info: ALCHEMICAL FEP ON
Info: FEP CURRENT LAMBDA VALUE     1
Info: FEP COMPARISON LAMBDA VALUE  0.95
Info: FEP INTRA-ALCHEMICAL NON-BONDED INTERACTIONS WILL BE RETAINED
Info: FEP INTRA-ALCHEMICAL BONDED INTERACTIONS WILL BE RETAINED
Info: FEP VDW SHIFTING COEFFICIENT 5
Info: FEP ELEC. ACTIVE FOR ANNIHILATED PARTICLES BETWEEN LAMBDA = 0 AND LAMBDA = 0.5
Info: FEP ELEC. ACTIVE FOR EXNIHILATED PARTICLES BETWEEN LAMBDA = 0.5 AND LAMBDA = 1
Info: FEP VDW ACTIVE FOR ANNIHILATED PARTICLES BETWEEN LAMBDA = 0 AND LAMBDA = 1
Info: FEP VDW ACTIVE FOR EXNIHILATED PARTICLES BETWEEN LAMBDA = 0 AND LAMBDA = 1
Info: FEP BOND ACTIVE FOR ANNIHILATED PARTICLES BETWEEN LAMBDA = 1 AND LAMBDA = 1
Info: FEP BOND ACTIVE FOR EXNIHILATED PARTICLES BETWEEN LAMBDA = 0 AND LAMBDA = 0
Info: LANGEVIN DYNAMICS ACTIVE
Info: LANGEVIN TEMPERATURE   300
Info: LANGEVIN USING BBK INTEGRATOR
Info: LANGEVIN DAMPING COEFFICIENT IS 1 INVERSE PS
Info: LANGEVIN DYNAMICS APPLIED TO HYDROGENS
Info: LANGEVIN PISTON PRESSURE CONTROL ACTIVE
Info:        TARGET PRESSURE IS 1.01325 BAR
Info:     OSCILLATION PERIOD IS 50 FS
Info:             DECAY TIME IS 25 FS
Info:     PISTON TEMPERATURE IS 300 K
Info:       PRESSURE CONTROL IS GROUP-BASED
Info:    INITIAL STRAIN RATE IS -8.84935e-05 -8.84935e-05 -8.84935e-05
Info:       CELL FLUCTUATION IS ISOTROPIC
Info: PARTICLE MESH EWALD (PME) ACTIVE
Info: PME TOLERANCE               1e-06
Info: PME EWALD COEFFICIENT       0.348832
Info: PME INTERPOLATION ORDER     4
Info: PME GRID DIMENSIONS         32 32 32
Info: PME MAXIMUM GRID SPACING    1
Info: PME CALCULATION WILL BE PERFORMED ON GPU
Info: FULL ELECTROSTATIC EVALUATION FREQUENCY      2
Info: USING VERLET I (r-RESPA) MTS SCHEME.
Info: C1 SPLITTING OF LONG RANGE ELECTROSTATICS
Info: PLACING ATOMS IN PATCHES BY HYDROGEN GROUPS
Info: RIGID BONDS TO HYDROGEN : ALL
Info:         ERROR TOLERANCE : 1e-08
Info:          MAX ITERATIONS : 100
Info: RIGID WATER USING SETTLE ALGORITHM
Info: RANDOM NUMBER SEED     1743557424
Info: USE HYDROGEN BONDS?    NO
Info: Using AMBER format force field!
Info: AMBER PARM FILE        mobley_9705941.prmtop
Info: COORDINATE PDB         mobley_9705941.pdb
Info: Exclusions will be read from PARM file!
Info: SCNB (VDW SCALING)     2
Info: USING ARITHMETIC MEAN TO COMBINE L-J SIGMA PARAMETERS
Info: BINARY COORDINATES     mobley_9705941_equil.coor
Info: SUMMARY OF PARAMETERS:
Info: 9 BONDS
Info: 11 ANGLES
Info:   11 HARMONIC
Info:   0 COSINE-BASED
Info: 4 DIHEDRAL
Info: 0 IMPROPER
Info: 0 CROSSTERM
Info: 0 VDW
Info: 36 VDW_PAIRS
Info: 0 NBTHOLE_PAIRS
Info: To read alchdata from file: mobley_9705941.pdb
Info: To read alchflag data from column: 5
Info: STRUCTURE SUMMARY:
Info: 2937 ATOMS
Info: 2937 BONDS
Info: 19 ANGLES
Info: 26 DIHEDRALS
Info: 0 IMPROPERS
Info: 0 CROSSTERMS
Info: 2973 EXCLUSIONS
Info: 2931 RIGID BONDS
Info: ALCH: 0 ATOMS TO DISAPPEAR IN FINAL STATE
Info: ALCH: 12 ATOMS TO APPEAR IN FINAL STATE
Info: 5880 DEGREES OF FREEDOM
Info: 981 HYDROGEN GROUPS
Info: 4 ATOMS IN LARGEST HYDROGEN GROUP
Info: 981 MIGRATION GROUPS
Info: 4 ATOMS IN LARGEST MIGRATION GROUP
Info: TOTAL MASS = 17663.8 amu
Info: TOTAL CHARGE = 3.72529e-09 e
Info: MASS DENSITY = 0.970732 g/cm^3
Info: ATOM DENSITY = 0.0971988 atoms/A^3
Info: ADDED 0 IMPLICIT EXCLUSIONS
Info: NONBONDED TABLE R-SQUARED SPACING: 0.0625
Info: NONBONDED TABLE SIZE: 705 POINTS
Info: REMOVING COM VELOCITY 0.0546984 -0.000249317 0.143805
Info: Use 3D box decompostion in PME FFT.
Info: Updated CUDA force table with 4096 elements.
Info: Updated CUDA LJ table with 8 x 8 elements.
Info: Found 13 unique exclusion lists needing 24 bytes
TCL: Running for 1500000 steps
ETITLE: TS BOND ANGLE DIHED IMPRP ELECT VDW BOUNDARY MISC KINETIC TOTAL TEMP POTENTIAL TOTALAVG TEMPAVG PRESSURE GPRESSURE VOLUME PRESSAVG GPRESSAVG
ENERGY: 0 2.1132 4.9841 0.9018 0.0000 -10695.7883 1390.4178 0.0000 0.0000 1729.5136 -7567.8577 296.0309 -9297.3713 -7567.8577 296.0309 -636.0125 -537.3450 30216.4249 -636.0125 -537.3450
ENERGY: 300000 1.5929 5.2940 1.5221 0.0000 -10543.2581 1372.8378 0.0000 0.0000 1695.0393 -7466.9721 290.1301 -9162.0114 -7494.2065 296.1210 -405.2735 -301.2966 30743.4367 -299.7091 -223.0091
ENERGY: 600000 1.4325 5.8290 0.7725 0.0000 -10761.5628 1491.6873 0.0000 0.0000 1798.1631 -7463.6784 307.7812 -9261.8415 -7463.8698 301.2830 428.7736 501.3560 30057.7388 3.8497 78.8458
ENERGY: 900000 0.8423 4.0942 1.5598 0.0000 -10766.2323 1471.9816 0.0000 0.0000 1717.6695 -7570.0850 294.0036 -9287.7545 -7462.8946 300.7171 241.3772 346.0603 30037.5727 -23.5517 53.1798
ENERGY: 1200000 1.1844 4.0933 0.7235 0.0000 -10642.7429 1443.7865 0.0000 0.0000 1753.2840 -7439.6713 300.0995 -9192.9552 -7462.4153 300.3638 242.2856 333.5657 30204.4273 9.8873 90.8579
ENERGY: 1500000 1.6605 4.4169 1.1631 0.0000 -10752.8991 1452.0954 0.0000 0.0000 1735.1933 -7558.3699 297.0031 -9293.5632 -7475.4840 299.8000 -73.4233 -18.8486 30189.8640 -28.4406 47.9128
TCL: Running FEP window   2: Lambda1 0.95   Lambda2 0.8999999999999999 [dLambda -0.050000000000000044]
TCL: Setting parameter firsttimestep to 0
TCL: Setting parameter alchLambda to 0.95
Info: NONBONDED TABLE R-SQUARED SPACING: 0.0625
Info: NONBONDED TABLE SIZE: 705 POINTS
TCL: Setting parameter alchLambda2 to 0.8999999999999999
Info: NONBONDED TABLE R-SQUARED SPACING: 0.0625
Info: NONBONDED TABLE SIZE: 705 POINTS
TCL: Running for 1500000 steps
ETITLE: TS BOND ANGLE DIHED IMPRP ELECT VDW BOUNDARY MISC KINETIC TOTAL TEMP POTENTIAL TOTALAVG TEMPAVG PRESSURE GPRESSURE VOLUME PRESSAVG GPRESSAVG
ENERGY: 0 1.6605 4.4169 1.1631 0.0000 -10752.5560 1452.5992 0.0000 0.0000 1734.3423 -7558.3741 296.8574 -9292.7164 -7558.3741 296.8574 -106.6493 -22.5327 30189.8640 -106.6493 -22.5327
ENERGY: 300000 1.1833 4.3445 1.2080 0.0000 -10660.2374 1460.8508 0.0000 0.0000 1710.5301 -7482.1207 292.7816 -9192.6507 -7473.8548 300.5849 186.6974 212.0208 30472.8405 24.5822 85.2760
ENERGY: 600000 1.8564 3.9918 0.5840 0.0000 -10727.8158 1418.3842 0.0000 0.0000 1750.7522 -7552.2473 299.6662 -9302.9994 -7484.9119 299.2333 -98.7666 -47.6595 30026.4818 -97.5263 -34.8915
ENERGY: 900000 1.4898 3.0197 2.4249 0.0000 -10597.9235 1412.6027 0.0000 0.0000 1743.6008 -7434.7856 298.4421 -9178.3864 -7480.0015 299.6349 -368.2661 -297.3988 31018.2373 -71.9124 -8.4227
ENERGY: 1200000 1.8098 5.0764 1.6954 0.0000 -10709.0191 1490.6355 0.0000 0.0000 1730.4731 -7479.3290 296.1951 -9209.8021 -7475.9380 299.7243 302.8204 405.3734 30269.8849 -24.9713 41.1202
ENERGY: 1500000 2.9515 2.7334 1.4571 0.0000 -10595.2326 1342.0384 0.0000 0.0000 1785.5366 -7460.5156 305.6200 -9246.0522 -7469.6652 299.2238 -1047.4415 -977.9625 30528.4293 21.2337 84.6434
TCL: Running FEP window   3: Lambda1 0.8999999999999999 Lambda2 0.8499999999999999 [dLambda -0.050000000000000044]
TCL: Setting parameter firsttimestep to 0
TCL: Setting parameter alchLambda to 0.8999999999999999
Info: NONBONDED TABLE R-SQUARED SPACING: 0.0625
Info: NONBONDED TABLE SIZE: 705 POINTS
TCL: Setting parameter alchLambda2 to 0.8499999999999999
Info: NONBONDED TABLE R-SQUARED SPACING: 0.0625
Info: NONBONDED TABLE SIZE: 705 POINTS
TCL: Running for 1500000 steps
ETITLE: TS BOND ANGLE DIHED IMPRP ELECT VDW BOUNDARY MISC KINETIC TOTAL TEMP POTENTIAL TOTALAVG TEMPAVG PRESSURE GPRESSURE VOLUME PRESSAVG GPRESSAVG
ENERGY: 0 2.9515 2.7334 1.4571 0.0000 -10594.8572 1341.9141 0.0000 0.0000 1784.6735 -7461.1276 305.4723 -9245.8011 -7461.1276 305.4723 -1068.5393 -986.0860 30528.4293 -1068.5393 -986.0860
ENERGY: 300000 1.8158 4.6836 1.6849 0.0000 -10612.5678 1406.3541 0.0000 0.0000 1764.5922 -7433.4372 302.0351 -9198.0294 -7469.3694 300.5410 170.4877 255.8676 29825.9500 -209.7568 -129.4961
ENERGY: 600000 2.0527 4.6683 1.7015 0.0000 -10629.6174 1408.5900 0.0000 0.0000 1805.9333 -7406.6715 309.1112 -9212.6049 -7432.9721 303.3054 -142.8299 -18.7472 30209.6428 -156.1828 -81.7814
ENERGY: 900000 2.7341 3.8875 1.4051 0.0000 -10749.1253 1508.3533 0.0000 0.0000 1738.6359 -7494.1093 297.5923 -9232.7452 -7439.8056 303.1707 722.1789 829.3322 29765.3276 -76.8141 7.5492
ENERGY: 1200000 2.6637 4.4417 1.1068 0.0000 -10519.5965 1360.7510 0.0000 0.0000 1776.8007 -7373.8326 304.1248 -9150.6333 -7431.0878 303.9061 -649.7271 -612.1639 30675.5241 -69.4187 12.9413
ENERGY: 1500000 2.9510 3.8272 2.7162 0.0000 -10575.6714 1417.7402 0.0000 0.0000 1753.6220 -7394.8147 300.1574 -9148.4367 -7431.2418 302.8864 -338.2956 -285.9333 31255.4108 -63.7918 20.3721
TCL: Running FEP window   4: Lambda1 0.8499999999999999 Lambda2 0.7999999999999998 [dLambda -0.050000000000000044]
TCL: Setting parameter firsttimestep to 0
TCL: Setting parameter alchLambda to 0.8499999999999999
Info: NONBONDED TABLE R-SQUARED SPACING: 0.0625
Info: NONBONDED TABLE SIZE: 705 POINTS
TCL: Setting parameter alchLambda2 to 0.7999999999999998
Info: NONBONDED TABLE R-SQUARED SPACING: 0.0625
Info: NONBONDED TABLE SIZE: 705 POINTS
TCL: Running for 1500000 steps
ETITLE: TS BOND ANGLE DIHED IMPRP ELECT VDW BOUNDARY MISC KINETIC TOTAL TEMP POTENTIAL TOTALAVG TEMPAVG PRESSURE GPRESSURE VOLUME PRESSAVG GPRESSAVG
ENERGY: 0 2.9510 3.8272 2.7162 0.0000 -10574.6819 1417.5412 0.0000 0.0000 1752.7014 -7394.9448 299.9998 -9147.6462 -7394.9448 299.9998 -369.2419 -298.6577 31255.4108 -369.2419 -298.6577
ENERGY: 300000 3.4905 5.4618 1.5400 0.0000 -10674.1524 1437.0878 0.0000 0.0000 1766.3000 -7460.2723 302.3274 -9226.5723 -7430.6373 301.4090 -6.2453 66.7696 30167.8436 -157.5848 -110.3809
ENERGY: 600000 1.5010 3.4016 0.6162 0.0000 -10643.9984 1436.8019 0.0000 0.0000 1717.4421 -7484.2355 293.9647 -9201.6776 -7442.6287 299.8837 -40.4752 92.0322 30253.8233 1.1829 63.7232
ENERGY: 900000 1.6410 2.2231 1.5783 0.0000 -10833.7086 1557.3163 0.0000 0.0000 1808.4217 -7462.5282 309.5371 -9270.9499 -7446.2598 301.1153 1038.0605 1076.3827 30183.8056 49.4093 118.3528
ENERGY: 1200000 2.5894 3.5159 0.3756 0.0000 -10621.1640 1381.0383 0.0000 0.0000 1796.2124 -7437.4325 307.4473 -9233.6449 -7438.8246 302.3073 -414.5144 -382.3319 30181.3457 -123.3001 -70.4264
ENERGY: 1500000 1.4452 2.7749 2.0980 0.0000 -10748.5239 1477.9199 0.0000 0.0000 1744.7193 -7519.5666 298.6336 -9264.2859 -7445.7625 302.3120 97.7942 225.7684 29945.8313 -114.8504 -55.6189
TCL: Running FEP window   5: Lambda1 0.7999999999999998 Lambda2 0.7499999999999998 [dLambda -0.050000000000000044]
TCL: Setting parameter firsttimestep to 0
TCL: Setting parameter alchLambda to 0.7999999999999998
Info: NONBONDED TABLE R-SQUARED SPACING: 0.0625
Info: NONBONDED TABLE SIZE: 705 POINTS
TCL: Setting parameter alchLambda2 to 0.7499999999999998
Info: NONBONDED TABLE R-SQUARED SPACING: 0.0625
Info: NONBONDED TABLE SIZE: 705 POINTS
TCL: Running for 1500000 steps
ETITLE: TS BOND ANGLE DIHED IMPRP ELECT VDW BOUNDARY MISC KINETIC TOTAL TEMP POTENTIAL TOTALAVG TEMPAVG PRESSURE GPRESSURE VOLUME PRESSAVG GPRESSAVG
ENERGY: 0 1.4452 2.7749 2.0980 0.0000 -10747.8346 1477.7975 0.0000 0.0000 1743.8200 -7519.8989 298.4796 -9263.7189 -7519.8989 298.4796 134.0250 216.3567 29945.8313 134.0250 216.3567
ENERGY: 300000 0.4585 4.2097 1.8314 0.0000 -10631.1192 1402.5636 0.0000 0.0000 1786.7976 -7435.2585 305.8359 -9222.0561 -7469.9420 299.1532 -455.3575 -389.8056 30445.1417 -94.1443 -31.5019
ENERGY: 600000 2.8315 2.1390 2.2596 0.0000 -10700.8222 1405.0499 0.0000 0.0000 1740.4214 -7548.1207 297.8979 -9288.5421 -7474.0375 300.1281 -190.3454 -124.6490 30034.5683 -5.8344 80.0508
ENERGY: 900000 1.1422 4.5517 2.3869 0.0000 -10512.3993 1301.5823 0.0000 0.0000 1750.2640 -7452.4722 299.5826 -9202.7362 -7465.3200 300.4588 -890.1442 -785.1833 30071.0064 -40.3919 40.5434
ENERGY: 1200000 2.1636 6.0081 2.1675 0.0000 -10650.5671 1424.0488 0.0000 0.0000 1760.6336 -7455.5454 301.3575 -9216.1790 -7486.7019 298.3348 -257.6272 -269.0299 30699.0724 -27.4671 48.8716
ENERGY: 1500000 1.6564 3.1386 3.6862 0.0000 -10638.9147 1451.3166 0.0000 0.0000 1786.0051 -7393.1118 305.7002 -9179.1169 -7475.7350 299.4012 56.4564 80.0228 30669.1450 -14.3890 53.5472
TCL: Running FEP window   6: Lambda1 0.7499999999999998 Lambda2 0.6999999999999997 [dLambda -0.050000000000000044]
TCL: Setting parameter firsttimestep to 0
TCL: Setting parameter alchLambda to 0.7499999999999998
Info: NONBONDED TABLE R-SQUARED SPACING: 0.0625
Info: NONBONDED TABLE SIZE: 705 POINTS
TCL: Setting parameter alchLambda2 to 0.6999999999999997
Info: NONBONDED TABLE R-SQUARED SPACING: 0.0625
Info: NONBONDED TABLE SIZE: 705 POINTS
TCL: Running for 1500000 steps
ETITLE: TS BOND ANGLE DIHED IMPRP ELECT VDW BOUNDARY MISC KINETIC TOTAL TEMP POTENTIAL TOTALAVG TEMPAVG PRESSURE GPRESSURE VOLUME PRESSAVG GPRESSAVG
ENERGY: 0 1.6563 3.1386 3.6862 0.0000 -10638.3322 1451.3097 0.0000 0.0000 1785.1272 -7393.4141 305.5500 -9178.5413 -7393.4141 305.5500 -37.1222 72.0121 30669.1450 -37.1222 72.0121
ENERGY: 300000 2.5330 3.5441 0.7570 0.0000 -10714.5885 1417.2733 0.0000 0.0000 1713.3442 -7577.1367 293.2633 -9290.4810 -7486.2209 300.3408 -130.4232 -83.3463 29696.3650 -245.1599 -167.3806
ENERGY: 600000 2.9483 3.5668 2.1003 0.0000 -10639.9248 1407.0293 0.0000 0.0000 1747.1568 -7477.1233 299.0508 -9224.2801 -7479.5105 302.2435 -488.1408 -401.6621 30231.3761 -342.0777 -270.9101
ENERGY: 900000 2.3928 4.2596 0.7843 0.0000 -10642.3985 1489.9171 0.0000 0.0000 1784.4686 -7360.5760 305.4372 -9145.0447 -7466.3739 300.6851 727.3212 771.4117 30206.7764 -267.9634 -210.1852
ENERGY: 1200000 1.9169 2.2718 2.8036 0.0000 -10527.0435 1373.2879 0.0000 0.0000 1744.2583 -7402.5050 298.5547 -9146.7633 -7456.3746 300.7853 -276.5264 -245.1126 30319.7185 -228.2827 -167.5671
ENERGY: 1500000 2.6114 3.1983 1.1799 0.0000 -10646.4217 1447.3523 0.0000 0.0000 1748.0162 -7444.0637 299.1979 -9192.0799 -7460.9864 300.5654 325.8903 343.9394 30211.3256 -186.2029 -124.0569
TCL: Running FEP window   7: Lambda1 0.6999999999999997 Lambda2 0.6499999999999997 [dLambda -0.050000000000000044]
TCL: Setting parameter firsttimestep to 0
TCL: Setting parameter alchLambda to 0.6999999999999997
Info: NONBONDED TABLE R-SQUARED SPACING: 0.0625
Info: NONBONDED TABLE SIZE: 705 POINTS
TCL: Setting parameter alchLambda2 to 0.6499999999999997
Info: NONBONDED TABLE R-SQUARED SPACING: 0.0625
Info: NONBONDED TABLE SIZE: 705 POINTS
TCL: Running for 1500000 steps
ETITLE: TS BOND ANGLE DIHED IMPRP ELECT VDW BOUNDARY MISC KINETIC TOTAL TEMP POTENTIAL TOTALAVG TEMPAVG PRESSURE GPRESSURE VOLUME PRESSAVG GPRESSAVG
ENERGY: 0 2.6114 3.1983 1.1799 0.0000 -10645.8839 1446.6622 0.0000 0.0000 1747.1302 -7445.1020 299.0462 -9192.2322 -7445.1020 299.0462 245.2817 326.4336 30211.3256 245.2817 326.4336
ENERGY: 300000 0.6732 2.8951 1.7039 0.0000 -10609.0671 1334.5653 0.0000 0.0000 1744.9549 -7524.2748 298.6739 -9269.2296 -7431.1701 300.9555 -1085.9042 -1020.4014 30549.5160 -173.9035 -109.9710
ENERGY: 600000 1.1049 2.9919 3.6589 0.0000 -10744.2248 1499.3780 0.0000 0.0000 1748.9387 -7488.1523 299.3558 -9237.0911 -7450.1287 299.0469 720.3425 794.0160 29569.5105 14.3887 85.3064
ENERGY: 900000 1.3922 3.5485 1.2097 0.0000 -10641.8732 1407.2482 0.0000 0.0000 1775.7877 -7452.6868 303.9514 -9228.4745 -7463.7454 299.0497 -405.5626 -374.7112 30668.3710 -163.1436 -103.8085
ENERGY: 1200000 1.1905 5.4639 1.9410 0.0000 -10723.4111 1537.8850 0.0000 0.0000 1770.0729 -7406.8578 302.9732 -9176.9306 -7463.5294 299.3190 1062.2093 1132.9569 30058.4940 -67.7920 -9.6179
ENERGY: 1500000 1.4401 5.2131 2.7629 0.0000 -10661.9906 1457.7526 0.0000 0.0000 1763.8913 -7430.9305 301.9151 -9194.8218 -7461.5845 299.9329 558.5114 638.1391 29809.4305 -57.5511 -4.0212
TCL: Running FEP window   8: Lambda1 0.6499999999999997 Lambda2 0.5999999999999996 [dLambda -0.050000000000000044]
TCL: Setting parameter firsttimestep to 0
TCL: Setting parameter alchLambda to 0.6499999999999997
Info: NONBONDED TABLE R-SQUARED SPACING: 0.0625
Info: NONBONDED TABLE SIZE: 705 POINTS
TCL: Setting parameter alchLambda2 to 0.5999999999999996
Info: NONBONDED TABLE R-SQUARED SPACING: 0.0625
Info: NONBONDED TABLE SIZE: 705 POINTS
TCL: Running for 1500000 steps
ETITLE: TS BOND ANGLE DIHED IMPRP ELECT VDW BOUNDARY MISC KINETIC TOTAL TEMP POTENTIAL TOTALAVG TEMPAVG PRESSURE GPRESSURE VOLUME PRESSAVG GPRESSAVG
ENERGY: 0 1.4401 5.2131 2.7629 0.0000 -10661.5916 1458.1108 0.0000 0.0000 1762.9996 -7431.0650 301.7625 -9194.0646 -7431.0650 301.7625 543.1169 636.7821 29809.4305 543.1169 636.7821
ENERGY: 300000 0.9582 5.1674 2.3192 0.0000 -10773.8159 1572.6499 0.0000 0.0000 1757.9014 -7434.8200 300.8899 -9192.7214 -7466.2888 298.1811 1239.3451 1212.0991 30206.8597 589.4040 620.6452
ENERGY: 600000 1.2533 3.0140 1.1860 0.0000 -10574.3106 1365.0297 0.0000 0.0000 1717.5275 -7486.3001 293.9793 -9203.8276 -7454.2522 300.1756 -254.0139 -164.5329 29805.8212 264.8217 297.9253
ENERGY: 900000 2.2298 4.3114 1.1155 0.0000 -10660.9673 1476.0029 0.0000 0.0000 1778.1214 -7399.1863 304.3508 -9177.3077 -7452.1961 300.4918 400.6459 496.6719 30480.1781 252.2559 299.9036
ENERGY: 1200000 1.5930 4.2333 2.5701 0.0000 -10546.7775 1381.8135 0.0000 0.0000 1766.9310 -7389.6365 302.4354 -9156.5675 -7451.2371 300.6357 -246.3606 -185.5112 30534.7610 206.9427 261.7535
ENERGY: 1500000 0.5010 2.7671 5.5654 0.0000 -10636.0544 1407.8990 0.0000 0.0000 1781.6494 -7437.6724 304.9547 -9219.3219 -7455.4052 300.4222 -295.3459 -243.2055 30278.4734 181.9336 236.2095
TCL: Running FEP window   9: Lambda1 0.5999999999999996 Lambda2 0.5499999999999996 [dLambda -0.050000000000000044]
TCL: Setting parameter firsttimestep to 0
TCL: Setting parameter alchLambda to 0.5999999999999996
Info: NONBONDED TABLE R-SQUARED SPACING: 0.0625
Info: NONBONDED TABLE SIZE: 705 POINTS
TCL: Setting parameter alchLambda2 to 0.5499999999999996
Info: NONBONDED TABLE R-SQUARED SPACING: 0.0625
Info: NONBONDED TABLE SIZE: 705 POINTS
TCL: Running for 1500000 steps
ETITLE: TS BOND ANGLE DIHED IMPRP ELECT VDW BOUNDARY MISC KINETIC TOTAL TEMP POTENTIAL TOTALAVG TEMPAVG PRESSURE GPRESSURE VOLUME PRESSAVG GPRESSAVG
ENERGY: 0 0.5010 2.7671 5.5654 0.0000 -10635.8579 1407.9318 0.0000 0.0000 1780.7670 -7438.3256 304.8036 -9219.0926 -7438.3256 304.8036 -353.7867 -250.3663 30278.4734 -353.7867 -250.3663
ENERGY: 300000 2.5558 7.8880 3.7487 0.0000 -10909.2328 1567.6347 0.0000 0.0000 1786.6954 -7540.7101 305.8184 -9327.4056 -7460.2693 304.0846 1026.9084 1075.5007 29708.4414 206.8586 279.0662
ENERGY: 600000 1.3548 3.4141 2.2871 0.0000 -10626.4482 1461.4003 0.0000 0.0000 1783.6882 -7374.3038 305.3037 -9157.9920 -7440.9647 302.4881 598.7522 710.6250 29862.2762 -73.0718 0.0545
ENERGY: 900000 0.9659 2.5599 1.4562 0.0000 -10692.4600 1462.3914 0.0000 0.0000 1778.6975 -7446.3891 304.4494 -9225.0866 -7444.8624 302.9063 286.7159 333.3048 29966.4568 -146.4004 -76.2576
ENERGY: 1200000 2.2690 5.8485 2.9294 0.0000 -10795.6758 1496.4021 0.0000 0.0000 1772.6213 -7515.6055 303.4094 -9288.2269 -7452.7957 302.0153 171.3499 247.4875 30168.3404 -198.2170 -122.7922
ENERGY: 1500000 1.2815 4.6263 1.6880 0.0000 -10685.3825 1439.9835 0.0000 0.0000 1743.8543 -7493.9488 298.4855 -9237.8031 -7464.6929 300.8302 62.3125 81.9445 30157.7408 -171.9201 -104.4160
TCL: Running FEP window  10: Lambda1 0.5499999999999996 Lambda2 0.4999999999999996 [dLambda -0.04999999999999999]
TCL: Setting parameter firsttimestep to 0
TCL: Setting parameter alchLambda to 0.5499999999999996
Info: NONBONDED TABLE R-SQUARED SPACING: 0.0625
Info: NONBONDED TABLE SIZE: 705 POINTS
TCL: Setting parameter alchLambda2 to 0.4999999999999996
Info: NONBONDED TABLE R-SQUARED SPACING: 0.0625
Info: NONBONDED TABLE SIZE: 705 POINTS
TCL: Running for 1500000 steps
ETITLE: TS BOND ANGLE DIHED IMPRP ELECT VDW BOUNDARY MISC KINETIC TOTAL TEMP POTENTIAL TOTALAVG TEMPAVG PRESSURE GPRESSURE VOLUME PRESSAVG GPRESSAVG
ENERGY: 0 1.2815 4.6264 1.6880 0.0000 -10685.7800 1439.8804 0.0000 0.0000 1742.9850 -7495.3187 298.3367 -9238.3037 -7495.3187 298.3367 -22.0455 70.5341 30157.7408 -22.0455 70.5341
ENERGY: 300000 0.2371 3.1120 2.2130 0.0000 -10653.1653 1409.8897 0.0000 0.0000 1759.4783 -7478.2353 301.1598 -9237.7135 -7494.4724 297.2038 -386.5910 -322.8622 30274.7750 -26.5894 38.8321
ENERGY: 600000 1.4552 3.3078 0.9246 0.0000 -10631.6755 1409.2600 0.0000 0.0000 1794.1000 -7422.6278 307.0858 -9216.7278 -7458.3908 300.1042 31.3941 102.6277 29635.6050 54.4016 107.6919
ENERGY: 900000 1.6666 2.2234 1.6709 0.0000 -10695.0047 1467.0495 0.0000 0.0000 1790.8043 -7431.5900 306.5217 -9222.3943 -7451.3607 300.9763 183.2012 248.8946 30365.1951 -36.8242 20.5738
ENERGY: 1200000 4.3155 5.6848 3.0300 0.0000 -10838.9888 1527.2115 0.0000 0.0000 1787.8474 -7510.8995 306.0155 -9298.7469 -7448.1179 302.0112 996.8129 1076.4819 29636.1854 50.4232 106.2248
ENERGY: 1500000 1.0385 2.6711 2.9189 0.0000 -10676.2353 1405.4474 0.0000 0.0000 1715.9889 -7548.1705 293.7159 -9264.1593 -7459.6946 301.3851 -322.2448 -285.4914 30052.2585 -3.9284 47.7867
TCL: Running FEP window  11: Lambda1 0.4999999999999996 Lambda2 0.4499999999999996 [dLambda -0.04999999999999999]
TCL: Setting parameter firsttimestep to 0
TCL: Setting parameter alchLambda to 0.4999999999999996
Info: NONBONDED TABLE R-SQUARED SPACING: 0.0625
Info: NONBONDED TABLE SIZE: 705 POINTS
TCL: Setting parameter alchLambda2 to 0.4499999999999996
Info: NONBONDED TABLE R-SQUARED SPACING: 0.0625
Info: NONBONDED TABLE SIZE: 705 POINTS
TCL: Running for 1500000 steps
ETITLE: TS BOND ANGLE DIHED IMPRP ELECT VDW BOUNDARY MISC KINETIC TOTAL TEMP POTENTIAL TOTALAVG TEMPAVG PRESSURE GPRESSURE VOLUME PRESSAVG GPRESSAVG
ENERGY: 0 1.0385 2.6711 2.9190 0.0000 -10676.1852 1405.3665 0.0000 0.0000 1715.1368 -7549.0533 293.5701 -9264.1901 -7549.0533 293.5701 -365.5523 -291.8921 30052.2585 -365.5523 -291.8921
ENERGY: 300000 2.5544 6.3116 3.8878 0.0000 -10687.8367 1483.8412 0.0000 0.0000 1737.0479 -7454.1938 297.3205 -9191.2417 -7482.3755 298.1254 558.8764 682.6767 29757.8496 -86.2861 -8.1289
ENERGY: 600000 0.9164 3.0234 2.4895 0.0000 -10644.5474 1414.1346 0.0000 0.0000 1695.9427 -7528.0408 290.2848 -9223.9835 -7477.5366 298.3538 -212.0457 -133.9317 30169.6538 -75.1563 4.8115
ENERGY: 900000 1.1856 5.4242 0.9667 0.0000 -10459.4403 1333.2860 0.0000 0.0000 1743.3680 -7375.2099 298.4023 -9118.5780 -7440.0376 299.6420 -388.8410 -251.2032 30150.4086 -104.0594 -27.5860
ENERGY: 1200000 0.9465 4.6374 3.0072 0.0000 -10642.6604 1449.3319 0.0000 0.0000 1735.9714 -7448.7660 297.1362 -9184.7374 -7454.7624 299.2758 -22.2095 50.7786 30533.9280 -123.9046 -50.0578
ENERGY: 1500000 2.3633 3.4456 1.1991 0.0000 -10649.3210 1428.8623 0.0000 0.0000 1799.1455 -7414.3052 307.9494 -9213.4507 -7453.5018 300.0479 -208.6230 -230.8769 30221.8228 -64.4529 7.8698
TCL: Running FEP window  12: Lambda1 0.4499999999999996 Lambda2 0.39999999999999963 [dLambda -0.04999999999999999]
TCL: Setting parameter firsttimestep to 0
TCL: Setting parameter alchLambda to 0.4499999999999996
Info: NONBONDED TABLE R-SQUARED SPACING: 0.0625
Info: NONBONDED TABLE SIZE: 705 POINTS
TCL: Setting parameter alchLambda2 to 0.39999999999999963
Info: NONBONDED TABLE R-SQUARED SPACING: 0.0625
Info: NONBONDED TABLE SIZE: 705 POINTS
TCL: Running for 1500000 steps
ETITLE: TS BOND ANGLE DIHED IMPRP ELECT VDW BOUNDARY MISC KINETIC TOTAL TEMP POTENTIAL TOTALAVG TEMPAVG PRESSURE GPRESSURE VOLUME PRESSAVG GPRESSAVG
ENERGY: 0 2.3633 3.4456 1.1991 0.0000 -10649.3212 1429.3940 0.0000 0.0000 1798.3035 -7414.6156 307.8053 -9212.9192 -7414.6156 307.8053 -322.4785 -229.3888 30221.8228 -322.4785 -229.3888
ENERGY: 300000 0.7077 4.2218 0.1934 0.0000 -10789.0420 1464.8762 0.0000 0.0000 1768.3944 -7550.6485 302.6859 -9319.0429 -7446.0566 303.3348 186.3901 281.5474 29962.5487 -23.5213 45.1410
ENERGY: 600000 0.9174 3.4113 1.5959 0.0000 -10796.5631 1518.4392 0.0000 0.0000 1710.7387 -7561.4606 292.8173 -9272.1994 -7462.7184 300.0109 666.6964 777.8492 29762.0732 -22.0361 64.8731
ENERGY: 900000 1.4235 2.6033 0.3922 0.0000 -10709.5092 1457.2637 0.0000 0.0000 1747.3053 -7500.5213 299.0762 -9247.8266 -7461.9882 301.1258 190.0225 220.9739 30105.4695 25.7959 97.3449
ENERGY: 1200000 1.5380 3.1679 0.5370 0.0000 -10723.7642 1448.5107 0.0000 0.0000 1731.4836 -7538.5271 296.3681 -9270.0106 -7469.7547 300.1921 51.7319 127.4935 29681.6540 -65.4611 12.4001
ENERGY: 1500000 1.3943 7.4296 1.4660 0.0000 -10529.8774 1402.4417 0.0000 0.0000 1688.4383 -7428.7075 289.0003 -9117.1458 -7463.3680 299.2705 66.7018 98.9598 30219.8134 -74.5779 -0.2242
TCL: Running FEP window  13: Lambda1 0.39999999999999963 Lambda2 0.34999999999999964 [dLambda -0.04999999999999999]
TCL: Setting parameter firsttimestep to 0
TCL: Setting parameter alchLambda to 0.39999999999999963
Info: NONBONDED TABLE R-SQUARED SPACING: 0.0625
Info: NONBONDED TABLE SIZE: 705 POINTS
TCL: Setting parameter alchLambda2 to 0.34999999999999964
Info: NONBONDED TABLE R-SQUARED SPACING: 0.0625
Info: NONBONDED TABLE SIZE: 705 POINTS
TCL: Running for 1500000 steps
ETITLE: TS BOND ANGLE DIHED IMPRP ELECT VDW BOUNDARY MISC KINETIC TOTAL TEMP POTENTIAL TOTALAVG TEMPAVG PRESSURE GPRESSURE VOLUME PRESSAVG GPRESSAVG
ENERGY: 0 1.3943 7.4296 1.4660 0.0000 -10529.8776 1402.6388 0.0000 0.0000 1687.5601 -7429.3889 288.8500 -9116.9490 -7429.3889 288.8500 -1.1819 96.4849 30219.8134 -1.1819 96.4849
ENERGY: 300000 0.4646 3.4317 0.9423 0.0000 -10629.2106 1412.7813 0.0000 0.0000 1740.9578 -7470.6330 297.9897 -9211.5907 -7466.3691 293.9995 -130.9666 9.2287 30006.1525 -73.5704 48.8879
ENERGY: 600000 1.6120 4.5041 2.5864 0.0000 -10643.4004 1465.6941 0.0000 0.0000 1756.9942 -7412.0096 300.7346 -9169.0037 -7477.1618 296.0518 494.0048 451.3916 29926.0426 72.3650 153.5051
ENERGY: 900000 0.6597 3.9431 1.6537 0.0000 -10563.0630 1387.1226 0.0000 0.0000 1753.5280 -7416.1559 300.1413 -9169.6839 -7461.0286 297.2528 -544.6566 -493.4456 30849.6646 19.0294 93.8492
ENERGY: 1200000 1.0426 5.9782 1.1842 0.0000 -10659.4134 1402.7345 0.0000 0.0000 1766.7879 -7481.6860 302.4109 -9248.4739 -7455.1704 298.8758 -266.9019 -234.5454 30085.5565 86.1311 152.9219
ENERGY: 1500000 1.5829 4.2991 1.6152 0.0000 -10590.5235 1418.5756 0.0000 0.0000 1774.7318 -7389.7190 303.7706 -9164.4508 -7455.7337 299.0255 4.9779 68.8998 30221.5551 97.8843 166.8389
TCL: Running FEP window  14: Lambda1 0.34999999999999964 Lambda2 0.29999999999999966 [dLambda -0.04999999999999999]
TCL: Setting parameter firsttimestep to 0
TCL: Setting parameter alchLambda to 0.34999999999999964
Info: NONBONDED TABLE R-SQUARED SPACING: 0.0625
Info: NONBONDED TABLE SIZE: 705 POINTS
TCL: Setting parameter alchLambda2 to 0.29999999999999966
Info: NONBONDED TABLE R-SQUARED SPACING: 0.0625
Info: NONBONDED TABLE SIZE: 705 POINTS
TCL: Running for 1500000 steps
ETITLE: TS BOND ANGLE DIHED IMPRP ELECT VDW BOUNDARY MISC KINETIC TOTAL TEMP POTENTIAL TOTALAVG TEMPAVG PRESSURE GPRESSURE VOLUME PRESSAVG GPRESSAVG
ENERGY: 0 1.5829 4.2991 1.6152 0.0000 -10590.5226 1418.9102 0.0000 0.0000 1773.8815 -7390.2337 303.6251 -9164.1152 -7390.2337 303.6251 -40.4377 65.6905 30221.5551 -40.4377 65.6905
ENERGY: 300000 2.2010 3.6961 2.7331 0.0000 -10866.8436 1460.5528 0.0000 0.0000 1777.5039 -7620.1566 304.2451 -9397.6606 -7469.7352 303.0665 0.1279 59.6199 29384.5418 -246.6054 -158.0260
ENERGY: 600000 1.0691 2.5625 1.6081 0.0000 -10691.0504 1428.5134 0.0000 0.0000 1737.6927 -7519.6047 297.4309 -9257.2974 -7487.3552 300.5424 -288.6709 -312.9431 30607.1481 -293.1442 -237.3640
ENERGY: 900000 2.6834 4.2690 4.6932 0.0000 -10649.1334 1391.3650 0.0000 0.0000 1740.2933 -7505.8296 297.8760 -9246.1228 -7483.2768 299.6572 -654.3197 -585.4712 30490.0902 -226.7717 -168.4263
ENERGY: 1200000 2.2456 4.0201 1.1285 0.0000 -10570.5802 1341.3334 0.0000 0.0000 1749.1808 -7472.6719 299.3972 -9221.8527 -7469.8102 299.7697 -848.7643 -757.0705 30477.4204 -213.7512 -154.3663
ENERGY: 1500000 1.5105 3.0661 2.8685 0.0000 -10609.5192 1400.2850 0.0000 0.0000 1762.9864 -7438.8028 301.7602 -9201.7892 -7461.4355 300.4961 -74.2596 8.7581 30097.7267 -144.4919 -80.8205
TCL: Running FEP window  15: Lambda1 0.29999999999999966 Lambda2 0.24999999999999967 [dLambda -0.04999999999999999]
TCL: Setting parameter firsttimestep to 0
TCL: Setting parameter alchLambda to 0.29999999999999966
Info: NONBONDED TABLE R-SQUARED SPACING: 0.0625
Info: NONBONDED TABLE SIZE: 705 POINTS
TCL: Setting parameter alchLambda2 to 0.24999999999999967
Info: NONBONDED TABLE R-SQUARED SPACING: 0.0625
Info: NONBONDED TABLE SIZE: 705 POINTS
TCL: Running for 1500000 steps
ETITLE: TS BOND ANGLE DIHED IMPRP ELECT VDW BOUNDARY MISC KINETIC TOTAL TEMP POTENTIAL TOTALAVG TEMPAVG PRESSURE GPRESSURE VOLUME PRESSAVG GPRESSAVG
ENERGY: 0 1.5105 3.0661 2.8685 0.0000 -10609.5180 1400.6008 0.0000 0.0000 1762.1043 -7439.3680 301.6093 -9201.4722 -7439.3680 301.6093 -64.2334 6.9522 30097.7267 -64.2334 6.9522
ENERGY: 300000 0.0971 6.1627 2.0353 0.0000 -10537.5085 1347.3522 0.0000 0.0000 1760.5801 -7421.2811 301.3484 -9181.8612 -7417.3668 302.8937 -808.6294 -693.6999 30457.4239 -100.0412 -25.0774
ENERGY: 600000 4.1146 2.5521 0.4415 0.0000 -10484.5682 1315.4147 0.0000 0.0000 1765.1432 -7396.9022 302.1294 -9162.0453 -7406.4953 303.1129 -892.1668 -860.7499 30325.5986 -181.3111 -105.7742
ENERGY: 900000 1.7211 3.5659 1.8390 0.0000 -10759.2843 1493.8193 0.0000 0.0000 1731.4084 -7526.9306 296.3552 -9258.3390 -7431.9091 300.8832 341.0324 436.9571 30067.7375 -62.6277 15.9424
ENERGY: 1200000 1.8238 4.0811 1.7288 0.0000 -10676.2643 1432.4237 0.0000 0.0000 1759.1143 -7477.0926 301.0975 -9236.2069 -7447.2937 300.3092 -87.2788 -69.3383 30277.7919 -97.4579 -20.8832
ENERGY: 1500000 2.3199 6.9141 1.2491 0.0000 -10583.3421 1402.1911 0.0000 0.0000 1756.5323 -7414.1355 300.6555 -9170.6679 -7449.9626 300.1941 -23.6815 23.1758 29907.7906 -103.7011 -30.9463
TCL: Running FEP window  16: Lambda1 0.24999999999999967 Lambda2 0.19999999999999968 [dLambda -0.04999999999999999]
TCL: Setting parameter firsttimestep to 0
TCL: Setting parameter alchLambda to 0.24999999999999967
Info: NONBONDED TABLE R-SQUARED SPACING: 0.0625
Info: NONBONDED TABLE SIZE: 705 POINTS
TCL: Setting parameter alchLambda2 to 0.19999999999999968
Info: NONBONDED TABLE R-SQUARED SPACING: 0.0625
Info: NONBONDED TABLE SIZE: 705 POINTS
TCL: Running for 1500000 steps
ETITLE: TS BOND ANGLE DIHED IMPRP ELECT VDW BOUNDARY MISC KINETIC TOTAL TEMP POTENTIAL TOTALAVG TEMPAVG PRESSURE GPRESSURE VOLUME PRESSAVG GPRESSAVG
ENERGY: 0 2.3199 6.9141 1.2491 0.0000 -10583.3422 1402.2803 0.0000 0.0000 1755.6412 -7414.9377 300.5030 -9170.5788 -7414.9377 300.5030 -65.3540 22.4333 29907.7906 -65.3540 22.4333
ENERGY: 300000 0.9522 3.7528 0.5026 0.0000 -10733.7168 1407.5142 0.0000 0.0000 1779.5540 -7541.4411 304.5960 -9320.9951 -7477.2129 302.6599 -414.4149 -346.0845 30017.3020 -30.9427 54.3189
ENERGY: 600000 1.2134 5.6272 1.6723 0.0000 -10631.3083 1403.4347 0.0000 0.0000 1707.7086 -7511.6521 292.2987 -9219.3607 -7485.5759 299.8337 -284.9436 -207.7993 30058.2688 -99.2526 -38.4006
ENERGY: 900000 2.9093 4.1649 3.2870 0.0000 -10574.5195 1374.0435 0.0000 0.0000 1804.2007 -7385.9141 308.8147 -9190.1148 -7467.6615 301.3943 -359.4493 -309.8457 30189.4541 -131.3875 -78.9895
ENERGY: 1200000 0.9045 3.4033 1.8943 0.0000 -10528.8137 1392.6508 0.0000 0.0000 1789.9226 -7340.0383 306.3708 -9129.9608 -7448.8363 301.1033 123.3831 195.2125 29948.2195 -167.2132 -115.3998
ENERGY: 1500000 0.5529 6.7171 2.9290 0.0000 -10569.0370 1329.9283 0.0000 0.0000 1744.7827 -7484.1270 298.6444 -9228.9097 -7453.2817 300.5059 -1051.6006 -980.4610 30439.6067 -120.1070 -62.4615
TCL: Running FEP window  17: Lambda1 0.19999999999999968 Lambda2 0.1499999999999997 [dLambda -0.04999999999999999]
TCL: Setting parameter firsttimestep to 0
TCL: Setting parameter alchLambda to 0.19999999999999968
Info: NONBONDED TABLE R-SQUARED SPACING: 0.0625
Info: NONBONDED TABLE SIZE: 705 POINTS
TCL: Setting parameter alchLambda2 to 0.1499999999999997
Info: NONBONDED TABLE R-SQUARED SPACING: 0.0625
Info: NONBONDED TABLE SIZE: 705 POINTS
TCL: Running for 1500000 steps
ETITLE: TS BOND ANGLE DIHED IMPRP ELECT VDW BOUNDARY MISC KINETIC TOTAL TEMP POTENTIAL TOTALAVG TEMPAVG PRESSURE GPRESSURE VOLUME PRESSAVG GPRESSAVG
ENERGY: 0 0.5529 6.7171 2.9290 0.0000 -10569.0373 1330.1083 0.0000 0.0000 1743.9606 -7484.7694 298.5037 -9228.7300 -7484.7694 298.5037 -1065.8738 -983.6878 30439.6067 -1065.8738 -983.6878
ENERGY: 300000 3.1323 2.6593 1.8206 0.0000 -10680.2269 1388.6580 0.0000 0.0000 1742.6987 -7541.2579 298.2877 -9283.9566 -7498.1442 297.9469 -389.2623 -375.8831 29909.3611 -365.6419 -318.1258
ENERGY: 600000 5.4474 5.7239 0.7217 0.0000 -10768.0263 1476.3751 0.0000 0.0000 1752.3337 -7527.4244 299.9369 -9279.7581 -7483.3207 296.7264 -41.8056 0.5598 29964.9202 -219.4700 -168.7253
ENERGY: 900000 2.0938 1.8671 0.8010 0.0000 -10621.5304 1439.9811 0.0000 0.0000 1719.6245 -7457.1628 294.3382 -9176.7874 -7482.2087 296.3439 193.6423 234.9594 29995.9272 -230.2964 -175.3640
ENERGY: 1200000 0.6168 2.9020 2.2800 0.0000 -10725.3953 1446.5432 0.0000 0.0000 1764.2888 -7508.7645 301.9832 -9273.0534 -7475.5686 297.7958 -50.6475 -28.7078 30023.2706 -85.1919 -29.3261
ENERGY: 1500000 2.6386 2.7515 6.1778 0.0000 -10696.9056 1469.1725 0.0000 0.0000 1730.6939 -7485.4714 296.2329 -9216.1653 -7468.8693 298.5292 242.0396 311.5850 29995.7821 -32.5095 23.8621
TCL: Running FEP window  18: Lambda1 0.1499999999999997 Lambda2 0.09999999999999969 [dLambda -0.05 ]
TCL: Setting parameter firsttimestep to 0
TCL: Setting parameter alchLambda to 0.1499999999999997
Info: NONBONDED TABLE R-SQUARED SPACING: 0.0625
Info: NONBONDED TABLE SIZE: 705 POINTS
TCL: Setting parameter alchLambda2 to 0.09999999999999969
Info: NONBONDED TABLE R-SQUARED SPACING: 0.0625
Info: NONBONDED TABLE SIZE: 705 POINTS
TCL: Running for 1500000 steps
ETITLE: TS BOND ANGLE DIHED IMPRP ELECT VDW BOUNDARY MISC KINETIC TOTAL TEMP POTENTIAL TOTALAVG TEMPAVG PRESSURE GPRESSURE VOLUME PRESSAVG GPRESSAVG
ENERGY: 0 2.6386 2.7515 6.1778 0.0000 -10696.9052 1469.0481 0.0000 0.0000 1729.8315 -7486.4576 296.0853 -9216.2892 -7486.4576 296.0853 241.6400 310.4712 29995.7821 241.6400 310.4712
ENERGY: 300000 4.0343 2.8841 1.5952 0.0000 -10602.7824 1384.9437 0.0000 0.0000 1766.4272 -7442.8979 302.3492 -9209.3251 -7463.3433 299.1381 -322.3487 -270.9940 30012.0681 -359.5150 -281.7102
ENERGY: 600000 2.1360 2.5634 2.3919 0.0000 -10586.7741 1418.0173 0.0000 0.0000 1740.8977 -7420.7680 297.9794 -9161.6656 -7468.0629 297.1462 83.9899 65.0309 30193.7909 -85.1241 -21.3489
ENERGY: 900000 1.1144 4.8005 0.4983 0.0000 -10679.9158 1438.8545 0.0000 0.0000 1799.1775 -7435.4706 307.9549 -9234.6481 -7454.5172 299.3540 -22.9729 31.5135 30030.0809 -75.4370 -9.2358
ENERGY: 1200000 0.8478 3.9273 1.2895 0.0000 -10714.4543 1440.7160 0.0000 0.0000 1750.8918 -7516.7819 299.6901 -9267.6737 -7458.2231 299.3461 -52.4431 22.8036 30026.3674 -46.5647 18.2432
ENERGY: 1500000 3.8499 3.2566 2.4927 0.0000 -10735.2160 1484.5591 0.0000 0.0000 1775.9294 -7465.1283 303.9756 -9241.0576 -7463.8446 298.6186 139.7504 183.3479 30244.2610 -23.3042 44.8975
TCL: Running FEP window  19: Lambda1 0.09999999999999969 Lambda2 0.049999999999999684 [dLambda -0.05 ]
TCL: Setting parameter firsttimestep to 0
TCL: Setting parameter alchLambda to 0.09999999999999969
Info: NONBONDED TABLE R-SQUARED SPACING: 0.0625
Info: NONBONDED TABLE SIZE: 705 POINTS
TCL: Setting parameter alchLambda2 to 0.049999999999999684
Info: NONBONDED TABLE R-SQUARED SPACING: 0.0625
Info: NONBONDED TABLE SIZE: 705 POINTS
TCL: Running for 1500000 steps
ETITLE: TS BOND ANGLE DIHED IMPRP ELECT VDW BOUNDARY MISC KINETIC TOTAL TEMP POTENTIAL TOTALAVG TEMPAVG PRESSURE GPRESSURE VOLUME PRESSAVG GPRESSAVG
ENERGY: 0 3.8499 3.2566 2.4927 0.0000 -10735.2157 1484.8426 0.0000 0.0000 1775.0464 -7465.7275 303.8245 -9240.7739 -7465.7275 303.8245 96.5359 183.1865 30244.2610 96.5359 183.1865
ENERGY: 300000 1.6755 4.7705 0.6412 0.0000 -10717.7949 1493.2551 0.0000 0.0000 1721.0691 -7496.3835 294.5855 -9217.4526 -7466.6547 304.0272 878.7588 927.3561 29523.2181 459.0679 507.8438
ENERGY: 600000 0.9583 6.3369 0.7724 0.0000 -10750.5831 1473.6492 0.0000 0.0000 1775.1129 -7493.7534 303.8359 -9268.8664 -7476.6393 303.9440 -311.2584 -253.5494 30784.9495 256.9896 313.2857
ENERGY: 900000 2.4294 6.2349 1.9585 0.0000 -10749.5569 1462.6003 0.0000 0.0000 1749.4822 -7526.8515 299.4488 -9276.3337 -7479.3155 303.2048 -160.2380 -32.8734 30278.2880 103.5400 167.1783
ENERGY: 1200000 0.5533 4.5638 0.3008 0.0000 -10739.5534 1462.8674 0.0000 0.0000 1692.3953 -7578.8728 289.6776 -9271.2680 -7486.5947 301.6500 73.1497 137.1789 29907.3165 49.5868 108.2461
ENERGY: 1500000 3.1468 3.2382 0.5555 0.0000 -10662.5703 1416.6470 0.0000 0.0000 1734.9330 -7504.0496 296.9585 -9238.9827 -7479.4980 300.7368 -385.4270 -340.4386 30360.1081 -28.7346 27.6806
TCL: Running FEP window  20: Lambda1 0.049999999999999684 Lambda2 0.0    [dLambda -0.049999999999999684]
TCL: Setting parameter firsttimestep to 0
TCL: Setting parameter alchLambda to 0.049999999999999684
Info: NONBONDED TABLE R-SQUARED SPACING: 0.0625
Info: NONBONDED TABLE SIZE: 705 POINTS
TCL: Setting parameter alchLambda2 to 0.0
Info: NONBONDED TABLE R-SQUARED SPACING: 0.0625
Info: NONBONDED TABLE SIZE: 705 POINTS
TCL: Running for 1500000 steps
ETITLE: TS BOND ANGLE DIHED IMPRP ELECT VDW BOUNDARY MISC KINETIC TOTAL TEMP POTENTIAL TOTALAVG TEMPAVG PRESSURE GPRESSURE VOLUME PRESSAVG GPRESSAVG
ENERGY: 0 3.1468 3.2382 0.5555 0.0000 -10662.5707 1415.1898 0.0000 0.0000 1734.0431 -7506.3972 296.8062 -9240.4403 -7506.3972 296.8062 -421.3223 -348.6381 30360.1081 -421.3223 -348.6381
ENERGY: 300000 1.5738 4.5471 3.4072 0.0000 -10660.1300 1442.8121 0.0000 0.0000 1727.3642 -7480.4256 295.6630 -9207.7897 -7455.0639 299.2860 173.2147 264.4300 29814.9240 118.1379 189.4452
ENERGY: 600000 2.7002 2.8695 1.1168 0.0000 -10726.8506 1441.9324 0.0000 0.0000 1758.8670 -7519.3648 301.0551 -9278.2317 -7449.6792 300.4466 -252.4567 -130.4299 29877.2490 111.2513 185.8933
ENERGY: 900000 0.8976 4.0506 1.8477 0.0000 -10624.7367 1438.4213 0.0000 0.0000 1720.6348 -7458.8847 294.5112 -9179.5195 -7458.1020 299.5363 425.2163 404.8581 29812.0936 64.8713 124.4830
ENERGY: 1200000 0.8841 2.5674 1.6367 0.0000 -10602.6052 1397.3335 0.0000 0.0000 1728.9906 -7471.1930 295.9414 -9200.1836 -7462.9647 298.6438 -403.1257 -301.5310 30402.7243 12.3542 75.8671
ENERGY: 1500000 2.8569 1.8761 2.4231 0.0000 -10602.3892 1386.9990 0.0000 0.0000 1742.6374 -7465.5968 298.2772 -9208.2341 -7461.3419 298.9303 -411.3063 -370.4665 30114.9161 8.4979 69.0587
TCL: Exiting due to exit command.
