Info: SIMULATION PARAMETERS:
Info: TIMESTEP               2
Info: NUMBER OF STEPS        0
Info: STEPS PER CYCLE        10
Info: PERIODIC CELL BASIS 1  31.7662 0 0
Info: PERIODIC CELL BASIS 2  0 29.688 0
Info: PERIODIC CELL BASIS 3  0 0 32.3795
Info: PERIODIC CELL CENTER   0 0 0
Info: WRAPPING WATERS AROUND PERIODIC BOUNDARIES ON OUTPUT.
Info: WRAPPING ALL CLUSTERS AROUND PERIODIC BOUNDARIES ON OUTPUT.
Info: FIRST LDB TIMESTEP     50
Info: LAST LDB TIMESTEP     -1
Info: HOM BACKGROUND SCALING 1
Info: PME BACKGROUND SCALING 1
Info: MIN ATOMS PER PATCH    40
Info: EMPTY PATCH LOAD       40 ATOMS
Info: VELOCITY FILE          mobley_3053621_equil.vel
Info: CENTER OF MASS MOVING INITIALLY? NO
Info: DIELECTRIC             1
Info: EXCLUDE                SCALED ONE-FOUR
Info: 1-4 ELECTROSTATICS SCALED BY 0.833333
Info: MODIFIED 1-4 VDW PARAMETERS WILL BE USED
Info: DCD FILENAME           mobley_3053621_prod.dcd
Info: DCD FREQUENCY          100000
Info: DCD FIRST STEP         100000
Info: DCD FILE WILL CONTAIN UNIT CELL DATA
Info: XST FILENAME           mobley_3053621_prod.xst
Info: XST FREQUENCY          100000
Info: NO VELOCITY DCD OUTPUT
Info: NO FORCE DCD OUTPUT
Info: OUTPUT FILENAME        mobley_3053621_prod
Info: BINARY OUTPUT FILES WILL BE USED
Info: RESTART FILENAME       mobley_3053621_prod.restart
Info: RESTART FREQUENCY      100000
Info: BINARY RESTART FILES WILL BE USED
Info: CUTOFF                 9
Info: PAIRLIST DISTANCE      11
Info: PAIRLIST SHRINK RATE   0.01
Info: PAIRLIST GROW RATE     0.01
Info: PAIRLIST TRIGGER       0.3
Info: PAIRLISTS PER CYCLE    2
Info: PAIRLISTS ENABLED
Info: MARGIN                 2
Info: HYDROGEN GROUP CUTOFF  2.5
Info: PATCH DIMENSION        15.5
Info: ENERGY OUTPUT STEPS    100000
Info: ENERGY EVALUATION STEPS    100000
Info: OUTPUT ENERGY PRECISION 4
Info: CROSSTERM ENERGY INCLUDED IN DIHEDRAL
Info: TIMING OUTPUT STEPS    1000000
Info: PRESSURE OUTPUT STEPS  100000
Info: ALCHEMICAL FEP ON
Info: FEP CURRENT LAMBDA VALUE     0
Info: FEP COMPARISON LAMBDA VALUE  0.05
Info: FEP INTRA-ALCHEMICAL NON-BONDED INTERACTIONS WILL BE RETAINED
Info: FEP INTRA-ALCHEMICAL BONDED INTERACTIONS WILL BE RETAINED
Info: FEP VDW SHIFTING COEFFICIENT 5
Info: FEP ELEC. ACTIVE FOR ANNIHILATED PARTICLES BETWEEN LAMBDA = 0 AND LAMBDA = 0.5
Info: FEP ELEC. ACTIVE FOR EXNIHILATED PARTICLES BETWEEN LAMBDA = 0.5 AND LAMBDA = 1
Info: FEP VDW ACTIVE FOR ANNIHILATED PARTICLES BETWEEN LAMBDA = 0 AND LAMBDA = 1
Info: FEP VDW ACTIVE FOR EXNIHILATED PARTICLES BETWEEN LAMBDA = 0 AND LAMBDA = 1
Info: FEP BOND ACTIVE FOR ANNIHILATED PARTICLES BETWEEN LAMBDA = 1 AND LAMBDA = 1
Info: FEP BOND ACTIVE FOR EXNIHILATED PARTICLES BETWEEN LAMBDA = 0 AND LAMBDA = 0
Info: LANGEVIN DYNAMICS ACTIVE
Info: LANGEVIN TEMPERATURE   300
Info: LANGEVIN USING BBK INTEGRATOR
Info: LANGEVIN DAMPING COEFFICIENT IS 1 INVERSE PS
Info: LANGEVIN DYNAMICS APPLIED TO HYDROGENS
Info: LANGEVIN PISTON PRESSURE CONTROL ACTIVE
Info:        TARGET PRESSURE IS 1.01325 BAR
Info:     OSCILLATION PERIOD IS 50 FS
Info:             DECAY TIME IS 25 FS
Info:     PISTON TEMPERATURE IS 300 K
Info:       PRESSURE CONTROL IS GROUP-BASED
Info:    INITIAL STRAIN RATE IS -0.00102142 -0.00102142 -0.00102142
Info:       CELL FLUCTUATION IS ISOTROPIC
Info: PARTICLE MESH EWALD (PME) ACTIVE
Info: PME TOLERANCE               1e-06
Info: PME EWALD COEFFICIENT       0.348832
Info: PME INTERPOLATION ORDER     4
Info: PME GRID DIMENSIONS         32 32 36
Info: PME MAXIMUM GRID SPACING    1
Info: PME CALCULATION WILL BE PERFORMED ON GPU
Info: FULL ELECTROSTATIC EVALUATION FREQUENCY      2
Info: USING VERLET I (r-RESPA) MTS SCHEME.
Info: C1 SPLITTING OF LONG RANGE ELECTROSTATICS
Info: PLACING ATOMS IN PATCHES BY HYDROGEN GROUPS
Info: RIGID BONDS TO HYDROGEN : ALL
Info:         ERROR TOLERANCE : 1e-08
Info:          MAX ITERATIONS : 100
Info: RIGID WATER USING SETTLE ALGORITHM
Info: RANDOM NUMBER SEED     1743524367
Info: USE HYDROGEN BONDS?    NO
Info: Using AMBER format force field!
Info: AMBER PARM FILE        mobley_3053621.prmtop
Info: COORDINATE PDB         mobley_3053621.pdb
Info: Exclusions will be read from PARM file!
Info: SCNB (VDW SCALING)     2
Info: USING ARITHMETIC MEAN TO COMBINE L-J SIGMA PARAMETERS
Info: BINARY COORDINATES     mobley_3053621_equil.coor
Info: SUMMARY OF PARAMETERS:
Info: 4 BONDS
Info: 2 ANGLES
Info:   2 HARMONIC
Info:   0 COSINE-BASED
Info: 2 DIHEDRAL
Info: 0 IMPROPER
Info: 0 CROSSTERM
Info: 0 VDW
Info: 10 VDW_PAIRS
Info: 0 NBTHOLE_PAIRS
Info: To read alchdata from file: mobley_3053621.pdb
Info: To read alchflag data from column: 5
Info: STRUCTURE SUMMARY:
Info: 2964 ATOMS
Info: 2964 BONDS
Info: 18 ANGLES
Info: 30 DIHEDRALS
Info: 0 IMPROPERS
Info: 0 CROSSTERMS
Info: 3003 EXCLUSIONS
Info: 2958 RIGID BONDS
Info: ALCH: 0 ATOMS TO DISAPPEAR IN FINAL STATE
Info: ALCH: 12 ATOMS TO APPEAR IN FINAL STATE
Info: 5934 DEGREES OF FREEDOM
Info: 990 HYDROGEN GROUPS
Info: 3 ATOMS IN LARGEST HYDROGEN GROUP
Info: 990 MIGRATION GROUPS
Info: 3 ATOMS IN LARGEST MIGRATION GROUP
Info: TOTAL MASS = 17805.9 amu
Info: TOTAL CHARGE = -0.000100002 e
Info: MASS DENSITY = 0.968291 g/cm^3
Info: ATOM DENSITY = 0.0970649 atoms/A^3
Info: ADDED 0 IMPLICIT EXCLUSIONS
Info: NONBONDED TABLE R-SQUARED SPACING: 0.0625
Info: NONBONDED TABLE SIZE: 705 POINTS
Info: REMOVING COM VELOCITY -0.0627148 -0.128077 0.0769186
Info: Use 3D box decompostion in PME FFT.
Info: Updated CUDA force table with 4096 elements.
Info: Updated CUDA LJ table with 4 x 4 elements.
Info: Found 11 unique exclusion lists needing 20 bytes
TCL: Running for 1500000 steps
ETITLE: TS BOND ANGLE DIHED IMPRP ELECT VDW BOUNDARY MISC KINETIC TOTAL TEMP POTENTIAL TOTALAVG TEMPAVG PRESSURE GPRESSURE VOLUME PRESSAVG GPRESSAVG
ENERGY: 0 1.5525 3.9945 2.5431 0.0000 -10693.8259 1423.3331 0.0000 0.0000 1716.5269 -7545.8759 291.1344 -9262.4028 -7545.8759 291.1344 -366.9609 -261.9877 30536.2826 -366.9609 -261.9877
ENERGY: 300000 1.8733 1.5776 0.9344 0.0000 -10695.8439 1377.4682 0.0000 0.0000 1722.2955 -7591.6950 292.1127 -9313.9905 -7545.6604 295.5746 -651.1898 -611.7981 30440.7578 -219.7653 -157.7582
ENERGY: 600000 2.4837 2.5976 3.2213 0.0000 -10688.7548 1454.5177 0.0000 0.0000 1779.4791 -7446.4555 301.8115 -9225.9346 -7525.4704 296.5372 -221.1969 -160.3239 31135.0851 -83.8914 -26.2749
ENERGY: 900000 0.5967 1.0963 5.0026 0.0000 -10585.3295 1311.5735 0.0000 0.0000 1784.8441 -7482.2162 302.7214 -9267.0603 -7523.4756 297.9248 -1040.3360 -1022.9385 30547.9407 -315.4152 -265.8558
ENERGY: 1200000 1.1196 2.2359 2.6969 0.0000 -10659.6910 1413.6209 0.0000 0.0000 1739.4483 -7500.5694 295.0220 -9240.0177 -7530.5064 297.1448 -217.6068 -128.3066 30570.0296 -271.1764 -213.7604
ENERGY: 1500000 2.1456 4.0453 1.3700 0.0000 -10815.3639 1502.1156 0.0000 0.0000 1785.5787 -7520.1088 302.8460 -9305.6874 -7528.9596 297.1123 513.0434 557.2315 30166.6551 -169.3968 -107.2072
TCL: Running FEP window   2: Lambda1 0.05   Lambda2 0.1    [dLambda 0.05  ]
TCL: Setting parameter firsttimestep to 0
TCL: Setting parameter alchLambda to 0.05
Info: NONBONDED TABLE R-SQUARED SPACING: 0.0625
Info: NONBONDED TABLE SIZE: 705 POINTS
TCL: Setting parameter alchLambda2 to 0.1
Info: NONBONDED TABLE R-SQUARED SPACING: 0.0625
Info: NONBONDED TABLE SIZE: 705 POINTS
TCL: Running for 1500000 steps
ETITLE: TS BOND ANGLE DIHED IMPRP ELECT VDW BOUNDARY MISC KINETIC TOTAL TEMP POTENTIAL TOTALAVG TEMPAVG PRESSURE GPRESSURE VOLUME PRESSAVG GPRESSAVG
ENERGY: 0 2.1456 4.0453 1.3700 0.0000 -10815.3629 1504.1955 0.0000 0.0000 1784.7854 -7518.8212 302.7114 -9303.6065 -7518.8212 302.7114 474.3950 559.1438 30166.6551 474.3950 559.1438
ENERGY: 300000 3.4379 3.8176 1.2276 0.0000 -10837.8056 1477.6081 0.0000 0.0000 1732.7490 -7618.9655 293.8857 -9351.7145 -7578.4874 298.1341 64.9207 148.4141 30009.1881 231.2872 308.5426
ENERGY: 600000 0.4983 3.7606 3.8701 0.0000 -10667.5772 1405.6437 0.0000 0.0000 1744.1524 -7509.6521 295.8198 -9253.8045 -7547.4360 299.4336 -390.0990 -257.8041 30415.7943 74.9847 145.1496
ENERGY: 900000 0.7902 2.6098 4.2540 0.0000 -10732.1761 1432.5555 0.0000 0.0000 1827.1878 -7464.7788 309.9032 -9291.9666 -7516.8970 301.1517 -303.0767 -239.1822 30931.6264 -74.6596 -10.7622
ENERGY: 1200000 3.5737 2.2960 4.7174 0.0000 -10679.8220 1433.6043 0.0000 0.0000 1724.8062 -7510.8244 292.5386 -9235.6306 -7519.4822 300.0896 -231.6059 -168.8319 30534.9580 -165.2883 -103.4750
ENERGY: 1500000 2.7413 3.4053 3.4593 0.0000 -10739.9185 1425.7141 0.0000 0.0000 1705.4601 -7599.1384 289.2574 -9304.5985 -7519.1642 300.2854 -308.4708 -264.6748 30420.5634 -168.4370 -105.2272
TCL: Running FEP window   3: Lambda1 0.1    Lambda2 0.15000000000000002 [dLambda 0.05000000000000002]
TCL: Setting parameter firsttimestep to 0
TCL: Setting parameter alchLambda to 0.1
Info: NONBONDED TABLE R-SQUARED SPACING: 0.0625
Info: NONBONDED TABLE SIZE: 705 POINTS
TCL: Setting parameter alchLambda2 to 0.15000000000000002
Info: NONBONDED TABLE R-SQUARED SPACING: 0.0625
Info: NONBONDED TABLE SIZE: 705 POINTS
TCL: Running for 1500000 steps
ETITLE: TS BOND ANGLE DIHED IMPRP ELECT VDW BOUNDARY MISC KINETIC TOTAL TEMP POTENTIAL TOTALAVG TEMPAVG PRESSURE GPRESSURE VOLUME PRESSAVG GPRESSAVG
ENERGY: 0 2.7413 3.4053 3.4593 0.0000 -10739.9181 1426.1849 0.0000 0.0000 1704.6037 -7599.5237 289.1121 -9304.1274 -7599.5237 289.1121 -333.9476 -260.4210 30420.5634 -333.9476 -260.4210
ENERGY: 300000 0.5795 2.1374 3.7156 0.0000 -10826.9523 1514.1592 0.0000 0.0000 1750.6736 -7555.6870 296.9259 -9306.3607 -7552.9492 299.2784 470.7204 576.4002 30187.9881 -62.7573 11.9328
ENERGY: 600000 2.7823 2.0149 3.6741 0.0000 -10665.1656 1379.6795 0.0000 0.0000 1765.5566 -7511.4583 299.4501 -9277.0149 -7525.5826 299.0523 -489.5847 -411.4227 30490.6842 76.7925 159.6183
ENERGY: 900000 1.6921 1.7752 2.2903 0.0000 -10780.9477 1462.2526 0.0000 0.0000 1750.9917 -7561.9458 296.9798 -9312.9375 -7530.5817 300.1221 -45.6898 37.8943 30274.9474 6.1267 81.0876
ENERGY: 1200000 1.0510 4.5783 1.4629 0.0000 -10830.5966 1461.4842 0.0000 0.0000 1733.9560 -7628.0642 294.0904 -9362.0202 -7530.1690 300.2749 -13.0770 24.5355 30162.0271 -58.7481 12.2316
ENERGY: 1500000 3.6827 2.2199 0.8564 0.0000 -10930.4164 1512.2916 0.0000 0.0000 1808.0312 -7603.3346 306.6541 -9411.3658 -7521.9051 300.8109 276.7872 297.1232 30102.0129 -46.8138 21.2810
TCL: Running FEP window   4: Lambda1 0.15000000000000002 Lambda2 0.2    [dLambda 0.04999999999999999]
TCL: Setting parameter firsttimestep to 0
TCL: Setting parameter alchLambda to 0.15000000000000002
Info: NONBONDED TABLE R-SQUARED SPACING: 0.0625
Info: NONBONDED TABLE SIZE: 705 POINTS
TCL: Setting parameter alchLambda2 to 0.2
Info: NONBONDED TABLE R-SQUARED SPACING: 0.0625
Info: NONBONDED TABLE SIZE: 705 POINTS
TCL: Running for 1500000 steps
ETITLE: TS BOND ANGLE DIHED IMPRP ELECT VDW BOUNDARY MISC KINETIC TOTAL TEMP POTENTIAL TOTALAVG TEMPAVG PRESSURE GPRESSURE VOLUME PRESSAVG GPRESSAVG
ENERGY: 0 3.6827 2.2199 0.8564 0.0000 -10930.4164 1512.0189 0.0000 0.0000 1807.1821 -7604.4564 306.5101 -9411.6385 -7604.4564 306.5101 209.0821 298.5167 30102.0129 209.0821 298.5167
ENERGY: 300000 0.9127 3.1374 2.7115 0.0000 -10863.1832 1492.2962 0.0000 0.0000 1703.0394 -7661.0860 288.8468 -9364.1253 -7619.3406 297.4162 140.7822 205.5135 30354.4549 300.7796 338.4601
ENERGY: 600000 2.9598 4.3024 1.0368 0.0000 -10832.4744 1514.6810 0.0000 0.0000 1734.7443 -7574.7501 294.2242 -9309.4944 -7576.7457 298.5366 406.3621 499.0699 30249.1556 149.8372 203.0961
ENERGY: 900000 4.0421 2.6040 4.8238 0.0000 -10789.4959 1459.2075 0.0000 0.0000 1787.2618 -7531.5567 303.1315 -9318.8185 -7562.6151 298.8443 -156.5757 -88.8427 30317.7557 91.8687 153.3001
ENERGY: 1200000 0.6670 3.4387 0.9957 0.0000 -10797.0442 1449.5357 0.0000 0.0000 1845.8156 -7496.5915 313.0626 -9342.4070 -7546.2083 300.5377 208.7596 237.6704 30046.7116 78.2951 139.5552
ENERGY: 1500000 2.6349 3.7630 3.8499 0.0000 -10627.8168 1347.2452 0.0000 0.0000 1755.4420 -7514.8818 297.7346 -9270.3238 -7545.4124 299.9404 -945.3629 -844.2858 30521.7916 -12.3203 56.9066
TCL: Running FEP window   5: Lambda1 0.2    Lambda2 0.25   [dLambda 0.04999999999999999]
TCL: Setting parameter firsttimestep to 0
TCL: Setting parameter alchLambda to 0.2
Info: NONBONDED TABLE R-SQUARED SPACING: 0.0625
Info: NONBONDED TABLE SIZE: 705 POINTS
TCL: Setting parameter alchLambda2 to 0.25
Info: NONBONDED TABLE R-SQUARED SPACING: 0.0625
Info: NONBONDED TABLE SIZE: 705 POINTS
TCL: Running for 1500000 steps
ETITLE: TS BOND ANGLE DIHED IMPRP ELECT VDW BOUNDARY MISC KINETIC TOTAL TEMP POTENTIAL TOTALAVG TEMPAVG PRESSURE GPRESSURE VOLUME PRESSAVG GPRESSAVG
ENERGY: 0 2.6349 3.7630 3.8499 0.0000 -10627.8163 1347.5072 0.0000 0.0000 1754.5971 -7515.4642 297.5913 -9270.0613 -7515.4642 297.5913 -930.5679 -841.5490 30521.7916 -930.5679 -841.5490
ENERGY: 300000 1.5932 2.9850 1.8720 0.0000 -10800.0502 1505.9776 0.0000 0.0000 1792.9041 -7494.7183 304.0884 -9287.6224 -7520.8755 302.6283 382.6179 447.1718 30339.2619 -84.0918 -23.7894
ENERGY: 600000 0.4643 5.4241 3.9436 0.0000 -10721.7334 1457.5965 0.0000 0.0000 1808.8153 -7445.4894 306.7871 -9254.3048 -7513.8674 302.4367 -77.7698 22.5435 30844.0779 -162.6844 -92.7660
ENERGY: 900000 2.1742 2.9125 5.1168 0.0000 -10727.9720 1470.1318 0.0000 0.0000 1772.4598 -7475.1769 300.6210 -9247.6367 -7502.3314 302.6157 422.0242 504.0942 30176.7241 -201.9056 -131.8012
ENERGY: 1200000 2.4971 3.2830 3.1199 0.0000 -10629.8202 1401.0593 0.0000 0.0000 1746.1641 -7473.6968 296.1610 -9219.8609 -7497.8362 302.9460 -386.7715 -283.4462 30474.3084 -171.8702 -99.7278
ENERGY: 1500000 1.4931 5.9291 1.0340 0.0000 -10760.0966 1420.3556 0.0000 0.0000 1745.6408 -7585.6440 296.0723 -9331.2847 -7506.3984 302.7348 -501.6157 -406.0425 30642.1168 -218.8434 -141.2895
TCL: Running FEP window   6: Lambda1 0.25   Lambda2 0.3    [dLambda 0.04999999999999999]
TCL: Setting parameter firsttimestep to 0
TCL: Setting parameter alchLambda to 0.25
Info: NONBONDED TABLE R-SQUARED SPACING: 0.0625
Info: NONBONDED TABLE SIZE: 705 POINTS
TCL: Setting parameter alchLambda2 to 0.3
Info: NONBONDED TABLE R-SQUARED SPACING: 0.0625
Info: NONBONDED TABLE SIZE: 705 POINTS
TCL: Running for 1500000 steps
ETITLE: TS BOND ANGLE DIHED IMPRP ELECT VDW BOUNDARY MISC KINETIC TOTAL TEMP POTENTIAL TOTALAVG TEMPAVG PRESSURE GPRESSURE VOLUME PRESSAVG GPRESSAVG
ENERGY: 0 1.4931 5.9291 1.0340 0.0000 -10760.0966 1420.2883 0.0000 0.0000 1744.7227 -7586.6294 295.9165 -9331.3520 -7586.6294 295.9165 -490.1600 -403.9374 30642.1168 -490.1600 -403.9374
ENERGY: 300000 1.1542 4.4594 3.2943 0.0000 -10633.4293 1303.5345 0.0000 0.0000 1794.6680 -7526.3189 304.3876 -9320.9869 -7566.4200 299.0224 -1141.1803 -1062.3933 30082.7213 -420.3179 -366.5735
ENERGY: 600000 2.5000 3.1174 3.2429 0.0000 -10860.2360 1495.5396 0.0000 0.0000 1781.8095 -7574.0266 302.2067 -9355.8361 -7560.7884 299.5172 212.9940 293.3360 30274.8223 -73.3550 -4.3580
ENERGY: 900000 2.8024 4.7138 1.4495 0.0000 -10777.3581 1490.9299 0.0000 0.0000 1755.6292 -7521.8334 297.7664 -9277.4626 -7555.0477 299.7259 424.7182 533.5310 29852.1427 -63.9272 13.6412
ENERGY: 1200000 1.8601 1.2045 3.6104 0.0000 -10793.5983 1483.3516 0.0000 0.0000 1786.4823 -7517.0894 302.9993 -9303.5717 -7549.7636 299.3467 222.7332 396.1417 30133.0783 -116.7374 -30.3057
ENERGY: 1500000 0.8334 3.1690 1.2158 0.0000 -10728.1261 1495.7385 0.0000 0.0000 1821.8357 -7405.3337 308.9954 -9227.1694 -7537.5209 300.5713 695.2703 743.0989 30267.5879 -67.4101 10.6623
TCL: Running FEP window   7: Lambda1 0.3    Lambda2 0.35   [dLambda 0.04999999999999999]
TCL: Setting parameter firsttimestep to 0
TCL: Setting parameter alchLambda to 0.3
Info: NONBONDED TABLE R-SQUARED SPACING: 0.0625
Info: NONBONDED TABLE SIZE: 705 POINTS
TCL: Setting parameter alchLambda2 to 0.35
Info: NONBONDED TABLE R-SQUARED SPACING: 0.0625
Info: NONBONDED TABLE SIZE: 705 POINTS
TCL: Running for 1500000 steps
ETITLE: TS BOND ANGLE DIHED IMPRP ELECT VDW BOUNDARY MISC KINETIC TOTAL TEMP POTENTIAL TOTALAVG TEMPAVG PRESSURE GPRESSURE VOLUME PRESSAVG GPRESSAVG
ENERGY: 0 0.8334 3.1690 1.2158 0.0000 -10728.1266 1496.2368 0.0000 0.0000 1820.9914 -7405.6803 308.8522 -9226.6716 -7405.6803 308.8522 676.3715 749.4484 30267.5879 676.3715 749.4484
ENERGY: 300000 3.5737 2.4974 2.0439 0.0000 -10734.9493 1464.7396 0.0000 0.0000 1764.3353 -7497.7594 299.2430 -9262.0948 -7506.2762 300.9797 1.9966 44.1885 30639.6769 -161.1303 -94.0744
ENERGY: 600000 0.8819 1.9369 3.5902 0.0000 -10598.1162 1392.0498 0.0000 0.0000 1720.5201 -7479.1374 291.8116 -9199.6575 -7520.1923 298.7281 -281.9673 -226.3839 30794.8015 -264.9187 -191.7100
ENERGY: 900000 1.4441 4.3079 2.0400 0.0000 -10635.7569 1370.9316 0.0000 0.0000 1735.1993 -7521.8340 294.3013 -9257.0333 -7526.4585 298.2033 -830.3965 -786.0606 31082.4344 -173.8643 -105.6528
ENERGY: 1200000 1.7268 1.4392 3.5378 0.0000 -10784.9811 1522.4096 0.0000 0.0000 1787.5874 -7468.2801 303.1867 -9255.8676 -7520.5007 299.3522 586.2859 668.0739 30812.3242 -43.5510 33.5394
ENERGY: 1500000 0.6551 1.3423 2.3516 0.0000 -10714.9954 1493.4169 0.0000 0.0000 1834.6685 -7382.5610 311.1720 -9217.2295 -7514.3841 299.9772 516.0980 473.2520 30840.0778 -36.1407 28.1990
TCL: Running FEP window   8: Lambda1 0.35   Lambda2 0.39999999999999997 [dLambda 0.04999999999999999]
TCL: Setting parameter firsttimestep to 0
TCL: Setting parameter alchLambda to 0.35
Info: NONBONDED TABLE R-SQUARED SPACING: 0.0625
Info: NONBONDED TABLE SIZE: 705 POINTS
TCL: Setting parameter alchLambda2 to 0.39999999999999997
Info: NONBONDED TABLE R-SQUARED SPACING: 0.0625
Info: NONBONDED TABLE SIZE: 705 POINTS
TCL: Running for 1500000 steps
ETITLE: TS BOND ANGLE DIHED IMPRP ELECT VDW BOUNDARY MISC KINETIC TOTAL TEMP POTENTIAL TOTALAVG TEMPAVG PRESSURE GPRESSURE VOLUME PRESSAVG GPRESSAVG
ENERGY: 0 0.6551 1.3423 2.3516 0.0000 -10714.9952 1493.6933 0.0000 0.0000 1833.7925 -7383.1604 311.0234 -9216.9529 -7383.1604 311.0234 389.2705 477.6520 30840.0778 389.2705 477.6520
ENERGY: 300000 1.4372 3.3239 4.6057 0.0000 -10827.4495 1538.6875 0.0000 0.0000 1742.3115 -7537.0838 295.5076 -9279.3953 -7477.9883 297.9948 814.4972 936.6754 29865.8956 74.8741 161.5749
ENERGY: 600000 2.1256 2.4413 5.9952 0.0000 -10663.9701 1364.5903 0.0000 0.0000 1774.6733 -7514.1443 300.9964 -9288.8176 -7495.9579 299.8824 -566.0059 -475.7859 30034.3987 -56.7485 18.4103
ENERGY: 900000 0.9475 4.4786 2.3817 0.0000 -10901.1367 1550.4642 0.0000 0.0000 1762.4534 -7580.4112 298.9238 -9342.8646 -7489.3921 301.7896 806.2588 807.0180 30090.6830 44.9780 106.4727
ENERGY: 1200000 0.4411 2.3155 3.3670 0.0000 -10662.8022 1437.3860 0.0000 0.0000 1743.2606 -7476.0320 295.6686 -9219.2926 -7488.5623 301.6667 45.4417 124.2736 30685.4328 48.2264 105.0712
ENERGY: 1500000 2.8003 5.4303 1.8561 0.0000 -10757.5491 1450.2366 0.0000 0.0000 1769.7731 -7527.4527 300.1653 -9297.2259 -7490.2896 301.2053 -219.3040 -101.6312 30465.5998 31.0743 91.5701
TCL: Running FEP window   9: Lambda1 0.39999999999999997 Lambda2 0.44999999999999996 [dLambda 0.04999999999999999]
TCL: Setting parameter firsttimestep to 0
TCL: Setting parameter alchLambda to 0.39999999999999997
Info: NONBONDED TABLE R-SQUARED SPACING: 0.0625
Info: NONBONDED TABLE SIZE: 705 POINTS
TCL: Setting parameter alchLambda2 to 0.44999999999999996
Info: NONBONDED TABLE R-SQUARED SPACING: 0.0625
Info: NONBONDED TABLE SIZE: 705 POINTS
TCL: Running for 1500000 steps
ETITLE: TS BOND ANGLE DIHED IMPRP ELECT VDW BOUNDARY MISC KINETIC TOTAL TEMP POTENTIAL TOTALAVG TEMPAVG PRESSURE GPRESSURE VOLUME PRESSAVG GPRESSAVG
ENERGY: 0 2.8003 5.4303 1.8561 0.0000 -10757.5482 1452.2913 0.0000 0.0000 1768.8804 -7526.2898 300.0139 -9295.1702 -7526.2898 300.0139 -165.7511 -81.9731 30465.5998 -165.7511 -81.9731
ENERGY: 300000 3.9351 3.5680 2.8301 0.0000 -10789.7948 1515.5416 0.0000 0.0000 1783.6373 -7480.2827 302.5167 -9263.9201 -7505.7409 300.4981 692.8890 743.0670 30303.9791 285.3808 364.4494
ENERGY: 600000 1.3729 1.9338 1.0458 0.0000 -10679.7137 1442.8714 0.0000 0.0000 1750.6826 -7481.8072 296.9274 -9232.4898 -7493.2343 300.2554 -91.0424 -61.5221 30830.8669 36.3822 102.2291
ENERGY: 900000 1.9519 2.1083 1.1392 0.0000 -10666.9663 1392.8829 0.0000 0.0000 1755.4100 -7513.4740 297.7292 -9268.8839 -7504.4673 299.8419 -516.5482 -426.8370 30569.2656 -88.1070 -25.2795
ENERGY: 1200000 1.1366 3.6981 3.2534 0.0000 -10924.1239 1586.9153 0.0000 0.0000 1844.0793 -7485.0411 312.7681 -9329.1204 -7517.7128 299.7160 1088.9282 1118.8834 30438.9402 33.2745 100.3570
ENERGY: 1500000 3.6891 3.5833 2.4135 0.0000 -10857.5637 1491.2750 0.0000 0.0000 1780.1783 -7576.4246 301.9300 -9356.6029 -7528.5858 300.1097 113.8181 210.9827 29992.7851 79.1243 151.5925
TCL: Running FEP window  10: Lambda1 0.44999999999999996 Lambda2 0.49999999999999994 [dLambda 0.04999999999999999]
TCL: Setting parameter firsttimestep to 0
TCL: Setting parameter alchLambda to 0.44999999999999996
Info: NONBONDED TABLE R-SQUARED SPACING: 0.0625
Info: NONBONDED TABLE SIZE: 705 POINTS
TCL: Setting parameter alchLambda2 to 0.49999999999999994
Info: NONBONDED TABLE R-SQUARED SPACING: 0.0625
Info: NONBONDED TABLE SIZE: 705 POINTS
TCL: Running for 1500000 steps
ETITLE: TS BOND ANGLE DIHED IMPRP ELECT VDW BOUNDARY MISC KINETIC TOTAL TEMP POTENTIAL TOTALAVG TEMPAVG PRESSURE GPRESSURE VOLUME PRESSAVG GPRESSAVG
ENERGY: 0 3.6891 3.5833 2.4135 0.0000 -10857.5638 1491.7824 0.0000 0.0000 1779.3080 -7576.7876 301.7824 -9356.0956 -7576.7876 301.7824 129.3267 219.0700 29992.7851 129.3267 219.0700
ENERGY: 300000 0.7630 2.6448 3.5232 0.0000 -10672.6178 1351.6264 0.0000 0.0000 1746.4324 -7567.6279 296.2065 -9314.0604 -7561.6171 298.7064 -760.6261 -666.5624 30462.3625 357.4824 402.2709
ENERGY: 600000 2.7632 3.3105 3.6650 0.0000 -10658.2735 1438.6557 0.0000 0.0000 1784.8962 -7424.9827 302.7302 -9209.8790 -7551.1497 299.2873 99.3434 119.5898 30504.0319 224.6352 272.9912
ENERGY: 900000 2.4801 1.4135 2.7206 0.0000 -10798.1912 1427.3196 0.0000 0.0000 1803.9521 -7560.3052 305.9623 -9364.2573 -7539.0332 300.8697 -252.4713 -190.2495 30375.9705 -103.3511 -55.7739
ENERGY: 1200000 1.8579 2.8402 3.4337 0.0000 -10705.4924 1446.3967 0.0000 0.0000 1760.3598 -7490.6041 298.5687 -9250.9639 -7529.9400 300.9234 -168.6682 -115.6092 30946.4131 -35.9615 7.1592
ENERGY: 1500000 3.3086 2.8348 1.8532 0.0000 -10888.8413 1558.7831 0.0000 0.0000 1820.6954 -7501.3661 308.8020 -9322.0615 -7528.6372 300.9226 729.2882 782.2338 30424.7235 -29.4355 20.7227
TCL: Running FEP window  11: Lambda1 0.49999999999999994 Lambda2 0.5499999999999999 [dLambda 0.04999999999999999]
TCL: Setting parameter firsttimestep to 0
TCL: Setting parameter alchLambda to 0.49999999999999994
Info: NONBONDED TABLE R-SQUARED SPACING: 0.0625
Info: NONBONDED TABLE SIZE: 705 POINTS
TCL: Setting parameter alchLambda2 to 0.5499999999999999
Info: NONBONDED TABLE R-SQUARED SPACING: 0.0625
Info: NONBONDED TABLE SIZE: 705 POINTS
TCL: Running for 1500000 steps
ETITLE: TS BOND ANGLE DIHED IMPRP ELECT VDW BOUNDARY MISC KINETIC TOTAL TEMP POTENTIAL TOTALAVG TEMPAVG PRESSURE GPRESSURE VOLUME PRESSAVG GPRESSAVG
ENERGY: 0 3.3086 2.8348 1.8532 0.0000 -10888.8408 1558.4412 0.0000 0.0000 1819.7932 -7502.6098 308.6490 -9322.4030 -7502.6098 308.6490 697.4870 782.7899 30424.7235 697.4870 782.7899
ENERGY: 300000 3.6799 2.6274 0.9621 0.0000 -10715.0155 1455.1644 0.0000 0.0000 1811.9806 -7440.6012 307.3239 -9252.5817 -7462.6413 305.0468 -56.6109 83.1734 30703.6148 84.2665 175.2372
ENERGY: 600000 3.0270 4.1944 3.0900 0.0000 -10830.9310 1529.1317 0.0000 0.0000 1767.2904 -7524.1975 299.7442 -9291.4880 -7476.4294 304.5525 404.4756 454.3356 30295.4772 27.7939 111.4311
ENERGY: 900000 2.4948 1.1969 1.5599 0.0000 -10870.0283 1535.5936 0.0000 0.0000 1747.7763 -7581.4068 296.4345 -9329.1831 -7496.3054 303.4133 300.9548 400.9286 30655.6853 -10.1316 66.6118
ENERGY: 1200000 0.5089 3.2125 3.8959 0.0000 -10714.9394 1461.8253 0.0000 0.0000 1764.8439 -7480.6529 299.3292 -9245.4968 -7493.2872 302.1038 158.6616 252.1274 30742.4154 -30.6665 37.4387
ENERGY: 1500000 2.1676 3.0725 1.4469 0.0000 -10830.1144 1523.0617 0.0000 0.0000 1775.6288 -7524.7369 301.1584 -9300.3657 -7492.4984 302.4668 767.3495 725.8506 30471.0932 -12.3841 53.6603
TCL: Running FEP window  12: Lambda1 0.5499999999999999 Lambda2 0.6    [dLambda 0.050000000000000044]
TCL: Setting parameter firsttimestep to 0
TCL: Setting parameter alchLambda to 0.5499999999999999
Info: NONBONDED TABLE R-SQUARED SPACING: 0.0625
Info: NONBONDED TABLE SIZE: 705 POINTS
TCL: Setting parameter alchLambda2 to 0.6
Info: NONBONDED TABLE R-SQUARED SPACING: 0.0625
Info: NONBONDED TABLE SIZE: 705 POINTS
TCL: Running for 1500000 steps
ETITLE: TS BOND ANGLE DIHED IMPRP ELECT VDW BOUNDARY MISC KINETIC TOTAL TEMP POTENTIAL TOTALAVG TEMPAVG PRESSURE GPRESSURE VOLUME PRESSAVG GPRESSAVG
ENERGY: 0 2.1676 3.0725 1.4469 0.0000 -10830.6173 1522.9610 0.0000 0.0000 1774.7147 -7526.2546 301.0034 -9300.9693 -7526.2546 301.0034 664.9946 729.3029 30471.0932 664.9946 729.3029
ENERGY: 300000 0.9550 1.1686 3.2587 0.0000 -10872.1906 1505.3751 0.0000 0.0000 1796.5724 -7564.8609 304.7106 -9361.4333 -7530.5546 306.0509 348.7743 416.8114 30040.9515 507.2911 567.6151
ENERGY: 600000 0.3128 2.9852 1.2285 0.0000 -10825.1772 1453.3225 0.0000 0.0000 1735.3448 -7631.9833 294.3260 -9367.3281 -7552.6757 303.3020 -271.9012 -159.7486 30365.6918 151.6703 217.2874
ENERGY: 900000 1.4392 4.3085 3.1514 0.0000 -10739.2493 1509.6218 0.0000 0.0000 1714.2054 -7506.5231 290.7406 -9220.7285 -7533.1154 301.0973 542.3339 593.9862 30570.9312 45.8947 109.0575
ENERGY: 1200000 0.6525 0.7114 1.1915 0.0000 -10661.8574 1397.7638 0.0000 0.0000 1713.1640 -7548.3741 290.5640 -9261.5381 -7542.4668 298.7331 -478.5489 -410.0226 30694.8778 0.7920 61.5764
ENERGY: 1500000 0.9217 1.2982 2.6278 0.0000 -10870.1914 1580.9533 0.0000 0.0000 1736.4418 -7547.9485 294.5121 -9284.3903 -7533.4191 298.6961 724.1702 806.3327 30837.7627 5.8412 69.1013
TCL: Running FEP window  13: Lambda1 0.6    Lambda2 0.65   [dLambda 0.050000000000000044]
TCL: Setting parameter firsttimestep to 0
TCL: Setting parameter alchLambda to 0.6
Info: NONBONDED TABLE R-SQUARED SPACING: 0.0625
Info: NONBONDED TABLE SIZE: 705 POINTS
TCL: Setting parameter alchLambda2 to 0.65
Info: NONBONDED TABLE R-SQUARED SPACING: 0.0625
Info: NONBONDED TABLE SIZE: 705 POINTS
TCL: Running for 1500000 steps
ETITLE: TS BOND ANGLE DIHED IMPRP ELECT VDW BOUNDARY MISC KINETIC TOTAL TEMP POTENTIAL TOTALAVG TEMPAVG PRESSURE GPRESSURE VOLUME PRESSAVG GPRESSAVG
ENERGY: 0 0.9217 1.2982 2.6278 0.0000 -10870.2436 1580.8635 0.0000 0.0000 1735.5246 -7549.0078 294.3565 -9284.5323 -7549.0078 294.3565 741.7909 808.3032 30837.7627 741.7909 808.3032
ENERGY: 300000 1.2106 2.6606 2.1875 0.0000 -10686.4465 1384.1764 0.0000 0.0000 1795.4226 -7500.7888 304.5156 -9296.2114 -7521.0132 299.7168 -464.5945 -414.9129 30318.5058 383.8071 450.3592
ENERGY: 600000 1.0381 0.6303 3.6179 0.0000 -10710.0633 1469.3549 0.0000 0.0000 1677.0605 -7558.3616 284.4406 -9235.4220 -7518.5053 296.8576 178.0588 271.1551 30627.5764 265.8138 330.7600
ENERGY: 900000 0.5177 2.4332 2.2716 0.0000 -10686.2374 1401.8069 0.0000 0.0000 1757.0055 -7522.2024 297.9998 -9279.2080 -7501.4578 298.9444 -373.5487 -336.6061 30522.7273 45.9026 104.2622
ENERGY: 1200000 2.7523 1.5136 2.1592 0.0000 -10772.5092 1430.0341 0.0000 0.0000 1785.7082 -7550.3418 302.8680 -9336.0500 -7519.0393 298.0607 -119.9645 -82.3121 30416.8059 41.5904 101.9977
ENERGY: 1500000 0.7521 1.9729 4.2812 0.0000 -10966.9376 1531.8351 0.0000 0.0000 1770.8280 -7657.2682 300.3442 -9428.0962 -7532.7224 297.8382 358.8148 394.8083 30296.0477 67.4374 124.6939
TCL: Running FEP window  14: Lambda1 0.65   Lambda2 0.7000000000000001 [dLambda 0.050000000000000044]
TCL: Setting parameter firsttimestep to 0
TCL: Setting parameter alchLambda to 0.65
Info: NONBONDED TABLE R-SQUARED SPACING: 0.0625
Info: NONBONDED TABLE SIZE: 705 POINTS
TCL: Setting parameter alchLambda2 to 0.7000000000000001
Info: NONBONDED TABLE R-SQUARED SPACING: 0.0625
Info: NONBONDED TABLE SIZE: 705 POINTS
TCL: Running for 1500000 steps
ETITLE: TS BOND ANGLE DIHED IMPRP ELECT VDW BOUNDARY MISC KINETIC TOTAL TEMP POTENTIAL TOTALAVG TEMPAVG PRESSURE GPRESSURE VOLUME PRESSAVG GPRESSAVG
ENERGY: 0 0.7521 1.9729 4.2812 0.0000 -10967.1104 1532.5927 0.0000 0.0000 1769.9302 -7657.5813 300.1919 -9427.5114 -7657.5813 300.1919 325.0491 406.8068 30296.0477 325.0491 406.8068
ENERGY: 300000 1.7298 1.5671 1.8215 0.0000 -10791.2455 1432.4644 0.0000 0.0000 1819.6061 -7534.0566 308.6173 -9353.6627 -7557.4749 303.7518 -192.6547 -103.7678 30330.2671 123.8134 192.0094
ENERGY: 600000 1.7760 0.9790 1.7230 0.0000 -10730.7921 1372.1759 0.0000 0.0000 1745.4371 -7608.7011 296.0377 -9354.1382 -7589.0461 297.4835 -989.7380 -930.6000 30581.2679 -45.4805 13.9349
ENERGY: 900000 1.4014 2.7071 1.5447 0.0000 -10654.9336 1382.7239 0.0000 0.0000 1793.4906 -7473.0659 304.1879 -9266.5565 -7552.9691 299.3408 -518.0582 -443.5348 30814.2428 -81.0481 -7.0377
ENERGY: 1200000 4.5580 2.6122 2.2808 0.0000 -10721.9408 1397.9331 0.0000 0.0000 1725.5737 -7588.9830 292.6688 -9314.5567 -7556.9655 297.8788 -608.5452 -533.3499 30664.9345 -215.3266 -139.0461
ENERGY: 1500000 0.5958 2.2066 2.8430 0.0000 -10590.6217 1324.0618 0.0000 0.0000 1764.2570 -7496.6575 299.2297 -9260.9145 -7542.8282 298.9239 -790.4115 -757.1408 30615.8321 -235.5286 -164.5762
TCL: Running FEP window  15: Lambda1 0.7000000000000001 Lambda2 0.7500000000000001 [dLambda 0.050000000000000044]
TCL: Setting parameter firsttimestep to 0
TCL: Setting parameter alchLambda to 0.7000000000000001
Info: NONBONDED TABLE R-SQUARED SPACING: 0.0625
Info: NONBONDED TABLE SIZE: 705 POINTS
TCL: Setting parameter alchLambda2 to 0.7500000000000001
Info: NONBONDED TABLE R-SQUARED SPACING: 0.0625
Info: NONBONDED TABLE SIZE: 705 POINTS
TCL: Running for 1500000 steps
ETITLE: TS BOND ANGLE DIHED IMPRP ELECT VDW BOUNDARY MISC KINETIC TOTAL TEMP POTENTIAL TOTALAVG TEMPAVG PRESSURE GPRESSURE VOLUME PRESSAVG GPRESSAVG
ENERGY: 0 0.5958 2.2066 2.8430 0.0000 -10590.6567 1324.8163 0.0000 0.0000 1763.3819 -7496.8131 299.0813 -9260.1950 -7496.8131 299.0813 -822.3473 -740.3087 30615.8321 -822.3473 -740.3087
ENERGY: 300000 2.2843 1.4968 2.9499 0.0000 -10768.7367 1431.7446 0.0000 0.0000 1760.2986 -7569.9625 298.5583 -9330.2611 -7491.1722 302.3154 -138.3090 -90.8839 30388.1415 -727.1676 -684.8943
ENERGY: 600000 1.0594 1.8660 2.7369 0.0000 -10708.5709 1369.4864 0.0000 0.0000 1756.3350 -7577.0873 297.8861 -9333.4222 -7540.7266 300.5874 -709.9811 -653.4492 30397.2023 -458.8688 -398.7294
ENERGY: 900000 0.4128 2.7379 2.1197 0.0000 -10807.6404 1423.5382 0.0000 0.0000 1777.7334 -7601.0984 301.5154 -9378.8318 -7549.1406 300.4082 -312.6315 -226.3447 30361.4647 -292.0196 -226.8854
ENERGY: 1200000 2.4813 1.8450 2.1770 0.0000 -10726.6951 1419.6690 0.0000 0.0000 1788.5253 -7511.9974 303.3458 -9300.5228 -7541.0269 300.6908 -186.6986 -143.2076 30273.7106 -293.1477 -228.3811
ENERGY: 1500000 0.3752 1.7158 2.3145 0.0000 -10741.9150 1433.8380 0.0000 0.0000 1796.7916 -7506.8800 304.7478 -9303.6715 -7537.5357 300.5697 -259.5879 -196.5818 31025.5327 -181.9361 -116.1064
TCL: Running FEP window  16: Lambda1 0.7500000000000001 Lambda2 0.8000000000000002 [dLambda 0.050000000000000044]
TCL: Setting parameter firsttimestep to 0
TCL: Setting parameter alchLambda to 0.7500000000000001
Info: NONBONDED TABLE R-SQUARED SPACING: 0.0625
Info: NONBONDED TABLE SIZE: 705 POINTS
TCL: Setting parameter alchLambda2 to 0.8000000000000002
Info: NONBONDED TABLE R-SQUARED SPACING: 0.0625
Info: NONBONDED TABLE SIZE: 705 POINTS
TCL: Running for 1500000 steps
ETITLE: TS BOND ANGLE DIHED IMPRP ELECT VDW BOUNDARY MISC KINETIC TOTAL TEMP POTENTIAL TOTALAVG TEMPAVG PRESSURE GPRESSURE VOLUME PRESSAVG GPRESSAVG
ENERGY: 0 0.3752 1.7158 2.3145 0.0000 -10742.0129 1433.7593 0.0000 0.0000 1795.9378 -7507.9103 304.6030 -9303.8481 -7507.9103 304.6030 -257.9110 -187.6136 31025.5327 -257.9110 -187.6136
ENERGY: 300000 2.7275 2.5145 5.0867 0.0000 -10778.3551 1390.4249 0.0000 0.0000 1763.3066 -7614.2949 299.0685 -9377.6015 -7546.0245 302.5780 -741.9361 -710.0151 30399.1784 -399.4633 -384.8137
ENERGY: 600000 2.2463 2.3620 3.9062 0.0000 -10794.2166 1487.6823 0.0000 0.0000 1797.9176 -7500.1022 304.9388 -9298.0198 -7524.4749 302.4929 263.5831 340.0665 30389.7975 -217.8021 -175.1028
ENERGY: 900000 2.8448 2.2921 3.1280 0.0000 -10660.4536 1436.6148 0.0000 0.0000 1776.3268 -7439.2471 301.2768 -9215.5740 -7496.2898 302.8470 27.3578 149.3180 30273.9191 -127.0003 -56.0227
ENERGY: 1200000 3.9445 3.1546 5.0911 0.0000 -10660.9142 1405.2464 0.0000 0.0000 1827.8240 -7415.6536 310.0111 -9243.4776 -7507.0106 302.1546 -436.0964 -373.5797 30811.7466 -159.3931 -85.9780
ENERGY: 1500000 1.8534 2.7015 3.6859 0.0000 -10751.4625 1482.2379 0.0000 0.0000 1774.6024 -7486.3814 300.9843 -9260.9838 -7510.4289 302.3408 487.8123 571.4209 30247.7578 -37.7179 30.3200
TCL: Running FEP window  17: Lambda1 0.8000000000000002 Lambda2 0.8500000000000002 [dLambda 0.050000000000000044]
TCL: Setting parameter firsttimestep to 0
TCL: Setting parameter alchLambda to 0.8000000000000002
Info: NONBONDED TABLE R-SQUARED SPACING: 0.0625
Info: NONBONDED TABLE SIZE: 705 POINTS
TCL: Setting parameter alchLambda2 to 0.8500000000000002
Info: NONBONDED TABLE R-SQUARED SPACING: 0.0625
Info: NONBONDED TABLE SIZE: 705 POINTS
TCL: Running for 1500000 steps
ETITLE: TS BOND ANGLE DIHED IMPRP ELECT VDW BOUNDARY MISC KINETIC TOTAL TEMP POTENTIAL TOTALAVG TEMPAVG PRESSURE GPRESSURE VOLUME PRESSAVG GPRESSAVG
ENERGY: 0 1.8534 2.7015 3.6859 0.0000 -10751.6304 1482.0979 0.0000 0.0000 1773.7001 -7487.5916 300.8313 -9261.2918 -7487.5916 300.8313 491.2708 576.3239 30247.7578 491.2708 576.3239
ENERGY: 300000 2.6599 5.6082 3.8257 0.0000 -10754.4694 1470.2008 0.0000 0.0000 1762.2980 -7509.8768 298.8974 -9272.1748 -7529.2650 300.5070 266.7453 299.5453 30669.1607 207.2869 291.4968
ENERGY: 600000 4.8956 3.2315 2.5455 0.0000 -10655.6114 1379.7067 0.0000 0.0000 1798.2209 -7467.0112 304.9902 -9265.2321 -7517.2950 300.2069 -480.4604 -358.7327 30548.0744 86.2707 165.7771
ENERGY: 900000 1.9477 1.9208 3.5571 0.0000 -10541.4714 1310.7308 0.0000 0.0000 1755.7491 -7467.5658 297.7867 -9223.3149 -7511.1356 299.9044 -1096.8893 -1042.3895 30858.6977 -39.0433 38.5825
ENERGY: 1200000 2.0102 0.4618 2.5101 0.0000 -10666.5143 1398.6754 0.0000 0.0000 1767.1175 -7495.7392 299.7149 -9262.8568 -7497.2000 300.7373 -362.2238 -300.1164 30526.6657 -75.7438 -5.3201
ENERGY: 1500000 3.3255 1.9539 3.1927 0.0000 -10830.0480 1486.0162 0.0000 0.0000 1744.9355 -7590.6243 295.9526 -9335.5598 -7513.9405 300.3180 -133.0474 -75.0321 30816.1174 -76.6187 -13.1278
TCL: Running FEP window  18: Lambda1 0.8500000000000002 Lambda2 0.9000000000000002 [dLambda 0.050000000000000044]
TCL: Setting parameter firsttimestep to 0
TCL: Setting parameter alchLambda to 0.8500000000000002
Info: NONBONDED TABLE R-SQUARED SPACING: 0.0625
Info: NONBONDED TABLE SIZE: 705 POINTS
TCL: Setting parameter alchLambda2 to 0.9000000000000002
Info: NONBONDED TABLE R-SQUARED SPACING: 0.0625
Info: NONBONDED TABLE SIZE: 705 POINTS
TCL: Running for 1500000 steps
ETITLE: TS BOND ANGLE DIHED IMPRP ELECT VDW BOUNDARY MISC KINETIC TOTAL TEMP POTENTIAL TOTALAVG TEMPAVG PRESSURE GPRESSURE VOLUME PRESSAVG GPRESSAVG
ENERGY: 0 3.3255 1.9539 3.1927 0.0000 -10830.4509 1485.9626 0.0000 0.0000 1744.0739 -7591.9424 295.8065 -9336.0163 -7591.9424 295.8065 -146.9063 -70.3096 30816.1174 -146.9063 -70.3096
ENERGY: 300000 1.6314 2.5036 2.0639 0.0000 -10734.4527 1417.5321 0.0000 0.0000 1753.6667 -7557.0551 297.4335 -9310.7218 -7514.2964 298.7527 -524.1518 -427.5212 31026.4347 -344.5288 -285.8047
ENERGY: 600000 0.5888 5.1031 1.8942 0.0000 -10877.8991 1532.8891 0.0000 0.0000 1761.5061 -7575.9177 298.7631 -9337.4238 -7533.8702 298.9070 551.9050 606.2768 30378.1758 -79.2734 -18.6642
ENERGY: 900000 2.1884 2.7695 2.3174 0.0000 -10698.5583 1404.7705 0.0000 0.0000 1766.0424 -7520.4701 299.5325 -9286.5125 -7538.4014 299.3467 -432.0956 -349.0317 30713.9674 -35.8053 18.2325
ENERGY: 1200000 1.7279 4.2266 3.0909 0.0000 -10694.2903 1426.1538 0.0000 0.0000 1796.2926 -7462.7985 304.6631 -9259.0910 -7539.2533 299.1964 -134.3758 -70.9571 30680.6173 -43.4135 14.7957
ENERGY: 1500000 1.0421 2.9846 2.5117 0.0000 -10676.9953 1369.6488 0.0000 0.0000 1804.8427 -7495.9653 306.1133 -9300.8080 -7539.6298 299.6361 -534.8690 -527.1639 30615.7034 -55.5315 2.2620
TCL: Running FEP window  19: Lambda1 0.9000000000000002 Lambda2 0.9500000000000003 [dLambda 0.050000000000000044]
TCL: Setting parameter firsttimestep to 0
TCL: Setting parameter alchLambda to 0.9000000000000002
Info: NONBONDED TABLE R-SQUARED SPACING: 0.0625
Info: NONBONDED TABLE SIZE: 705 POINTS
TCL: Setting parameter alchLambda2 to 0.9500000000000003
Info: NONBONDED TABLE R-SQUARED SPACING: 0.0625
Info: NONBONDED TABLE SIZE: 705 POINTS
TCL: Running for 1500000 steps
ETITLE: TS BOND ANGLE DIHED IMPRP ELECT VDW BOUNDARY MISC KINETIC TOTAL TEMP POTENTIAL TOTALAVG TEMPAVG PRESSURE GPRESSURE VOLUME PRESSAVG GPRESSAVG
ENERGY: 0 1.0421 2.9846 2.5117 0.0000 -10677.6595 1370.4274 0.0000 0.0000 1803.9767 -7496.7169 305.9664 -9300.6936 -7496.7169 305.9664 -599.0577 -510.7933 30615.7034 -599.0577 -510.7933
ENERGY: 300000 3.4719 2.6313 3.2070 0.0000 -10609.0240 1376.6663 0.0000 0.0000 1731.3465 -7491.7010 293.6479 -9223.0475 -7514.7248 296.7403 -402.0386 -350.1327 30641.5326 -26.9804 30.8270
ENERGY: 600000 1.1780 1.5014 2.7149 0.0000 -10769.9547 1517.9164 0.0000 0.0000 1766.4550 -7480.1888 299.6025 -9246.6439 -7508.4425 299.8780 613.8585 652.0598 30464.5604 29.9240 75.1037
ENERGY: 900000 1.5462 3.8685 6.1247 0.0000 -10591.6987 1346.6620 0.0000 0.0000 1787.4008 -7446.0966 303.1550 -9233.4974 -7513.0280 299.7755 -662.1966 -560.9922 30592.4899 -55.0281 0.5083
ENERGY: 1200000 0.5464 2.9579 1.6072 0.0000 -10525.2152 1375.9096 0.0000 0.0000 1749.5237 -7394.6704 296.7308 -9144.1941 -7506.0315 299.5960 -139.1968 -140.6463 30948.0727 -156.6169 -103.5705
ENERGY: 1500000 4.1954 3.5987 2.6530 0.0000 -10770.9059 1456.2717 0.0000 0.0000 1768.3523 -7535.8348 299.9243 -9304.1870 -7500.5077 299.8677 -105.8548 -60.7607 30681.9307 -132.0457 -76.0341
TCL: Running FEP window  20: Lambda1 0.9500000000000003 Lambda2 1.0    [dLambda 0.04999999999999971]
TCL: Setting parameter firsttimestep to 0
TCL: Setting parameter alchLambda to 0.9500000000000003
Info: NONBONDED TABLE R-SQUARED SPACING: 0.0625
Info: NONBONDED TABLE SIZE: 705 POINTS
TCL: Setting parameter alchLambda2 to 1.0
Info: NONBONDED TABLE R-SQUARED SPACING: 0.0625
Info: NONBONDED TABLE SIZE: 705 POINTS
TCL: Running for 1500000 steps
ETITLE: TS BOND ANGLE DIHED IMPRP ELECT VDW BOUNDARY MISC KINETIC TOTAL TEMP POTENTIAL TOTALAVG TEMPAVG PRESSURE GPRESSURE VOLUME PRESSAVG GPRESSAVG
ENERGY: 0 4.1954 3.5987 2.6530 0.0000 -10771.5802 1456.0012 0.0000 0.0000 1767.4935 -7537.6383 299.7786 -9305.1318 -7537.6383 299.7786 -133.2419 -58.2954 30681.9307 -133.2419 -58.2954
ENERGY: 300000 4.0992 1.8587 3.6636 0.0000 -10788.9698 1514.5106 0.0000 0.0000 1797.5137 -7467.3239 304.8702 -9264.8376 -7479.7946 301.6594 401.8470 427.3022 30973.0369 109.5819 158.4921
ENERGY: 600000 0.9277 2.3624 2.0929 0.0000 -10684.8616 1487.9112 0.0000 0.0000 1787.9094 -7403.6581 303.2413 -9191.5675 -7492.2738 301.0784 584.7082 714.9394 30650.1977 105.6928 164.8547
ENERGY: 900000 2.0464 3.1415 2.9246 0.0000 -10763.6191 1498.7291 0.0000 0.0000 1782.6950 -7474.0825 302.3569 -9256.7775 -7512.6729 299.1541 512.1051 585.5991 30288.5899 238.7906 308.5222
ENERGY: 1200000 0.8143 3.0456 2.6233 0.0000 -10728.2652 1447.0796 0.0000 0.0000 1789.5647 -7485.1378 303.5220 -9274.7025 -7503.4329 299.3386 -41.4366 -2.0597 30986.6430 142.1772 211.3044
ENERGY: 1500000 2.0393 3.3377 2.5457 0.0000 -10748.8095 1425.1619 0.0000 0.0000 1788.9488 -7526.7761 303.4176 -9315.7249 -7504.7278 299.4641 -192.7520 -182.1837 30488.3888 181.3687 240.8796
TCL: Exiting due to exit command.
