Info: SIMULATION PARAMETERS:
Info: TIMESTEP               2
Info: NUMBER OF STEPS        0
Info: STEPS PER CYCLE        10
Info: PERIODIC CELL BASIS 1  31.9734 0 0
Info: PERIODIC CELL BASIS 2  0 31.2067 0
Info: PERIODIC CELL BASIS 3  0 0 30.5625
Info: PERIODIC CELL CENTER   0 0 0
Info: WRAPPING WATERS AROUND PERIODIC BOUNDARIES ON OUTPUT.
Info: WRAPPING ALL CLUSTERS AROUND PERIODIC BOUNDARIES ON OUTPUT.
Info: FIRST LDB TIMESTEP     50
Info: LAST LDB TIMESTEP     -1
Info: HOM BACKGROUND SCALING 1
Info: PME BACKGROUND SCALING 1
Info: MIN ATOMS PER PATCH    40
Info: EMPTY PATCH LOAD       40 ATOMS
Info: VELOCITY FILE          mobley_3968043_equil.vel
Info: CENTER OF MASS MOVING INITIALLY? NO
Info: DIELECTRIC             1
Info: EXCLUDE                SCALED ONE-FOUR
Info: 1-4 ELECTROSTATICS SCALED BY 0.833333
Info: MODIFIED 1-4 VDW PARAMETERS WILL BE USED
Info: DCD FILENAME           mobley_3968043_prod.dcd
Info: DCD FREQUENCY          100000
Info: DCD FIRST STEP         100000
Info: DCD FILE WILL CONTAIN UNIT CELL DATA
Info: XST FILENAME           mobley_3968043_prod.xst
Info: XST FREQUENCY          100000
Info: NO VELOCITY DCD OUTPUT
Info: NO FORCE DCD OUTPUT
Info: OUTPUT FILENAME        mobley_3968043_prod
Info: BINARY OUTPUT FILES WILL BE USED
Info: RESTART FILENAME       mobley_3968043_prod.restart
Info: RESTART FREQUENCY      100000
Info: BINARY RESTART FILES WILL BE USED
Info: CUTOFF                 9
Info: PAIRLIST DISTANCE      11
Info: PAIRLIST SHRINK RATE   0.01
Info: PAIRLIST GROW RATE     0.01
Info: PAIRLIST TRIGGER       0.3
Info: PAIRLISTS PER CYCLE    2
Info: PAIRLISTS ENABLED
Info: MARGIN                 2
Info: HYDROGEN GROUP CUTOFF  2.5
Info: PATCH DIMENSION        15.5
Info: ENERGY OUTPUT STEPS    100000
Info: ENERGY EVALUATION STEPS    100000
Info: OUTPUT ENERGY PRECISION 4
Info: CROSSTERM ENERGY INCLUDED IN DIHEDRAL
Info: TIMING OUTPUT STEPS    1000000
Info: PRESSURE OUTPUT STEPS  100000
Info: ALCHEMICAL FEP ON
Info: FEP CURRENT LAMBDA VALUE     1
Info: FEP COMPARISON LAMBDA VALUE  0.95
Info: FEP INTRA-ALCHEMICAL NON-BONDED INTERACTIONS WILL BE RETAINED
Info: FEP INTRA-ALCHEMICAL BONDED INTERACTIONS WILL BE RETAINED
Info: FEP VDW SHIFTING COEFFICIENT 5
Info: FEP ELEC. ACTIVE FOR ANNIHILATED PARTICLES BETWEEN LAMBDA = 0 AND LAMBDA = 0.5
Info: FEP ELEC. ACTIVE FOR EXNIHILATED PARTICLES BETWEEN LAMBDA = 0.5 AND LAMBDA = 1
Info: FEP VDW ACTIVE FOR ANNIHILATED PARTICLES BETWEEN LAMBDA = 0 AND LAMBDA = 1
Info: FEP VDW ACTIVE FOR EXNIHILATED PARTICLES BETWEEN LAMBDA = 0 AND LAMBDA = 1
Info: FEP BOND ACTIVE FOR ANNIHILATED PARTICLES BETWEEN LAMBDA = 1 AND LAMBDA = 1
Info: FEP BOND ACTIVE FOR EXNIHILATED PARTICLES BETWEEN LAMBDA = 0 AND LAMBDA = 0
Info: LANGEVIN DYNAMICS ACTIVE
Info: LANGEVIN TEMPERATURE   300
Info: LANGEVIN USING BBK INTEGRATOR
Info: LANGEVIN DAMPING COEFFICIENT IS 1 INVERSE PS
Info: LANGEVIN DYNAMICS APPLIED TO HYDROGENS
Info: LANGEVIN PISTON PRESSURE CONTROL ACTIVE
Info:        TARGET PRESSURE IS 1.01325 BAR
Info:     OSCILLATION PERIOD IS 50 FS
Info:             DECAY TIME IS 25 FS
Info:     PISTON TEMPERATURE IS 300 K
Info:       PRESSURE CONTROL IS GROUP-BASED
Info:    INITIAL STRAIN RATE IS -3.44844e-05 -3.44844e-05 -3.44844e-05
Info:       CELL FLUCTUATION IS ISOTROPIC
Info: PARTICLE MESH EWALD (PME) ACTIVE
Info: PME TOLERANCE               1e-06
Info: PME EWALD COEFFICIENT       0.348832
Info: PME INTERPOLATION ORDER     4
Info: PME GRID DIMENSIONS         32 32 32
Info: PME MAXIMUM GRID SPACING    1
Info: PME CALCULATION WILL BE PERFORMED ON GPU
Info: FULL ELECTROSTATIC EVALUATION FREQUENCY      2
Info: USING VERLET I (r-RESPA) MTS SCHEME.
Info: C1 SPLITTING OF LONG RANGE ELECTROSTATICS
Info: PLACING ATOMS IN PATCHES BY HYDROGEN GROUPS
Info: RIGID BONDS TO HYDROGEN : ALL
Info:         ERROR TOLERANCE : 1e-08
Info:          MAX ITERATIONS : 100
Info: RIGID WATER USING SETTLE ALGORITHM
Info: RANDOM NUMBER SEED     1743576094
Info: USE HYDROGEN BONDS?    NO
Info: Using AMBER format force field!
Info: AMBER PARM FILE        mobley_3968043.prmtop
Info: COORDINATE PDB         mobley_3968043.pdb
Info: Exclusions will be read from PARM file!
Info: SCNB (VDW SCALING)     2
Info: USING ARITHMETIC MEAN TO COMBINE L-J SIGMA PARAMETERS
Info: BINARY COORDINATES     mobley_3968043_equil.coor
Info: SUMMARY OF PARAMETERS:
Info: 6 BONDS
Info: 7 ANGLES
Info:   7 HARMONIC
Info:   0 COSINE-BASED
Info: 11 DIHEDRAL
Info: 0 IMPROPER
Info: 0 CROSSTERM
Info: 0 VDW
Info: 21 VDW_PAIRS
Info: 0 NBTHOLE_PAIRS
Info: To read alchdata from file: mobley_3968043.pdb
Info: To read alchflag data from column: 5
Info: STRUCTURE SUMMARY:
Info: 2945 ATOMS
Info: 2945 BONDS
Info: 27 ANGLES
Info: 50 DIHEDRALS
Info: 0 IMPROPERS
Info: 0 CROSSTERMS
Info: 3006 EXCLUSIONS
Info: 2939 RIGID BONDS
Info: ALCH: 0 ATOMS TO DISAPPEAR IN FINAL STATE
Info: ALCH: 14 ATOMS TO APPEAR IN FINAL STATE
Info: 5896 DEGREES OF FREEDOM
Info: 983 HYDROGEN GROUPS
Info: 3 ATOMS IN LARGEST HYDROGEN GROUP
Info: 983 MIGRATION GROUPS
Info: 3 ATOMS IN LARGEST MIGRATION GROUP
Info: TOTAL MASS = 17685.7 amu
Info: TOTAL CHARGE = 0.00030002 e
Info: MASS DENSITY = 0.963071 g/cm^3
Info: ATOM DENSITY = 0.0965741 atoms/A^3
Info: ADDED 0 IMPLICIT EXCLUSIONS
Info: NONBONDED TABLE R-SQUARED SPACING: 0.0625
Info: NONBONDED TABLE SIZE: 705 POINTS
Info: REDUCING NUMBER OF PATCHES TO IMPROVE LOAD BALANCE
Info: REMOVING COM VELOCITY -0.0120271 0.135756 -0.00196838
Info: Use 3D box decompostion in PME FFT.
Info: Updated CUDA force table with 4096 elements.
Info: Updated CUDA LJ table with 6 x 6 elements.
Info: Found 17 unique exclusion lists needing 36 bytes
TCL: Running for 1500000 steps
ETITLE: TS BOND ANGLE DIHED IMPRP ELECT VDW BOUNDARY MISC KINETIC TOTAL TEMP POTENTIAL TOTALAVG TEMPAVG PRESSURE GPRESSURE VOLUME PRESSAVG GPRESSAVG
ENERGY: 0 1.0001 11.7240 7.5041 0.0000 -10573.9259 1367.4454 0.0000 0.0000 1743.7697 -7442.4825 297.6611 -9186.2521 -7442.4825 297.6611 -443.9666 -349.8828 30494.7124 -443.9666 -349.8828
ENERGY: 300000 0.4725 11.5765 10.4265 0.0000 -10771.7312 1498.0004 0.0000 0.0000 1770.7673 -7480.4881 302.2696 -9251.2555 -7497.2670 298.0247 620.8812 636.9511 29936.7809 -106.0653 -66.9499
ENERGY: 600000 2.5127 8.0999 11.6921 0.0000 -10671.5748 1411.6604 0.0000 0.0000 1744.4287 -7493.1810 297.7736 -9237.6098 -7509.9179 297.0245 14.0423 92.1140 30219.8202 -70.5833 -32.5532
ENERGY: 900000 2.2091 15.9695 10.1606 0.0000 -10665.8666 1423.1660 0.0000 0.0000 1733.3770 -7480.9844 295.8870 -9214.3615 -7496.7350 297.9219 44.0875 98.5734 30155.2298 -176.9072 -135.8040
ENERGY: 1200000 0.5838 11.4466 9.5320 0.0000 -10856.3891 1542.2971 0.0000 0.0000 1769.3705 -7523.1592 302.0311 -9292.5296 -7493.6234 298.0279 681.9893 739.3893 30209.2185 -142.4226 -94.5018
ENERGY: 1500000 0.7557 10.5381 10.5021 0.0000 -10629.4246 1429.4094 0.0000 0.0000 1756.5699 -7421.6494 299.8461 -9178.2193 -7487.9294 298.2414 -8.6832 59.5897 30578.2062 -173.8795 -121.9267
TCL: Running FEP window   2: Lambda1 0.95   Lambda2 0.8999999999999999 [dLambda -0.050000000000000044]
TCL: Setting parameter firsttimestep to 0
TCL: Setting parameter alchLambda to 0.95
Info: NONBONDED TABLE R-SQUARED SPACING: 0.0625
Info: NONBONDED TABLE SIZE: 705 POINTS
TCL: Setting parameter alchLambda2 to 0.8999999999999999
Info: NONBONDED TABLE R-SQUARED SPACING: 0.0625
Info: NONBONDED TABLE SIZE: 705 POINTS
TCL: Running for 1500000 steps
ETITLE: TS BOND ANGLE DIHED IMPRP ELECT VDW BOUNDARY MISC KINETIC TOTAL TEMP POTENTIAL TOTALAVG TEMPAVG PRESSURE GPRESSURE VOLUME PRESSAVG GPRESSAVG
ENERGY: 0 0.7557 10.5381 10.5021 0.0000 -10628.2585 1428.9807 0.0000 0.0000 1755.6959 -7421.7859 299.6969 -9177.4819 -7421.7859 299.6969 -34.8884 45.0346 30578.2062 -34.8884 45.0346
ENERGY: 300000 1.4437 11.0758 10.4963 0.0000 -10687.4157 1406.6617 0.0000 0.0000 1745.3572 -7512.3811 297.9321 -9257.7383 -7466.6573 299.5345 -336.4714 -219.4704 30155.9506 -68.1822 12.4502
ENERGY: 600000 2.8180 9.2229 9.5325 0.0000 -10707.1022 1448.7718 0.0000 0.0000 1766.4016 -7470.3554 301.5243 -9236.7569 -7457.9780 301.0140 120.2315 177.0708 30259.7794 -122.4861 -56.0301
ENERGY: 900000 1.3614 13.0072 9.1912 0.0000 -10626.1862 1394.5398 0.0000 0.0000 1766.0718 -7442.0148 301.4680 -9208.0867 -7455.0256 301.2399 -343.1825 -293.5004 30554.4913 -146.0864 -76.4708
ENERGY: 1200000 0.7435 10.2883 11.1083 0.0000 -10568.6087 1392.9232 0.0000 0.0000 1781.9018 -7371.6436 304.1702 -9153.5454 -7448.4934 301.4956 63.2444 171.4833 30054.4813 -135.9662 -69.5654
ENERGY: 1500000 1.9221 11.3085 11.7616 0.0000 -10792.5997 1491.9093 0.0000 0.0000 1745.8235 -7529.8746 298.0117 -9275.6981 -7449.8076 301.7059 219.5558 274.9843 30747.7925 -106.9720 -48.1649
TCL: Running FEP window   3: Lambda1 0.8999999999999999 Lambda2 0.8499999999999999 [dLambda -0.050000000000000044]
TCL: Setting parameter firsttimestep to 0
TCL: Setting parameter alchLambda to 0.8999999999999999
Info: NONBONDED TABLE R-SQUARED SPACING: 0.0625
Info: NONBONDED TABLE SIZE: 705 POINTS
TCL: Setting parameter alchLambda2 to 0.8499999999999999
Info: NONBONDED TABLE R-SQUARED SPACING: 0.0625
Info: NONBONDED TABLE SIZE: 705 POINTS
TCL: Running for 1500000 steps
ETITLE: TS BOND ANGLE DIHED IMPRP ELECT VDW BOUNDARY MISC KINETIC TOTAL TEMP POTENTIAL TOTALAVG TEMPAVG PRESSURE GPRESSURE VOLUME PRESSAVG GPRESSAVG
ENERGY: 0 1.9221 11.3085 11.7616 0.0000 -10791.6029 1491.1668 0.0000 0.0000 1744.9379 -7530.5060 297.8605 -9275.4438 -7530.5060 297.8605 177.1865 261.5859 30747.7925 177.1865 261.5859
ENERGY: 300000 1.2393 7.8770 12.7704 0.0000 -10681.3254 1399.5325 0.0000 0.0000 1719.4560 -7540.4503 293.5107 -9259.9062 -7505.9883 298.6804 -267.5227 -265.5233 30154.4324 -262.4694 -221.4317
ENERGY: 600000 0.6278 10.3682 9.5149 0.0000 -10625.9331 1418.0488 0.0000 0.0000 1686.8309 -7500.5425 287.9416 -9187.3734 -7491.0276 297.3916 -5.4428 72.4371 30105.8858 -3.6581 45.4119
ENERGY: 900000 2.6004 8.7684 10.0707 0.0000 -10535.3606 1364.9125 0.0000 0.0000 1793.9427 -7355.0659 306.2256 -9149.0086 -7477.4249 298.9082 -365.5897 -242.2328 30561.8809 -118.9013 -69.5332
ENERGY: 1200000 2.4508 11.0654 13.4774 0.0000 -10529.5241 1332.6362 0.0000 0.0000 1793.0309 -7376.8634 306.0699 -9169.8943 -7479.9259 299.4343 -534.0658 -449.5501 30174.3848 -132.2986 -70.1348
ENERGY: 1500000 1.2576 9.9802 9.2826 0.0000 -10709.5440 1450.2132 0.0000 0.0000 1759.0490 -7479.7614 300.2692 -9238.8104 -7477.5581 300.4305 -20.4075 91.9075 30288.5000 -174.1999 -108.5879
TCL: Running FEP window   4: Lambda1 0.8499999999999999 Lambda2 0.7999999999999998 [dLambda -0.050000000000000044]
TCL: Setting parameter firsttimestep to 0
TCL: Setting parameter alchLambda to 0.8499999999999999
Info: NONBONDED TABLE R-SQUARED SPACING: 0.0625
Info: NONBONDED TABLE SIZE: 705 POINTS
TCL: Setting parameter alchLambda2 to 0.7999999999999998
Info: NONBONDED TABLE R-SQUARED SPACING: 0.0625
Info: NONBONDED TABLE SIZE: 705 POINTS
TCL: Running for 1500000 steps
ETITLE: TS BOND ANGLE DIHED IMPRP ELECT VDW BOUNDARY MISC KINETIC TOTAL TEMP POTENTIAL TOTALAVG TEMPAVG PRESSURE GPRESSURE VOLUME PRESSAVG GPRESSAVG
ENERGY: 0 1.2576 9.9802 9.2826 0.0000 -10708.4188 1449.3587 0.0000 0.0000 1758.1686 -7480.3711 300.1190 -9238.5398 -7480.3711 300.1190 -17.8940 70.6830 30288.5000 -17.8940 70.6830
ENERGY: 300000 1.1205 12.3239 9.7327 0.0000 -10827.3835 1560.4340 0.0000 0.0000 1765.9497 -7477.8228 301.4472 -9243.7725 -7468.8935 299.9742 1051.4125 1146.0359 30122.1318 32.8400 135.3712
ENERGY: 600000 3.1354 8.0842 12.5731 0.0000 -10765.2874 1407.4266 0.0000 0.0000 1816.1086 -7517.9595 310.0093 -9334.0682 -7455.5427 302.7992 -442.6757 -353.9870 30271.1852 17.1979 104.9956
ENERGY: 900000 0.9149 9.3686 10.7148 0.0000 -10699.4380 1489.8017 0.0000 0.0000 1777.5934 -7411.0447 303.4348 -9188.6381 -7454.6641 302.8364 333.6393 379.6088 30657.8034 101.8690 168.1109
ENERGY: 1200000 3.9948 8.7439 10.5664 0.0000 -10647.5700 1404.0947 0.0000 0.0000 1729.1967 -7490.9734 295.1735 -9220.1702 -7455.9967 301.8455 -170.8237 -165.2138 30339.6136 5.9257 66.8226
ENERGY: 1500000 1.2198 13.6016 8.6912 0.0000 -10774.3086 1436.9517 0.0000 0.0000 1784.9971 -7528.8471 304.6986 -9313.8443 -7466.1222 302.0696 -93.3214 31.9372 30141.5416 -0.0265 68.9179
TCL: Running FEP window   5: Lambda1 0.7999999999999998 Lambda2 0.7499999999999998 [dLambda -0.050000000000000044]
TCL: Setting parameter firsttimestep to 0
TCL: Setting parameter alchLambda to 0.7999999999999998
Info: NONBONDED TABLE R-SQUARED SPACING: 0.0625
Info: NONBONDED TABLE SIZE: 705 POINTS
TCL: Setting parameter alchLambda2 to 0.7499999999999998
Info: NONBONDED TABLE R-SQUARED SPACING: 0.0625
Info: NONBONDED TABLE SIZE: 705 POINTS
TCL: Running for 1500000 steps
ETITLE: TS BOND ANGLE DIHED IMPRP ELECT VDW BOUNDARY MISC KINETIC TOTAL TEMP POTENTIAL TOTALAVG TEMPAVG PRESSURE GPRESSURE VOLUME PRESSAVG GPRESSAVG
ENERGY: 0 1.2198 13.6016 8.6912 0.0000 -10773.0414 1437.0948 0.0000 0.0000 1784.1483 -7528.2857 304.5537 -9312.4339 -7528.2857 304.5537 -56.9616 26.7935 30141.5416 -56.9616 26.7935
ENERGY: 300000 0.6775 9.5865 10.4119 0.0000 -10657.2411 1384.2670 0.0000 0.0000 1732.8224 -7519.4758 295.7924 -9252.2982 -7524.3905 298.7751 -535.9824 -498.3619 30164.4886 -81.9376 -36.1560
ENERGY: 600000 1.0207 9.1874 11.4391 0.0000 -10750.1684 1488.5710 0.0000 0.0000 1769.9561 -7469.9942 302.1311 -9239.9503 -7484.9260 300.1850 642.3511 698.0650 30010.1486 128.8417 188.0496
ENERGY: 900000 2.4501 8.0840 9.9734 0.0000 -10861.6819 1527.5058 0.0000 0.0000 1788.3015 -7525.3671 305.2626 -9313.6686 -7486.2183 301.3644 638.1196 707.6593 29863.5410 104.3391 158.1310
ENERGY: 1200000 2.5497 8.0070 11.3643 0.0000 -10644.9256 1426.3684 0.0000 0.0000 1743.3954 -7453.2407 297.5972 -9196.6361 -7466.7832 302.1543 29.8985 77.7359 30319.2472 70.5887 126.0393
ENERGY: 1500000 2.2407 11.2099 9.0607 0.0000 -10539.7891 1379.1206 0.0000 0.0000 1755.6324 -7382.5249 299.6860 -9138.1573 -7454.3631 302.1464 -357.3315 -259.8834 30684.9385 31.7396 99.6456
TCL: Running FEP window   6: Lambda1 0.7499999999999998 Lambda2 0.6999999999999997 [dLambda -0.050000000000000044]
TCL: Setting parameter firsttimestep to 0
TCL: Setting parameter alchLambda to 0.7499999999999998
Info: NONBONDED TABLE R-SQUARED SPACING: 0.0625
Info: NONBONDED TABLE SIZE: 705 POINTS
TCL: Setting parameter alchLambda2 to 0.6999999999999997
Info: NONBONDED TABLE R-SQUARED SPACING: 0.0625
Info: NONBONDED TABLE SIZE: 705 POINTS
TCL: Running for 1500000 steps
ETITLE: TS BOND ANGLE DIHED IMPRP ELECT VDW BOUNDARY MISC KINETIC TOTAL TEMP POTENTIAL TOTALAVG TEMPAVG PRESSURE GPRESSURE VOLUME PRESSAVG GPRESSAVG
ENERGY: 0 2.2407 11.2099 9.0607 0.0000 -10539.0559 1379.4369 0.0000 0.0000 1754.7367 -7382.3710 299.5331 -9137.1077 -7382.3710 299.5331 -341.0322 -257.7749 30684.9385 -341.0322 -257.7749
ENERGY: 300000 1.3590 12.3035 9.2796 0.0000 -10727.3815 1412.9275 0.0000 0.0000 1759.6436 -7531.8683 300.3707 -9291.5119 -7467.6702 300.2489 -133.1120 -87.3261 29950.8406 -161.9509 -120.3688
ENERGY: 600000 0.5442 18.9253 9.1157 0.0000 -10791.4400 1546.3787 0.0000 0.0000 1739.0057 -7477.4704 296.8479 -9216.4761 -7474.2398 299.1261 866.7686 918.7208 30165.0700 78.5371 130.6944
ENERGY: 900000 2.5526 11.8941 8.0432 0.0000 -10612.0985 1376.9716 0.0000 0.0000 1752.3661 -7460.2708 299.1285 -9212.6369 -7470.6876 298.7505 -616.4568 -607.6688 30630.6238 53.1886 102.8334
ENERGY: 1200000 2.0269 7.7456 10.5679 0.0000 -10704.5211 1393.6647 0.0000 0.0000 1737.2459 -7553.2701 296.5475 -9290.5160 -7471.6318 299.0135 -179.2940 -137.4915 29827.8929 29.4485 75.4925
ENERGY: 1500000 0.7484 11.3903 12.5386 0.0000 -10672.8158 1465.7758 0.0000 0.0000 1778.4916 -7403.8710 303.5881 -9182.3627 -7468.5621 299.4175 569.9382 712.1822 29805.7735 58.4903 111.9981
TCL: Running FEP window   7: Lambda1 0.6999999999999997 Lambda2 0.6499999999999997 [dLambda -0.050000000000000044]
TCL: Setting parameter firsttimestep to 0
TCL: Setting parameter alchLambda to 0.6999999999999997
Info: NONBONDED TABLE R-SQUARED SPACING: 0.0625
Info: NONBONDED TABLE SIZE: 705 POINTS
TCL: Setting parameter alchLambda2 to 0.6499999999999997
Info: NONBONDED TABLE R-SQUARED SPACING: 0.0625
Info: NONBONDED TABLE SIZE: 705 POINTS
TCL: Running for 1500000 steps
ETITLE: TS BOND ANGLE DIHED IMPRP ELECT VDW BOUNDARY MISC KINETIC TOTAL TEMP POTENTIAL TOTALAVG TEMPAVG PRESSURE GPRESSURE VOLUME PRESSAVG GPRESSAVG
ENERGY: 0 0.7484 11.3902 12.5386 0.0000 -10671.4010 1465.6925 0.0000 0.0000 1777.6120 -7403.4193 303.4379 -9181.0313 -7403.4193 303.4379 609.1786 708.9877 29805.7735 609.1786 708.9877
ENERGY: 300000 1.4039 17.3818 7.9371 0.0000 -10581.6713 1386.4456 0.0000 0.0000 1768.1734 -7400.3295 301.8268 -9168.5028 -7413.2554 301.2276 -322.7353 -282.7303 30365.3758 174.4659 251.9692
ENERGY: 600000 5.6204 9.9513 11.3366 0.0000 -10620.5964 1373.6791 0.0000 0.0000 1800.6492 -7419.3598 307.3704 -9220.0090 -7449.3019 301.5089 -726.7246 -685.0478 30628.4862 52.7486 118.2386
ENERGY: 900000 4.1329 8.8423 11.3128 0.0000 -10636.3717 1464.6690 0.0000 0.0000 1733.7894 -7413.6253 295.9574 -9147.4147 -7451.3160 299.9082 538.1223 630.6122 30188.3797 5.4180 74.9211
ENERGY: 1200000 1.5273 7.7269 11.3972 0.0000 -10588.6276 1364.0906 0.0000 0.0000 1752.5526 -7451.3329 299.1603 -9203.8856 -7451.6973 300.4604 -249.4873 -191.7073 30083.2586 28.2643 96.1233
ENERGY: 1500000 0.5646 12.6421 9.3723 0.0000 -10711.9702 1434.3774 0.0000 0.0000 1798.2209 -7456.7928 306.9559 -9255.0137 -7453.3545 300.3634 -303.6654 -212.6827 30767.2753 -49.3073 15.6475
TCL: Running FEP window   8: Lambda1 0.6499999999999997 Lambda2 0.5999999999999996 [dLambda -0.050000000000000044]
TCL: Setting parameter firsttimestep to 0
TCL: Setting parameter alchLambda to 0.6499999999999997
Info: NONBONDED TABLE R-SQUARED SPACING: 0.0625
Info: NONBONDED TABLE SIZE: 705 POINTS
TCL: Setting parameter alchLambda2 to 0.5999999999999996
Info: NONBONDED TABLE R-SQUARED SPACING: 0.0625
Info: NONBONDED TABLE SIZE: 705 POINTS
TCL: Running for 1500000 steps
ETITLE: TS BOND ANGLE DIHED IMPRP ELECT VDW BOUNDARY MISC KINETIC TOTAL TEMP POTENTIAL TOTALAVG TEMPAVG PRESSURE GPRESSURE VOLUME PRESSAVG GPRESSAVG
ENERGY: 0 0.5646 12.6421 9.3723 0.0000 -10711.5634 1434.6608 0.0000 0.0000 1797.3618 -7456.9618 306.8092 -9254.3236 -7456.9618 306.8092 -299.8387 -214.2818 30767.2753 -299.8387 -214.2818
ENERGY: 300000 2.3823 14.6861 7.2915 0.0000 -10651.3254 1447.0537 0.0000 0.0000 1736.8750 -7443.0369 296.4841 -9179.9119 -7460.9302 298.1272 270.4353 330.1409 30185.2706 -287.9476 -234.9890
ENERGY: 600000 1.2413 10.2140 8.2209 0.0000 -10722.7099 1469.4328 0.0000 0.0000 1703.9923 -7529.6087 290.8711 -9233.6010 -7475.7483 297.9471 88.6018 207.6973 30144.6318 -85.4974 -2.7570
ENERGY: 900000 2.0027 9.3076 10.1613 0.0000 -10604.5401 1393.1491 0.0000 0.0000 1785.3214 -7404.5979 304.7539 -9189.9193 -7482.9910 298.6074 -316.1237 -283.9666 30482.0782 -99.6242 -13.8805
ENERGY: 1200000 1.1492 11.9183 10.8300 0.0000 -10664.1234 1478.0177 0.0000 0.0000 1735.7109 -7426.4973 296.2854 -9162.2082 -7478.9815 297.4496 655.1937 725.3514 29989.0774 -3.4593 82.4973
ENERGY: 1500000 1.1886 10.4806 8.7128 0.0000 -10680.6538 1421.5024 0.0000 0.0000 1729.2743 -7509.4951 295.1867 -9238.7694 -7481.8462 297.9861 -75.0843 -50.1705 30355.4573 52.7664 125.3734
TCL: Running FEP window   9: Lambda1 0.5999999999999996 Lambda2 0.5499999999999996 [dLambda -0.050000000000000044]
TCL: Setting parameter firsttimestep to 0
TCL: Setting parameter alchLambda to 0.5999999999999996
Info: NONBONDED TABLE R-SQUARED SPACING: 0.0625
Info: NONBONDED TABLE SIZE: 705 POINTS
TCL: Setting parameter alchLambda2 to 0.5499999999999996
Info: NONBONDED TABLE R-SQUARED SPACING: 0.0625
Info: NONBONDED TABLE SIZE: 705 POINTS
TCL: Running for 1500000 steps
ETITLE: TS BOND ANGLE DIHED IMPRP ELECT VDW BOUNDARY MISC KINETIC TOTAL TEMP POTENTIAL TOTALAVG TEMPAVG PRESSURE GPRESSURE VOLUME PRESSAVG GPRESSAVG
ENERGY: 0 1.1886 10.4806 8.7128 0.0000 -10680.5037 1421.9077 0.0000 0.0000 1728.3635 -7509.8504 295.0312 -9238.2140 -7509.8504 295.0312 -130.8935 -50.6283 30355.4573 -130.8935 -50.6283
ENERGY: 300000 0.6847 13.2313 8.7271 0.0000 -10659.5097 1432.6912 0.0000 0.0000 1746.9360 -7457.2395 298.2016 -9204.1755 -7452.9498 297.6783 153.3021 193.6936 30093.5741 -57.4850 -12.8936
ENERGY: 600000 1.5140 12.3756 9.9006 0.0000 -10727.8433 1409.7447 0.0000 0.0000 1767.3295 -7526.9789 301.6827 -9294.3084 -7451.0835 299.9952 -274.1263 -189.4218 30308.2189 -222.8555 -165.4483
ENERGY: 900000 2.1299 12.4132 9.3654 0.0000 -10687.7827 1392.7289 0.0000 0.0000 1709.4751 -7561.6703 291.8070 -9271.1453 -7481.3915 298.6126 -489.8297 -467.1720 30357.0123 -206.0166 -158.1649
ENERGY: 1200000 0.9408 9.0028 11.2142 0.0000 -10618.3605 1401.4550 0.0000 0.0000 1788.9558 -7406.7918 305.3743 -9195.7476 -7471.5151 299.6038 -224.8921 -162.2845 30189.1838 -103.6291 -51.1625
ENERGY: 1500000 1.8507 8.6858 10.7877 0.0000 -10761.8797 1456.8375 0.0000 0.0000 1828.2851 -7455.4329 312.0878 -9283.7180 -7473.1674 299.6914 224.1961 299.3888 30000.3695 -91.6242 -36.2546
TCL: Running FEP window  10: Lambda1 0.5499999999999996 Lambda2 0.4999999999999996 [dLambda -0.04999999999999999]
TCL: Setting parameter firsttimestep to 0
TCL: Setting parameter alchLambda to 0.5499999999999996
Info: NONBONDED TABLE R-SQUARED SPACING: 0.0625
Info: NONBONDED TABLE SIZE: 705 POINTS
TCL: Setting parameter alchLambda2 to 0.4999999999999996
Info: NONBONDED TABLE R-SQUARED SPACING: 0.0625
Info: NONBONDED TABLE SIZE: 705 POINTS
TCL: Running for 1500000 steps
ETITLE: TS BOND ANGLE DIHED IMPRP ELECT VDW BOUNDARY MISC KINETIC TOTAL TEMP POTENTIAL TOTALAVG TEMPAVG PRESSURE GPRESSURE VOLUME PRESSAVG GPRESSAVG
ENERGY: 0 1.8507 8.6858 10.7877 0.0000 -10761.9306 1457.4029 0.0000 0.0000 1827.4524 -7455.7511 311.9457 -9283.2035 -7455.7511 311.9457 225.6843 299.2875 30000.3695 225.6843 299.2875
ENERGY: 300000 1.6062 9.9815 11.4521 0.0000 -10767.3537 1508.0307 0.0000 0.0000 1767.7135 -7468.5698 301.7483 -9236.2833 -7482.0657 304.5010 836.0653 893.3140 29695.0208 129.5122 207.2255
ENERGY: 600000 0.5690 7.8668 13.4351 0.0000 -10582.0288 1405.7694 0.0000 0.0000 1811.0170 -7343.3715 309.1402 -9154.3885 -7456.7667 300.1629 -9.8514 65.1587 30264.0838 84.2477 161.3264
ENERGY: 900000 2.2446 13.6768 9.4700 0.0000 -10817.2914 1576.0111 0.0000 0.0000 1744.1863 -7471.7027 297.7322 -9215.8889 -7456.4152 299.4297 1075.1017 1119.2897 30390.3783 65.0327 131.5484
ENERGY: 1200000 1.2918 12.9583 7.9210 0.0000 -10627.9458 1391.0090 0.0000 0.0000 1768.3656 -7446.4001 301.8596 -9214.7657 -7452.6699 299.9891 -591.7700 -440.9735 30438.0341 22.7094 96.9186
ENERGY: 1500000 4.1246 12.3382 10.7919 0.0000 -10782.1374 1553.2128 0.0000 0.0000 1800.3596 -7401.3103 307.3210 -9201.6699 -7460.8296 299.7854 1058.0341 1092.6121 30351.4274 55.8096 119.8036
TCL: Running FEP window  11: Lambda1 0.4999999999999996 Lambda2 0.4499999999999996 [dLambda -0.04999999999999999]
TCL: Setting parameter firsttimestep to 0
TCL: Setting parameter alchLambda to 0.4999999999999996
Info: NONBONDED TABLE R-SQUARED SPACING: 0.0625
Info: NONBONDED TABLE SIZE: 705 POINTS
TCL: Setting parameter alchLambda2 to 0.4499999999999996
Info: NONBONDED TABLE R-SQUARED SPACING: 0.0625
Info: NONBONDED TABLE SIZE: 705 POINTS
TCL: Running for 1500000 steps
ETITLE: TS BOND ANGLE DIHED IMPRP ELECT VDW BOUNDARY MISC KINETIC TOTAL TEMP POTENTIAL TOTALAVG TEMPAVG PRESSURE GPRESSURE VOLUME PRESSAVG GPRESSAVG
ENERGY: 0 4.1246 12.3382 10.7919 0.0000 -10781.7968 1553.1894 0.0000 0.0000 1799.5051 -7401.8476 307.1751 -9201.3527 -7401.8476 307.1751 1010.8404 1089.0243 30351.4274 1010.8404 1089.0243
ENERGY: 300000 3.6958 12.3438 12.0300 0.0000 -10542.3533 1349.1208 0.0000 0.0000 1728.4300 -7436.7329 295.0426 -9165.1629 -7461.8134 298.8148 -571.4030 -500.1765 30268.2642 64.1790 120.3407
ENERGY: 600000 1.5786 11.2955 8.2106 0.0000 -10717.8023 1426.8215 0.0000 0.0000 1835.5772 -7434.3190 313.3326 -9269.8962 -7453.9974 302.5860 -277.6586 -280.2548 30565.1606 95.9837 130.0949
ENERGY: 900000 3.2046 9.2954 9.8366 0.0000 -10609.7219 1413.5628 0.0000 0.0000 1738.2677 -7435.5549 296.7219 -9173.8225 -7457.2248 301.7150 -132.6773 -36.5110 30347.0402 24.0100 68.7614
ENERGY: 1200000 3.4626 13.0356 9.0922 0.0000 -10719.7356 1527.3083 0.0000 0.0000 1785.3698 -7381.4672 304.7622 -9166.8369 -7450.6098 301.7213 909.3205 924.3775 30235.7854 38.7633 83.4109
ENERGY: 1500000 1.5950 10.5396 10.6618 0.0000 -10606.8052 1418.4910 0.0000 0.0000 1767.6625 -7397.8553 301.7396 -9165.5178 -7453.0520 301.9196 -192.0636 -123.2549 30680.3135 3.7896 46.9909
TCL: Running FEP window  12: Lambda1 0.4499999999999996 Lambda2 0.39999999999999963 [dLambda -0.04999999999999999]
TCL: Setting parameter firsttimestep to 0
TCL: Setting parameter alchLambda to 0.4499999999999996
Info: NONBONDED TABLE R-SQUARED SPACING: 0.0625
Info: NONBONDED TABLE SIZE: 705 POINTS
TCL: Setting parameter alchLambda2 to 0.39999999999999963
Info: NONBONDED TABLE R-SQUARED SPACING: 0.0625
Info: NONBONDED TABLE SIZE: 705 POINTS
TCL: Running for 1500000 steps
ETITLE: TS BOND ANGLE DIHED IMPRP ELECT VDW BOUNDARY MISC KINETIC TOTAL TEMP POTENTIAL TOTALAVG TEMPAVG PRESSURE GPRESSURE VOLUME PRESSAVG GPRESSAVG
ENERGY: 0 1.5951 10.5396 10.6618 0.0000 -10606.8058 1417.9425 0.0000 0.0000 1766.7888 -7399.2781 301.5904 -9166.0669 -7399.2781 301.5904 -212.1672 -130.5430 30680.3135 -212.1672 -130.5430
ENERGY: 300000 0.9136 10.2323 12.3547 0.0000 -10820.8015 1542.5642 0.0000 0.0000 1774.7185 -7480.0181 302.9440 -9254.7366 -7445.8680 302.9794 935.7775 999.7399 29993.4972 234.9450 296.1715
ENERGY: 600000 3.4067 10.2750 9.8599 0.0000 -10678.8235 1403.8071 0.0000 0.0000 1762.8423 -7488.6325 300.9167 -9251.4748 -7463.1277 302.0499 -315.5072 -342.0741 30150.4258 166.9151 204.1912
ENERGY: 900000 1.3692 12.5895 9.1071 0.0000 -10887.2130 1494.1727 0.0000 0.0000 1791.4799 -7578.4946 305.8052 -9369.9745 -7481.3652 301.2842 99.4086 149.8610 29976.1845 88.3240 129.1990
ENERGY: 1200000 3.8968 8.9444 10.4055 0.0000 -10695.7639 1406.9658 0.0000 0.0000 1725.7917 -7539.7595 294.5922 -9265.5512 -7470.1199 300.6745 -270.1749 -182.2586 30062.0589 58.4651 109.2526
ENERGY: 1500000 2.9367 8.8401 9.2808 0.0000 -10656.8826 1416.9624 0.0000 0.0000 1738.2965 -7480.5660 296.7268 -9218.8625 -7469.0425 300.9021 234.0506 239.6901 29872.4276 74.2944 127.2668
TCL: Running FEP window  13: Lambda1 0.39999999999999963 Lambda2 0.34999999999999964 [dLambda -0.04999999999999999]
TCL: Setting parameter firsttimestep to 0
TCL: Setting parameter alchLambda to 0.39999999999999963
Info: NONBONDED TABLE R-SQUARED SPACING: 0.0625
Info: NONBONDED TABLE SIZE: 705 POINTS
TCL: Setting parameter alchLambda2 to 0.34999999999999964
Info: NONBONDED TABLE R-SQUARED SPACING: 0.0625
Info: NONBONDED TABLE SIZE: 705 POINTS
TCL: Running for 1500000 steps
ETITLE: TS BOND ANGLE DIHED IMPRP ELECT VDW BOUNDARY MISC KINETIC TOTAL TEMP POTENTIAL TOTALAVG TEMPAVG PRESSURE GPRESSURE VOLUME PRESSAVG GPRESSAVG
ENERGY: 0 2.9367 8.8401 9.2808 0.0000 -10656.8826 1416.5988 0.0000 0.0000 1737.4227 -7481.8035 296.5776 -9219.2263 -7481.8035 296.5776 151.6742 230.5395 29872.4276 151.6742 230.5395
ENERGY: 300000 1.4044 13.1748 10.1654 0.0000 -10691.7648 1488.8137 0.0000 0.0000 1709.7627 -7468.4437 291.8561 -9178.2063 -7466.8338 294.8812 488.1645 563.0896 30083.4522 140.7757 206.3416
ENERGY: 600000 0.9417 11.2830 10.0138 0.0000 -10743.2580 1475.8322 0.0000 0.0000 1717.0134 -7528.1739 293.0938 -9245.1873 -7468.9776 295.1868 145.5358 278.0446 30234.4813 25.6983 102.9409
ENERGY: 900000 1.8897 11.4441 12.7498 0.0000 -10654.8486 1444.5546 0.0000 0.0000 1799.4612 -7384.7492 307.1676 -9184.2104 -7451.6260 298.2315 79.0440 106.2034 30589.5619 87.8201 161.0598
ENERGY: 1200000 0.6015 9.4925 10.3942 0.0000 -10429.5024 1272.2233 0.0000 0.0000 1724.0857 -7412.7053 294.3010 -9136.7910 -7453.2308 298.4516 -1114.2696 -1112.4903 30438.7706 -9.1465 61.0769
ENERGY: 1500000 1.9853 8.3693 10.3896 0.0000 -10613.5686 1397.9122 0.0000 0.0000 1774.9959 -7419.9163 302.9914 -9194.9122 -7447.3077 298.7205 -312.6180 -309.4962 30502.9857 -75.3306 -12.1436
TCL: Running FEP window  14: Lambda1 0.34999999999999964 Lambda2 0.29999999999999966 [dLambda -0.04999999999999999]
TCL: Setting parameter firsttimestep to 0
TCL: Setting parameter alchLambda to 0.34999999999999964
Info: NONBONDED TABLE R-SQUARED SPACING: 0.0625
Info: NONBONDED TABLE SIZE: 705 POINTS
TCL: Setting parameter alchLambda2 to 0.29999999999999966
Info: NONBONDED TABLE R-SQUARED SPACING: 0.0625
Info: NONBONDED TABLE SIZE: 705 POINTS
TCL: Running for 1500000 steps
ETITLE: TS BOND ANGLE DIHED IMPRP ELECT VDW BOUNDARY MISC KINETIC TOTAL TEMP POTENTIAL TOTALAVG TEMPAVG PRESSURE GPRESSURE VOLUME PRESSAVG GPRESSAVG
ENERGY: 0 1.9853 8.3693 10.3896 0.0000 -10613.5692 1398.3115 0.0000 0.0000 1774.1018 -7420.4118 302.8387 -9194.5136 -7420.4118 302.8387 -388.3467 -309.0843 30502.9857 -388.3467 -309.0843
ENERGY: 300000 1.2696 9.6334 10.3025 0.0000 -10764.6508 1443.9810 0.0000 0.0000 1825.2742 -7474.1901 311.5739 -9299.4643 -7412.0525 306.9458 -151.6142 -93.7235 30185.8031 20.7377 75.7183
ENERGY: 600000 1.3125 10.4464 8.5767 0.0000 -10707.6204 1412.8509 0.0000 0.0000 1733.2239 -7541.2101 295.8609 -9274.4340 -7452.2560 302.9136 -360.5247 -321.0696 29992.6668 -7.2688 39.0349
ENERGY: 900000 1.8043 12.4660 11.0648 0.0000 -10601.3345 1422.3813 0.0000 0.0000 1791.5081 -7362.1100 305.8100 -9153.6181 -7436.9566 303.0803 65.5821 68.3714 30444.0268 -85.5092 -45.4681
ENERGY: 1200000 2.2257 8.5040 10.9834 0.0000 -10816.5107 1571.5181 0.0000 0.0000 1734.6213 -7488.6583 296.0994 -9223.2795 -7435.7198 301.7331 1005.0672 1040.2143 30069.7992 -14.3355 32.5662
ENERGY: 1500000 2.3252 10.9551 10.0390 0.0000 -10741.1746 1441.8809 0.0000 0.0000 1710.8245 -7565.1498 292.0373 -9275.9743 -7448.9608 300.7216 141.2249 167.8323 29883.7305 -60.2651 -9.3850
TCL: Running FEP window  15: Lambda1 0.29999999999999966 Lambda2 0.24999999999999967 [dLambda -0.04999999999999999]
TCL: Setting parameter firsttimestep to 0
TCL: Setting parameter alchLambda to 0.29999999999999966
Info: NONBONDED TABLE R-SQUARED SPACING: 0.0625
Info: NONBONDED TABLE SIZE: 705 POINTS
TCL: Setting parameter alchLambda2 to 0.24999999999999967
Info: NONBONDED TABLE R-SQUARED SPACING: 0.0625
Info: NONBONDED TABLE SIZE: 705 POINTS
TCL: Running for 1500000 steps
ETITLE: TS BOND ANGLE DIHED IMPRP ELECT VDW BOUNDARY MISC KINETIC TOTAL TEMP POTENTIAL TOTALAVG TEMPAVG PRESSURE GPRESSURE VOLUME PRESSAVG GPRESSAVG
ENERGY: 0 2.3252 10.9551 10.0390 0.0000 -10741.1750 1442.3139 0.0000 0.0000 1709.9739 -7565.5678 291.8921 -9275.5417 -7565.5678 291.8921 92.3665 168.1215 29883.7305 92.3665 168.1215
ENERGY: 300000 3.0469 13.6945 9.0377 0.0000 -10513.0392 1336.4428 0.0000 0.0000 1804.8690 -7345.9482 308.0907 -9150.8172 -7501.1345 296.0471 -775.2249 -659.3872 30507.4036 -134.1468 -55.8085
ENERGY: 600000 5.1390 10.1870 8.8166 0.0000 -10777.5609 1481.2500 0.0000 0.0000 1709.9402 -7562.2281 291.8864 -9272.1684 -7503.1582 296.6270 -6.3135 103.4944 30419.1476 28.6176 108.8282
ENERGY: 900000 3.1280 14.4223 8.4364 0.0000 -10633.9603 1436.8842 0.0000 0.0000 1761.5304 -7409.5590 300.6928 -9171.0894 -7476.6779 298.0847 0.5587 124.4741 30239.5841 -128.1953 -46.5898
ENERGY: 1200000 0.7924 9.7218 9.2588 0.0000 -10752.0896 1458.8852 0.0000 0.0000 1777.1486 -7496.2829 303.3588 -9273.4314 -7477.8291 298.1539 253.8688 305.7816 29724.4452 -96.0566 -25.6041
ENERGY: 1500000 1.0014 12.3724 7.7001 0.0000 -10618.3198 1388.5380 0.0000 0.0000 1755.2163 -7453.4916 299.6150 -9208.7079 -7481.0735 298.2018 -305.7423 -261.6383 30015.5394 -93.9118 -28.5808
TCL: Running FEP window  16: Lambda1 0.24999999999999967 Lambda2 0.19999999999999968 [dLambda -0.04999999999999999]
TCL: Setting parameter firsttimestep to 0
TCL: Setting parameter alchLambda to 0.24999999999999967
Info: NONBONDED TABLE R-SQUARED SPACING: 0.0625
Info: NONBONDED TABLE SIZE: 705 POINTS
TCL: Setting parameter alchLambda2 to 0.19999999999999968
Info: NONBONDED TABLE R-SQUARED SPACING: 0.0625
Info: NONBONDED TABLE SIZE: 705 POINTS
TCL: Running for 1500000 steps
ETITLE: TS BOND ANGLE DIHED IMPRP ELECT VDW BOUNDARY MISC KINETIC TOTAL TEMP POTENTIAL TOTALAVG TEMPAVG PRESSURE GPRESSURE VOLUME PRESSAVG GPRESSAVG
ENERGY: 0 1.0014 12.3724 7.7001 0.0000 -10618.3192 1387.8496 0.0000 0.0000 1754.3267 -7455.0691 299.4631 -9209.3957 -7455.0691 299.4631 -346.9045 -269.0131 30015.5394 -346.9045 -269.0131
ENERGY: 300000 0.7887 10.8864 9.8687 0.0000 -10541.8408 1309.5411 0.0000 0.0000 1726.7216 -7484.0344 294.7510 -9210.7560 -7457.0475 299.2508 -848.2245 -816.8477 30360.8391 -252.9786 -202.6321
ENERGY: 600000 2.1266 16.6551 7.5906 0.0000 -10788.6723 1500.8405 0.0000 0.0000 1755.1880 -7506.2713 299.6102 -9261.4593 -7470.0058 299.1619 422.4772 459.5237 30296.5849 -83.6193 -40.8023
ENERGY: 900000 1.7105 14.8627 7.6784 0.0000 -10747.5019 1398.1535 0.0000 0.0000 1738.5598 -7586.5369 296.7717 -9325.0967 -7497.4251 298.3078 -716.2850 -642.9930 30106.0627 -218.3261 -158.2098
ENERGY: 1200000 0.8358 7.2179 10.6640 0.0000 -10664.8416 1404.8700 0.0000 0.0000 1758.2673 -7482.9865 300.1358 -9241.2538 -7493.7127 298.6247 -255.7333 -166.6084 30305.1712 -140.1033 -76.0106
ENERGY: 1500000 1.4770 7.7078 11.4355 0.0000 -10849.2029 1549.5440 0.0000 0.0000 1826.2639 -7452.7747 311.7428 -9279.0386 -7495.3660 298.9417 833.1683 931.9152 29819.9735 -33.2327 40.0299
TCL: Running FEP window  17: Lambda1 0.19999999999999968 Lambda2 0.1499999999999997 [dLambda -0.04999999999999999]
TCL: Setting parameter firsttimestep to 0
TCL: Setting parameter alchLambda to 0.19999999999999968
Info: NONBONDED TABLE R-SQUARED SPACING: 0.0625
Info: NONBONDED TABLE SIZE: 705 POINTS
TCL: Setting parameter alchLambda2 to 0.1499999999999997
Info: NONBONDED TABLE R-SQUARED SPACING: 0.0625
Info: NONBONDED TABLE SIZE: 705 POINTS
TCL: Running for 1500000 steps
ETITLE: TS BOND ANGLE DIHED IMPRP ELECT VDW BOUNDARY MISC KINETIC TOTAL TEMP POTENTIAL TOTALAVG TEMPAVG PRESSURE GPRESSURE VOLUME PRESSAVG GPRESSAVG
ENERGY: 0 1.4770 7.7078 11.4355 0.0000 -10849.2037 1549.4678 0.0000 0.0000 1825.4383 -7453.6773 311.6019 -9279.1156 -7453.6773 311.6019 841.9508 925.8194 29819.9735 841.9508 925.8194
ENERGY: 300000 1.7052 10.5289 9.6754 0.0000 -10665.2888 1498.3647 0.0000 0.0000 1696.0956 -7448.9190 289.5231 -9145.0146 -7459.2987 300.3469 231.8699 238.5707 30912.4313 361.1804 400.1609
ENERGY: 600000 1.6762 10.0526 13.0036 0.0000 -10722.7907 1450.7463 0.0000 0.0000 1788.5405 -7458.7714 305.3034 -9247.3120 -7456.8974 301.6937 -20.1316 -29.0105 30181.3755 111.3957 139.5358
ENERGY: 900000 1.6234 11.9513 9.2067 0.0000 -10740.8644 1539.2757 0.0000 0.0000 1731.6973 -7447.1101 295.6003 -9178.8074 -7452.5908 301.3221 1301.9940 1275.7961 29646.8742 106.6990 145.9400
ENERGY: 1200000 1.1380 7.3751 12.4480 0.0000 -10610.7880 1370.6192 0.0000 0.0000 1758.4849 -7460.7229 300.1729 -9219.2077 -7455.1818 300.7134 -423.6260 -334.8756 30048.4804 -41.6874 13.8061
ENERGY: 1500000 2.2265 11.4475 7.8491 0.0000 -10570.7723 1370.2304 0.0000 0.0000 1767.1874 -7411.8313 301.6585 -9179.0187 -7460.3826 300.8183 -348.5069 -277.4875 30229.0621 -107.8581 -47.5504
TCL: Running FEP window  18: Lambda1 0.1499999999999997 Lambda2 0.09999999999999969 [dLambda -0.05 ]
TCL: Setting parameter firsttimestep to 0
TCL: Setting parameter alchLambda to 0.1499999999999997
Info: NONBONDED TABLE R-SQUARED SPACING: 0.0625
Info: NONBONDED TABLE SIZE: 705 POINTS
TCL: Setting parameter alchLambda2 to 0.09999999999999969
Info: NONBONDED TABLE R-SQUARED SPACING: 0.0625
Info: NONBONDED TABLE SIZE: 705 POINTS
TCL: Running for 1500000 steps
ETITLE: TS BOND ANGLE DIHED IMPRP ELECT VDW BOUNDARY MISC KINETIC TOTAL TEMP POTENTIAL TOTALAVG TEMPAVG PRESSURE GPRESSURE VOLUME PRESSAVG GPRESSAVG
ENERGY: 0 2.2265 11.4475 7.8491 0.0000 -10570.7731 1370.5105 0.0000 0.0000 1766.3431 -7412.3962 301.5143 -9178.7393 -7412.3962 301.5143 -358.3528 -278.2980 30229.0621 -358.3528 -278.2980
ENERGY: 300000 2.4329 6.7550 13.5144 0.0000 -10889.2903 1571.8101 0.0000 0.0000 1784.5768 -7510.2010 304.6268 -9294.7778 -7468.0516 299.5665 922.5185 908.6353 29948.8938 152.9030 202.2255
ENERGY: 600000 0.8285 7.7325 11.5703 0.0000 -10769.1483 1467.7110 0.0000 0.0000 1757.9544 -7523.3514 300.0824 -9281.3059 -7472.1442 299.5198 31.8609 148.6218 30020.5994 226.6388 286.8470
ENERGY: 900000 3.5128 8.5018 10.9878 0.0000 -10674.6401 1447.5736 0.0000 0.0000 1724.9564 -7479.1078 294.4496 -9204.0642 -7458.5032 299.9399 52.7383 43.5273 30840.4501 249.1910 296.6188
ENERGY: 1200000 0.8971 9.8625 9.5967 0.0000 -10703.7231 1466.1393 0.0000 0.0000 1746.3647 -7470.8629 298.1040 -9217.2275 -7467.1500 299.3982 334.6830 392.3494 30086.3255 253.1571 301.4329
ENERGY: 1500000 0.7334 13.2570 7.6613 0.0000 -10699.0793 1476.8055 0.0000 0.0000 1774.5232 -7426.0990 302.9107 -9200.6221 -7461.0681 300.1682 500.1095 511.4227 29809.8600 148.6630 200.7176
TCL: Running FEP window  19: Lambda1 0.09999999999999969 Lambda2 0.049999999999999684 [dLambda -0.05 ]
TCL: Setting parameter firsttimestep to 0
TCL: Setting parameter alchLambda to 0.09999999999999969
Info: NONBONDED TABLE R-SQUARED SPACING: 0.0625
Info: NONBONDED TABLE SIZE: 705 POINTS
TCL: Setting parameter alchLambda2 to 0.049999999999999684
Info: NONBONDED TABLE R-SQUARED SPACING: 0.0625
Info: NONBONDED TABLE SIZE: 705 POINTS
TCL: Running for 1500000 steps
ETITLE: TS BOND ANGLE DIHED IMPRP ELECT VDW BOUNDARY MISC KINETIC TOTAL TEMP POTENTIAL TOTALAVG TEMPAVG PRESSURE GPRESSURE VOLUME PRESSAVG GPRESSAVG
ENERGY: 0 0.7334 13.2570 7.6613 0.0000 -10699.0804 1476.6478 0.0000 0.0000 1773.6540 -7427.1269 302.7623 -9200.7809 -7427.1269 302.7623 413.1270 505.6803 29809.8600 413.1270 505.6803
ENERGY: 300000 2.0178 11.6641 10.3801 0.0000 -10560.5342 1357.5522 0.0000 0.0000 1765.2367 -7413.6833 301.3255 -9178.9200 -7423.6175 303.7796 -455.6307 -439.4410 30364.4807 -215.6838 -160.4331
ENERGY: 600000 1.3102 10.7757 10.1698 0.0000 -10484.9776 1284.6064 0.0000 0.0000 1740.1998 -7437.9157 297.0517 -9178.1154 -7439.9049 301.1025 -940.2659 -939.9325 29964.3242 -300.1666 -246.8901
ENERGY: 900000 2.0112 11.1528 10.6633 0.0000 -10767.9587 1480.0104 0.0000 0.0000 1740.0446 -7524.0765 297.0252 -9264.1211 -7461.7752 299.4239 47.9425 148.9830 30064.9502 -211.4358 -150.4320
ENERGY: 1200000 1.7451 15.0198 8.8744 0.0000 -10642.0442 1436.0400 0.0000 0.0000 1791.5880 -7388.7768 305.8236 -9180.3649 -7461.1707 299.8136 14.9562 58.1762 30559.7706 -207.5659 -143.6205
ENERGY: 1500000 0.9474 11.3319 10.6066 0.0000 -10665.4278 1397.0325 0.0000 0.0000 1776.5040 -7469.0055 303.2488 -9245.5095 -7455.6770 300.6798 -422.0793 -407.6106 30598.3982 -120.7583 -68.5469
TCL: Running FEP window  20: Lambda1 0.049999999999999684 Lambda2 0.0    [dLambda -0.049999999999999684]
TCL: Setting parameter firsttimestep to 0
TCL: Setting parameter alchLambda to 0.049999999999999684
Info: NONBONDED TABLE R-SQUARED SPACING: 0.0625
Info: NONBONDED TABLE SIZE: 705 POINTS
TCL: Setting parameter alchLambda2 to 0.0
Info: NONBONDED TABLE R-SQUARED SPACING: 0.0625
Info: NONBONDED TABLE SIZE: 705 POINTS
TCL: Running for 1500000 steps
ETITLE: TS BOND ANGLE DIHED IMPRP ELECT VDW BOUNDARY MISC KINETIC TOTAL TEMP POTENTIAL TOTALAVG TEMPAVG PRESSURE GPRESSURE VOLUME PRESSAVG GPRESSAVG
ENERGY: 0 0.9474 11.3319 10.6066 0.0000 -10665.4294 1396.8586 0.0000 0.0000 1775.6416 -7470.0434 303.1016 -9245.6850 -7470.0434 303.1016 -478.6713 -407.6133 30598.3982 -478.6713 -407.6133
ENERGY: 300000 2.6887 10.1994 9.8482 0.0000 -10628.0612 1435.6748 0.0000 0.0000 1783.1504 -7386.4998 304.3833 -9169.6502 -7447.7889 305.6965 -166.8644 -54.3437 30719.0245 -125.5449 -49.9888
ENERGY: 600000 1.3482 10.1903 10.7822 0.0000 -10595.1843 1442.6299 0.0000 0.0000 1764.8022 -7365.4315 301.2513 -9130.2337 -7437.3832 302.7268 420.3948 434.5130 30267.8754 3.4186 65.9863
ENERGY: 900000 3.9541 8.1552 10.1949 0.0000 -10806.4826 1556.5246 0.0000 0.0000 1808.2520 -7419.4019 308.6682 -9227.6539 -7439.0741 302.6546 1221.1379 1305.2870 29748.0228 115.3212 184.3057
ENERGY: 1200000 3.0447 5.9613 13.2159 0.0000 -10673.0528 1377.0783 0.0000 0.0000 1746.7416 -7527.0109 298.1684 -9273.7525 -7431.3124 303.7600 -727.3987 -710.2311 30296.3700 -17.6114 33.6377
ENERGY: 1500000 1.7491 9.4187 10.3290 0.0000 -10651.2532 1427.9468 0.0000 0.0000 1748.0859 -7453.7237 298.3978 -9201.8095 -7433.2226 302.7533 -160.0183 -135.1308 30479.0769 -30.5814 26.9059
TCL: Exiting due to exit command.
