Info: SIMULATION PARAMETERS:
Info: TIMESTEP               2
Info: NUMBER OF STEPS        0
Info: STEPS PER CYCLE        10
Info: PERIODIC CELL BASIS 1  32.3442 0 0
Info: PERIODIC CELL BASIS 2  0 30.2829 0
Info: PERIODIC CELL BASIS 3  0 0 31.576
Info: PERIODIC CELL CENTER   0 0 0
Info: WRAPPING WATERS AROUND PERIODIC BOUNDARIES ON OUTPUT.
Info: WRAPPING ALL CLUSTERS AROUND PERIODIC BOUNDARIES ON OUTPUT.
Info: FIRST LDB TIMESTEP     50
Info: LAST LDB TIMESTEP     -1
Info: HOM BACKGROUND SCALING 1
Info: PME BACKGROUND SCALING 1
Info: MIN ATOMS PER PATCH    40
Info: EMPTY PATCH LOAD       40 ATOMS
Info: VELOCITY FILE          mobley_2123854_equil.vel
Info: CENTER OF MASS MOVING INITIALLY? NO
Info: DIELECTRIC             1
Info: EXCLUDE                SCALED ONE-FOUR
Info: 1-4 ELECTROSTATICS SCALED BY 0.833333
Info: MODIFIED 1-4 VDW PARAMETERS WILL BE USED
Info: DCD FILENAME           mobley_2123854_prod.dcd
Info: DCD FREQUENCY          100000
Info: DCD FIRST STEP         100000
Info: DCD FILE WILL CONTAIN UNIT CELL DATA
Info: XST FILENAME           mobley_2123854_prod.xst
Info: XST FREQUENCY          100000
Info: NO VELOCITY DCD OUTPUT
Info: NO FORCE DCD OUTPUT
Info: OUTPUT FILENAME        mobley_2123854_prod
Info: BINARY OUTPUT FILES WILL BE USED
Info: RESTART FILENAME       mobley_2123854_prod.restart
Info: RESTART FREQUENCY      100000
Info: BINARY RESTART FILES WILL BE USED
Info: CUTOFF                 9
Info: PAIRLIST DISTANCE      11
Info: PAIRLIST SHRINK RATE   0.01
Info: PAIRLIST GROW RATE     0.01
Info: PAIRLIST TRIGGER       0.3
Info: PAIRLISTS PER CYCLE    2
Info: PAIRLISTS ENABLED
Info: MARGIN                 2
Info: HYDROGEN GROUP CUTOFF  2.5
Info: PATCH DIMENSION        15.5
Info: ENERGY OUTPUT STEPS    100000
Info: ENERGY EVALUATION STEPS    100000
Info: OUTPUT ENERGY PRECISION 4
Info: CROSSTERM ENERGY INCLUDED IN DIHEDRAL
Info: TIMING OUTPUT STEPS    1000000
Info: PRESSURE OUTPUT STEPS  100000
Info: ALCHEMICAL FEP ON
Info: FEP CURRENT LAMBDA VALUE     1
Info: FEP COMPARISON LAMBDA VALUE  0.95
Info: FEP INTRA-ALCHEMICAL NON-BONDED INTERACTIONS WILL BE RETAINED
Info: FEP INTRA-ALCHEMICAL BONDED INTERACTIONS WILL BE RETAINED
Info: FEP VDW SHIFTING COEFFICIENT 5
Info: FEP ELEC. ACTIVE FOR ANNIHILATED PARTICLES BETWEEN LAMBDA = 0 AND LAMBDA = 0.5
Info: FEP ELEC. ACTIVE FOR EXNIHILATED PARTICLES BETWEEN LAMBDA = 0.5 AND LAMBDA = 1
Info: FEP VDW ACTIVE FOR ANNIHILATED PARTICLES BETWEEN LAMBDA = 0 AND LAMBDA = 1
Info: FEP VDW ACTIVE FOR EXNIHILATED PARTICLES BETWEEN LAMBDA = 0 AND LAMBDA = 1
Info: FEP BOND ACTIVE FOR ANNIHILATED PARTICLES BETWEEN LAMBDA = 1 AND LAMBDA = 1
Info: FEP BOND ACTIVE FOR EXNIHILATED PARTICLES BETWEEN LAMBDA = 0 AND LAMBDA = 0
Info: LANGEVIN DYNAMICS ACTIVE
Info: LANGEVIN TEMPERATURE   300
Info: LANGEVIN USING BBK INTEGRATOR
Info: LANGEVIN DAMPING COEFFICIENT IS 1 INVERSE PS
Info: LANGEVIN DYNAMICS APPLIED TO HYDROGENS
Info: LANGEVIN PISTON PRESSURE CONTROL ACTIVE
Info:        TARGET PRESSURE IS 1.01325 BAR
Info:     OSCILLATION PERIOD IS 50 FS
Info:             DECAY TIME IS 25 FS
Info:     PISTON TEMPERATURE IS 300 K
Info:       PRESSURE CONTROL IS GROUP-BASED
Info:    INITIAL STRAIN RATE IS 0.000184586 0.000184586 0.000184586
Info:       CELL FLUCTUATION IS ISOTROPIC
Info: PARTICLE MESH EWALD (PME) ACTIVE
Info: PME TOLERANCE               1e-06
Info: PME EWALD COEFFICIENT       0.348832
Info: PME INTERPOLATION ORDER     4
Info: PME GRID DIMENSIONS         36 32 32
Info: PME MAXIMUM GRID SPACING    1
Info: PME CALCULATION WILL BE PERFORMED ON GPU
Info: FULL ELECTROSTATIC EVALUATION FREQUENCY      2
Info: USING VERLET I (r-RESPA) MTS SCHEME.
Info: C1 SPLITTING OF LONG RANGE ELECTROSTATICS
Info: PLACING ATOMS IN PATCHES BY HYDROGEN GROUPS
Info: RIGID BONDS TO HYDROGEN : ALL
Info:         ERROR TOLERANCE : 1e-08
Info:          MAX ITERATIONS : 100
Info: RIGID WATER USING SETTLE ALGORITHM
Info: RANDOM NUMBER SEED     1743574127
Info: USE HYDROGEN BONDS?    NO
Info: Using AMBER format force field!
Info: AMBER PARM FILE        mobley_2123854.prmtop
Info: COORDINATE PDB         mobley_2123854.pdb
Info: Exclusions will be read from PARM file!
Info: SCNB (VDW SCALING)     2
Info: USING ARITHMETIC MEAN TO COMBINE L-J SIGMA PARAMETERS
Info: BINARY COORDINATES     mobley_2123854_equil.coor
Info: SUMMARY OF PARAMETERS:
Info: 8 BONDS
Info: 6 ANGLES
Info:   6 HARMONIC
Info:   0 COSINE-BASED
Info: 4 DIHEDRAL
Info: 0 IMPROPER
Info: 0 CROSSTERM
Info: 0 VDW
Info: 28 VDW_PAIRS
Info: 0 NBTHOLE_PAIRS
Info: To read alchdata from file: mobley_2123854.pdb
Info: To read alchflag data from column: 5
Info: STRUCTURE SUMMARY:
Info: 2960 ATOMS
Info: 2960 BONDS
Info: 20 ANGLES
Info: 34 DIHEDRALS
Info: 0 IMPROPERS
Info: 0 CROSSTERMS
Info: 3005 EXCLUSIONS
Info: 2951 RIGID BONDS
Info: ALCH: 0 ATOMS TO DISAPPEAR IN FINAL STATE
Info: ALCH: 14 ATOMS TO APPEAR IN FINAL STATE
Info: 5929 DEGREES OF FREEDOM
Info: 991 HYDROGEN GROUPS
Info: 3 ATOMS IN LARGEST HYDROGEN GROUP
Info: 991 MIGRATION GROUPS
Info: 3 ATOMS IN LARGEST MIGRATION GROUP
Info: TOTAL MASS = 17810.8 amu
Info: TOTAL CHARGE = -0.000100009 e
Info: MASS DENSITY = 0.956298 g/cm^3
Info: ATOM DENSITY = 0.0957065 atoms/A^3
Info: ADDED 0 IMPLICIT EXCLUSIONS
Info: NONBONDED TABLE R-SQUARED SPACING: 0.0625
Info: NONBONDED TABLE SIZE: 705 POINTS
Info: REMOVING COM VELOCITY -0.31892 0.0485024 -0.178223
Info: Use 3D box decompostion in PME FFT.
Info: Updated CUDA force table with 4096 elements.
Info: Updated CUDA LJ table with 7 x 7 elements.
Info: Found 15 unique exclusion lists needing 32 bytes
TCL: Running for 1500000 steps
ETITLE: TS BOND ANGLE DIHED IMPRP ELECT VDW BOUNDARY MISC KINETIC TOTAL TEMP POTENTIAL TOTALAVG TEMPAVG PRESSURE GPRESSURE VOLUME PRESSAVG GPRESSAVG
ENERGY: 0 1.2582 5.3552 2.8639 0.0000 -10851.9263 1463.4150 0.0000 0.0000 1693.1262 -7685.9078 287.4076 -9379.0340 -7685.9078 287.4076 -312.5757 -230.1208 30927.8848 -312.5757 -230.1208
ENERGY: 300000 1.7708 7.9031 2.3538 0.0000 -10872.4158 1492.6168 0.0000 0.0000 1754.5097 -7613.2617 297.8274 -9367.7714 -7619.9945 294.3325 425.6103 475.5596 29881.0906 -135.5341 -66.4053
ENERGY: 600000 1.8954 4.2852 1.5368 0.0000 -10744.9731 1406.6604 0.0000 0.0000 1801.1083 -7529.4871 305.7375 -9330.5954 -7577.0532 296.8667 -266.3569 -200.2436 30699.4138 -108.7685 -34.0654
ENERGY: 900000 4.4145 4.9313 0.7134 0.0000 -10561.3734 1352.1599 0.0000 0.0000 1783.2775 -7415.8768 302.7108 -9199.1543 -7547.7230 299.1309 -678.2574 -598.1273 31225.1342 -100.6916 -34.1181
ENERGY: 1200000 3.7492 3.3297 2.2301 0.0000 -10845.1164 1487.7476 0.0000 0.0000 1769.7083 -7578.3514 300.4074 -9348.0597 -7551.9537 299.3607 361.5152 398.6525 30237.5680 -15.3674 56.7001
ENERGY: 1500000 1.8143 3.5889 3.1458 0.0000 -10638.0262 1404.0646 0.0000 0.0000 1746.4668 -7478.9459 296.4622 -9225.4127 -7539.3521 299.9312 -230.3668 -178.7826 31254.4094 -68.0325 3.9784
TCL: Running FEP window   2: Lambda1 0.95   Lambda2 0.8999999999999999 [dLambda -0.050000000000000044]
TCL: Setting parameter firsttimestep to 0
TCL: Setting parameter alchLambda to 0.95
Info: NONBONDED TABLE R-SQUARED SPACING: 0.0625
Info: NONBONDED TABLE SIZE: 705 POINTS
TCL: Setting parameter alchLambda2 to 0.8999999999999999
Info: NONBONDED TABLE R-SQUARED SPACING: 0.0625
Info: NONBONDED TABLE SIZE: 705 POINTS
TCL: Running for 1500000 steps
ETITLE: TS BOND ANGLE DIHED IMPRP ELECT VDW BOUNDARY MISC KINETIC TOTAL TEMP POTENTIAL TOTALAVG TEMPAVG PRESSURE GPRESSURE VOLUME PRESSAVG GPRESSAVG
ENERGY: 0 1.8143 3.5888 3.1458 0.0000 -10635.9549 1403.2868 0.0000 0.0000 1745.5677 -7478.5515 296.3095 -9224.1192 -7478.5515 296.3095 -291.5126 -193.4590 31254.4094 -291.5126 -193.4590
ENERGY: 300000 2.2216 1.5854 4.9575 0.0000 -10752.6251 1446.4041 0.0000 0.0000 1719.9184 -7577.5381 291.9556 -9297.4565 -7557.3681 297.8101 6.2608 31.1670 30385.0697 -489.5141 -402.7382
ENERGY: 600000 3.0339 4.1727 9.3628 0.0000 -10688.7040 1403.4913 0.0000 0.0000 1748.2555 -7520.3878 296.7658 -9268.6433 -7548.8463 297.8568 -524.0710 -481.9698 30750.5511 -452.9632 -384.2154
ENERGY: 900000 2.8380 3.8040 1.7822 0.0000 -10608.1824 1352.1953 0.0000 0.0000 1768.9565 -7478.6065 300.2798 -9247.5630 -7539.6694 299.0503 -771.2332 -706.9091 31127.3393 -402.9644 -340.9002
ENERGY: 1200000 2.0993 3.9297 2.8006 0.0000 -10829.9998 1495.2154 0.0000 0.0000 1796.4081 -7529.5467 304.9397 -9325.9548 -7535.5435 300.9846 436.5989 486.4798 30531.5317 -254.5160 -192.9118
ENERGY: 1500000 3.2938 2.5775 2.3055 0.0000 -10699.8527 1429.9330 0.0000 0.0000 1758.7094 -7503.0336 298.5403 -9261.7429 -7528.6290 300.7119 -74.0917 -55.5210 30819.1308 -226.8723 -168.1504
TCL: Running FEP window   3: Lambda1 0.8999999999999999 Lambda2 0.8499999999999999 [dLambda -0.050000000000000044]
TCL: Setting parameter firsttimestep to 0
TCL: Setting parameter alchLambda to 0.8999999999999999
Info: NONBONDED TABLE R-SQUARED SPACING: 0.0625
Info: NONBONDED TABLE SIZE: 705 POINTS
TCL: Setting parameter alchLambda2 to 0.8499999999999999
Info: NONBONDED TABLE R-SQUARED SPACING: 0.0625
Info: NONBONDED TABLE SIZE: 705 POINTS
TCL: Running for 1500000 steps
ETITLE: TS BOND ANGLE DIHED IMPRP ELECT VDW BOUNDARY MISC KINETIC TOTAL TEMP POTENTIAL TOTALAVG TEMPAVG PRESSURE GPRESSURE VOLUME PRESSAVG GPRESSAVG
ENERGY: 0 3.2938 2.5775 2.3055 0.0000 -10698.0188 1430.0552 0.0000 0.0000 1757.8446 -7501.9422 298.3935 -9259.7868 -7501.9422 298.3935 -157.9774 -64.3980 30819.1308 -157.9774 -64.3980
ENERGY: 300000 2.6390 2.2593 1.5221 0.0000 -10588.3618 1414.4334 0.0000 0.0000 1767.2784 -7400.2294 299.9949 -9167.5078 -7487.6249 300.1133 -262.5010 -178.7490 30948.7770 -317.4254 -232.8042
ENERGY: 600000 4.3516 4.4283 2.4847 0.0000 -10846.0312 1500.8804 0.0000 0.0000 1763.5712 -7570.3151 299.3656 -9333.8863 -7528.2247 299.4233 212.3896 269.3290 30434.6522 -396.2058 -303.1322
ENERGY: 900000 4.0654 1.0221 3.2338 0.0000 -10889.1035 1516.5067 0.0000 0.0000 1752.7586 -7611.5169 297.5302 -9364.2755 -7533.9933 297.8390 464.8600 546.8575 30228.3914 -254.6117 -171.6010
ENERGY: 1200000 1.3150 3.6872 2.4517 0.0000 -10557.9829 1347.0252 0.0000 0.0000 1784.9150 -7418.5888 302.9887 -9203.5039 -7533.9094 297.2661 -404.1487 -383.4091 30366.6958 -231.2028 -150.2996
ENERGY: 1500000 3.8903 3.3900 3.2529 0.0000 -10662.9793 1380.7451 0.0000 0.0000 1729.5074 -7542.1935 293.5833 -9271.7009 -7533.4899 297.8074 -283.0352 -272.1657 30605.2249 -224.0576 -149.2731
TCL: Running FEP window   4: Lambda1 0.8499999999999999 Lambda2 0.7999999999999998 [dLambda -0.050000000000000044]
TCL: Setting parameter firsttimestep to 0
TCL: Setting parameter alchLambda to 0.8499999999999999
Info: NONBONDED TABLE R-SQUARED SPACING: 0.0625
Info: NONBONDED TABLE SIZE: 705 POINTS
TCL: Setting parameter alchLambda2 to 0.7999999999999998
Info: NONBONDED TABLE R-SQUARED SPACING: 0.0625
Info: NONBONDED TABLE SIZE: 705 POINTS
TCL: Running for 1500000 steps
ETITLE: TS BOND ANGLE DIHED IMPRP ELECT VDW BOUNDARY MISC KINETIC TOTAL TEMP POTENTIAL TOTALAVG TEMPAVG PRESSURE GPRESSURE VOLUME PRESSAVG GPRESSAVG
ENERGY: 0 3.8903 3.3900 3.2529 0.0000 -10659.8850 1379.5422 0.0000 0.0000 1728.6683 -7541.1413 293.4409 -9269.8096 -7541.1413 293.4409 -374.2558 -290.3574 30605.2249 -374.2558 -290.3574
ENERGY: 300000 3.6824 1.5197 4.3386 0.0000 -10670.0323 1388.5224 0.0000 0.0000 1788.4041 -7483.5651 303.5810 -9271.9692 -7558.6681 295.6494 -637.2942 -564.2713 31182.0738 -302.7620 -238.4072
ENERGY: 600000 4.6021 5.4416 5.1095 0.0000 -10735.7535 1442.6222 0.0000 0.0000 1707.9317 -7570.0463 289.9208 -9277.9781 -7545.1967 295.4821 -112.5526 -85.3745 30367.3881 -314.6219 -250.6678
ENERGY: 900000 2.4968 3.9332 2.0835 0.0000 -10856.4089 1494.7004 0.0000 0.0000 1792.6538 -7560.5411 304.3024 -9353.1949 -7544.1528 296.6889 497.7840 549.4481 30114.9735 -162.3286 -93.1251
ENERGY: 1200000 4.8767 4.3186 4.6072 0.0000 -10705.9503 1393.4512 0.0000 0.0000 1757.6198 -7541.0768 298.3554 -9298.6966 -7544.5738 296.8371 -585.3966 -509.2458 30573.7638 -212.4804 -147.7737
ENERGY: 1500000 6.4770 3.6088 2.6010 0.0000 -10654.6584 1381.6081 0.0000 0.0000 1808.5328 -7451.8308 306.9978 -9260.3635 -7547.1764 297.5920 -406.6592 -388.9019 30456.7686 -265.5435 -199.2547
TCL: Running FEP window   5: Lambda1 0.7999999999999998 Lambda2 0.7499999999999998 [dLambda -0.050000000000000044]
TCL: Setting parameter firsttimestep to 0
TCL: Setting parameter alchLambda to 0.7999999999999998
Info: NONBONDED TABLE R-SQUARED SPACING: 0.0625
Info: NONBONDED TABLE SIZE: 705 POINTS
TCL: Setting parameter alchLambda2 to 0.7499999999999998
Info: NONBONDED TABLE R-SQUARED SPACING: 0.0625
Info: NONBONDED TABLE SIZE: 705 POINTS
TCL: Running for 1500000 steps
ETITLE: TS BOND ANGLE DIHED IMPRP ELECT VDW BOUNDARY MISC KINETIC TOTAL TEMP POTENTIAL TOTALAVG TEMPAVG PRESSURE GPRESSURE VOLUME PRESSAVG GPRESSAVG
ENERGY: 0 6.4769 3.6088 2.6010 0.0000 -10652.3434 1381.4164 0.0000 0.0000 1807.6806 -7450.5597 306.8532 -9258.2403 -7450.5597 306.8532 -482.0382 -395.5181 30456.7686 -482.0382 -395.5181
ENERGY: 300000 3.0773 3.1772 3.2884 0.0000 -10574.6565 1338.8476 0.0000 0.0000 1745.6246 -7480.6415 296.3192 -9226.2661 -7488.2855 302.1366 -587.7966 -517.2624 30451.2267 -375.9233 -296.4363
ENERGY: 600000 1.5083 4.7224 2.5682 0.0000 -10503.8321 1293.4948 0.0000 0.0000 1818.1694 -7383.3690 308.6337 -9201.5384 -7476.6450 302.1044 -744.2227 -740.1379 30613.8346 -394.0123 -327.8679
ENERGY: 900000 3.4904 2.8616 1.9436 0.0000 -10817.9819 1490.6694 0.0000 0.0000 1762.1333 -7556.8835 299.1216 -9319.0169 -7490.3732 301.9282 235.1883 257.1026 30058.6775 -278.3877 -223.2116
ENERGY: 1200000 1.8689 1.9375 3.9753 0.0000 -10670.7623 1407.1047 0.0000 0.0000 1703.7718 -7552.1040 289.2147 -9255.8758 -7503.0195 300.2244 -243.6193 -190.7747 30747.7644 -240.5831 -188.0712
ENERGY: 1500000 2.9239 2.9635 3.9868 0.0000 -10634.2936 1371.1308 0.0000 0.0000 1824.4558 -7428.8328 309.7008 -9253.2886 -7500.1596 300.7534 -486.7473 -395.8967 30542.1850 -248.4565 -187.4723
TCL: Running FEP window   6: Lambda1 0.7499999999999998 Lambda2 0.6999999999999997 [dLambda -0.050000000000000044]
TCL: Setting parameter firsttimestep to 0
TCL: Setting parameter alchLambda to 0.7499999999999998
Info: NONBONDED TABLE R-SQUARED SPACING: 0.0625
Info: NONBONDED TABLE SIZE: 705 POINTS
TCL: Setting parameter alchLambda2 to 0.6999999999999997
Info: NONBONDED TABLE R-SQUARED SPACING: 0.0625
Info: NONBONDED TABLE SIZE: 705 POINTS
TCL: Running for 1500000 steps
ETITLE: TS BOND ANGLE DIHED IMPRP ELECT VDW BOUNDARY MISC KINETIC TOTAL TEMP POTENTIAL TOTALAVG TEMPAVG PRESSURE GPRESSURE VOLUME PRESSAVG GPRESSAVG
ENERGY: 0 2.9239 2.9635 3.9868 0.0000 -10632.8428 1370.7944 0.0000 0.0000 1823.5506 -7428.6236 309.5471 -9252.1742 -7428.6236 309.5471 -491.2840 -404.9033 30542.1850 -491.2840 -404.9033
ENERGY: 300000 2.5804 1.8971 3.1312 0.0000 -10711.7956 1417.1379 0.0000 0.0000 1779.0458 -7508.0033 301.9924 -9287.0491 -7500.9289 303.0676 -111.7898 -83.5608 30567.6520 -393.5121 -344.7018
ENERGY: 600000 3.5554 8.0286 3.8378 0.0000 -10613.0367 1343.1764 0.0000 0.0000 1792.6424 -7461.7961 304.3005 -9254.4385 -7501.0336 303.0221 -630.4464 -605.5196 30717.1365 -496.4303 -440.3071
ENERGY: 900000 2.2787 5.3214 3.8912 0.0000 -10686.9919 1353.7451 0.0000 0.0000 1790.9936 -7530.7619 304.0206 -9321.7555 -7510.7762 301.2392 -835.8384 -772.5132 30681.7981 -398.5078 -346.0784
ENERGY: 1200000 1.9206 4.3228 5.1111 0.0000 -10841.0140 1509.5735 0.0000 0.0000 1776.7659 -7543.3201 301.6054 -9320.0861 -7510.6819 300.7672 549.6898 572.7348 30470.7724 -359.7230 -304.0814
ENERGY: 1500000 2.5955 2.9541 5.8643 0.0000 -10759.7883 1524.2156 0.0000 0.0000 1732.4670 -7491.6917 294.0857 -9224.1587 -7518.5284 299.7958 470.3340 501.9528 31097.1239 -248.9893 -192.8084
TCL: Running FEP window   7: Lambda1 0.6999999999999997 Lambda2 0.6499999999999997 [dLambda -0.050000000000000044]
TCL: Setting parameter firsttimestep to 0
TCL: Setting parameter alchLambda to 0.6999999999999997
Info: NONBONDED TABLE R-SQUARED SPACING: 0.0625
Info: NONBONDED TABLE SIZE: 705 POINTS
TCL: Setting parameter alchLambda2 to 0.6499999999999997
Info: NONBONDED TABLE R-SQUARED SPACING: 0.0625
Info: NONBONDED TABLE SIZE: 705 POINTS
TCL: Running for 1500000 steps
ETITLE: TS BOND ANGLE DIHED IMPRP ELECT VDW BOUNDARY MISC KINETIC TOTAL TEMP POTENTIAL TOTALAVG TEMPAVG PRESSURE GPRESSURE VOLUME PRESSAVG GPRESSAVG
ENERGY: 0 2.5955 2.9541 5.8643 0.0000 -10758.6447 1524.0932 0.0000 0.0000 1731.5755 -7491.5621 293.9344 -9223.1376 -7491.5621 293.9344 394.8822 490.3051 31097.1239 394.8822 490.3051
ENERGY: 300000 4.3136 8.0279 5.6822 0.0000 -10776.8663 1484.8794 0.0000 0.0000 1777.7887 -7496.1744 301.7790 -9273.9631 -7496.1719 299.4126 479.5437 581.6417 30370.0472 125.1726 187.9446
ENERGY: 600000 1.9087 4.6286 6.8290 0.0000 -10749.5772 1468.1378 0.0000 0.0000 1809.9254 -7458.1476 307.2342 -9268.0730 -7494.9394 301.1060 246.7209 365.8719 30546.5552 58.0184 129.5907
ENERGY: 900000 4.0062 3.8688 3.5319 0.0000 -10787.8499 1477.0579 0.0000 0.0000 1808.7315 -7490.6535 307.0316 -9299.3850 -7504.3137 302.1238 296.7687 315.2265 30338.9126 177.7046 235.7450
ENERGY: 1200000 1.6951 3.8354 3.4455 0.0000 -10720.2865 1407.5420 0.0000 0.0000 1771.3698 -7532.3986 300.6894 -9303.7685 -7511.0478 302.0837 -186.8334 -203.3428 30076.4802 118.2246 160.4540
ENERGY: 1500000 1.4204 1.6665 0.9756 0.0000 -10631.5438 1378.3158 0.0000 0.0000 1718.8792 -7530.2863 291.7792 -9249.1655 -7515.3598 301.2861 -461.8993 -314.1614 30850.5476 54.0941 111.8081
TCL: Running FEP window   8: Lambda1 0.6499999999999997 Lambda2 0.5999999999999996 [dLambda -0.050000000000000044]
TCL: Setting parameter firsttimestep to 0
TCL: Setting parameter alchLambda to 0.6499999999999997
Info: NONBONDED TABLE R-SQUARED SPACING: 0.0625
Info: NONBONDED TABLE SIZE: 705 POINTS
TCL: Setting parameter alchLambda2 to 0.5999999999999996
Info: NONBONDED TABLE R-SQUARED SPACING: 0.0625
Info: NONBONDED TABLE SIZE: 705 POINTS
TCL: Running for 1500000 steps
ETITLE: TS BOND ANGLE DIHED IMPRP ELECT VDW BOUNDARY MISC KINETIC TOTAL TEMP POTENTIAL TOTALAVG TEMPAVG PRESSURE GPRESSURE VOLUME PRESSAVG GPRESSAVG
ENERGY: 0 1.4203 1.6665 0.9756 0.0000 -10630.0382 1377.8160 0.0000 0.0000 1717.9756 -7530.1841 291.6258 -9248.1597 -7530.1841 291.6258 -407.8101 -321.0300 30850.5476 -407.8101 -321.0300
ENERGY: 300000 3.1815 6.2965 1.9155 0.0000 -10703.8063 1427.1124 0.0000 0.0000 1761.4258 -7503.8746 299.0014 -9265.3004 -7473.6175 302.1608 -209.4366 -203.7639 30566.7846 -189.0341 -135.6182
ENERGY: 600000 0.8102 1.2667 3.8679 0.0000 -10803.9789 1473.3065 0.0000 0.0000 1794.6157 -7530.1119 304.6354 -9324.7275 -7517.4146 301.6129 219.5721 271.4370 30125.5475 29.3200 81.8100
ENERGY: 900000 1.9500 5.1664 1.9564 0.0000 -10448.4307 1254.8047 0.0000 0.0000 1784.9637 -7399.5895 302.9970 -9184.5532 -7509.8704 302.1650 -1238.4601 -1161.0943 30786.1723 -151.3146 -90.4193
ENERGY: 1200000 3.1953 4.6897 3.9374 0.0000 -10740.8399 1429.3184 0.0000 0.0000 1710.4139 -7589.2852 290.3422 -9299.6992 -7528.7974 300.8115 -104.8342 -79.7157 30280.5150 -126.9155 -68.0994
ENERGY: 1500000 5.5294 7.1678 2.1172 0.0000 -10773.5396 1385.6726 0.0000 0.0000 1838.2653 -7534.7873 312.0449 -9373.0526 -7534.3436 301.0595 -835.2507 -693.5022 30458.5353 -166.2142 -109.0980
TCL: Running FEP window   9: Lambda1 0.5999999999999996 Lambda2 0.5499999999999996 [dLambda -0.050000000000000044]
TCL: Setting parameter firsttimestep to 0
TCL: Setting parameter alchLambda to 0.5999999999999996
Info: NONBONDED TABLE R-SQUARED SPACING: 0.0625
Info: NONBONDED TABLE SIZE: 705 POINTS
TCL: Setting parameter alchLambda2 to 0.5499999999999996
Info: NONBONDED TABLE R-SQUARED SPACING: 0.0625
Info: NONBONDED TABLE SIZE: 705 POINTS
TCL: Running for 1500000 steps
ETITLE: TS BOND ANGLE DIHED IMPRP ELECT VDW BOUNDARY MISC KINETIC TOTAL TEMP POTENTIAL TOTALAVG TEMPAVG PRESSURE GPRESSURE VOLUME PRESSAVG GPRESSAVG
ENERGY: 0 5.5294 7.1678 2.1172 0.0000 -10772.8207 1386.2776 0.0000 0.0000 1837.4185 -7534.3102 311.9012 -9371.7287 -7534.3102 311.9012 -785.2012 -695.0739 30458.5353 -785.2012 -695.0739
ENERGY: 300000 3.5115 2.6948 2.0523 0.0000 -10742.0613 1518.7848 0.0000 0.0000 1711.8040 -7503.2138 290.5782 -9215.0178 -7529.5428 300.9192 1010.5308 1012.1167 30214.5401 -3.4808 54.2401
ENERGY: 600000 1.7641 2.5198 7.6560 0.0000 -10646.5890 1381.6994 0.0000 0.0000 1804.6339 -7448.3158 306.3360 -9252.9498 -7517.4043 302.2959 -513.2126 -452.5035 30845.6933 -172.8870 -122.7397
ENERGY: 900000 2.7755 3.7310 3.9409 0.0000 -10836.5328 1531.2088 0.0000 0.0000 1729.3345 -7565.5423 293.5539 -9294.8767 -7524.1979 301.3082 763.3769 771.6030 30271.1577 -87.7285 -40.9537
ENERGY: 1200000 0.8578 2.6826 9.0794 0.0000 -10865.9783 1453.8573 0.0000 0.0000 1715.1201 -7684.3812 291.1411 -9399.5013 -7531.8894 301.6529 -304.0107 -233.5919 30316.0763 -106.4346 -57.4174
ENERGY: 1500000 3.1396 3.3481 3.8759 0.0000 -10722.1040 1386.3491 0.0000 0.0000 1679.6610 -7645.7304 285.1219 -9325.3914 -7538.0811 300.3150 -527.6706 -427.2656 30209.6642 -84.5729 -30.7433
TCL: Running FEP window  10: Lambda1 0.5499999999999996 Lambda2 0.4999999999999996 [dLambda -0.04999999999999999]
TCL: Setting parameter firsttimestep to 0
TCL: Setting parameter alchLambda to 0.5499999999999996
Info: NONBONDED TABLE R-SQUARED SPACING: 0.0625
Info: NONBONDED TABLE SIZE: 705 POINTS
TCL: Setting parameter alchLambda2 to 0.4999999999999996
Info: NONBONDED TABLE R-SQUARED SPACING: 0.0625
Info: NONBONDED TABLE SIZE: 705 POINTS
TCL: Running for 1500000 steps
ETITLE: TS BOND ANGLE DIHED IMPRP ELECT VDW BOUNDARY MISC KINETIC TOTAL TEMP POTENTIAL TOTALAVG TEMPAVG PRESSURE GPRESSURE VOLUME PRESSAVG GPRESSAVG
ENERGY: 0 3.1396 3.3481 3.8759 0.0000 -10721.7112 1386.7976 0.0000 0.0000 1678.7659 -7645.7841 284.9699 -9324.5500 -7645.7841 284.9699 -500.1641 -428.2899 30209.6642 -500.1641 -428.2899
ENERGY: 300000 1.5307 3.0753 1.8775 0.0000 -10768.4035 1401.0987 0.0000 0.0000 1697.7554 -7663.0659 288.1934 -9360.8213 -7595.7866 292.2924 -336.8890 -275.5426 30150.1914 -443.4029 -387.7542
ENERGY: 600000 4.6299 4.4614 8.3100 0.0000 -10712.8026 1408.3688 0.0000 0.0000 1778.3995 -7508.6329 301.8827 -9287.0325 -7556.5464 297.7561 -495.2885 -390.3424 30530.8239 -323.4827 -277.7780
ENERGY: 900000 2.9314 2.8278 2.6024 0.0000 -10794.2722 1421.3581 0.0000 0.0000 1754.0155 -7610.5372 297.7435 -9364.5527 -7553.9374 298.3601 -256.4295 -173.8549 30174.3823 -290.4413 -246.2247
ENERGY: 1200000 1.4448 3.3641 1.9426 0.0000 -10738.6994 1481.8912 0.0000 0.0000 1763.8992 -7486.1574 299.4213 -9250.0567 -7537.6298 298.7340 98.4448 185.0029 30847.3545 -170.8990 -116.1274
ENERGY: 1500000 3.2833 2.5404 3.6839 0.0000 -10625.9014 1376.7212 0.0000 0.0000 1811.2452 -7428.4275 307.4583 -9239.6727 -7528.3525 299.0097 -276.5610 -259.7328 30503.7165 -167.9741 -107.9324
TCL: Running FEP window  11: Lambda1 0.4999999999999996 Lambda2 0.4499999999999996 [dLambda -0.04999999999999999]
TCL: Setting parameter firsttimestep to 0
TCL: Setting parameter alchLambda to 0.4999999999999996
Info: NONBONDED TABLE R-SQUARED SPACING: 0.0625
Info: NONBONDED TABLE SIZE: 705 POINTS
TCL: Setting parameter alchLambda2 to 0.4499999999999996
Info: NONBONDED TABLE R-SQUARED SPACING: 0.0625
Info: NONBONDED TABLE SIZE: 705 POINTS
TCL: Running for 1500000 steps
ETITLE: TS BOND ANGLE DIHED IMPRP ELECT VDW BOUNDARY MISC KINETIC TOTAL TEMP POTENTIAL TOTALAVG TEMPAVG PRESSURE GPRESSURE VOLUME PRESSAVG GPRESSAVG
ENERGY: 0 3.2833 2.5404 3.6839 0.0000 -10625.6202 1377.0742 0.0000 0.0000 1810.3746 -7428.6638 307.3105 -9239.0384 -7428.6638 307.3105 -342.2501 -262.2835 30503.7165 -342.2501 -262.2835
ENERGY: 300000 3.5644 3.1655 5.0284 0.0000 -10915.5643 1540.2214 0.0000 0.0000 1732.3918 -7631.1928 294.0729 -9363.5846 -7547.7301 301.1817 471.5663 496.4380 30348.6802 -83.9842 -20.6653
ENERGY: 600000 3.4626 3.6687 1.7364 0.0000 -10705.0199 1431.7087 0.0000 0.0000 1773.1255 -7491.3180 300.9875 -9264.4435 -7542.6696 300.5693 197.4091 263.8731 29958.1410 -110.1104 -46.7671
ENERGY: 900000 1.4739 2.4202 3.1453 0.0000 -10821.2945 1476.1796 0.0000 0.0000 1774.7224 -7563.3530 301.2585 -9338.0754 -7552.7884 300.0188 -88.0234 53.1222 30585.1867 -79.1024 -13.4569
ENERGY: 1200000 6.6226 7.1430 5.0857 0.0000 -10805.5606 1460.3181 0.0000 0.0000 1748.4349 -7577.9563 296.7963 -9326.3912 -7565.2053 298.7139 55.5348 113.6082 30095.5998 -113.7137 -46.3604
ENERGY: 1500000 4.0343 3.6083 3.7858 0.0000 -10717.1137 1372.6839 0.0000 0.0000 1776.6893 -7556.3121 301.5924 -9333.0013 -7557.0089 299.5582 -880.1474 -824.7628 31090.2995 -183.3415 -117.8824
TCL: Running FEP window  12: Lambda1 0.4499999999999996 Lambda2 0.39999999999999963 [dLambda -0.04999999999999999]
TCL: Setting parameter firsttimestep to 0
TCL: Setting parameter alchLambda to 0.4499999999999996
Info: NONBONDED TABLE R-SQUARED SPACING: 0.0625
Info: NONBONDED TABLE SIZE: 705 POINTS
TCL: Setting parameter alchLambda2 to 0.39999999999999963
Info: NONBONDED TABLE R-SQUARED SPACING: 0.0625
Info: NONBONDED TABLE SIZE: 705 POINTS
TCL: Running for 1500000 steps
ETITLE: TS BOND ANGLE DIHED IMPRP ELECT VDW BOUNDARY MISC KINETIC TOTAL TEMP POTENTIAL TOTALAVG TEMPAVG PRESSURE GPRESSURE VOLUME PRESSAVG GPRESSAVG
ENERGY: 0 4.0343 3.6083 3.7858 0.0000 -10717.1135 1372.8215 0.0000 0.0000 1775.8603 -7557.0032 301.4517 -9332.8636 -7557.0032 301.4517 -918.4419 -830.9988 31090.2995 -918.4419 -830.9988
ENERGY: 300000 3.9566 3.6641 3.0306 0.0000 -10742.1437 1383.6962 0.0000 0.0000 1793.1178 -7554.6784 304.3812 -9347.7962 -7501.7097 301.8665 -423.2629 -404.3751 30330.7512 -412.2764 -352.4411
ENERGY: 600000 1.4422 6.4760 4.6920 0.0000 -10818.4839 1521.5802 0.0000 0.0000 1797.7684 -7486.5251 305.1706 -9284.2935 -7508.1837 301.7013 642.7680 635.2267 30535.7079 -54.4456 8.5517
ENERGY: 900000 2.7233 3.6194 2.8113 0.0000 -10691.7140 1448.6948 0.0000 0.0000 1737.9518 -7495.9134 295.0167 -9233.8652 -7496.3247 300.6324 367.9286 440.4168 30092.6668 -5.2109 50.5946
ENERGY: 1200000 3.7299 3.4123 4.5029 0.0000 -10757.7485 1430.6253 0.0000 0.0000 1832.6116 -7482.8664 311.0852 -9315.4780 -7514.4517 300.2779 -402.0170 -306.9936 30664.6412 14.1159 73.4116
ENERGY: 1500000 2.6055 2.3188 5.0108 0.0000 -10761.6866 1430.4017 0.0000 0.0000 1826.9642 -7494.3856 310.1266 -9321.3498 -7509.7971 301.2939 -129.3899 -144.6922 30254.0785 25.3082 74.5437
TCL: Running FEP window  13: Lambda1 0.39999999999999963 Lambda2 0.34999999999999964 [dLambda -0.04999999999999999]
TCL: Setting parameter firsttimestep to 0
TCL: Setting parameter alchLambda to 0.39999999999999963
Info: NONBONDED TABLE R-SQUARED SPACING: 0.0625
Info: NONBONDED TABLE SIZE: 705 POINTS
TCL: Setting parameter alchLambda2 to 0.34999999999999964
Info: NONBONDED TABLE R-SQUARED SPACING: 0.0625
Info: NONBONDED TABLE SIZE: 705 POINTS
TCL: Running for 1500000 steps
ETITLE: TS BOND ANGLE DIHED IMPRP ELECT VDW BOUNDARY MISC KINETIC TOTAL TEMP POTENTIAL TOTALAVG TEMPAVG PRESSURE GPRESSURE VOLUME PRESSAVG GPRESSAVG
ENERGY: 0 2.6055 2.3188 5.0108 0.0000 -10761.6864 1431.0997 0.0000 0.0000 1826.0718 -7494.5799 309.9751 -9320.6517 -7494.5799 309.9751 -219.2177 -142.2681 30254.0785 -219.2177 -142.2681
ENERGY: 300000 1.8134 4.9203 3.5563 0.0000 -10759.6213 1445.3714 0.0000 0.0000 1815.3900 -7488.5700 308.1618 -9303.9599 -7451.1637 310.9988 -164.3373 -116.3543 30557.6347 58.8029 109.4040
ENERGY: 600000 9.6406 5.0402 1.2850 0.0000 -10729.6811 1409.5075 0.0000 0.0000 1769.3827 -7534.8251 300.3521 -9304.2078 -7481.3363 306.5742 -735.0541 -720.2476 30771.9717 -287.8952 -236.6822
ENERGY: 900000 15.4835 2.0743 6.4182 0.0000 -10562.3102 1392.2845 0.0000 0.0000 1822.9392 -7323.1104 309.4433 -9146.0497 -7479.0772 305.4053 -202.2412 -170.2617 30472.8329 -311.2720 -265.2252
ENERGY: 1200000 2.7582 4.2519 2.0730 0.0000 -10733.6857 1424.6778 0.0000 0.0000 1753.3401 -7546.5847 297.6289 -9299.9248 -7488.1071 304.1801 -160.6154 -117.8199 30643.3783 -278.5748 -227.7159
ENERGY: 1500000 1.8154 4.2193 3.1484 0.0000 -10595.6901 1363.5310 0.0000 0.0000 1751.3914 -7471.5846 297.2981 -9222.9760 -7487.7142 303.6734 -335.4589 -302.6403 30424.0927 -215.2026 -163.0424
TCL: Running FEP window  14: Lambda1 0.34999999999999964 Lambda2 0.29999999999999966 [dLambda -0.04999999999999999]
TCL: Setting parameter firsttimestep to 0
TCL: Setting parameter alchLambda to 0.34999999999999964
Info: NONBONDED TABLE R-SQUARED SPACING: 0.0625
Info: NONBONDED TABLE SIZE: 705 POINTS
TCL: Setting parameter alchLambda2 to 0.29999999999999966
Info: NONBONDED TABLE R-SQUARED SPACING: 0.0625
Info: NONBONDED TABLE SIZE: 705 POINTS
TCL: Running for 1500000 steps
ETITLE: TS BOND ANGLE DIHED IMPRP ELECT VDW BOUNDARY MISC KINETIC TOTAL TEMP POTENTIAL TOTALAVG TEMPAVG PRESSURE GPRESSURE VOLUME PRESSAVG GPRESSAVG
ENERGY: 0 1.8154 4.2193 3.1484 0.0000 -10595.6892 1363.1450 0.0000 0.0000 1750.5499 -7472.8113 297.1553 -9223.3612 -7472.8113 297.1553 -390.6415 -312.7453 30424.0927 -390.6415 -312.7453
ENERGY: 300000 3.4687 1.3901 3.8337 0.0000 -10673.6799 1425.1491 0.0000 0.0000 1776.2789 -7463.5593 301.5228 -9239.8382 -7529.2104 300.4469 176.5780 229.7153 30192.7992 -227.1761 -165.2640
ENERGY: 600000 3.4994 2.5864 3.4128 0.0000 -10610.2870 1292.1667 0.0000 0.0000 1757.5648 -7551.0569 298.3460 -9308.6217 -7527.5802 302.1167 -1355.5125 -1300.1436 30406.5394 -277.1795 -215.0760
ENERGY: 900000 3.6135 3.6534 1.8235 0.0000 -10801.8704 1441.1561 0.0000 0.0000 1800.3706 -7551.2533 305.6123 -9351.6239 -7521.7944 302.3326 88.5728 128.9982 30166.3400 -136.8447 -81.8727
ENERGY: 1200000 4.4699 3.5452 2.4778 0.0000 -10612.7643 1330.4553 0.0000 0.0000 1747.0210 -7524.7950 296.5562 -9271.8160 -7513.1265 302.1905 -1080.6880 -1043.8013 30821.7673 -196.5345 -140.1874
ENERGY: 1500000 1.3724 6.4044 2.7453 0.0000 -10737.9980 1467.4115 0.0000 0.0000 1782.6058 -7477.4587 302.5967 -9260.0644 -7510.3329 302.0739 -1.5191 64.2002 31014.0638 -166.1940 -108.0260
TCL: Running FEP window  15: Lambda1 0.29999999999999966 Lambda2 0.24999999999999967 [dLambda -0.04999999999999999]
TCL: Setting parameter firsttimestep to 0
TCL: Setting parameter alchLambda to 0.29999999999999966
Info: NONBONDED TABLE R-SQUARED SPACING: 0.0625
Info: NONBONDED TABLE SIZE: 705 POINTS
TCL: Setting parameter alchLambda2 to 0.24999999999999967
Info: NONBONDED TABLE R-SQUARED SPACING: 0.0625
Info: NONBONDED TABLE SIZE: 705 POINTS
TCL: Running for 1500000 steps
ETITLE: TS BOND ANGLE DIHED IMPRP ELECT VDW BOUNDARY MISC KINETIC TOTAL TEMP POTENTIAL TOTALAVG TEMPAVG PRESSURE GPRESSURE VOLUME PRESSAVG GPRESSAVG
ENERGY: 0 1.3724 6.4044 2.7453 0.0000 -10737.9965 1467.9582 0.0000 0.0000 1781.7089 -7477.8073 302.4445 -9259.5162 -7477.8073 302.4445 -18.8881 64.6265 31014.0638 -18.8881 64.6265
ENERGY: 300000 5.0091 3.4528 2.2282 0.0000 -10687.4743 1472.9408 0.0000 0.0000 1737.0085 -7466.8349 294.8566 -9203.8434 -7500.8031 299.2039 312.8912 339.1147 30451.4672 -93.9287 -15.7809
ENERGY: 600000 1.7014 3.4903 5.1050 0.0000 -10678.1067 1415.4307 0.0000 0.0000 1821.0462 -7431.3332 309.1220 -9252.3793 -7475.4414 301.7799 -456.5009 -370.7132 31193.1562 -118.4812 -38.2657
ENERGY: 900000 3.3616 4.6242 3.5550 0.0000 -10960.9866 1564.8756 0.0000 0.0000 1692.9831 -7691.5871 287.3833 -9384.5702 -7498.2912 300.4273 731.8030 839.3612 29803.9156 -160.2433 -86.9400
ENERGY: 1200000 4.9839 3.2367 1.4530 0.0000 -10599.0722 1337.6324 0.0000 0.0000 1781.1776 -7470.5887 302.3543 -9251.7663 -7496.5787 300.6212 -871.7570 -783.5942 30671.8158 -151.8928 -79.0966
ENERGY: 1500000 2.2894 3.9146 2.0915 0.0000 -10714.9550 1405.8765 0.0000 0.0000 1732.7184 -7568.0645 294.1284 -9300.7829 -7511.1061 299.8831 -379.6583 -335.4635 30218.6892 -200.3223 -136.2710
TCL: Running FEP window  16: Lambda1 0.24999999999999967 Lambda2 0.19999999999999968 [dLambda -0.04999999999999999]
TCL: Setting parameter firsttimestep to 0
TCL: Setting parameter alchLambda to 0.24999999999999967
Info: NONBONDED TABLE R-SQUARED SPACING: 0.0625
Info: NONBONDED TABLE SIZE: 705 POINTS
TCL: Setting parameter alchLambda2 to 0.19999999999999968
Info: NONBONDED TABLE R-SQUARED SPACING: 0.0625
Info: NONBONDED TABLE SIZE: 705 POINTS
TCL: Running for 1500000 steps
ETITLE: TS BOND ANGLE DIHED IMPRP ELECT VDW BOUNDARY MISC KINETIC TOTAL TEMP POTENTIAL TOTALAVG TEMPAVG PRESSURE GPRESSURE VOLUME PRESSAVG GPRESSAVG
ENERGY: 0 2.2894 3.9146 2.0915 0.0000 -10714.9542 1406.1713 0.0000 0.0000 1731.8217 -7568.6656 293.9762 -9300.4873 -7568.6656 293.9762 -414.5345 -338.7788 30218.6892 -414.5345 -338.7788
ENERGY: 300000 3.3290 6.2354 2.3077 0.0000 -10744.1024 1465.3763 0.0000 0.0000 1791.4163 -7475.4377 304.0923 -9266.8539 -7466.1112 303.2747 39.6355 106.8728 30451.0193 -238.9471 -174.4958
ENERGY: 600000 4.3061 3.9009 1.7763 0.0000 -10609.2771 1358.5604 0.0000 0.0000 1739.5075 -7501.2258 295.2808 -9240.7334 -7493.6199 300.7101 -710.3872 -608.7194 30392.5389 -404.9214 -333.6812
ENERGY: 900000 3.8218 3.6082 4.6125 0.0000 -10668.2990 1358.3852 0.0000 0.0000 1763.4117 -7534.4596 299.3385 -9297.8713 -7500.1844 300.3762 -662.4210 -583.5356 29788.6259 -400.7804 -330.1782
ENERGY: 1200000 4.5805 2.8833 3.5498 0.0000 -10795.6348 1474.9489 0.0000 0.0000 1782.1846 -7527.4877 302.5253 -9309.6724 -7501.7156 301.8536 -136.3142 -179.6810 30371.5136 -267.5946 -205.0150
ENERGY: 1500000 2.2841 4.2859 1.2431 0.0000 -10622.6133 1339.1983 0.0000 0.0000 1774.1033 -7501.4987 301.1534 -9275.6020 -7501.5720 301.7694 -937.2023 -893.6094 30682.4859 -304.0418 -236.7764
TCL: Running FEP window  17: Lambda1 0.19999999999999968 Lambda2 0.1499999999999997 [dLambda -0.04999999999999999]
TCL: Setting parameter firsttimestep to 0
TCL: Setting parameter alchLambda to 0.19999999999999968
Info: NONBONDED TABLE R-SQUARED SPACING: 0.0625
Info: NONBONDED TABLE SIZE: 705 POINTS
TCL: Setting parameter alchLambda2 to 0.1499999999999997
Info: NONBONDED TABLE R-SQUARED SPACING: 0.0625
Info: NONBONDED TABLE SIZE: 705 POINTS
TCL: Running for 1500000 steps
ETITLE: TS BOND ANGLE DIHED IMPRP ELECT VDW BOUNDARY MISC KINETIC TOTAL TEMP POTENTIAL TOTALAVG TEMPAVG PRESSURE GPRESSURE VOLUME PRESSAVG GPRESSAVG
ENERGY: 0 2.2841 4.2859 1.2431 0.0000 -10622.6129 1338.5832 0.0000 0.0000 1773.2386 -7502.9781 301.0067 -9276.2167 -7502.9781 301.0067 -988.4680 -899.0865 30682.4859 -988.4680 -899.0865
ENERGY: 300000 2.6865 2.1268 3.9216 0.0000 -10734.2444 1454.0306 0.0000 0.0000 1775.3222 -7496.1567 301.3604 -9271.4789 -7484.0560 300.5473 173.4610 195.6351 30858.7698 -38.4287 22.3064
ENERGY: 600000 1.3669 2.8587 3.8972 0.0000 -10613.4400 1336.4899 0.0000 0.0000 1773.7262 -7495.1012 301.0894 -9268.8274 -7482.1051 299.7921 -840.5734 -738.9984 30241.3563 -146.2884 -85.1392
ENERGY: 900000 3.8212 3.3655 3.4564 0.0000 -10710.8096 1455.6771 0.0000 0.0000 1801.2240 -7443.2654 305.7572 -9244.4894 -7472.8599 301.3992 2.1499 133.4571 30478.6650 -42.7589 33.0061
ENERGY: 1200000 1.6681 3.0049 2.4037 0.0000 -10913.0763 1499.1765 0.0000 0.0000 1748.5873 -7658.2358 296.8221 -9406.8231 -7493.6454 301.4702 -121.3361 -76.0702 30702.6405 -87.3453 -15.0838
ENERGY: 1500000 2.5910 4.1055 5.9687 0.0000 -10879.9618 1532.7347 0.0000 0.0000 1801.0317 -7533.5303 305.7245 -9334.5620 -7493.6552 301.7444 813.4320 796.8895 29810.2362 -91.2558 -29.7070
TCL: Running FEP window  18: Lambda1 0.1499999999999997 Lambda2 0.09999999999999969 [dLambda -0.05 ]
TCL: Setting parameter firsttimestep to 0
TCL: Setting parameter alchLambda to 0.1499999999999997
Info: NONBONDED TABLE R-SQUARED SPACING: 0.0625
Info: NONBONDED TABLE SIZE: 705 POINTS
TCL: Setting parameter alchLambda2 to 0.09999999999999969
Info: NONBONDED TABLE R-SQUARED SPACING: 0.0625
Info: NONBONDED TABLE SIZE: 705 POINTS
TCL: Running for 1500000 steps
ETITLE: TS BOND ANGLE DIHED IMPRP ELECT VDW BOUNDARY MISC KINETIC TOTAL TEMP POTENTIAL TOTALAVG TEMPAVG PRESSURE GPRESSURE VOLUME PRESSAVG GPRESSAVG
ENERGY: 0 2.5910 4.1055 5.9687 0.0000 -10879.9624 1532.8274 0.0000 0.0000 1800.1340 -7534.3358 305.5721 -9334.4698 -7534.3358 305.5721 714.4381 793.7725 29810.2362 714.4381 793.7725
ENERGY: 300000 3.0427 2.3825 3.2827 0.0000 -10744.0070 1393.5601 0.0000 0.0000 1768.8745 -7572.8645 300.2659 -9341.7390 -7529.7362 303.5255 -844.6677 -799.3682 30609.1968 -14.3334 55.7122
ENERGY: 600000 2.3014 3.1596 4.8972 0.0000 -10691.6166 1406.9359 0.0000 0.0000 1787.3909 -7486.9316 303.4090 -9274.3225 -7520.6830 300.6437 -565.5838 -524.0285 30909.4979 -100.9903 -50.3593
ENERGY: 900000 2.4296 3.0365 2.3614 0.0000 -10826.8432 1505.4066 0.0000 0.0000 1791.2383 -7522.3707 304.0621 -9313.6090 -7524.9226 299.8267 209.4922 309.3060 30139.3865 -91.3498 -41.4560
ENERGY: 1200000 3.0209 3.0693 2.3031 0.0000 -10945.6376 1598.6663 0.0000 0.0000 1727.5412 -7611.0368 293.2495 -9338.5780 -7527.8942 299.6731 1052.7199 1178.4000 30173.6125 -41.4888 8.4872
ENERGY: 1500000 2.0626 2.9076 4.9414 0.0000 -10644.7370 1403.2193 0.0000 0.0000 1770.5539 -7461.0522 300.5509 -9231.6061 -7522.1878 299.0643 -320.0551 -270.8423 30496.2869 -85.5295 -31.5971
TCL: Running FEP window  19: Lambda1 0.09999999999999969 Lambda2 0.049999999999999684 [dLambda -0.05 ]
TCL: Setting parameter firsttimestep to 0
TCL: Setting parameter alchLambda to 0.09999999999999969
Info: NONBONDED TABLE R-SQUARED SPACING: 0.0625
Info: NONBONDED TABLE SIZE: 705 POINTS
TCL: Setting parameter alchLambda2 to 0.049999999999999684
Info: NONBONDED TABLE R-SQUARED SPACING: 0.0625
Info: NONBONDED TABLE SIZE: 705 POINTS
TCL: Running for 1500000 steps
ETITLE: TS BOND ANGLE DIHED IMPRP ELECT VDW BOUNDARY MISC KINETIC TOTAL TEMP POTENTIAL TOTALAVG TEMPAVG PRESSURE GPRESSURE VOLUME PRESSAVG GPRESSAVG
ENERGY: 0 2.0626 2.9076 4.9414 0.0000 -10644.7369 1403.1709 0.0000 0.0000 1769.6389 -7462.0154 300.3956 -9231.6543 -7462.0154 300.3956 -340.2586 -274.6626 30496.2869 -340.2586 -274.6626
ENERGY: 300000 3.5842 3.4098 3.5971 0.0000 -10745.7653 1467.4070 0.0000 0.0000 1723.8753 -7543.8919 292.6273 -9267.7672 -7474.3887 298.4260 -294.2058 -177.1982 30961.3372 -353.7968 -268.4312
ENERGY: 600000 2.5697 2.3121 0.7695 0.0000 -10935.0861 1586.6799 0.0000 0.0000 1836.2578 -7506.4972 311.7041 -9342.7549 -7484.0096 301.7459 780.1190 789.8209 30291.4333 -158.2913 -87.7178
ENERGY: 900000 5.3372 1.5932 5.5700 0.0000 -10684.2379 1450.8011 0.0000 0.0000 1759.2903 -7461.6460 298.6389 -9220.9363 -7490.1905 301.9572 217.1336 273.9787 30201.9078 -98.7892 -35.3262
ENERGY: 1200000 1.4038 6.5881 4.2291 0.0000 -10817.8341 1520.7324 0.0000 0.0000 1768.6776 -7516.2031 300.2324 -9284.8807 -7493.9177 302.2924 581.1441 596.8385 30568.3887 -47.5504 16.5349
ENERGY: 1500000 6.5383 6.0731 0.5398 0.0000 -10672.5520 1425.4942 0.0000 0.0000 1742.9525 -7490.9540 295.8656 -9233.9065 -7499.4218 301.6136 -230.9545 -131.4223 30476.6227 -96.4230 -29.0840
TCL: Running FEP window  20: Lambda1 0.049999999999999684 Lambda2 0.0    [dLambda -0.049999999999999684]
TCL: Setting parameter firsttimestep to 0
TCL: Setting parameter alchLambda to 0.049999999999999684
Info: NONBONDED TABLE R-SQUARED SPACING: 0.0625
Info: NONBONDED TABLE SIZE: 705 POINTS
TCL: Setting parameter alchLambda2 to 0.0
Info: NONBONDED TABLE R-SQUARED SPACING: 0.0625
Info: NONBONDED TABLE SIZE: 705 POINTS
TCL: Running for 1500000 steps
ETITLE: TS BOND ANGLE DIHED IMPRP ELECT VDW BOUNDARY MISC KINETIC TOTAL TEMP POTENTIAL TOTALAVG TEMPAVG PRESSURE GPRESSURE VOLUME PRESSAVG GPRESSAVG
ENERGY: 0 6.5383 6.0731 0.5398 0.0000 -10672.5517 1424.8329 0.0000 0.0000 1742.0654 -7492.5021 295.7150 -9234.5675 -7492.5021 295.7150 -222.5797 -135.8823 30476.6227 -222.5797 -135.8823
ENERGY: 300000 4.7834 2.3425 3.7423 0.0000 -10592.6867 1357.7487 0.0000 0.0000 1787.3426 -7436.7273 303.4008 -9224.0698 -7474.5215 299.9165 -598.1545 -498.0282 30718.9286 -466.1754 -387.4664
ENERGY: 600000 2.9213 4.5610 3.3745 0.0000 -10729.2442 1463.4346 0.0000 0.0000 1817.3522 -7437.6007 308.4949 -9254.9529 -7471.3175 300.8829 195.1085 282.9776 30414.7409 -293.3537 -215.6576
ENERGY: 900000 1.0812 1.6013 4.2497 0.0000 -10836.9254 1495.2547 0.0000 0.0000 1687.1725 -7647.5661 286.3970 -9334.7386 -7515.9535 298.4222 -19.2480 78.1658 30622.6619 -449.1059 -368.4609
ENERGY: 1200000 3.7031 4.1794 2.7527 0.0000 -10675.0595 1413.6774 0.0000 0.0000 1714.5421 -7536.2049 291.0430 -9250.7470 -7514.8898 298.0465 -98.0691 5.1347 30355.1284 -312.0721 -228.9571
ENERGY: 1500000 4.9903 2.5877 1.8826 0.0000 -10687.8672 1480.7716 0.0000 0.0000 1744.7370 -7452.8980 296.1685 -9197.6350 -7508.9379 298.0669 576.7031 626.8640 30485.8478 -226.6007 -147.5665
TCL: Exiting due to exit command.
