Info: SIMULATION PARAMETERS:
Info: TIMESTEP               2
Info: NUMBER OF STEPS        0
Info: STEPS PER CYCLE        10
Info: PERIODIC CELL BASIS 1  31.9382 0 0
Info: PERIODIC CELL BASIS 2  0 30.0183 0
Info: PERIODIC CELL BASIS 3  0 0 31.6002
Info: PERIODIC CELL CENTER   0 0 0
Info: WRAPPING WATERS AROUND PERIODIC BOUNDARIES ON OUTPUT.
Info: WRAPPING ALL CLUSTERS AROUND PERIODIC BOUNDARIES ON OUTPUT.
Info: FIRST LDB TIMESTEP     50
Info: LAST LDB TIMESTEP     -1
Info: HOM BACKGROUND SCALING 1
Info: PME BACKGROUND SCALING 1
Info: MIN ATOMS PER PATCH    40
Info: EMPTY PATCH LOAD       40 ATOMS
Info: VELOCITY FILE          mobley_2837389_equil.vel
Info: CENTER OF MASS MOVING INITIALLY? NO
Info: DIELECTRIC             1
Info: EXCLUDE                SCALED ONE-FOUR
Info: 1-4 ELECTROSTATICS SCALED BY 0.833333
Info: MODIFIED 1-4 VDW PARAMETERS WILL BE USED
Info: DCD FILENAME           mobley_2837389_prod.dcd
Info: DCD FREQUENCY          100000
Info: DCD FIRST STEP         100000
Info: DCD FILE WILL CONTAIN UNIT CELL DATA
Info: XST FILENAME           mobley_2837389_prod.xst
Info: XST FREQUENCY          100000
Info: NO VELOCITY DCD OUTPUT
Info: NO FORCE DCD OUTPUT
Info: OUTPUT FILENAME        mobley_2837389_prod
Info: BINARY OUTPUT FILES WILL BE USED
Info: RESTART FILENAME       mobley_2837389_prod.restart
Info: RESTART FREQUENCY      100000
Info: BINARY RESTART FILES WILL BE USED
Info: CUTOFF                 9
Info: PAIRLIST DISTANCE      11
Info: PAIRLIST SHRINK RATE   0.01
Info: PAIRLIST GROW RATE     0.01
Info: PAIRLIST TRIGGER       0.3
Info: PAIRLISTS PER CYCLE    2
Info: PAIRLISTS ENABLED
Info: MARGIN                 2
Info: HYDROGEN GROUP CUTOFF  2.5
Info: PATCH DIMENSION        15.5
Info: ENERGY OUTPUT STEPS    100000
Info: ENERGY EVALUATION STEPS    100000
Info: OUTPUT ENERGY PRECISION 4
Info: CROSSTERM ENERGY INCLUDED IN DIHEDRAL
Info: TIMING OUTPUT STEPS    1000000
Info: PRESSURE OUTPUT STEPS  100000
Info: ALCHEMICAL FEP ON
Info: FEP CURRENT LAMBDA VALUE     0
Info: FEP COMPARISON LAMBDA VALUE  0.05
Info: FEP INTRA-ALCHEMICAL NON-BONDED INTERACTIONS WILL BE RETAINED
Info: FEP INTRA-ALCHEMICAL BONDED INTERACTIONS WILL BE RETAINED
Info: FEP VDW SHIFTING COEFFICIENT 5
Info: FEP ELEC. ACTIVE FOR ANNIHILATED PARTICLES BETWEEN LAMBDA = 0 AND LAMBDA = 0.5
Info: FEP ELEC. ACTIVE FOR EXNIHILATED PARTICLES BETWEEN LAMBDA = 0.5 AND LAMBDA = 1
Info: FEP VDW ACTIVE FOR ANNIHILATED PARTICLES BETWEEN LAMBDA = 0 AND LAMBDA = 1
Info: FEP VDW ACTIVE FOR EXNIHILATED PARTICLES BETWEEN LAMBDA = 0 AND LAMBDA = 1
Info: FEP BOND ACTIVE FOR ANNIHILATED PARTICLES BETWEEN LAMBDA = 1 AND LAMBDA = 1
Info: FEP BOND ACTIVE FOR EXNIHILATED PARTICLES BETWEEN LAMBDA = 0 AND LAMBDA = 0
Info: LANGEVIN DYNAMICS ACTIVE
Info: LANGEVIN TEMPERATURE   300
Info: LANGEVIN USING BBK INTEGRATOR
Info: LANGEVIN DAMPING COEFFICIENT IS 1 INVERSE PS
Info: LANGEVIN DYNAMICS APPLIED TO HYDROGENS
Info: LANGEVIN PISTON PRESSURE CONTROL ACTIVE
Info:        TARGET PRESSURE IS 1.01325 BAR
Info:     OSCILLATION PERIOD IS 50 FS
Info:             DECAY TIME IS 25 FS
Info:     PISTON TEMPERATURE IS 300 K
Info:       PRESSURE CONTROL IS GROUP-BASED
Info:    INITIAL STRAIN RATE IS -4.06503e-05 -4.06503e-05 -4.06503e-05
Info:       CELL FLUCTUATION IS ISOTROPIC
Info: PARTICLE MESH EWALD (PME) ACTIVE
Info: PME TOLERANCE               1e-06
Info: PME EWALD COEFFICIENT       0.348832
Info: PME INTERPOLATION ORDER     4
Info: PME GRID DIMENSIONS         32 32 32
Info: PME MAXIMUM GRID SPACING    1
Info: PME CALCULATION WILL BE PERFORMED ON GPU
Info: FULL ELECTROSTATIC EVALUATION FREQUENCY      2
Info: USING VERLET I (r-RESPA) MTS SCHEME.
Info: C1 SPLITTING OF LONG RANGE ELECTROSTATICS
Info: PLACING ATOMS IN PATCHES BY HYDROGEN GROUPS
Info: RIGID BONDS TO HYDROGEN : ALL
Info:         ERROR TOLERANCE : 1e-08
Info:          MAX ITERATIONS : 100
Info: RIGID WATER USING SETTLE ALGORITHM
Info: RANDOM NUMBER SEED     1743503400
Info: USE HYDROGEN BONDS?    NO
Info: Using AMBER format force field!
Info: AMBER PARM FILE        mobley_2837389.prmtop
Info: COORDINATE PDB         mobley_2837389.pdb
Info: Exclusions will be read from PARM file!
Info: SCNB (VDW SCALING)     2
Info: USING ARITHMETIC MEAN TO COMBINE L-J SIGMA PARAMETERS
Info: BINARY COORDINATES     mobley_2837389_equil.coor
Info: SUMMARY OF PARAMETERS:
Info: 8 BONDS
Info: 8 ANGLES
Info:   8 HARMONIC
Info:   0 COSINE-BASED
Info: 3 DIHEDRAL
Info: 0 IMPROPER
Info: 0 CROSSTERM
Info: 0 VDW
Info: 28 VDW_PAIRS
Info: 0 NBTHOLE_PAIRS
Info: To read alchdata from file: mobley_2837389.pdb
Info: To read alchflag data from column: 5
Info: STRUCTURE SUMMARY:
Info: 2944 ATOMS
Info: 2944 BONDS
Info: 15 ANGLES
Info: 25 DIHEDRALS
Info: 0 IMPROPERS
Info: 0 CROSSTERMS
Info: 2974 EXCLUSIONS
Info: 2939 RIGID BONDS
Info: ALCH: 0 ATOMS TO DISAPPEAR IN FINAL STATE
Info: ALCH: 10 ATOMS TO APPEAR IN FINAL STATE
Info: 5893 DEGREES OF FREEDOM
Info: 983 HYDROGEN GROUPS
Info: 3 ATOMS IN LARGEST HYDROGEN GROUP
Info: 983 MIGRATION GROUPS
Info: 3 ATOMS IN LARGEST MIGRATION GROUP
Info: TOTAL MASS = 17686.7 amu
Info: TOTAL CHARGE = -0.000100017 e
Info: MASS DENSITY = 0.96944 g/cm^3
Info: ATOM DENSITY = 0.0971744 atoms/A^3
Info: ADDED 0 IMPLICIT EXCLUSIONS
Info: NONBONDED TABLE R-SQUARED SPACING: 0.0625
Info: NONBONDED TABLE SIZE: 705 POINTS
Info: REMOVING COM VELOCITY 0.137527 0.0134954 0.172472
Info: Use 3D box decompostion in PME FFT.
Info: Updated CUDA force table with 4096 elements.
Info: Updated CUDA LJ table with 7 x 7 elements.
Info: Found 11 unique exclusion lists needing 16 bytes
TCL: Running for 1500000 steps
ETITLE: TS BOND ANGLE DIHED IMPRP ELECT VDW BOUNDARY MISC KINETIC TOTAL TEMP POTENTIAL TOTALAVG TEMPAVG PRESSURE GPRESSURE VOLUME PRESSAVG GPRESSAVG
ENERGY: 0 0.3350 3.7272 1.6107 0.0000 -10553.1878 1353.9400 0.0000 0.0000 1806.3910 -7387.1838 308.5075 -9193.5749 -7387.1838 308.5075 -456.0850 -358.7170 30296.0502 -456.0850 -358.7170
ENERGY: 300000 0.7112 5.2667 2.8997 0.0000 -10700.1745 1471.8912 0.0000 0.0000 1769.0583 -7450.3473 302.1316 -9219.4056 -7428.6284 301.1873 274.2293 313.9777 30378.7557 117.1571 186.4313
ENERGY: 600000 1.0975 6.4509 2.1328 0.0000 -10565.8590 1352.6033 0.0000 0.0000 1753.4200 -7450.1545 299.4607 -9203.5745 -7438.7661 300.1185 -621.0346 -516.1138 30281.5651 79.5984 157.8588
ENERGY: 900000 3.8411 3.5356 1.3154 0.0000 -10711.3655 1483.1771 0.0000 0.0000 1766.6770 -7452.8193 301.7249 -9219.4963 -7453.0038 299.9694 209.6776 220.5430 30571.0127 78.8817 140.1049
ENERGY: 1200000 0.9278 2.9861 1.9895 0.0000 -10533.6942 1347.9522 0.0000 0.0000 1724.5516 -7455.2870 294.5304 -9179.8386 -7460.7768 299.0523 -618.8426 -637.2924 30494.3132 30.0091 81.7837
ENERGY: 1500000 1.7544 5.2910 3.7624 0.0000 -10626.6958 1427.2829 0.0000 0.0000 1753.9022 -7434.7029 299.5431 -9188.6051 -7462.2779 299.0531 137.3029 196.4016 29945.3502 132.4475 184.8814
TCL: Running FEP window   2: Lambda1 0.05   Lambda2 0.1    [dLambda 0.05  ]
TCL: Setting parameter firsttimestep to 0
TCL: Setting parameter alchLambda to 0.05
Info: NONBONDED TABLE R-SQUARED SPACING: 0.0625
Info: NONBONDED TABLE SIZE: 705 POINTS
TCL: Setting parameter alchLambda2 to 0.1
Info: NONBONDED TABLE R-SQUARED SPACING: 0.0625
Info: NONBONDED TABLE SIZE: 705 POINTS
TCL: Running for 1500000 steps
ETITLE: TS BOND ANGLE DIHED IMPRP ELECT VDW BOUNDARY MISC KINETIC TOTAL TEMP POTENTIAL TOTALAVG TEMPAVG PRESSURE GPRESSURE VOLUME PRESSAVG GPRESSAVG
ENERGY: 0 1.7544 5.2910 3.7624 0.0000 -10626.6966 1430.8725 0.0000 0.0000 1753.0497 -7431.9666 299.3975 -9185.0164 -7431.9666 299.3975 127.4918 203.9117 29945.3502 127.4918 203.9117
ENERGY: 300000 1.4530 4.7126 3.1203 0.0000 -10660.5509 1438.8491 0.0000 0.0000 1805.4075 -7407.0083 308.3395 -9212.4158 -7480.3822 300.2846 6.8287 69.1080 30623.0690 -319.5374 -266.0151
ENERGY: 600000 0.4070 4.3539 1.1845 0.0000 -10512.7163 1308.6948 0.0000 0.0000 1717.6901 -7480.3861 293.3586 -9198.0762 -7492.0163 299.2593 -975.4701 -927.1719 30390.6198 -350.6938 -293.6846
ENERGY: 900000 1.0802 4.9114 1.9213 0.0000 -10663.2170 1389.9088 0.0000 0.0000 1814.3471 -7451.0483 309.8663 -9265.3953 -7480.9205 300.5998 -359.9287 -307.6018 29930.1994 -160.5271 -115.9278
ENERGY: 1200000 4.5317 5.9623 0.7265 0.0000 -10676.7426 1442.9410 0.0000 0.0000 1757.5790 -7465.0021 300.1710 -9222.5811 -7469.8095 301.1019 26.1541 14.9407 30398.2931 -144.8512 -105.5431
ENERGY: 1500000 0.8947 5.6889 3.5330 0.0000 -10726.4814 1507.5475 0.0000 0.0000 1773.2671 -7435.5502 302.8504 -9208.8173 -7471.3938 300.4292 512.4786 629.3464 30386.5651 -38.2031 3.7053
TCL: Running FEP window   3: Lambda1 0.1    Lambda2 0.15000000000000002 [dLambda 0.05000000000000002]
TCL: Setting parameter firsttimestep to 0
TCL: Setting parameter alchLambda to 0.1
Info: NONBONDED TABLE R-SQUARED SPACING: 0.0625
Info: NONBONDED TABLE SIZE: 705 POINTS
TCL: Setting parameter alchLambda2 to 0.15000000000000002
Info: NONBONDED TABLE R-SQUARED SPACING: 0.0625
Info: NONBONDED TABLE SIZE: 705 POINTS
TCL: Running for 1500000 steps
ETITLE: TS BOND ANGLE DIHED IMPRP ELECT VDW BOUNDARY MISC KINETIC TOTAL TEMP POTENTIAL TOTALAVG TEMPAVG PRESSURE GPRESSURE VOLUME PRESSAVG GPRESSAVG
ENERGY: 0 0.8947 5.6889 3.5330 0.0000 -10726.4818 1507.4114 0.0000 0.0000 1772.4401 -7436.5136 302.7091 -9208.9537 -7436.5136 302.7091 529.9546 630.3337 30386.5651 529.9546 630.3337
ENERGY: 300000 2.2593 4.3066 1.7782 0.0000 -10727.1890 1461.1663 0.0000 0.0000 1762.5929 -7495.0856 301.0274 -9257.6785 -7455.5912 302.5001 -201.7159 -137.2796 30744.1840 381.8385 456.3733
ENERGY: 600000 1.4975 4.2329 4.3342 0.0000 -10792.9973 1445.4257 0.0000 0.0000 1797.2006 -7540.3064 306.9379 -9337.5071 -7466.6969 303.4017 88.0932 163.4173 29717.7774 372.7215 448.0434
ENERGY: 900000 3.8701 4.1424 2.9269 0.0000 -10644.5962 1377.3477 0.0000 0.0000 1748.4573 -7507.8518 298.6132 -9256.3091 -7467.3861 303.2245 -581.2459 -521.5887 30195.4608 86.5413 170.5769
ENERGY: 1200000 0.3027 6.1358 1.9618 0.0000 -10634.6446 1430.2720 0.0000 0.0000 1774.5621 -7421.4103 303.0715 -9195.9724 -7470.2861 302.4991 -0.6531 100.4512 30184.8613 83.9507 164.7591
ENERGY: 1500000 0.2837 4.9146 3.0054 0.0000 -10725.3410 1470.6124 0.0000 0.0000 1767.5042 -7479.0206 301.8661 -9246.5248 -7466.3395 302.7776 234.3452 302.7646 30214.4804 57.8351 135.9487
TCL: Running FEP window   4: Lambda1 0.15000000000000002 Lambda2 0.2    [dLambda 0.04999999999999999]
TCL: Setting parameter firsttimestep to 0
TCL: Setting parameter alchLambda to 0.15000000000000002
Info: NONBONDED TABLE R-SQUARED SPACING: 0.0625
Info: NONBONDED TABLE SIZE: 705 POINTS
TCL: Setting parameter alchLambda2 to 0.2
Info: NONBONDED TABLE R-SQUARED SPACING: 0.0625
Info: NONBONDED TABLE SIZE: 705 POINTS
TCL: Running for 1500000 steps
ETITLE: TS BOND ANGLE DIHED IMPRP ELECT VDW BOUNDARY MISC KINETIC TOTAL TEMP POTENTIAL TOTALAVG TEMPAVG PRESSURE GPRESSURE VOLUME PRESSAVG GPRESSAVG
ENERGY: 0 0.2837 4.9146 3.0054 0.0000 -10725.3404 1471.5053 0.0000 0.0000 1766.6654 -7478.9659 301.7229 -9245.6313 -7478.9659 301.7229 233.5416 309.7691 30214.4804 233.5416 309.7691
ENERGY: 300000 3.1560 4.9928 3.3063 0.0000 -10656.6680 1456.7616 0.0000 0.0000 1670.2069 -7518.2446 285.2491 -9188.4514 -7491.7059 295.6438 24.9620 81.3097 30156.8978 102.1597 165.7047
ENERGY: 600000 1.2898 4.7298 1.8583 0.0000 -10805.9727 1448.0617 0.0000 0.0000 1831.2754 -7518.7578 312.7574 -9350.0331 -7492.9259 299.8111 -198.8553 -148.6757 30128.1548 55.1756 114.6573
ENERGY: 900000 1.0118 6.3117 1.4311 0.0000 -10742.9081 1461.0820 0.0000 0.0000 1776.5215 -7496.5501 303.4062 -9273.0716 -7485.9018 300.7502 84.3839 141.1864 29947.8880 -78.5852 -20.6293
ENERGY: 1200000 2.4460 4.8304 3.0129 0.0000 -10718.9809 1488.0772 0.0000 0.0000 1781.3373 -7439.2770 304.2287 -9220.6143 -7471.9027 300.8248 451.8897 455.5707 30248.7823 19.5236 78.7062
ENERGY: 1500000 1.1795 5.1030 1.7549 0.0000 -10625.3448 1372.3590 0.0000 0.0000 1763.8497 -7481.0987 301.2420 -9244.9484 -7470.6547 300.7287 -468.7229 -393.4465 29869.0726 -39.2313 18.2301
TCL: Running FEP window   5: Lambda1 0.2    Lambda2 0.25   [dLambda 0.04999999999999999]
TCL: Setting parameter firsttimestep to 0
TCL: Setting parameter alchLambda to 0.2
Info: NONBONDED TABLE R-SQUARED SPACING: 0.0625
Info: NONBONDED TABLE SIZE: 705 POINTS
TCL: Setting parameter alchLambda2 to 0.25
Info: NONBONDED TABLE R-SQUARED SPACING: 0.0625
Info: NONBONDED TABLE SIZE: 705 POINTS
TCL: Running for 1500000 steps
ETITLE: TS BOND ANGLE DIHED IMPRP ELECT VDW BOUNDARY MISC KINETIC TOTAL TEMP POTENTIAL TOTALAVG TEMPAVG PRESSURE GPRESSURE VOLUME PRESSAVG GPRESSAVG
ENERGY: 0 1.1795 5.1030 1.7549 0.0000 -10625.3440 1373.1595 0.0000 0.0000 1762.9413 -7481.2058 301.0869 -9244.1471 -7481.2058 301.0869 -460.9891 -388.6913 29869.0726 -460.9891 -388.6913
ENERGY: 300000 1.1493 5.9053 3.0869 0.0000 -10681.5474 1458.6319 0.0000 0.0000 1762.6529 -7450.1212 301.0376 -9212.7741 -7486.1227 298.8556 89.7234 164.8535 30426.0549 -101.1564 -36.2863
ENERGY: 600000 1.1988 5.6120 3.6725 0.0000 -10720.5879 1502.8349 0.0000 0.0000 1726.8921 -7480.3776 294.9301 -9207.2697 -7458.7381 300.3156 567.1592 565.9580 30031.5579 46.1311 100.7922
ENERGY: 900000 2.1299 4.0765 2.8753 0.0000 -10735.3773 1485.7535 0.0000 0.0000 1707.6300 -7532.9120 291.6404 -9240.5420 -7474.3606 299.6085 333.4393 344.0539 30463.7315 152.9414 202.9730
ENERGY: 1200000 3.4062 3.2418 1.7811 0.0000 -10825.2039 1483.8049 0.0000 0.0000 1760.4106 -7572.5593 300.6546 -9332.9699 -7492.2763 298.4199 199.4929 190.1638 29979.0168 84.8545 132.8563
ENERGY: 1500000 1.3709 5.7992 2.3524 0.0000 -10657.0968 1420.7646 0.0000 0.0000 1726.6103 -7500.1993 294.8820 -9226.8096 -7479.8454 299.3331 -46.8216 21.5345 30106.5143 28.2418 74.1170
TCL: Running FEP window   6: Lambda1 0.25   Lambda2 0.3    [dLambda 0.04999999999999999]
TCL: Setting parameter firsttimestep to 0
TCL: Setting parameter alchLambda to 0.25
Info: NONBONDED TABLE R-SQUARED SPACING: 0.0625
Info: NONBONDED TABLE SIZE: 705 POINTS
TCL: Setting parameter alchLambda2 to 0.3
Info: NONBONDED TABLE R-SQUARED SPACING: 0.0625
Info: NONBONDED TABLE SIZE: 705 POINTS
TCL: Running for 1500000 steps
ETITLE: TS BOND ANGLE DIHED IMPRP ELECT VDW BOUNDARY MISC KINETIC TOTAL TEMP POTENTIAL TOTALAVG TEMPAVG PRESSURE GPRESSURE VOLUME PRESSAVG GPRESSAVG
ENERGY: 0 1.3709 5.7992 2.3524 0.0000 -10657.0969 1420.4971 0.0000 0.0000 1725.7212 -7501.3561 294.7302 -9227.0773 -7501.3561 294.7302 -61.3290 21.6501 30106.5143 -61.3290 21.6501
ENERGY: 300000 4.3142 4.8752 2.2013 0.0000 -10571.3876 1412.2539 0.0000 0.0000 1724.2913 -7423.4518 294.4860 -9147.7431 -7469.9662 299.1027 -232.5448 -142.5078 30610.7962 -125.8597 -80.2024
ENERGY: 600000 0.4908 3.4037 2.7238 0.0000 -10719.8555 1443.8178 0.0000 0.0000 1712.8179 -7556.6015 292.5264 -9269.4193 -7452.6761 301.2661 -123.2043 -78.1435 30332.5715 -215.9659 -178.1431
ENERGY: 900000 1.4989 4.6305 1.4757 0.0000 -10882.7299 1566.6043 0.0000 0.0000 1758.1477 -7550.3729 300.2682 -9308.5206 -7460.4913 302.5285 952.4402 964.2400 30017.7525 21.8421 70.6908
ENERGY: 1200000 1.5841 6.4815 2.2361 0.0000 -10738.2834 1459.4525 0.0000 0.0000 1726.3451 -7542.1843 294.8367 -9268.5293 -7468.3384 300.8583 75.3491 125.6261 30155.6486 -32.1171 28.2378
ENERGY: 1500000 0.7892 6.5013 4.9332 0.0000 -10565.4708 1343.3319 0.0000 0.0000 1729.8755 -7480.0398 295.4397 -9209.9153 -7472.2050 300.4818 -936.2145 -888.1660 30764.1230 -106.7621 -46.1473
TCL: Running FEP window   7: Lambda1 0.3    Lambda2 0.35   [dLambda 0.04999999999999999]
TCL: Setting parameter firsttimestep to 0
TCL: Setting parameter alchLambda to 0.3
Info: NONBONDED TABLE R-SQUARED SPACING: 0.0625
Info: NONBONDED TABLE SIZE: 705 POINTS
TCL: Setting parameter alchLambda2 to 0.35
Info: NONBONDED TABLE R-SQUARED SPACING: 0.0625
Info: NONBONDED TABLE SIZE: 705 POINTS
TCL: Running for 1500000 steps
ETITLE: TS BOND ANGLE DIHED IMPRP ELECT VDW BOUNDARY MISC KINETIC TOTAL TEMP POTENTIAL TOTALAVG TEMPAVG PRESSURE GPRESSURE VOLUME PRESSAVG GPRESSAVG
ENERGY: 0 0.7891 6.5012 4.9332 0.0000 -10565.4720 1343.9817 0.0000 0.0000 1728.9827 -7480.2841 295.2872 -9209.2668 -7480.2841 295.2872 -975.7037 -882.5982 30764.1230 -975.7037 -882.5982
ENERGY: 300000 1.7537 4.4975 1.1076 0.0000 -10642.1225 1354.2181 0.0000 0.0000 1750.9970 -7529.5486 299.0469 -9280.5456 -7513.0593 299.5541 -732.0747 -659.8842 30007.3078 -337.9347 -291.6809
ENERGY: 600000 1.7642 6.4870 0.4387 0.0000 -10769.5920 1473.0928 0.0000 0.0000 1790.4216 -7497.3878 305.7801 -9287.8094 -7492.0898 302.1908 39.1148 95.9758 30331.2952 -196.4315 -141.0923
ENERGY: 900000 1.3342 5.7808 3.6167 0.0000 -10721.4204 1471.1373 0.0000 0.0000 1756.1314 -7483.4200 299.9238 -9239.5514 -7481.2510 301.5204 540.4100 518.6591 29994.9808 -134.6522 -85.4985
ENERGY: 1200000 0.5207 4.0008 1.8181 0.0000 -10709.5916 1445.3156 0.0000 0.0000 1701.5513 -7556.3851 290.6023 -9257.9364 -7496.7159 300.3651 86.1992 222.2417 29777.2446 -96.6144 -42.6071
ENERGY: 1500000 3.8153 5.2213 4.8372 0.0000 -10628.2582 1442.1866 0.0000 0.0000 1765.6397 -7406.5580 301.5477 -9172.1977 -7488.6278 301.0087 274.0608 332.2565 30284.5438 -109.3206 -56.2325
TCL: Running FEP window   8: Lambda1 0.35   Lambda2 0.39999999999999997 [dLambda 0.04999999999999999]
TCL: Setting parameter firsttimestep to 0
TCL: Setting parameter alchLambda to 0.35
Info: NONBONDED TABLE R-SQUARED SPACING: 0.0625
Info: NONBONDED TABLE SIZE: 705 POINTS
TCL: Setting parameter alchLambda2 to 0.39999999999999997
Info: NONBONDED TABLE R-SQUARED SPACING: 0.0625
Info: NONBONDED TABLE SIZE: 705 POINTS
TCL: Running for 1500000 steps
ETITLE: TS BOND ANGLE DIHED IMPRP ELECT VDW BOUNDARY MISC KINETIC TOTAL TEMP POTENTIAL TOTALAVG TEMPAVG PRESSURE GPRESSURE VOLUME PRESSAVG GPRESSAVG
ENERGY: 0 3.8153 5.2213 4.8372 0.0000 -10628.2573 1442.0208 0.0000 0.0000 1764.7107 -7407.6519 301.3890 -9172.3626 -7407.6519 301.3890 246.6848 332.8428 30284.5438 246.6848 332.8428
ENERGY: 300000 1.3265 3.7904 2.8374 0.0000 -10644.5535 1405.1234 0.0000 0.0000 1783.1542 -7448.3216 304.5389 -9231.4758 -7432.1984 302.1625 -109.1871 -13.9470 29992.2437 115.5994 182.7041
ENERGY: 600000 2.1799 5.2713 2.2661 0.0000 -10644.5012 1428.6130 0.0000 0.0000 1715.5984 -7490.5725 293.0013 -9206.1709 -7456.2133 300.7619 -142.6094 -121.5387 30584.9478 101.9078 168.0841
ENERGY: 900000 1.2364 4.8902 2.1894 0.0000 -10575.1826 1373.6904 0.0000 0.0000 1755.8322 -7437.3441 299.8727 -9193.1763 -7445.9083 300.6049 -479.1276 -430.6496 30928.9546 -44.9860 20.0296
ENERGY: 1200000 2.8262 4.1427 2.6719 0.0000 -10620.5356 1422.6405 0.0000 0.0000 1734.4679 -7453.7863 296.2240 -9188.2543 -7455.6504 299.5325 202.6779 278.6068 30206.9379 -82.3845 -14.7384
ENERGY: 1500000 0.9589 5.2382 0.2874 0.0000 -10733.8662 1458.9299 0.0000 0.0000 1783.3549 -7485.0969 304.5732 -9268.4518 -7462.7765 299.7566 -100.3686 4.9929 30495.8205 -2.4233 66.6433
TCL: Running FEP window   9: Lambda1 0.39999999999999997 Lambda2 0.44999999999999996 [dLambda 0.04999999999999999]
TCL: Setting parameter firsttimestep to 0
TCL: Setting parameter alchLambda to 0.39999999999999997
Info: NONBONDED TABLE R-SQUARED SPACING: 0.0625
Info: NONBONDED TABLE SIZE: 705 POINTS
TCL: Setting parameter alchLambda2 to 0.44999999999999996
Info: NONBONDED TABLE R-SQUARED SPACING: 0.0625
Info: NONBONDED TABLE SIZE: 705 POINTS
TCL: Running for 1500000 steps
ETITLE: TS BOND ANGLE DIHED IMPRP ELECT VDW BOUNDARY MISC KINETIC TOTAL TEMP POTENTIAL TOTALAVG TEMPAVG PRESSURE GPRESSURE VOLUME PRESSAVG GPRESSAVG
ENERGY: 0 0.9589 5.2382 0.2874 0.0000 -10733.8656 1458.5350 0.0000 0.0000 1782.4627 -7486.3835 304.4208 -9268.8462 -7486.3835 304.4208 -87.3641 4.1776 30495.8205 -87.3641 4.1776
ENERGY: 300000 2.1996 4.9129 1.9450 0.0000 -10636.4994 1385.0032 0.0000 0.0000 1784.1469 -7458.2916 304.7085 -9242.4386 -7464.8588 302.5642 -336.4904 -351.0241 30169.8577 32.2647 86.3799
ENERGY: 600000 0.8247 4.8829 1.1744 0.0000 -10599.0427 1427.7353 0.0000 0.0000 1748.9312 -7415.4943 298.6941 -9164.4255 -7454.8516 302.3963 -41.2971 10.9690 30514.5759 -8.7497 49.2723
ENERGY: 900000 0.6201 5.8378 1.2342 0.0000 -10562.1015 1304.0983 0.0000 0.0000 1734.6762 -7515.6349 296.2596 -9250.3111 -7467.5456 300.8887 -1194.3088 -1111.4328 30458.6027 -148.1893 -84.2533
ENERGY: 1200000 1.2115 3.6839 0.6472 0.0000 -10633.6251 1464.1413 0.0000 0.0000 1744.1868 -7419.7545 297.8838 -9163.9413 -7477.1104 300.3380 224.0708 253.5053 30544.0350 -108.4733 -51.3976
ENERGY: 1500000 0.9630 3.4124 0.3467 0.0000 -10621.8549 1422.6104 0.0000 0.0000 1746.2285 -7448.2939 298.2325 -9194.5224 -7473.9820 300.7442 -179.0727 -19.0089 30291.7869 -92.7410 -26.8718
TCL: Running FEP window  10: Lambda1 0.44999999999999996 Lambda2 0.49999999999999994 [dLambda 0.04999999999999999]
TCL: Setting parameter firsttimestep to 0
TCL: Setting parameter alchLambda to 0.44999999999999996
Info: NONBONDED TABLE R-SQUARED SPACING: 0.0625
Info: NONBONDED TABLE SIZE: 705 POINTS
TCL: Setting parameter alchLambda2 to 0.49999999999999994
Info: NONBONDED TABLE R-SQUARED SPACING: 0.0625
Info: NONBONDED TABLE SIZE: 705 POINTS
TCL: Running for 1500000 steps
ETITLE: TS BOND ANGLE DIHED IMPRP ELECT VDW BOUNDARY MISC KINETIC TOTAL TEMP POTENTIAL TOTALAVG TEMPAVG PRESSURE GPRESSURE VOLUME PRESSAVG GPRESSAVG
ENERGY: 0 0.9630 3.4124 0.3467 0.0000 -10621.8569 1422.3501 0.0000 0.0000 1745.3475 -7449.4373 298.0821 -9194.7848 -7449.4373 298.0821 -106.0119 -18.2460 30291.7869 -106.0119 -18.2460
ENERGY: 300000 2.1084 5.5901 3.7464 0.0000 -10633.7658 1402.5735 0.0000 0.0000 1788.0465 -7431.7009 305.3745 -9219.7474 -7478.2710 300.3336 -369.8761 -341.0127 30510.7972 -28.6435 5.9221
ENERGY: 600000 1.8098 4.5914 1.7776 0.0000 -10645.7809 1401.9196 0.0000 0.0000 1778.6435 -7457.0389 303.7686 -9235.6824 -7489.3020 300.7921 -510.8515 -385.9838 30606.1512 -44.5929 -0.1773
ENERGY: 900000 0.4720 5.9939 2.2992 0.0000 -10714.9939 1393.5314 0.0000 0.0000 1699.1828 -7613.5146 290.1977 -9312.6973 -7496.8926 300.5484 -384.1335 -319.8307 29702.1995 -71.6197 -22.2105
ENERGY: 1200000 2.9708 3.8999 1.9648 0.0000 -10677.7379 1376.7232 0.0000 0.0000 1701.8855 -7590.2937 290.6593 -9292.1792 -7506.2367 299.8975 -803.3937 -744.3587 30347.4893 -30.6530 21.0338
ENERGY: 1500000 1.4749 5.6401 0.7368 0.0000 -10756.4305 1438.5101 0.0000 0.0000 1837.1426 -7472.9260 313.7595 -9310.0686 -7504.8614 300.2698 10.7988 108.8207 29858.7586 23.7195 75.8247
TCL: Running FEP window  11: Lambda1 0.49999999999999994 Lambda2 0.5499999999999999 [dLambda 0.04999999999999999]
TCL: Setting parameter firsttimestep to 0
TCL: Setting parameter alchLambda to 0.49999999999999994
Info: NONBONDED TABLE R-SQUARED SPACING: 0.0625
Info: NONBONDED TABLE SIZE: 705 POINTS
TCL: Setting parameter alchLambda2 to 0.5499999999999999
Info: NONBONDED TABLE R-SQUARED SPACING: 0.0625
Info: NONBONDED TABLE SIZE: 705 POINTS
TCL: Running for 1500000 steps
ETITLE: TS BOND ANGLE DIHED IMPRP ELECT VDW BOUNDARY MISC KINETIC TOTAL TEMP POTENTIAL TOTALAVG TEMPAVG PRESSURE GPRESSURE VOLUME PRESSAVG GPRESSAVG
ENERGY: 0 1.4749 5.6401 0.7368 0.0000 -10756.4294 1438.2512 0.0000 0.0000 1836.2778 -7474.0486 313.6118 -9310.3264 -7474.0486 313.6118 31.8851 108.4560 29858.7586 31.8851 108.4560
ENERGY: 300000 1.5970 4.8973 0.8980 0.0000 -10683.6411 1420.1405 0.0000 0.0000 1745.8597 -7510.2484 298.1696 -9256.1082 -7484.2867 303.0060 -148.2213 -78.3010 30319.5465 -159.7066 -112.7852
ENERGY: 600000 1.4305 7.1817 0.7542 0.0000 -10770.1716 1542.7789 0.0000 0.0000 1752.7230 -7465.3033 299.3417 -9218.0263 -7490.8703 300.3434 965.2071 1039.5825 30078.3997 -29.5441 37.2919
ENERGY: 900000 1.3981 5.4229 0.4968 0.0000 -10709.5350 1399.1499 0.0000 0.0000 1762.4239 -7540.6434 300.9985 -9303.0673 -7493.6492 301.0851 -727.3709 -661.2096 30708.7826 -24.5122 36.6580
ENERGY: 1200000 1.3553 5.3476 0.9643 0.0000 -10718.2816 1432.9078 0.0000 0.0000 1692.2672 -7585.4394 289.0167 -9277.7066 -7514.5427 299.9736 -318.8313 -256.6363 30603.1291 5.9596 66.6115
ENERGY: 1500000 1.1809 4.2271 5.3232 0.0000 -10747.1749 1448.4278 0.0000 0.0000 1750.2636 -7537.7524 298.9217 -9288.0160 -7510.4459 300.1487 -102.6093 -33.8256 30466.5809 56.9524 115.9670
TCL: Running FEP window  12: Lambda1 0.5499999999999999 Lambda2 0.6    [dLambda 0.050000000000000044]
TCL: Setting parameter firsttimestep to 0
TCL: Setting parameter alchLambda to 0.5499999999999999
Info: NONBONDED TABLE R-SQUARED SPACING: 0.0625
Info: NONBONDED TABLE SIZE: 705 POINTS
TCL: Setting parameter alchLambda2 to 0.6
Info: NONBONDED TABLE R-SQUARED SPACING: 0.0625
Info: NONBONDED TABLE SIZE: 705 POINTS
TCL: Running for 1500000 steps
ETITLE: TS BOND ANGLE DIHED IMPRP ELECT VDW BOUNDARY MISC KINETIC TOTAL TEMP POTENTIAL TOTALAVG TEMPAVG PRESSURE GPRESSURE VOLUME PRESSAVG GPRESSAVG
ENERGY: 0 1.1809 4.2271 5.3232 0.0000 -10746.3949 1449.0078 0.0000 0.0000 1749.4061 -7537.2498 298.7752 -9286.6559 -7537.2498 298.7752 -92.4138 -23.5515 30466.5809 -92.4138 -23.5515
ENERGY: 300000 0.7585 6.7676 0.4516 0.0000 -10547.5437 1364.2651 0.0000 0.0000 1741.9936 -7433.3073 297.5093 -9175.3009 -7478.9725 297.0276 -523.6723 -443.1161 30480.0364 -3.4708 78.2919
ENERGY: 600000 0.8307 6.8884 2.7238 0.0000 -10704.8788 1435.2091 0.0000 0.0000 1773.2665 -7485.9603 302.8503 -9259.2268 -7478.7421 298.2054 -118.9728 -36.8883 30526.6910 -110.2291 -36.5531
ENERGY: 900000 1.4136 3.4994 1.9814 0.0000 -10663.7194 1446.8017 0.0000 0.0000 1865.2898 -7344.7336 318.5666 -9210.0234 -7455.2433 300.5201 66.3362 208.7985 30181.0382 -146.2587 -52.6452
ENERGY: 1200000 2.0134 4.3080 1.3985 0.0000 -10768.8859 1526.4559 0.0000 0.0000 1707.4129 -7527.2972 291.6033 -9234.7100 -7459.3759 300.2592 909.1445 988.1437 29733.7402 -40.9247 46.1425
ENERGY: 1500000 2.5905 5.2389 0.8689 0.0000 -10564.8526 1378.2907 0.0000 0.0000 1757.0800 -7420.7836 300.0858 -9177.8635 -7456.9629 300.5163 -477.1669 -419.4969 30858.9155 -50.4327 28.0536
TCL: Running FEP window  13: Lambda1 0.6    Lambda2 0.65   [dLambda 0.050000000000000044]
TCL: Setting parameter firsttimestep to 0
TCL: Setting parameter alchLambda to 0.6
Info: NONBONDED TABLE R-SQUARED SPACING: 0.0625
Info: NONBONDED TABLE SIZE: 705 POINTS
TCL: Setting parameter alchLambda2 to 0.65
Info: NONBONDED TABLE R-SQUARED SPACING: 0.0625
Info: NONBONDED TABLE SIZE: 705 POINTS
TCL: Running for 1500000 steps
ETITLE: TS BOND ANGLE DIHED IMPRP ELECT VDW BOUNDARY MISC KINETIC TOTAL TEMP POTENTIAL TOTALAVG TEMPAVG PRESSURE GPRESSURE VOLUME PRESSAVG GPRESSAVG
ENERGY: 0 2.5905 5.2389 0.8689 0.0000 -10564.8754 1378.3215 0.0000 0.0000 1756.2035 -7421.6520 299.9361 -9177.8555 -7421.6520 299.9361 -499.7059 -413.8637 30858.9155 -499.7059 -413.8637
ENERGY: 300000 1.1595 4.4039 4.0525 0.0000 -10709.4773 1454.4250 0.0000 0.0000 1753.7877 -7491.6487 299.5235 -9245.4364 -7485.0350 294.6321 101.3059 208.0027 29942.0510 -274.5533 -211.7618
ENERGY: 600000 0.3050 5.0771 1.1121 0.0000 -10715.7663 1438.8974 0.0000 0.0000 1723.0426 -7547.3321 294.2727 -9270.3747 -7501.6620 296.3483 -230.5538 -187.6810 30266.4640 -357.5684 -303.4989
ENERGY: 900000 2.2072 4.8546 3.1015 0.0000 -10721.0792 1412.1087 0.0000 0.0000 1789.3503 -7509.4568 305.5972 -9298.8071 -7498.0496 298.0983 -575.8370 -547.3912 30569.9578 -287.1588 -233.3549
ENERGY: 1200000 0.4913 6.4276 1.5129 0.0000 -10706.0946 1448.9640 0.0000 0.0000 1742.9357 -7505.7631 297.6702 -9248.6989 -7500.0517 298.0451 204.0206 215.5660 29972.8371 -241.9272 -189.4275
ENERGY: 1500000 2.1773 5.1763 0.8197 0.0000 -10829.5915 1561.9572 0.0000 0.0000 1782.7492 -7476.7117 304.4698 -9259.4609 -7493.7248 298.5144 745.5872 854.3490 30250.3939 -148.8798 -91.5738
TCL: Running FEP window  14: Lambda1 0.65   Lambda2 0.7000000000000001 [dLambda 0.050000000000000044]
TCL: Setting parameter firsttimestep to 0
TCL: Setting parameter alchLambda to 0.65
Info: NONBONDED TABLE R-SQUARED SPACING: 0.0625
Info: NONBONDED TABLE SIZE: 705 POINTS
TCL: Setting parameter alchLambda2 to 0.7000000000000001
Info: NONBONDED TABLE R-SQUARED SPACING: 0.0625
Info: NONBONDED TABLE SIZE: 705 POINTS
TCL: Running for 1500000 steps
ETITLE: TS BOND ANGLE DIHED IMPRP ELECT VDW BOUNDARY MISC KINETIC TOTAL TEMP POTENTIAL TOTALAVG TEMPAVG PRESSURE GPRESSURE VOLUME PRESSAVG GPRESSAVG
ENERGY: 0 2.1773 5.1763 0.8197 0.0000 -10829.8372 1562.0882 0.0000 0.0000 1781.8938 -7477.6818 304.3237 -9259.5756 -7477.6818 304.3237 783.2361 863.5081 30250.3939 783.2361 863.5081
ENERGY: 300000 1.8581 3.5096 3.7141 0.0000 -10530.6384 1335.7999 0.0000 0.0000 1732.2027 -7453.5540 295.8371 -9185.7567 -7471.3740 298.5436 -612.9866 -522.2758 30288.5642 90.7380 183.3209
ENERGY: 600000 0.8493 5.8690 1.6003 0.0000 -10756.6907 1455.0645 0.0000 0.0000 1807.5981 -7485.7096 308.7136 -9293.3077 -7456.1732 301.8764 42.9070 101.3349 30312.3369 164.3317 251.4707
ENERGY: 900000 2.3146 9.9917 1.6536 0.0000 -10639.1032 1369.9621 0.0000 0.0000 1830.8653 -7424.3159 312.6874 -9255.1812 -7459.5667 303.2967 -486.4773 -391.3778 30134.7736 55.8616 136.6692
ENERGY: 1200000 1.2915 7.1006 3.9260 0.0000 -10764.7327 1485.8636 0.0000 0.0000 1811.9558 -7454.5953 309.4579 -9266.5510 -7467.1972 303.5898 511.7594 582.0857 30059.2904 150.1654 231.2891
ENERGY: 1500000 1.2698 2.9588 1.6321 0.0000 -10610.7925 1371.3414 0.0000 0.0000 1779.0342 -7454.5562 303.8353 -9233.5904 -7461.1492 303.2648 -354.1085 -333.5174 30068.8306 156.2364 233.5978
TCL: Running FEP window  15: Lambda1 0.7000000000000001 Lambda2 0.7500000000000001 [dLambda 0.050000000000000044]
TCL: Setting parameter firsttimestep to 0
TCL: Setting parameter alchLambda to 0.7000000000000001
Info: NONBONDED TABLE R-SQUARED SPACING: 0.0625
Info: NONBONDED TABLE SIZE: 705 POINTS
TCL: Setting parameter alchLambda2 to 0.7500000000000001
Info: NONBONDED TABLE R-SQUARED SPACING: 0.0625
Info: NONBONDED TABLE SIZE: 705 POINTS
TCL: Running for 1500000 steps
ETITLE: TS BOND ANGLE DIHED IMPRP ELECT VDW BOUNDARY MISC KINETIC TOTAL TEMP POTENTIAL TOTALAVG TEMPAVG PRESSURE GPRESSURE VOLUME PRESSAVG GPRESSAVG
ENERGY: 0 1.2698 2.9588 1.6321 0.0000 -10611.2537 1371.2594 0.0000 0.0000 1778.1505 -7455.9831 303.6844 -9234.1336 -7455.9831 303.6844 -397.4674 -330.6544 30068.8306 -397.4674 -330.6544
ENERGY: 300000 1.1734 4.7715 1.6785 0.0000 -10740.6438 1470.1524 0.0000 0.0000 1748.6949 -7514.1731 298.6538 -9262.8680 -7487.2527 302.3461 176.6908 236.2432 30303.5364 267.0038 324.5130
ENERGY: 600000 1.4016 5.6126 0.6575 0.0000 -10788.4751 1549.9288 0.0000 0.0000 1778.4938 -7452.3808 303.7430 -9230.8745 -7486.4998 301.1624 1076.4079 1155.0056 30021.1515 158.6857 220.6309
ENERGY: 900000 0.3592 6.0208 1.3977 0.0000 -10617.8955 1340.3089 0.0000 0.0000 1769.0986 -7500.7103 302.1384 -9269.8089 -7494.4931 301.1936 -859.4149 -811.9703 30254.2821 16.8580 78.9275
ENERGY: 1200000 1.2752 4.8976 1.5864 0.0000 -10607.2931 1430.0455 0.0000 0.0000 1701.8167 -7467.6717 290.6476 -9169.4884 -7495.3013 300.4809 53.5383 97.9325 30349.1367 16.1491 75.9099
ENERGY: 1500000 0.5253 6.8345 2.0574 0.0000 -10763.9469 1447.5594 0.0000 0.0000 1815.0596 -7491.9106 309.9880 -9306.9702 -7485.3897 301.2800 -230.9714 -151.3379 30519.7631 -75.2190 -16.0873
TCL: Running FEP window  16: Lambda1 0.7500000000000001 Lambda2 0.8000000000000002 [dLambda 0.050000000000000044]
TCL: Setting parameter firsttimestep to 0
TCL: Setting parameter alchLambda to 0.7500000000000001
Info: NONBONDED TABLE R-SQUARED SPACING: 0.0625
Info: NONBONDED TABLE SIZE: 705 POINTS
TCL: Setting parameter alchLambda2 to 0.8000000000000002
Info: NONBONDED TABLE R-SQUARED SPACING: 0.0625
Info: NONBONDED TABLE SIZE: 705 POINTS
TCL: Running for 1500000 steps
ETITLE: TS BOND ANGLE DIHED IMPRP ELECT VDW BOUNDARY MISC KINETIC TOTAL TEMP POTENTIAL TOTALAVG TEMPAVG PRESSURE GPRESSURE VOLUME PRESSAVG GPRESSAVG
ENERGY: 0 0.5253 6.8345 2.0574 0.0000 -10764.8860 1447.6492 0.0000 0.0000 1814.1188 -7493.7009 309.8273 -9307.8196 -7493.7009 309.8273 -221.9054 -142.7800 30519.7631 -221.9054 -142.7800
ENERGY: 300000 1.3726 5.4615 2.1807 0.0000 -10831.3504 1500.2773 0.0000 0.0000 1756.3284 -7565.7299 299.9575 -9322.0583 -7504.1510 303.2781 307.4551 378.3992 30119.8186 54.3993 114.8561
ENERGY: 600000 0.9995 2.8681 2.5621 0.0000 -10721.0213 1410.3400 0.0000 0.0000 1790.5138 -7513.7379 305.7959 -9304.2517 -7496.9875 302.8102 -329.4099 -233.0377 30023.8463 52.7696 124.7119
ENERGY: 900000 1.0206 4.9091 3.0664 0.0000 -10734.6952 1424.7719 0.0000 0.0000 1760.1851 -7540.7420 300.6161 -9300.9271 -7501.9166 302.4151 -506.1493 -463.4258 30678.5148 -50.0070 22.9943
ENERGY: 1200000 0.9193 5.3867 2.0807 0.0000 -10620.6077 1400.6757 0.0000 0.0000 1748.5555 -7462.9898 298.6300 -9211.5454 -7496.4850 301.5708 -235.8565 -174.9920 30660.4867 -65.6592 2.0277
ENERGY: 1500000 0.4872 5.1099 2.2230 0.0000 -10795.3122 1480.8717 0.0000 0.0000 1740.3591 -7566.2613 297.2301 -9306.6204 -7501.1730 300.8547 277.4665 283.6248 30236.7419 -13.9710 44.4095
TCL: Running FEP window  17: Lambda1 0.8000000000000002 Lambda2 0.8500000000000002 [dLambda 0.050000000000000044]
TCL: Setting parameter firsttimestep to 0
TCL: Setting parameter alchLambda to 0.8000000000000002
Info: NONBONDED TABLE R-SQUARED SPACING: 0.0625
Info: NONBONDED TABLE SIZE: 705 POINTS
TCL: Setting parameter alchLambda2 to 0.8500000000000002
Info: NONBONDED TABLE R-SQUARED SPACING: 0.0625
Info: NONBONDED TABLE SIZE: 705 POINTS
TCL: Running for 1500000 steps
ETITLE: TS BOND ANGLE DIHED IMPRP ELECT VDW BOUNDARY MISC KINETIC TOTAL TEMP POTENTIAL TOTALAVG TEMPAVG PRESSURE GPRESSURE VOLUME PRESSAVG GPRESSAVG
ENERGY: 0 0.4872 5.1099 2.2230 0.0000 -10796.1623 1481.1196 0.0000 0.0000 1739.5046 -7567.7181 297.0842 -9307.2226 -7567.7181 297.0842 211.9110 290.4474 30236.7419 211.9110 290.4474
ENERGY: 300000 3.2190 4.9561 0.8781 0.0000 -10654.8942 1372.5811 0.0000 0.0000 1805.6030 -7467.6569 308.3729 -9273.2599 -7501.7791 300.3697 -573.1180 -467.5380 30513.0101 -276.1365 -210.3168
ENERGY: 600000 2.7910 4.5979 0.9286 0.0000 -10662.2314 1372.0057 0.0000 0.0000 1698.6138 -7583.2944 290.1006 -9281.9082 -7520.1613 299.0084 -600.0169 -509.4643 29880.7896 -202.7184 -131.8618
ENERGY: 900000 2.1543 3.6662 2.1240 0.0000 -10613.4111 1353.8372 0.0000 0.0000 1762.4313 -7489.1981 300.9997 -9251.6294 -7510.9870 299.5116 -716.4666 -659.3002 30563.6553 -217.2704 -139.2042
ENERGY: 1200000 0.6735 5.1918 1.5386 0.0000 -10554.9137 1389.8232 0.0000 0.0000 1783.9409 -7373.7457 304.6733 -9157.6866 -7499.6819 299.4642 -28.1123 56.2172 30002.1515 -148.6134 -82.9668
ENERGY: 1500000 0.9120 4.1920 1.6855 0.0000 -10656.1063 1386.8867 0.0000 0.0000 1717.2607 -7545.1695 293.2852 -9262.4302 -7501.7532 298.8679 -509.1678 -368.1386 30261.3672 -150.8862 -74.5205
TCL: Running FEP window  18: Lambda1 0.8500000000000002 Lambda2 0.9000000000000002 [dLambda 0.050000000000000044]
TCL: Setting parameter firsttimestep to 0
TCL: Setting parameter alchLambda to 0.8500000000000002
Info: NONBONDED TABLE R-SQUARED SPACING: 0.0625
Info: NONBONDED TABLE SIZE: 705 POINTS
TCL: Setting parameter alchLambda2 to 0.9000000000000002
Info: NONBONDED TABLE R-SQUARED SPACING: 0.0625
Info: NONBONDED TABLE SIZE: 705 POINTS
TCL: Running for 1500000 steps
ETITLE: TS BOND ANGLE DIHED IMPRP ELECT VDW BOUNDARY MISC KINETIC TOTAL TEMP POTENTIAL TOTALAVG TEMPAVG PRESSURE GPRESSURE VOLUME PRESSAVG GPRESSAVG
ENERGY: 0 0.9120 4.1920 1.6855 0.0000 -10657.9339 1388.1441 0.0000 0.0000 1716.3520 -7546.6485 293.1300 -9263.0004 -7546.6485 293.1300 -423.0785 -351.9607 30261.3672 -423.0785 -351.9607
ENERGY: 300000 0.9645 5.3700 2.8283 0.0000 -10637.6778 1431.0184 0.0000 0.0000 1753.0908 -7444.4059 299.4045 -9197.4967 -7519.8716 295.9342 -151.9695 -102.9089 30942.0243 -176.5167 -129.2630
ENERGY: 600000 1.4211 5.5435 0.8600 0.0000 -10707.5440 1426.3353 0.0000 0.0000 1809.1012 -7464.2830 308.9703 -9273.3842 -7488.4014 298.8856 -257.7429 -240.6778 30792.8620 -254.2804 -208.6121
ENERGY: 900000 2.7968 4.7967 1.2427 0.0000 -10630.1492 1358.9701 0.0000 0.0000 1706.1877 -7556.1552 291.3941 -9262.3430 -7495.6190 298.9443 -817.7401 -720.4184 30476.4556 -251.5239 -197.8074
ENERGY: 1200000 1.8201 4.3265 3.1673 0.0000 -10716.2894 1443.5355 0.0000 0.0000 1782.7351 -7480.7049 304.4674 -9263.4400 -7494.4326 299.6030 65.9338 58.9245 30513.7369 -139.4249 -85.2397
ENERGY: 1500000 0.5826 4.2014 0.7399 0.0000 -10702.5899 1454.0408 0.0000 0.0000 1701.9288 -7541.0963 290.6667 -9243.0251 -7494.7381 299.0550 221.0352 253.5566 30158.4531 -68.0329 -13.2414
TCL: Running FEP window  19: Lambda1 0.9000000000000002 Lambda2 0.9500000000000003 [dLambda 0.050000000000000044]
TCL: Setting parameter firsttimestep to 0
TCL: Setting parameter alchLambda to 0.9000000000000002
Info: NONBONDED TABLE R-SQUARED SPACING: 0.0625
Info: NONBONDED TABLE SIZE: 705 POINTS
TCL: Setting parameter alchLambda2 to 0.9500000000000003
Info: NONBONDED TABLE R-SQUARED SPACING: 0.0625
Info: NONBONDED TABLE SIZE: 705 POINTS
TCL: Running for 1500000 steps
ETITLE: TS BOND ANGLE DIHED IMPRP ELECT VDW BOUNDARY MISC KINETIC TOTAL TEMP POTENTIAL TOTALAVG TEMPAVG PRESSURE GPRESSURE VOLUME PRESSAVG GPRESSAVG
ENERGY: 0 0.5826 4.2014 0.7399 0.0000 -10703.8386 1455.7231 0.0000 0.0000 1701.0563 -7541.5352 290.5177 -9242.5915 -7541.5352 290.5177 194.7828 277.8433 30158.4531 194.7828 277.8433
ENERGY: 300000 2.7012 5.5133 1.6094 0.0000 -10731.2547 1465.3540 0.0000 0.0000 1812.1793 -7443.8976 309.4960 -9256.0769 -7462.5896 300.8303 489.1654 497.2242 29837.1817 319.3588 389.4731
ENERGY: 600000 2.6579 3.5753 2.1640 0.0000 -10855.4518 1494.4294 0.0000 0.0000 1722.3559 -7630.2692 294.1554 -9352.6252 -7494.5504 298.9283 330.4620 403.7779 30206.4450 312.8984 380.8121
ENERGY: 900000 0.8981 5.0686 3.2402 0.0000 -10587.5410 1383.8240 0.0000 0.0000 1785.5320 -7408.9781 304.9450 -9194.5101 -7482.2190 299.6023 -155.7408 -121.9871 30092.3600 110.3000 172.2442
ENERGY: 1200000 0.7361 3.6875 1.3662 0.0000 -10702.9643 1468.2327 0.0000 0.0000 1731.6714 -7497.2704 295.7464 -9228.9418 -7490.6427 299.0771 426.6721 489.2817 29879.0873 98.3179 158.1268
ENERGY: 1500000 1.1303 3.6518 2.2927 0.0000 -10608.5476 1369.6939 0.0000 0.0000 1755.0564 -7476.7224 299.7402 -9231.7788 -7490.2483 298.7527 -388.1829 -329.8331 29977.7077 48.9449 109.0931
TCL: Running FEP window  20: Lambda1 0.9500000000000003 Lambda2 1.0    [dLambda 0.04999999999999971]
TCL: Setting parameter firsttimestep to 0
TCL: Setting parameter alchLambda to 0.9500000000000003
Info: NONBONDED TABLE R-SQUARED SPACING: 0.0625
Info: NONBONDED TABLE SIZE: 705 POINTS
TCL: Setting parameter alchLambda2 to 1.0
Info: NONBONDED TABLE R-SQUARED SPACING: 0.0625
Info: NONBONDED TABLE SIZE: 705 POINTS
TCL: Running for 1500000 steps
ETITLE: TS BOND ANGLE DIHED IMPRP ELECT VDW BOUNDARY MISC KINETIC TOTAL TEMP POTENTIAL TOTALAVG TEMPAVG PRESSURE GPRESSURE VOLUME PRESSAVG GPRESSAVG
ENERGY: 0 1.1303 3.6518 2.2927 0.0000 -10610.2158 1371.1804 0.0000 0.0000 1754.1484 -7477.8121 299.5851 -9231.9605 -7477.8121 299.5851 -381.1235 -306.6567 29977.7077 -381.1235 -306.6567
ENERGY: 300000 1.8387 4.9735 1.2426 0.0000 -10760.5997 1518.6277 0.0000 0.0000 1730.3851 -7503.5321 295.5267 -9233.9172 -7498.8607 297.1390 537.2926 633.7265 30509.2784 -88.9138 -18.8406
ENERGY: 600000 2.1188 3.8004 0.4139 0.0000 -10602.5996 1413.8659 0.0000 0.0000 1806.2110 -7376.1895 308.4767 -9182.4005 -7482.9768 298.6070 -113.0445 -28.5061 30363.2412 -38.0540 34.3250
ENERGY: 900000 1.6687 5.2276 2.5575 0.0000 -10588.4485 1331.6810 0.0000 0.0000 1754.1550 -7493.1588 299.5863 -9247.3137 -7479.0574 299.6694 -738.0414 -718.3264 30207.2721 -241.7179 -178.7247
ENERGY: 1200000 1.1468 4.7951 3.0770 0.0000 -10727.0897 1485.9411 0.0000 0.0000 1794.9045 -7437.2251 306.5457 -9232.1296 -7466.7447 301.7080 349.8472 417.4451 30502.4037 -156.4999 -99.2906
ENERGY: 1500000 1.5713 5.8563 2.8616 0.0000 -10699.3346 1430.8071 0.0000 0.0000 1757.2018 -7501.0364 300.1066 -9258.2382 -7482.7130 300.4703 -92.2910 -10.4447 30493.9713 -213.6766 -158.5244
TCL: Exiting due to exit command.
