Info: SIMULATION PARAMETERS:
Info: TIMESTEP               2
Info: NUMBER OF STEPS        0
Info: STEPS PER CYCLE        10
Info: PERIODIC CELL BASIS 1  30.2847 0 0
Info: PERIODIC CELL BASIS 2  0 31.2231 0
Info: PERIODIC CELL BASIS 3  0 0 31.7446
Info: PERIODIC CELL CENTER   0 0 0
Info: WRAPPING WATERS AROUND PERIODIC BOUNDARIES ON OUTPUT.
Info: WRAPPING ALL CLUSTERS AROUND PERIODIC BOUNDARIES ON OUTPUT.
Info: FIRST LDB TIMESTEP     50
Info: LAST LDB TIMESTEP     -1
Info: HOM BACKGROUND SCALING 1
Info: PME BACKGROUND SCALING 1
Info: MIN ATOMS PER PATCH    40
Info: EMPTY PATCH LOAD       40 ATOMS
Info: VELOCITY FILE          mobley_9557440_equil.vel
Info: CENTER OF MASS MOVING INITIALLY? NO
Info: DIELECTRIC             1
Info: EXCLUDE                SCALED ONE-FOUR
Info: 1-4 ELECTROSTATICS SCALED BY 0.833333
Info: MODIFIED 1-4 VDW PARAMETERS WILL BE USED
Info: DCD FILENAME           mobley_9557440_prod.dcd
Info: DCD FREQUENCY          100000
Info: DCD FIRST STEP         100000
Info: DCD FILE WILL CONTAIN UNIT CELL DATA
Info: XST FILENAME           mobley_9557440_prod.xst
Info: XST FREQUENCY          100000
Info: NO VELOCITY DCD OUTPUT
Info: NO FORCE DCD OUTPUT
Info: OUTPUT FILENAME        mobley_9557440_prod
Info: BINARY OUTPUT FILES WILL BE USED
Info: RESTART FILENAME       mobley_9557440_prod.restart
Info: RESTART FREQUENCY      100000
Info: BINARY RESTART FILES WILL BE USED
Info: CUTOFF                 9
Info: PAIRLIST DISTANCE      11
Info: PAIRLIST SHRINK RATE   0.01
Info: PAIRLIST GROW RATE     0.01
Info: PAIRLIST TRIGGER       0.3
Info: PAIRLISTS PER CYCLE    2
Info: PAIRLISTS ENABLED
Info: MARGIN                 2
Info: HYDROGEN GROUP CUTOFF  2.5
Info: PATCH DIMENSION        15.5
Info: ENERGY OUTPUT STEPS    100000
Info: ENERGY EVALUATION STEPS    100000
Info: OUTPUT ENERGY PRECISION 4
Info: CROSSTERM ENERGY INCLUDED IN DIHEDRAL
Info: TIMING OUTPUT STEPS    1000000
Info: PRESSURE OUTPUT STEPS  100000
Info: ALCHEMICAL FEP ON
Info: FEP CURRENT LAMBDA VALUE     1
Info: FEP COMPARISON LAMBDA VALUE  0.95
Info: FEP INTRA-ALCHEMICAL NON-BONDED INTERACTIONS WILL BE RETAINED
Info: FEP INTRA-ALCHEMICAL BONDED INTERACTIONS WILL BE RETAINED
Info: FEP VDW SHIFTING COEFFICIENT 5
Info: FEP ELEC. ACTIVE FOR ANNIHILATED PARTICLES BETWEEN LAMBDA = 0 AND LAMBDA = 0.5
Info: FEP ELEC. ACTIVE FOR EXNIHILATED PARTICLES BETWEEN LAMBDA = 0.5 AND LAMBDA = 1
Info: FEP VDW ACTIVE FOR ANNIHILATED PARTICLES BETWEEN LAMBDA = 0 AND LAMBDA = 1
Info: FEP VDW ACTIVE FOR EXNIHILATED PARTICLES BETWEEN LAMBDA = 0 AND LAMBDA = 1
Info: FEP BOND ACTIVE FOR ANNIHILATED PARTICLES BETWEEN LAMBDA = 1 AND LAMBDA = 1
Info: FEP BOND ACTIVE FOR EXNIHILATED PARTICLES BETWEEN LAMBDA = 0 AND LAMBDA = 0
Info: LANGEVIN DYNAMICS ACTIVE
Info: LANGEVIN TEMPERATURE   300
Info: LANGEVIN USING BBK INTEGRATOR
Info: LANGEVIN DAMPING COEFFICIENT IS 1 INVERSE PS
Info: LANGEVIN DYNAMICS APPLIED TO HYDROGENS
Info: LANGEVIN PISTON PRESSURE CONTROL ACTIVE
Info:        TARGET PRESSURE IS 1.01325 BAR
Info:     OSCILLATION PERIOD IS 50 FS
Info:             DECAY TIME IS 25 FS
Info:     PISTON TEMPERATURE IS 300 K
Info:       PRESSURE CONTROL IS GROUP-BASED
Info:    INITIAL STRAIN RATE IS 0.000388635 0.000388635 0.000388635
Info:       CELL FLUCTUATION IS ISOTROPIC
Info: PARTICLE MESH EWALD (PME) ACTIVE
Info: PME TOLERANCE               1e-06
Info: PME EWALD COEFFICIENT       0.348832
Info: PME INTERPOLATION ORDER     4
Info: PME GRID DIMENSIONS         32 32 32
Info: PME MAXIMUM GRID SPACING    1
Info: PME CALCULATION WILL BE PERFORMED ON GPU
Info: FULL ELECTROSTATIC EVALUATION FREQUENCY      2
Info: USING VERLET I (r-RESPA) MTS SCHEME.
Info: C1 SPLITTING OF LONG RANGE ELECTROSTATICS
Info: PLACING ATOMS IN PATCHES BY HYDROGEN GROUPS
Info: RIGID BONDS TO HYDROGEN : ALL
Info:         ERROR TOLERANCE : 1e-08
Info:          MAX ITERATIONS : 100
Info: RIGID WATER USING SETTLE ALGORITHM
Info: RANDOM NUMBER SEED     1743555969
Info: USE HYDROGEN BONDS?    NO
Info: Using AMBER format force field!
Info: AMBER PARM FILE        mobley_9557440.prmtop
Info: COORDINATE PDB         mobley_9557440.pdb
Info: Exclusions will be read from PARM file!
Info: SCNB (VDW SCALING)     2
Info: USING ARITHMETIC MEAN TO COMBINE L-J SIGMA PARAMETERS
Info: BINARY COORDINATES     mobley_9557440_equil.coor
Info: SUMMARY OF PARAMETERS:
Info: 10 BONDS
Info: 14 ANGLES
Info:   14 HARMONIC
Info:   0 COSINE-BASED
Info: 7 DIHEDRAL
Info: 0 IMPROPER
Info: 0 CROSSTERM
Info: 0 VDW
Info: 36 VDW_PAIRS
Info: 0 NBTHOLE_PAIRS
Info: To read alchdata from file: mobley_9557440.pdb
Info: To read alchflag data from column: 5
Info: STRUCTURE SUMMARY:
Info: 2922 ATOMS
Info: 2922 BONDS
Info: 18 ANGLES
Info: 33 DIHEDRALS
Info: 0 IMPROPERS
Info: 0 CROSSTERMS
Info: 2961 EXCLUSIONS
Info: 2913 RIGID BONDS
Info: ALCH: 0 ATOMS TO DISAPPEAR IN FINAL STATE
Info: ALCH: 12 ATOMS TO APPEAR IN FINAL STATE
Info: 5853 DEGREES OF FREEDOM
Info: 979 HYDROGEN GROUPS
Info: 3 ATOMS IN LARGEST HYDROGEN GROUP
Info: 979 MIGRATION GROUPS
Info: 3 ATOMS IN LARGEST MIGRATION GROUP
Info: TOTAL MASS = 17622.1 amu
Info: TOTAL CHARGE = 0.000100046 e
Info: MASS DENSITY = 0.974869 g/cm^3
Info: ATOM DENSITY = 0.0973443 atoms/A^3
Info: ADDED 0 IMPLICIT EXCLUSIONS
Info: NONBONDED TABLE R-SQUARED SPACING: 0.0625
Info: NONBONDED TABLE SIZE: 705 POINTS
Info: REMOVING COM VELOCITY -0.168401 -0.0351409 0.100635
Info: Use 3D box decompostion in PME FFT.
Info: Updated CUDA force table with 4096 elements.
Info: Updated CUDA LJ table with 8 x 8 elements.
Info: Found 14 unique exclusion lists needing 24 bytes
TCL: Running for 1500000 steps
ETITLE: TS BOND ANGLE DIHED IMPRP ELECT VDW BOUNDARY MISC KINETIC TOTAL TEMP POTENTIAL TOTALAVG TEMPAVG PRESSURE GPRESSURE VOLUME PRESSAVG GPRESSAVG
ENERGY: 0 2.0120 3.9530 16.9950 0.0000 -10830.2581 1416.1666 0.0000 0.0000 1786.6734 -7604.4580 307.2253 -9391.1315 -7604.4580 307.2253 -249.0677 -179.6087 30017.1547 -249.0677 -179.6087
ENERGY: 300000 0.4600 4.2205 14.5784 0.0000 -10656.3002 1354.2126 0.0000 0.0000 1707.2995 -7575.5293 293.5767 -9282.8288 -7615.8810 299.5628 -533.4408 -473.2587 30379.3919 -587.3006 -525.0673
ENERGY: 600000 1.4339 2.3342 14.6504 0.0000 -10749.5220 1393.5165 0.0000 0.0000 1732.6598 -7604.9272 297.9375 -9337.5870 -7608.1461 299.2628 -265.1826 -175.3895 30046.3733 -666.9101 -594.0531
ENERGY: 900000 2.7303 6.0664 12.6391 0.0000 -10634.9685 1287.1536 0.0000 0.0000 1758.9465 -7567.4327 302.4576 -9326.3792 -7595.1922 300.5850 -1149.2817 -1047.2323 30095.6331 -778.0542 -695.4117
ENERGY: 1200000 2.4792 5.9610 14.8132 0.0000 -10620.8701 1350.0712 0.0000 0.0000 1717.7860 -7529.7595 295.3799 -9247.5455 -7582.1856 300.6890 -661.8246 -603.0757 30507.4318 -702.3229 -622.3359
ENERGY: 1500000 4.6392 5.3697 15.6140 0.0000 -10691.9860 1417.8452 0.0000 0.0000 1745.4758 -7503.0421 300.1412 -9248.5179 -7582.2942 300.2880 -216.1342 -72.6688 30450.1465 -649.1180 -567.7997
TCL: Running FEP window   2: Lambda1 0.95   Lambda2 0.8999999999999999 [dLambda -0.050000000000000044]
TCL: Setting parameter firsttimestep to 0
TCL: Setting parameter alchLambda to 0.95
Info: NONBONDED TABLE R-SQUARED SPACING: 0.0625
Info: NONBONDED TABLE SIZE: 705 POINTS
TCL: Setting parameter alchLambda2 to 0.8999999999999999
Info: NONBONDED TABLE R-SQUARED SPACING: 0.0625
Info: NONBONDED TABLE SIZE: 705 POINTS
TCL: Running for 1500000 steps
ETITLE: TS BOND ANGLE DIHED IMPRP ELECT VDW BOUNDARY MISC KINETIC TOTAL TEMP POTENTIAL TOTALAVG TEMPAVG PRESSURE GPRESSURE VOLUME PRESSAVG GPRESSAVG
ENERGY: 0 4.6392 5.3697 15.6140 0.0000 -10687.9595 1416.3919 0.0000 0.0000 1744.6028 -7501.3419 299.9911 -9245.9447 -7501.3419 299.9911 -193.8832 -97.6037 30450.1465 -193.8832 -97.6037
ENERGY: 300000 3.7529 3.5417 15.1788 0.0000 -10845.7130 1497.3906 0.0000 0.0000 1683.6814 -7642.1675 289.5155 -9325.8489 -7602.9084 293.8361 587.0858 635.8698 30030.6318 -130.1724 -65.6669
ENERGY: 600000 3.3505 4.9187 13.8499 0.0000 -10703.8714 1348.7332 0.0000 0.0000 1732.9633 -7600.0557 297.9897 -9333.0190 -7608.5265 294.8929 -597.9117 -548.4401 30124.7912 -313.9449 -248.0742
ENERGY: 900000 3.2069 4.0204 13.0596 0.0000 -10845.6529 1444.5087 0.0000 0.0000 1753.3862 -7627.4711 301.5015 -9380.8573 -7604.4498 296.5755 177.3174 263.7447 29956.3230 -170.7895 -104.4403
ENERGY: 1200000 2.3638 6.5088 15.0913 0.0000 -10826.6847 1465.7983 0.0000 0.0000 1766.8213 -7570.1011 303.8117 -9336.9224 -7596.4916 297.6260 217.7226 313.9697 30126.4274 -244.4827 -176.7723
ENERGY: 1500000 3.0887 3.7981 14.9054 0.0000 -10746.2902 1389.6663 0.0000 0.0000 1709.4016 -7625.4301 293.9382 -9334.8317 -7594.8195 298.0967 -355.2056 -348.0033 30198.8648 -175.7173 -110.8844
TCL: Running FEP window   3: Lambda1 0.8999999999999999 Lambda2 0.8499999999999999 [dLambda -0.050000000000000044]
TCL: Setting parameter firsttimestep to 0
TCL: Setting parameter alchLambda to 0.8999999999999999
Info: NONBONDED TABLE R-SQUARED SPACING: 0.0625
Info: NONBONDED TABLE SIZE: 705 POINTS
TCL: Setting parameter alchLambda2 to 0.8499999999999999
Info: NONBONDED TABLE R-SQUARED SPACING: 0.0625
Info: NONBONDED TABLE SIZE: 705 POINTS
TCL: Running for 1500000 steps
ETITLE: TS BOND ANGLE DIHED IMPRP ELECT VDW BOUNDARY MISC KINETIC TOTAL TEMP POTENTIAL TOTALAVG TEMPAVG PRESSURE GPRESSURE VOLUME PRESSAVG GPRESSAVG
ENERGY: 0 3.0887 3.7981 14.9054 0.0000 -10743.1863 1389.4305 0.0000 0.0000 1708.5506 -7623.4131 293.7918 -9331.9637 -7623.4131 293.7918 -427.7157 -356.3932 30198.8648 -427.7157 -356.3932
ENERGY: 300000 4.4940 2.7756 15.7024 0.0000 -10737.8253 1416.5714 0.0000 0.0000 1769.6757 -7528.6061 304.3025 -9298.2818 -7587.5038 301.3257 -136.5187 -57.6025 30369.6707 -6.5706 41.4015
ENERGY: 600000 1.2731 3.2242 16.2928 0.0000 -10657.3202 1355.7353 0.0000 0.0000 1785.0628 -7495.7319 306.9484 -9280.7948 -7580.6961 299.8623 -725.0416 -664.4081 30669.4764 -121.3759 -64.5657
ENERGY: 900000 3.3709 3.2416 13.5756 0.0000 -10752.4959 1469.9931 0.0000 0.0000 1709.5294 -7552.7853 293.9601 -9262.3148 -7582.3783 297.6350 470.4914 568.0971 30304.9143 8.7837 74.5475
ENERGY: 1200000 2.5727 2.7774 13.3727 0.0000 -10787.4125 1463.0077 0.0000 0.0000 1749.1555 -7556.5265 300.7740 -9305.6820 -7593.5154 296.6898 483.4979 605.8273 29647.5286 35.8465 103.1574
ENERGY: 1500000 2.3771 3.1239 13.8913 0.0000 -10709.9937 1371.2665 0.0000 0.0000 1765.2954 -7554.0395 303.5493 -9319.3349 -7591.5440 297.0830 -620.7589 -594.4648 30455.4810 14.9744 77.7019
TCL: Running FEP window   4: Lambda1 0.8499999999999999 Lambda2 0.7999999999999998 [dLambda -0.050000000000000044]
TCL: Setting parameter firsttimestep to 0
TCL: Setting parameter alchLambda to 0.8499999999999999
Info: NONBONDED TABLE R-SQUARED SPACING: 0.0625
Info: NONBONDED TABLE SIZE: 705 POINTS
TCL: Setting parameter alchLambda2 to 0.7999999999999998
Info: NONBONDED TABLE R-SQUARED SPACING: 0.0625
Info: NONBONDED TABLE SIZE: 705 POINTS
TCL: Running for 1500000 steps
ETITLE: TS BOND ANGLE DIHED IMPRP ELECT VDW BOUNDARY MISC KINETIC TOTAL TEMP POTENTIAL TOTALAVG TEMPAVG PRESSURE GPRESSURE VOLUME PRESSAVG GPRESSAVG
ENERGY: 0 2.3771 3.1239 13.8913 0.0000 -10705.7436 1370.3850 0.0000 0.0000 1764.4254 -7551.5409 303.3997 -9315.9663 -7551.5409 303.3997 -683.0455 -610.1761 30455.4810 -683.0455 -610.1761
ENERGY: 300000 2.8247 2.9875 13.6990 0.0000 -10696.1190 1421.6303 0.0000 0.0000 1719.9534 -7535.0242 295.7526 -9254.9776 -7564.4307 298.0033 196.7585 280.6894 29825.5852 -364.6956 -294.9800
ENERGY: 600000 2.0762 4.2535 19.2935 0.0000 -10780.7892 1411.4884 0.0000 0.0000 1692.3389 -7651.3387 291.0042 -9343.6776 -7588.1057 297.4813 -427.3690 -371.8957 30402.0353 -214.8245 -158.7321
ENERGY: 900000 3.0096 5.4288 13.9393 0.0000 -10800.9858 1442.3060 0.0000 0.0000 1738.8399 -7597.4622 299.0002 -9336.3021 -7570.0062 299.1695 -252.7795 -164.6374 30581.3823 -137.9058 -70.5377
ENERGY: 1200000 3.3149 2.7902 15.5698 0.0000 -10672.7719 1395.0435 0.0000 0.0000 1785.0962 -7470.9572 306.9541 -9256.0534 -7553.9470 301.0501 -201.0907 -108.3607 30302.3113 -222.0389 -152.0361
ENERGY: 1500000 3.1575 2.2060 14.2186 0.0000 -10874.1523 1451.6443 0.0000 0.0000 1787.7017 -7615.2242 307.4022 -9402.9260 -7572.7646 300.5336 337.7276 425.8656 29607.4461 -223.3343 -142.5280
TCL: Running FEP window   5: Lambda1 0.7999999999999998 Lambda2 0.7499999999999998 [dLambda -0.050000000000000044]
TCL: Setting parameter firsttimestep to 0
TCL: Setting parameter alchLambda to 0.7999999999999998
Info: NONBONDED TABLE R-SQUARED SPACING: 0.0625
Info: NONBONDED TABLE SIZE: 705 POINTS
TCL: Setting parameter alchLambda2 to 0.7499999999999998
Info: NONBONDED TABLE R-SQUARED SPACING: 0.0625
Info: NONBONDED TABLE SIZE: 705 POINTS
TCL: Running for 1500000 steps
ETITLE: TS BOND ANGLE DIHED IMPRP ELECT VDW BOUNDARY MISC KINETIC TOTAL TEMP POTENTIAL TOTALAVG TEMPAVG PRESSURE GPRESSURE VOLUME PRESSAVG GPRESSAVG
ENERGY: 0 3.1575 2.2060 14.2186 0.0000 -10870.7397 1451.4399 0.0000 0.0000 1786.8604 -7612.8574 307.2575 -9399.7178 -7612.8574 307.2575 331.2786 420.4845 29607.4461 331.2786 420.4845
ENERGY: 300000 5.7344 7.5648 14.4270 0.0000 -10756.7370 1393.1961 0.0000 0.0000 1720.2177 -7615.5970 295.7980 -9335.8148 -7609.1515 298.8410 -503.8227 -452.3877 30726.9140 -247.6587 -163.1436
ENERGY: 600000 4.5086 2.7043 18.3019 0.0000 -10605.9214 1339.4871 0.0000 0.0000 1742.5611 -7498.3584 299.6401 -9240.9195 -7582.9382 299.5108 -873.3561 -757.9900 30621.3317 -224.7952 -148.7732
ENERGY: 900000 4.5920 3.0239 15.4615 0.0000 -10776.4439 1445.8969 0.0000 0.0000 1732.7767 -7574.6929 297.9576 -9307.4696 -7596.9546 298.4008 264.3533 239.8564 29818.3288 -212.1127 -148.6545
ENERGY: 1200000 4.0417 2.7336 14.5261 0.0000 -10658.3767 1350.5827 0.0000 0.0000 1779.6148 -7506.8778 306.0116 -9286.4926 -7590.1216 298.4387 -570.4889 -541.4606 30329.3471 -93.3126 -31.3665
ENERGY: 1500000 4.5762 4.8671 14.7943 0.0000 -10791.4195 1409.3140 0.0000 0.0000 1751.5104 -7606.3574 301.1789 -9357.8678 -7581.6984 299.0949 -167.7857 -95.7961 30183.9235 -118.9353 -61.4366
TCL: Running FEP window   6: Lambda1 0.7499999999999998 Lambda2 0.6999999999999997 [dLambda -0.050000000000000044]
TCL: Setting parameter firsttimestep to 0
TCL: Setting parameter alchLambda to 0.7499999999999998
Info: NONBONDED TABLE R-SQUARED SPACING: 0.0625
Info: NONBONDED TABLE SIZE: 705 POINTS
TCL: Setting parameter alchLambda2 to 0.6999999999999997
Info: NONBONDED TABLE R-SQUARED SPACING: 0.0625
Info: NONBONDED TABLE SIZE: 705 POINTS
TCL: Running for 1500000 steps
ETITLE: TS BOND ANGLE DIHED IMPRP ELECT VDW BOUNDARY MISC KINETIC TOTAL TEMP POTENTIAL TOTALAVG TEMPAVG PRESSURE GPRESSURE VOLUME PRESSAVG GPRESSAVG
ENERGY: 0 4.5762 4.8671 14.7943 0.0000 -10788.0020 1408.6233 0.0000 0.0000 1750.6517 -7604.4893 301.0313 -9355.1411 -7604.4893 301.0313 -191.6367 -103.9784 30183.9235 -191.6367 -103.9784
ENERGY: 300000 3.9289 3.7056 15.2899 0.0000 -10708.6083 1406.1290 0.0000 0.0000 1746.0813 -7533.4737 300.2454 -9279.5549 -7536.7292 302.0475 -266.4112 -270.1510 30641.9912 -216.8881 -171.7338
ENERGY: 600000 4.1203 2.9852 17.4892 0.0000 -10727.0149 1390.3526 0.0000 0.0000 1800.3764 -7511.6912 309.5816 -9312.0676 -7530.3982 302.7000 27.7312 94.7850 29855.5216 -252.6711 -203.5645
ENERGY: 900000 2.3225 4.7685 14.4011 0.0000 -10680.1342 1383.0666 0.0000 0.0000 1742.3378 -7533.2376 299.6017 -9275.5754 -7534.3146 301.7020 -221.0208 -210.0888 30078.4689 -357.7980 -313.5727
ENERGY: 1200000 2.5310 4.1661 14.1793 0.0000 -10644.5883 1384.3737 0.0000 0.0000 1693.8852 -7545.4531 291.2700 -9239.3383 -7532.6700 300.6497 -528.5270 -428.2889 30373.7637 -314.3906 -259.0203
ENERGY: 1500000 4.1849 5.0143 15.5657 0.0000 -10679.9668 1393.1528 0.0000 0.0000 1733.3012 -7528.7479 298.0478 -9262.0491 -7529.7150 301.1003 -210.3614 -175.8283 30551.3526 -315.3469 -262.9677
TCL: Running FEP window   7: Lambda1 0.6999999999999997 Lambda2 0.6499999999999997 [dLambda -0.050000000000000044]
TCL: Setting parameter firsttimestep to 0
TCL: Setting parameter alchLambda to 0.6999999999999997
Info: NONBONDED TABLE R-SQUARED SPACING: 0.0625
Info: NONBONDED TABLE SIZE: 705 POINTS
TCL: Setting parameter alchLambda2 to 0.6499999999999997
Info: NONBONDED TABLE R-SQUARED SPACING: 0.0625
Info: NONBONDED TABLE SIZE: 705 POINTS
TCL: Running for 1500000 steps
ETITLE: TS BOND ANGLE DIHED IMPRP ELECT VDW BOUNDARY MISC KINETIC TOTAL TEMP POTENTIAL TOTALAVG TEMPAVG PRESSURE GPRESSURE VOLUME PRESSAVG GPRESSAVG
ENERGY: 0 4.1849 5.0143 15.5657 0.0000 -10676.2127 1392.2267 0.0000 0.0000 1732.4353 -7526.7858 297.8989 -9259.2211 -7526.7858 297.8989 -273.9739 -189.4234 30551.3526 -273.9739 -189.4234
ENERGY: 300000 3.1109 3.4245 14.3568 0.0000 -10796.3127 1416.4544 0.0000 0.0000 1774.3142 -7584.6519 305.1001 -9358.9661 -7592.6592 300.2070 -178.9875 -116.4784 30261.3358 -114.9959 -49.1908
ENERGY: 600000 3.7081 5.4608 15.8282 0.0000 -10642.7965 1335.6748 0.0000 0.0000 1688.6989 -7593.4258 290.3783 -9282.1247 -7578.1409 299.6727 -845.9272 -772.0468 30121.8535 -246.4050 -190.0653
ENERGY: 900000 4.0667 5.2286 16.7235 0.0000 -10816.8793 1436.0192 0.0000 0.0000 1738.5938 -7616.2474 298.9579 -9354.8413 -7575.7980 299.9000 -274.5408 -166.0508 30596.7460 -257.3733 -199.9457
ENERGY: 1200000 2.9824 3.5198 14.9821 0.0000 -10642.7576 1340.1194 0.0000 0.0000 1705.6557 -7575.4983 293.2940 -9281.1540 -7571.1190 299.0287 -729.4247 -646.3107 30248.0967 -256.5133 -194.6870
ENERGY: 1500000 1.6202 1.6969 16.2898 0.0000 -10605.7585 1352.9552 0.0000 0.0000 1749.2081 -7483.9884 300.7830 -9233.1964 -7563.4025 299.3552 -552.5802 -430.8921 30397.6777 -282.8529 -220.6741
TCL: Running FEP window   8: Lambda1 0.6499999999999997 Lambda2 0.5999999999999996 [dLambda -0.050000000000000044]
TCL: Setting parameter firsttimestep to 0
TCL: Setting parameter alchLambda to 0.6499999999999997
Info: NONBONDED TABLE R-SQUARED SPACING: 0.0625
Info: NONBONDED TABLE SIZE: 705 POINTS
TCL: Setting parameter alchLambda2 to 0.5999999999999996
Info: NONBONDED TABLE R-SQUARED SPACING: 0.0625
Info: NONBONDED TABLE SIZE: 705 POINTS
TCL: Running for 1500000 steps
ETITLE: TS BOND ANGLE DIHED IMPRP ELECT VDW BOUNDARY MISC KINETIC TOTAL TEMP POTENTIAL TOTALAVG TEMPAVG PRESSURE GPRESSURE VOLUME PRESSAVG GPRESSAVG
ENERGY: 0 1.6202 1.6969 16.2898 0.0000 -10602.4803 1352.6980 0.0000 0.0000 1748.3530 -7481.8225 300.6360 -9230.1755 -7481.8225 300.6360 -520.2498 -436.8409 30397.6777 -520.2498 -436.8409
ENERGY: 300000 2.2508 1.8853 13.3211 0.0000 -10737.0002 1400.0026 0.0000 0.0000 1736.6738 -7582.8666 298.6277 -9319.5404 -7550.5603 301.7934 -328.9592 -263.2137 30017.5465 -289.6921 -223.9100
ENERGY: 600000 6.5276 9.6772 14.4398 0.0000 -10795.0206 1424.7632 0.0000 0.0000 1729.7163 -7609.8965 297.4314 -9339.6129 -7566.0168 300.0385 101.1372 143.8029 29661.6178 -177.5276 -127.9997
ENERGY: 900000 1.9252 7.7281 13.7751 0.0000 -10616.8941 1357.0114 0.0000 0.0000 1747.0034 -7489.4509 300.4039 -9236.4543 -7552.3403 299.5532 -194.0103 -131.8047 29964.8819 -144.6914 -100.2360
ENERGY: 1200000 3.2970 6.0536 15.4581 0.0000 -10719.9496 1396.4821 0.0000 0.0000 1788.9906 -7509.6681 307.6238 -9298.6587 -7557.6114 300.4373 -399.4092 -297.7130 30272.3251 -190.3831 -135.0199
ENERGY: 1500000 3.3427 2.8910 13.9859 0.0000 -10695.0355 1384.1480 0.0000 0.0000 1740.1457 -7550.5222 299.2247 -9290.6679 -7555.6386 300.6252 -307.1688 -205.2415 29913.1799 -136.3682 -79.4216
TCL: Running FEP window   9: Lambda1 0.5999999999999996 Lambda2 0.5499999999999996 [dLambda -0.050000000000000044]
TCL: Setting parameter firsttimestep to 0
TCL: Setting parameter alchLambda to 0.5999999999999996
Info: NONBONDED TABLE R-SQUARED SPACING: 0.0625
Info: NONBONDED TABLE SIZE: 705 POINTS
TCL: Setting parameter alchLambda2 to 0.5499999999999996
Info: NONBONDED TABLE R-SQUARED SPACING: 0.0625
Info: NONBONDED TABLE SIZE: 705 POINTS
TCL: Running for 1500000 steps
ETITLE: TS BOND ANGLE DIHED IMPRP ELECT VDW BOUNDARY MISC KINETIC TOTAL TEMP POTENTIAL TOTALAVG TEMPAVG PRESSURE GPRESSURE VOLUME PRESSAVG GPRESSAVG
ENERGY: 0 3.3427 2.8910 13.9859 0.0000 -10693.8689 1384.0565 0.0000 0.0000 1739.3287 -7550.2642 299.0842 -9289.5929 -7550.2642 299.0842 -308.1074 -209.8235 29913.1799 -308.1074 -209.8235
ENERGY: 300000 2.9385 6.5095 19.0329 0.0000 -10783.6506 1528.3379 0.0000 0.0000 1779.7572 -7447.0746 306.0361 -9226.8318 -7516.2853 302.5498 1323.2173 1357.6241 29846.0283 163.4027 199.8484
ENERGY: 600000 3.4882 4.8617 14.2005 0.0000 -10777.6797 1417.1452 0.0000 0.0000 1732.8652 -7605.1188 297.9728 -9337.9840 -7536.6286 299.6990 -325.8292 -233.5446 30283.7106 23.8133 73.0536
ENERGY: 900000 1.2617 3.6648 16.0275 0.0000 -10823.4463 1455.3518 0.0000 0.0000 1767.3978 -7579.7428 303.9108 -9347.1406 -7529.5779 302.2188 -144.4605 -87.3069 30269.9498 51.4897 100.1943
ENERGY: 1200000 2.5559 4.9778 13.3535 0.0000 -10812.3761 1472.3544 0.0000 0.0000 1709.9381 -7609.1964 294.0304 -9319.1345 -7541.9543 301.2737 400.9273 533.7010 29863.3855 -6.3789 57.6325
ENERGY: 1500000 3.6908 3.8323 12.7943 0.0000 -10762.7417 1402.5697 0.0000 0.0000 1753.6314 -7586.2231 301.5436 -9339.8546 -7544.0140 301.6944 -202.6685 -194.2380 30056.4870 -22.7976 36.1319
TCL: Running FEP window  10: Lambda1 0.5499999999999996 Lambda2 0.4999999999999996 [dLambda -0.04999999999999999]
TCL: Setting parameter firsttimestep to 0
TCL: Setting parameter alchLambda to 0.5499999999999996
Info: NONBONDED TABLE R-SQUARED SPACING: 0.0625
Info: NONBONDED TABLE SIZE: 705 POINTS
TCL: Setting parameter alchLambda2 to 0.4999999999999996
Info: NONBONDED TABLE R-SQUARED SPACING: 0.0625
Info: NONBONDED TABLE SIZE: 705 POINTS
TCL: Running for 1500000 steps
ETITLE: TS BOND ANGLE DIHED IMPRP ELECT VDW BOUNDARY MISC KINETIC TOTAL TEMP POTENTIAL TOTALAVG TEMPAVG PRESSURE GPRESSURE VOLUME PRESSAVG GPRESSAVG
ENERGY: 0 3.6908 3.8323 12.7943 0.0000 -10762.2514 1402.6742 0.0000 0.0000 1752.7800 -7586.4798 301.3972 -9339.2597 -7586.4798 301.3972 -279.0997 -199.5762 30056.4870 -279.0997 -199.5762
ENERGY: 300000 3.1004 7.0251 16.5478 0.0000 -10686.9980 1341.6564 0.0000 0.0000 1739.6770 -7578.9913 299.1441 -9318.6683 -7551.1670 302.7736 -695.4430 -582.0181 29740.6719 -304.1614 -226.0007
ENERGY: 600000 6.2895 3.9628 14.6723 0.0000 -10865.3131 1470.9803 0.0000 0.0000 1826.4254 -7542.9827 314.0608 -9369.4081 -7546.2144 304.1191 196.7448 299.0099 29843.0384 -83.2439 -1.9347
ENERGY: 900000 3.0664 5.5550 13.1422 0.0000 -10807.3830 1426.9285 0.0000 0.0000 1781.9893 -7576.7015 306.4199 -9358.6908 -7552.1229 303.5404 -134.6202 -62.4106 29953.7021 -122.8516 -51.0810
ENERGY: 1200000 6.0684 7.0860 13.9394 0.0000 -10754.2718 1379.1203 0.0000 0.0000 1713.4425 -7634.6153 294.6330 -9348.0578 -7565.9236 301.3532 -525.4025 -446.7733 29969.1960 -148.9605 -81.2806
ENERGY: 1500000 2.2225 4.2466 13.6570 0.0000 -10920.3462 1562.1341 0.0000 0.0000 1811.8027 -7526.2833 311.5464 -9338.0860 -7564.0260 301.4521 1153.9521 1182.8301 29769.0731 -32.7884 32.5395
TCL: Running FEP window  11: Lambda1 0.4999999999999996 Lambda2 0.4499999999999996 [dLambda -0.04999999999999999]
TCL: Setting parameter firsttimestep to 0
TCL: Setting parameter alchLambda to 0.4999999999999996
Info: NONBONDED TABLE R-SQUARED SPACING: 0.0625
Info: NONBONDED TABLE SIZE: 705 POINTS
TCL: Setting parameter alchLambda2 to 0.4499999999999996
Info: NONBONDED TABLE R-SQUARED SPACING: 0.0625
Info: NONBONDED TABLE SIZE: 705 POINTS
TCL: Running for 1500000 steps
ETITLE: TS BOND ANGLE DIHED IMPRP ELECT VDW BOUNDARY MISC KINETIC TOTAL TEMP POTENTIAL TOTALAVG TEMPAVG PRESSURE GPRESSURE VOLUME PRESSAVG GPRESSAVG
ENERGY: 0 2.2225 4.2466 13.6570 0.0000 -10919.8661 1562.1744 0.0000 0.0000 1810.9783 -7526.5874 311.4047 -9337.5657 -7526.5874 311.4047 1100.0987 1177.2025 29769.0731 1100.0987 1177.2025
ENERGY: 300000 4.1169 5.1827 14.2723 0.0000 -10806.0136 1450.1742 0.0000 0.0000 1737.1584 -7595.1091 298.7110 -9332.2675 -7541.5272 298.8198 63.8981 128.7228 29798.2646 420.7314 476.2951
ENERGY: 600000 2.9789 5.3067 16.6598 0.0000 -10683.5168 1443.6577 0.0000 0.0000 1735.1423 -7479.7713 298.3644 -9214.9136 -7528.7582 300.0909 134.8039 218.1065 30171.7927 235.7037 307.2161
ENERGY: 900000 4.1135 5.9786 14.4436 0.0000 -10702.0102 1400.0800 0.0000 0.0000 1754.0176 -7523.3769 301.6100 -9277.3945 -7521.5817 301.2917 -310.8346 -296.4211 30517.9034 85.3366 146.3619
ENERGY: 1200000 2.1206 4.4528 14.3839 0.0000 -10807.0401 1463.2795 0.0000 0.0000 1706.8956 -7615.9078 293.5072 -9322.8034 -7537.9414 301.0001 185.2945 272.2533 30037.7748 113.4683 174.6821
ENERGY: 1500000 2.7895 1.7698 14.0136 0.0000 -10812.9407 1447.2604 0.0000 0.0000 1733.5017 -7613.6057 298.0823 -9347.1074 -7556.2494 300.8013 385.7010 380.5828 29764.8444 22.8076 82.0059
TCL: Running FEP window  12: Lambda1 0.4499999999999996 Lambda2 0.39999999999999963 [dLambda -0.04999999999999999]
TCL: Setting parameter firsttimestep to 0
TCL: Setting parameter alchLambda to 0.4499999999999996
Info: NONBONDED TABLE R-SQUARED SPACING: 0.0625
Info: NONBONDED TABLE SIZE: 705 POINTS
TCL: Setting parameter alchLambda2 to 0.39999999999999963
Info: NONBONDED TABLE R-SQUARED SPACING: 0.0625
Info: NONBONDED TABLE SIZE: 705 POINTS
TCL: Running for 1500000 steps
ETITLE: TS BOND ANGLE DIHED IMPRP ELECT VDW BOUNDARY MISC KINETIC TOTAL TEMP POTENTIAL TOTALAVG TEMPAVG PRESSURE GPRESSURE VOLUME PRESSAVG GPRESSAVG
ENERGY: 0 2.7895 1.7698 14.0136 0.0000 -10812.9386 1447.9207 0.0000 0.0000 1732.6037 -7613.8413 297.9279 -9346.4450 -7613.8413 297.9279 302.1836 380.4921 29764.8444 302.1836 380.4921
ENERGY: 300000 3.1930 4.0061 13.0422 0.0000 -10742.0298 1449.6018 0.0000 0.0000 1756.5036 -7515.6831 302.0375 -9272.1867 -7540.9383 301.1181 192.7817 172.8739 30321.8473 12.2743 47.7249
ENERGY: 600000 2.9719 8.4037 12.6777 0.0000 -10778.2493 1442.6129 0.0000 0.0000 1712.4216 -7599.1614 294.4575 -9311.5830 -7546.3572 300.3720 118.8098 158.4087 30124.5315 -11.3578 23.1940
ENERGY: 900000 1.2643 6.5506 15.1374 0.0000 -10590.3634 1326.9034 0.0000 0.0000 1803.6714 -7436.8363 310.1482 -9240.5077 -7542.2499 300.6010 -699.8217 -664.8293 30291.2587 -110.1142 -62.7066
ENERGY: 1200000 2.2263 5.3959 16.8411 0.0000 -10848.4874 1444.0826 0.0000 0.0000 1740.1684 -7639.7731 299.2286 -9379.9415 -7547.6330 300.4206 64.2012 99.2634 29751.3401 -164.7101 -117.9908
ENERGY: 1500000 1.6834 3.6692 13.2725 0.0000 -10668.4427 1389.4339 0.0000 0.0000 1733.3963 -7526.9875 298.0641 -9260.3837 -7548.7191 299.9954 -387.8297 -284.0144 30312.7029 -141.9356 -85.8629
TCL: Running FEP window  13: Lambda1 0.39999999999999963 Lambda2 0.34999999999999964 [dLambda -0.04999999999999999]
TCL: Setting parameter firsttimestep to 0
TCL: Setting parameter alchLambda to 0.39999999999999963
Info: NONBONDED TABLE R-SQUARED SPACING: 0.0625
Info: NONBONDED TABLE SIZE: 705 POINTS
TCL: Setting parameter alchLambda2 to 0.34999999999999964
Info: NONBONDED TABLE R-SQUARED SPACING: 0.0625
Info: NONBONDED TABLE SIZE: 705 POINTS
TCL: Running for 1500000 steps
ETITLE: TS BOND ANGLE DIHED IMPRP ELECT VDW BOUNDARY MISC KINETIC TOTAL TEMP POTENTIAL TOTALAVG TEMPAVG PRESSURE GPRESSURE VOLUME PRESSAVG GPRESSAVG
ENERGY: 0 1.6834 3.6692 13.2725 0.0000 -10668.4417 1389.9050 0.0000 0.0000 1732.5475 -7527.3642 297.9182 -9259.9117 -7527.3642 297.9182 -379.5171 -286.8651 30312.7029 -379.5171 -286.8651
ENERGY: 300000 3.5542 7.7925 15.6479 0.0000 -10617.2940 1336.8530 0.0000 0.0000 1803.8341 -7449.6123 310.1762 -9253.4465 -7507.9171 305.1061 -568.5552 -556.5021 30108.4306 -332.6233 -292.4378
ENERGY: 600000 3.3201 2.4094 14.2440 0.0000 -10840.2738 1441.3073 0.0000 0.0000 1650.2511 -7728.7418 283.7670 -9378.9929 -7553.6090 300.2209 -313.3651 -231.6901 30021.1137 -222.0977 -155.3171
ENERGY: 900000 1.8744 7.8276 15.1743 0.0000 -10668.0517 1360.2888 0.0000 0.0000 1759.5640 -7523.3227 302.5638 -9282.8867 -7560.6914 301.4279 -348.2402 -304.3619 30067.5938 -277.3289 -221.3844
ENERGY: 1200000 3.6213 3.0371 17.6495 0.0000 -10880.3670 1508.4266 0.0000 0.0000 1746.1218 -7601.5107 300.2523 -9347.6325 -7559.4438 301.5923 451.1571 436.4626 29935.6703 -278.6968 -220.3772
ENERGY: 1500000 3.1310 2.9317 13.1648 0.0000 -10783.4527 1488.0294 0.0000 0.0000 1737.4742 -7538.7216 298.7653 -9276.1958 -7553.2184 301.9675 373.2528 372.0130 30311.5222 -207.2325 -153.7371
TCL: Running FEP window  14: Lambda1 0.34999999999999964 Lambda2 0.29999999999999966 [dLambda -0.04999999999999999]
TCL: Setting parameter firsttimestep to 0
TCL: Setting parameter alchLambda to 0.34999999999999964
Info: NONBONDED TABLE R-SQUARED SPACING: 0.0625
Info: NONBONDED TABLE SIZE: 705 POINTS
TCL: Setting parameter alchLambda2 to 0.29999999999999966
Info: NONBONDED TABLE R-SQUARED SPACING: 0.0625
Info: NONBONDED TABLE SIZE: 705 POINTS
TCL: Running for 1500000 steps
ETITLE: TS BOND ANGLE DIHED IMPRP ELECT VDW BOUNDARY MISC KINETIC TOTAL TEMP POTENTIAL TOTALAVG TEMPAVG PRESSURE GPRESSURE VOLUME PRESSAVG GPRESSAVG
ENERGY: 0 3.1310 2.9317 13.1648 0.0000 -10783.4528 1488.4840 0.0000 0.0000 1736.6043 -7539.1370 298.6158 -9275.7413 -7539.1370 298.6158 298.3329 374.7330 30311.5222 298.3329 374.7330
ENERGY: 300000 2.1865 2.1005 14.4605 0.0000 -10764.9216 1434.6797 0.0000 0.0000 1782.5113 -7528.9831 306.5097 -9311.4944 -7570.8860 300.5545 18.4401 107.5238 30071.4260 171.1038 247.2170
ENERGY: 600000 0.8448 7.3660 15.8823 0.0000 -10600.7662 1397.6581 0.0000 0.0000 1694.6806 -7484.3345 291.4068 -9179.0151 -7550.0395 298.4065 -138.9670 -81.4327 30253.2237 160.8026 230.2971
ENERGY: 900000 1.3097 2.6853 14.4502 0.0000 -10700.5817 1361.1429 0.0000 0.0000 1767.6344 -7553.3593 303.9515 -9320.9937 -7561.9149 299.7400 -752.1057 -682.7262 30227.1539 62.3147 125.3540
ENERGY: 1200000 5.8090 4.1358 14.4297 0.0000 -10684.5496 1400.2234 0.0000 0.0000 1747.0670 -7512.8848 300.4149 -9259.9517 -7562.7633 299.3989 -255.3757 -191.2511 30405.0346 -18.1073 43.1275
ENERGY: 1500000 2.2304 1.2813 17.9328 0.0000 -10755.3782 1393.7049 0.0000 0.0000 1736.9363 -7603.2926 298.6728 -9340.2289 -7568.6723 299.3546 -81.2257 -1.1764 29458.5503 -14.8443 51.2683
TCL: Running FEP window  15: Lambda1 0.29999999999999966 Lambda2 0.24999999999999967 [dLambda -0.04999999999999999]
TCL: Setting parameter firsttimestep to 0
TCL: Setting parameter alchLambda to 0.29999999999999966
Info: NONBONDED TABLE R-SQUARED SPACING: 0.0625
Info: NONBONDED TABLE SIZE: 705 POINTS
TCL: Setting parameter alchLambda2 to 0.24999999999999967
Info: NONBONDED TABLE R-SQUARED SPACING: 0.0625
Info: NONBONDED TABLE SIZE: 705 POINTS
TCL: Running for 1500000 steps
ETITLE: TS BOND ANGLE DIHED IMPRP ELECT VDW BOUNDARY MISC KINETIC TOTAL TEMP POTENTIAL TOTALAVG TEMPAVG PRESSURE GPRESSURE VOLUME PRESSAVG GPRESSAVG
ENERGY: 0 2.2304 1.2813 17.9328 0.0000 -10755.3768 1394.3042 0.0000 0.0000 1736.0622 -7603.5660 298.5225 -9339.6282 -7603.5660 298.5225 -77.0449 -1.5675 29458.5503 -77.0449 -1.5675
ENERGY: 300000 2.1384 1.8080 15.0659 0.0000 -10738.1799 1388.3489 0.0000 0.0000 1742.8373 -7587.9814 299.6876 -9330.8187 -7546.1957 301.8086 -506.1691 -479.0528 30195.9120 -25.5288 49.9066
ENERGY: 600000 2.3370 3.3050 15.3044 0.0000 -10757.1951 1376.9903 0.0000 0.0000 1739.1190 -7620.1394 299.0482 -9359.2584 -7533.6917 302.7525 -550.4999 -522.2847 30103.3785 -179.0767 -115.9551
ENERGY: 900000 3.9103 7.7787 15.0897 0.0000 -10832.7487 1499.8747 0.0000 0.0000 1750.0678 -7556.0276 300.9309 -9306.0953 -7529.3169 303.9430 813.6711 900.3741 29548.8040 -20.4966 50.5902
ENERGY: 1200000 0.9431 2.4923 13.6955 0.0000 -10814.8702 1422.7156 0.0000 0.0000 1705.1350 -7669.8887 293.2045 -9375.0237 -7547.5878 302.3269 -228.4707 -215.7984 29919.7775 -110.4816 -55.0898
ENERGY: 1500000 2.7099 1.8283 13.9941 0.0000 -10625.1559 1313.0803 0.0000 0.0000 1714.0037 -7579.5396 294.7295 -9293.5433 -7554.1822 301.3146 -1058.4838 -957.8288 30434.8804 -265.6349 -205.7025
TCL: Running FEP window  16: Lambda1 0.24999999999999967 Lambda2 0.19999999999999968 [dLambda -0.04999999999999999]
TCL: Setting parameter firsttimestep to 0
TCL: Setting parameter alchLambda to 0.24999999999999967
Info: NONBONDED TABLE R-SQUARED SPACING: 0.0625
Info: NONBONDED TABLE SIZE: 705 POINTS
TCL: Setting parameter alchLambda2 to 0.19999999999999968
Info: NONBONDED TABLE R-SQUARED SPACING: 0.0625
Info: NONBONDED TABLE SIZE: 705 POINTS
TCL: Running for 1500000 steps
ETITLE: TS BOND ANGLE DIHED IMPRP ELECT VDW BOUNDARY MISC KINETIC TOTAL TEMP POTENTIAL TOTALAVG TEMPAVG PRESSURE GPRESSURE VOLUME PRESSAVG GPRESSAVG
ENERGY: 0 2.7099 1.8283 13.9941 0.0000 -10625.1570 1313.1251 0.0000 0.0000 1713.1529 -7580.3468 294.5832 -9293.4996 -7580.3468 294.5832 -1057.5315 -962.8084 30434.8804 -1057.5315 -962.8084
ENERGY: 300000 3.1440 3.9064 15.7590 0.0000 -10695.6320 1391.6099 0.0000 0.0000 1727.0328 -7554.1799 296.9699 -9281.2126 -7566.8945 300.8541 -619.2294 -458.5550 30531.8038 -492.8164 -402.9149
ENERGY: 600000 3.5947 5.6954 17.0523 0.0000 -10731.7269 1443.1935 0.0000 0.0000 1798.3347 -7463.8562 309.2305 -9262.1910 -7548.9511 300.6473 183.5288 295.1859 30136.2825 -275.8363 -178.0528
ENERGY: 900000 6.6077 3.4048 14.8432 0.0000 -10810.1006 1467.3082 0.0000 0.0000 1813.2102 -7504.7265 311.7884 -9317.9367 -7542.7853 301.3535 79.1392 161.5707 30366.1277 -153.0879 -66.8843
ENERGY: 1200000 2.6464 2.5702 14.8063 0.0000 -10666.3946 1380.8647 0.0000 0.0000 1787.9350 -7477.5720 307.4423 -9265.5070 -7548.8808 300.2128 -407.6491 -288.0310 29886.7166 -209.9361 -130.6927
ENERGY: 1500000 1.6823 2.6617 13.5205 0.0000 -10600.3887 1339.3401 0.0000 0.0000 1750.6027 -7492.5814 301.0228 -9243.1841 -7534.0491 301.0770 -567.6327 -472.5666 30071.5217 -183.5405 -108.8798
TCL: Running FEP window  17: Lambda1 0.19999999999999968 Lambda2 0.1499999999999997 [dLambda -0.04999999999999999]
TCL: Setting parameter firsttimestep to 0
TCL: Setting parameter alchLambda to 0.19999999999999968
Info: NONBONDED TABLE R-SQUARED SPACING: 0.0625
Info: NONBONDED TABLE SIZE: 705 POINTS
TCL: Setting parameter alchLambda2 to 0.1499999999999997
Info: NONBONDED TABLE R-SQUARED SPACING: 0.0625
Info: NONBONDED TABLE SIZE: 705 POINTS
TCL: Running for 1500000 steps
ETITLE: TS BOND ANGLE DIHED IMPRP ELECT VDW BOUNDARY MISC KINETIC TOTAL TEMP POTENTIAL TOTALAVG TEMPAVG PRESSURE GPRESSURE VOLUME PRESSAVG GPRESSAVG
ENERGY: 0 1.6823 2.6617 13.5205 0.0000 -10600.3882 1339.5012 0.0000 0.0000 1749.7553 -7493.2672 300.8771 -9243.0225 -7493.2672 300.8771 -572.3565 -477.0891 30071.5217 -572.3565 -477.0891
ENERGY: 300000 2.7773 4.0909 15.4911 0.0000 -10588.3786 1282.8049 0.0000 0.0000 1771.4825 -7511.7319 304.6132 -9283.2144 -7549.4978 300.3644 -1403.3394 -1297.5905 30311.7200 -642.5883 -580.7580
ENERGY: 600000 0.5057 4.7026 14.3826 0.0000 -10666.8087 1410.7091 0.0000 0.0000 1756.6326 -7479.8761 302.0597 -9236.5087 -7529.2840 301.4543 -74.2196 -14.2767 30145.4586 -622.3524 -552.5223
ENERGY: 900000 2.5127 3.5088 14.6155 0.0000 -10801.3547 1455.7252 0.0000 0.0000 1698.0057 -7626.9868 291.9786 -9324.9925 -7554.0746 299.2459 -42.2076 -27.6379 30467.5311 -434.7595 -359.8174
ENERGY: 1200000 2.9564 3.5850 19.1263 0.0000 -10774.2650 1413.7043 0.0000 0.0000 1670.6312 -7664.2620 287.2714 -9334.8931 -7555.6595 298.8757 -99.7492 46.5827 29359.0206 -329.9121 -252.1132
ENERGY: 1500000 3.2692 4.9826 14.5621 0.0000 -10788.4261 1452.7953 0.0000 0.0000 1753.4495 -7559.3674 301.5124 -9312.8169 -7548.0479 299.5843 194.6592 265.6945 29853.8101 -256.5243 -182.0263
TCL: Running FEP window  18: Lambda1 0.1499999999999997 Lambda2 0.09999999999999969 [dLambda -0.05 ]
TCL: Setting parameter firsttimestep to 0
TCL: Setting parameter alchLambda to 0.1499999999999997
Info: NONBONDED TABLE R-SQUARED SPACING: 0.0625
Info: NONBONDED TABLE SIZE: 705 POINTS
TCL: Setting parameter alchLambda2 to 0.09999999999999969
Info: NONBONDED TABLE R-SQUARED SPACING: 0.0625
Info: NONBONDED TABLE SIZE: 705 POINTS
TCL: Running for 1500000 steps
ETITLE: TS BOND ANGLE DIHED IMPRP ELECT VDW BOUNDARY MISC KINETIC TOTAL TEMP POTENTIAL TOTALAVG TEMPAVG PRESSURE GPRESSURE VOLUME PRESSAVG GPRESSAVG
ENERGY: 0 3.2692 4.9826 14.5621 0.0000 -10788.4266 1452.9641 0.0000 0.0000 1752.5719 -7560.0766 301.3615 -9312.6485 -7560.0766 301.3615 165.0004 262.1017 29853.8101 165.0004 262.1017
ENERGY: 300000 2.9363 4.1183 13.7858 0.0000 -10740.4953 1403.5364 0.0000 0.0000 1699.4285 -7616.6902 292.2232 -9316.1186 -7543.4132 296.7909 -98.5644 -88.9721 29800.5971 162.7893 240.8012
ENERGY: 600000 3.9303 2.4479 14.9069 0.0000 -10833.9054 1468.3476 0.0000 0.0000 1769.7368 -7574.5360 304.3130 -9344.2728 -7545.9390 298.6129 118.5782 122.0874 30340.4192 202.3575 257.7445
ENERGY: 900000 4.0764 5.8441 16.3013 0.0000 -10755.9659 1477.0992 0.0000 0.0000 1772.9032 -7479.7417 304.8575 -9252.6448 -7538.9793 300.1808 795.3472 817.2269 29858.1928 343.8734 401.6277
ENERGY: 1200000 2.3274 3.4419 13.6744 0.0000 -10805.1935 1438.0050 0.0000 0.0000 1794.6072 -7553.1376 308.5896 -9347.7448 -7543.3703 301.4808 37.5236 188.3884 29770.9862 264.4930 327.5495
ENERGY: 1500000 3.2166 3.7292 15.8651 0.0000 -10751.9653 1442.0132 0.0000 0.0000 1764.1939 -7522.9472 303.3599 -9287.1411 -7548.0017 300.9889 -13.9676 42.7828 30055.8409 206.2345 269.2540
TCL: Running FEP window  19: Lambda1 0.09999999999999969 Lambda2 0.049999999999999684 [dLambda -0.05 ]
TCL: Setting parameter firsttimestep to 0
TCL: Setting parameter alchLambda to 0.09999999999999969
Info: NONBONDED TABLE R-SQUARED SPACING: 0.0625
Info: NONBONDED TABLE SIZE: 705 POINTS
TCL: Setting parameter alchLambda2 to 0.049999999999999684
Info: NONBONDED TABLE R-SQUARED SPACING: 0.0625
Info: NONBONDED TABLE SIZE: 705 POINTS
TCL: Running for 1500000 steps
ETITLE: TS BOND ANGLE DIHED IMPRP ELECT VDW BOUNDARY MISC KINETIC TOTAL TEMP POTENTIAL TOTALAVG TEMPAVG PRESSURE GPRESSURE VOLUME PRESSAVG GPRESSAVG
ENERGY: 0 3.2166 3.7292 15.8651 0.0000 -10751.9651 1440.1742 0.0000 0.0000 1763.2940 -7525.6859 303.2052 -9288.9799 -7525.6859 303.2052 -47.0021 34.3141 30055.8409 -47.0021 34.3141
ENERGY: 300000 1.0665 4.7734 16.3491 0.0000 -10826.9767 1459.3826 0.0000 0.0000 1698.6164 -7646.7887 292.0836 -9345.4051 -7583.6975 299.4131 319.4800 361.9344 29415.5163 22.3527 91.4703
ENERGY: 600000 3.6444 6.6215 14.7232 0.0000 -10684.5976 1374.9922 0.0000 0.0000 1717.7199 -7566.8964 295.3685 -9284.6163 -7595.1664 296.7637 -631.8530 -581.7213 30299.8383 -129.7630 -79.6946
ENERGY: 900000 3.7201 4.2984 17.2816 0.0000 -10856.7385 1539.4673 0.0000 0.0000 1773.4950 -7518.4760 304.9593 -9291.9711 -7578.3188 297.9957 998.9608 1068.8778 29500.0353 4.9724 58.0878
ENERGY: 1200000 2.1382 3.3790 15.2082 0.0000 -10567.1624 1334.9174 0.0000 0.0000 1841.2585 -7370.2612 316.6115 -9211.5197 -7550.2491 299.4668 -534.4710 -512.1307 30262.8324 -69.6253 -13.9974
ENERGY: 1500000 4.0033 4.4812 14.1549 0.0000 -10662.5063 1407.7353 0.0000 0.0000 1762.9730 -7469.1585 303.1500 -9232.1315 -7540.8354 300.8001 -204.7901 -110.5380 30321.7429 -78.7303 -18.3955
TCL: Running FEP window  20: Lambda1 0.049999999999999684 Lambda2 0.0    [dLambda -0.049999999999999684]
TCL: Setting parameter firsttimestep to 0
TCL: Setting parameter alchLambda to 0.049999999999999684
Info: NONBONDED TABLE R-SQUARED SPACING: 0.0625
Info: NONBONDED TABLE SIZE: 705 POINTS
TCL: Setting parameter alchLambda2 to 0.0
Info: NONBONDED TABLE R-SQUARED SPACING: 0.0625
Info: NONBONDED TABLE SIZE: 705 POINTS
TCL: Running for 1500000 steps
ETITLE: TS BOND ANGLE DIHED IMPRP ELECT VDW BOUNDARY MISC KINETIC TOTAL TEMP POTENTIAL TOTALAVG TEMPAVG PRESSURE GPRESSURE VOLUME PRESSAVG GPRESSAVG
ENERGY: 0 4.0033 4.4812 14.1549 0.0000 -10662.5060 1408.0081 0.0000 0.0000 1762.0732 -7469.7852 302.9952 -9231.8584 -7469.7852 302.9952 -210.5429 -112.8111 30321.7429 -210.5429 -112.8111
ENERGY: 300000 2.7380 4.2030 12.8916 0.0000 -10775.5996 1444.6874 0.0000 0.0000 1796.6455 -7514.4341 308.9401 -9311.0796 -7516.3093 304.3692 31.6505 103.2174 30219.4165 -319.5568 -206.6631
ENERGY: 600000 3.7664 1.6201 13.5909 0.0000 -10716.5216 1448.4705 0.0000 0.0000 1779.2896 -7469.7841 305.9557 -9249.0737 -7512.3730 303.8587 496.0954 554.6578 29954.5558 -122.6935 -46.2602
ENERGY: 900000 3.0697 4.7566 21.8776 0.0000 -10594.7377 1370.5340 0.0000 0.0000 1730.7870 -7463.7128 297.6155 -9194.4998 -7508.8354 302.0759 -210.4214 -169.4146 29914.1531 -25.1482 45.8764
ENERGY: 1200000 3.8729 4.9976 13.7351 0.0000 -10841.5257 1490.6276 0.0000 0.0000 1745.8941 -7582.3984 300.2132 -9328.2926 -7531.0656 301.1202 377.2233 476.0654 29864.5954 29.6378 101.3155
ENERGY: 1500000 1.5746 3.2625 15.3149 0.0000 -10712.2651 1356.6917 0.0000 0.0000 1702.6381 -7632.7832 292.7751 -9335.4213 -7529.9917 301.0809 -1002.5059 -888.3051 30488.2845 -20.7980 54.4822
TCL: Exiting due to exit command.
