Info: SIMULATION PARAMETERS:
Info: TIMESTEP               2
Info: NUMBER OF STEPS        0
Info: STEPS PER CYCLE        10
Info: PERIODIC CELL BASIS 1  31.8677 0 0
Info: PERIODIC CELL BASIS 2  0 31.1035 0
Info: PERIODIC CELL BASIS 3  0 0 30.7021
Info: PERIODIC CELL CENTER   0 0 0
Info: WRAPPING WATERS AROUND PERIODIC BOUNDARIES ON OUTPUT.
Info: WRAPPING ALL CLUSTERS AROUND PERIODIC BOUNDARIES ON OUTPUT.
Info: FIRST LDB TIMESTEP     50
Info: LAST LDB TIMESTEP     -1
Info: HOM BACKGROUND SCALING 1
Info: PME BACKGROUND SCALING 1
Info: MIN ATOMS PER PATCH    40
Info: EMPTY PATCH LOAD       40 ATOMS
Info: VELOCITY FILE          mobley_7017274_equil.vel
Info: CENTER OF MASS MOVING INITIALLY? NO
Info: DIELECTRIC             1
Info: EXCLUDE                SCALED ONE-FOUR
Info: 1-4 ELECTROSTATICS SCALED BY 0.833333
Info: MODIFIED 1-4 VDW PARAMETERS WILL BE USED
Info: DCD FILENAME           mobley_7017274_prod.dcd
Info: DCD FREQUENCY          100000
Info: DCD FIRST STEP         100000
Info: DCD FILE WILL CONTAIN UNIT CELL DATA
Info: XST FILENAME           mobley_7017274_prod.xst
Info: XST FREQUENCY          100000
Info: NO VELOCITY DCD OUTPUT
Info: NO FORCE DCD OUTPUT
Info: OUTPUT FILENAME        mobley_7017274_prod
Info: BINARY OUTPUT FILES WILL BE USED
Info: RESTART FILENAME       mobley_7017274_prod.restart
Info: RESTART FREQUENCY      100000
Info: BINARY RESTART FILES WILL BE USED
Info: CUTOFF                 9
Info: PAIRLIST DISTANCE      11
Info: PAIRLIST SHRINK RATE   0.01
Info: PAIRLIST GROW RATE     0.01
Info: PAIRLIST TRIGGER       0.3
Info: PAIRLISTS PER CYCLE    2
Info: PAIRLISTS ENABLED
Info: MARGIN                 2
Info: HYDROGEN GROUP CUTOFF  2.5
Info: PATCH DIMENSION        15.5
Info: ENERGY OUTPUT STEPS    100000
Info: ENERGY EVALUATION STEPS    100000
Info: OUTPUT ENERGY PRECISION 4
Info: CROSSTERM ENERGY INCLUDED IN DIHEDRAL
Info: TIMING OUTPUT STEPS    1000000
Info: PRESSURE OUTPUT STEPS  100000
Info: ALCHEMICAL FEP ON
Info: FEP CURRENT LAMBDA VALUE     1
Info: FEP COMPARISON LAMBDA VALUE  0.95
Info: FEP INTRA-ALCHEMICAL NON-BONDED INTERACTIONS WILL BE RETAINED
Info: FEP INTRA-ALCHEMICAL BONDED INTERACTIONS WILL BE RETAINED
Info: FEP VDW SHIFTING COEFFICIENT 5
Info: FEP ELEC. ACTIVE FOR ANNIHILATED PARTICLES BETWEEN LAMBDA = 0 AND LAMBDA = 0.5
Info: FEP ELEC. ACTIVE FOR EXNIHILATED PARTICLES BETWEEN LAMBDA = 0.5 AND LAMBDA = 1
Info: FEP VDW ACTIVE FOR ANNIHILATED PARTICLES BETWEEN LAMBDA = 0 AND LAMBDA = 1
Info: FEP VDW ACTIVE FOR EXNIHILATED PARTICLES BETWEEN LAMBDA = 0 AND LAMBDA = 1
Info: FEP BOND ACTIVE FOR ANNIHILATED PARTICLES BETWEEN LAMBDA = 1 AND LAMBDA = 1
Info: FEP BOND ACTIVE FOR EXNIHILATED PARTICLES BETWEEN LAMBDA = 0 AND LAMBDA = 0
Info: LANGEVIN DYNAMICS ACTIVE
Info: LANGEVIN TEMPERATURE   300
Info: LANGEVIN USING BBK INTEGRATOR
Info: LANGEVIN DAMPING COEFFICIENT IS 1 INVERSE PS
Info: LANGEVIN DYNAMICS APPLIED TO HYDROGENS
Info: LANGEVIN PISTON PRESSURE CONTROL ACTIVE
Info:        TARGET PRESSURE IS 1.01325 BAR
Info:     OSCILLATION PERIOD IS 50 FS
Info:             DECAY TIME IS 25 FS
Info:     PISTON TEMPERATURE IS 300 K
Info:       PRESSURE CONTROL IS GROUP-BASED
Info:    INITIAL STRAIN RATE IS -1.66866e-06 -1.66866e-06 -1.66866e-06
Info:       CELL FLUCTUATION IS ISOTROPIC
Info: PARTICLE MESH EWALD (PME) ACTIVE
Info: PME TOLERANCE               1e-06
Info: PME EWALD COEFFICIENT       0.348832
Info: PME INTERPOLATION ORDER     4
Info: PME GRID DIMENSIONS         32 32 32
Info: PME MAXIMUM GRID SPACING    1
Info: PME CALCULATION WILL BE PERFORMED ON GPU
Info: FULL ELECTROSTATIC EVALUATION FREQUENCY      2
Info: USING VERLET I (r-RESPA) MTS SCHEME.
Info: C1 SPLITTING OF LONG RANGE ELECTROSTATICS
Info: PLACING ATOMS IN PATCHES BY HYDROGEN GROUPS
Info: RIGID BONDS TO HYDROGEN : ALL
Info:         ERROR TOLERANCE : 1e-08
Info:          MAX ITERATIONS : 100
Info: RIGID WATER USING SETTLE ALGORITHM
Info: RANDOM NUMBER SEED     1743654162
Info: USE HYDROGEN BONDS?    NO
Info: Using AMBER format force field!
Info: AMBER PARM FILE        mobley_7017274.prmtop
Info: COORDINATE PDB         mobley_7017274.pdb
Info: Exclusions will be read from PARM file!
Info: SCNB (VDW SCALING)     2
Info: USING ARITHMETIC MEAN TO COMBINE L-J SIGMA PARAMETERS
Info: BINARY COORDINATES     mobley_7017274_equil.coor
Info: SUMMARY OF PARAMETERS:
Info: 4 BONDS
Info: 2 ANGLES
Info:   2 HARMONIC
Info:   0 COSINE-BASED
Info: 2 DIHEDRAL
Info: 0 IMPROPER
Info: 0 CROSSTERM
Info: 0 VDW
Info: 10 VDW_PAIRS
Info: 0 NBTHOLE_PAIRS
Info: To read alchdata from file: mobley_7017274.pdb
Info: To read alchflag data from column: 5
Info: STRUCTURE SUMMARY:
Info: 2928 ATOMS
Info: 2930 BONDS
Info: 42 ANGLES
Info: 78 DIHEDRALS
Info: 0 IMPROPERS
Info: 0 CROSSTERMS
Info: 3027 EXCLUSIONS
Info: 2914 RIGID BONDS
Info: ALCH: 0 ATOMS TO DISAPPEAR IN FINAL STATE
Info: ALCH: 24 ATOMS TO APPEAR IN FINAL STATE
Info: 5870 DEGREES OF FREEDOM
Info: 982 HYDROGEN GROUPS
Info: 3 ATOMS IN LARGEST HYDROGEN GROUP
Info: 982 MIGRATION GROUPS
Info: 3 ATOMS IN LARGEST MIGRATION GROUP
Info: TOTAL MASS = 17617.7 amu
Info: TOTAL CHARGE = -0.000199988 e
Info: MASS DENSITY = 0.96135 g/cm^3
Info: ATOM DENSITY = 0.0962152 atoms/A^3
Info: ADDED 0 IMPLICIT EXCLUSIONS
Info: NONBONDED TABLE R-SQUARED SPACING: 0.0625
Info: NONBONDED TABLE SIZE: 705 POINTS
Info: REDUCING NUMBER OF PATCHES TO IMPROVE LOAD BALANCE
Info: REMOVING COM VELOCITY 0.0128959 -0.0346302 -0.163209
Info: Use 3D box decompostion in PME FFT.
Info: Updated CUDA force table with 4096 elements.
Info: Updated CUDA LJ table with 4 x 4 elements.
Info: Found 24 unique exclusion lists needing 76 bytes
TCL: Running for 1500000 steps
ETITLE: TS BOND ANGLE DIHED IMPRP ELECT VDW BOUNDARY MISC KINETIC TOTAL TEMP POTENTIAL TOTALAVG TEMPAVG PRESSURE GPRESSURE VOLUME PRESSAVG GPRESSAVG
ENERGY: 0 5.8010 10.8027 4.1114 0.0000 -10588.9386 1444.4652 0.0000 0.0000 1827.8375 -7295.9208 313.3934 -9123.7582 -7295.9208 313.3934 146.3266 222.1186 30431.7776 146.3266 222.1186
ENERGY: 300000 5.0987 6.8358 4.8087 0.0000 -10533.1397 1392.5793 0.0000 0.0000 1816.2865 -7307.5308 311.4129 -9123.8172 -7335.8343 306.0280 -136.0113 -69.5981 30002.3380 36.8838 97.7164
ENERGY: 600000 6.5035 5.6803 5.6770 0.0000 -10584.5337 1417.4724 0.0000 0.0000 1771.1617 -7378.0389 303.6760 -9149.2005 -7347.5387 304.9234 320.5647 393.0007 29700.1614 -93.1080 -29.7477
ENERGY: 900000 2.8970 6.9985 7.5571 0.0000 -10573.8641 1440.3668 0.0000 0.0000 1770.9451 -7345.0995 303.6389 -9116.0446 -7339.2847 303.7858 240.3504 286.9440 29988.2224 -112.3570 -44.2117
ENERGY: 1200000 7.2512 5.8828 7.5161 0.0000 -10392.3999 1345.5377 0.0000 0.0000 1787.9868 -7238.2254 306.5608 -9026.2122 -7338.4195 303.0839 -468.0382 -400.2113 30460.0139 -141.6901 -71.2045
ENERGY: 1500000 6.7152 4.3920 9.4111 0.0000 -10741.2875 1477.7388 0.0000 0.0000 1749.3268 -7493.7036 299.9323 -9243.0304 -7352.8661 302.9089 202.0717 256.5683 29933.7270 -131.9336 -62.3720
TCL: Running FEP window   2: Lambda1 0.95   Lambda2 0.8999999999999999 [dLambda -0.050000000000000044]
TCL: Setting parameter firsttimestep to 0
TCL: Setting parameter alchLambda to 0.95
Info: NONBONDED TABLE R-SQUARED SPACING: 0.0625
Info: NONBONDED TABLE SIZE: 705 POINTS
TCL: Setting parameter alchLambda2 to 0.8999999999999999
Info: NONBONDED TABLE R-SQUARED SPACING: 0.0625
Info: NONBONDED TABLE SIZE: 705 POINTS
TCL: Running for 1500000 steps
ETITLE: TS BOND ANGLE DIHED IMPRP ELECT VDW BOUNDARY MISC KINETIC TOTAL TEMP POTENTIAL TOTALAVG TEMPAVG PRESSURE GPRESSURE VOLUME PRESSAVG GPRESSAVG
ENERGY: 0 6.7152 4.3920 9.4111 0.0000 -10740.0720 1477.8451 0.0000 0.0000 1748.4445 -7493.2641 299.7810 -9241.7086 -7493.2641 299.7810 146.2237 237.8664 29933.7270 146.2237 237.8664
ENERGY: 300000 7.6613 9.8765 7.5073 0.0000 -10488.4962 1402.5689 0.0000 0.0000 1783.0187 -7277.8634 305.7090 -9060.8821 -7385.1638 300.1803 -337.3121 -242.6422 30779.9865 152.2804 248.2361
ENERGY: 600000 5.2063 5.3357 9.8519 0.0000 -10664.4953 1487.0920 0.0000 0.0000 1749.7083 -7407.3011 299.9977 -9157.0094 -7360.3449 301.8509 613.0057 669.2120 29868.6275 37.5077 127.7438
ENERGY: 900000 4.4196 3.4917 3.5338 0.0000 -10463.0621 1407.6536 0.0000 0.0000 1668.5183 -7375.4451 286.0772 -9043.9634 -7370.1929 299.2020 132.5293 185.3563 30291.9190 -38.0164 37.4076
ENERGY: 1200000 9.5155 8.9916 2.3140 0.0000 -10542.5016 1405.7500 0.0000 0.0000 1722.7713 -7393.1592 295.3792 -9115.9306 -7375.5976 299.0877 -353.7756 -301.5496 30265.1938 -8.5155 57.9381
ENERGY: 1500000 5.1364 4.2532 6.0999 0.0000 -10614.8803 1469.7906 0.0000 0.0000 1714.1696 -7415.4306 293.9044 -9129.6002 -7376.2887 299.0576 554.7112 623.1493 29886.0962 9.2923 78.3251
TCL: Running FEP window   3: Lambda1 0.8999999999999999 Lambda2 0.8499999999999999 [dLambda -0.050000000000000044]
TCL: Setting parameter firsttimestep to 0
TCL: Setting parameter alchLambda to 0.8999999999999999
Info: NONBONDED TABLE R-SQUARED SPACING: 0.0625
Info: NONBONDED TABLE SIZE: 705 POINTS
TCL: Setting parameter alchLambda2 to 0.8499999999999999
Info: NONBONDED TABLE R-SQUARED SPACING: 0.0625
Info: NONBONDED TABLE SIZE: 705 POINTS
TCL: Running for 1500000 steps
ETITLE: TS BOND ANGLE DIHED IMPRP ELECT VDW BOUNDARY MISC KINETIC TOTAL TEMP POTENTIAL TOTALAVG TEMPAVG PRESSURE GPRESSURE VOLUME PRESSAVG GPRESSAVG
ENERGY: 0 5.1364 4.2532 6.0999 0.0000 -10613.1767 1469.8511 0.0000 0.0000 1713.2959 -7414.5402 293.7546 -9127.8361 -7414.5402 293.7546 528.6619 610.3645 29886.0962 528.6619 610.3645
ENERGY: 300000 5.4357 5.5065 6.1181 0.0000 -10612.3110 1390.1188 0.0000 0.0000 1748.8840 -7456.2479 299.8564 -9205.1319 -7410.8646 296.5067 -675.5733 -568.6314 30102.4767 -18.0200 64.1265
ENERGY: 600000 7.4173 6.2108 7.0235 0.0000 -10567.3744 1416.5618 0.0000 0.0000 1788.8009 -7341.3601 306.7004 -9130.1610 -7388.6905 299.2556 -141.7174 -91.5527 29976.5376 -165.6114 -98.4290
ENERGY: 900000 4.8925 3.9161 10.2856 0.0000 -10437.9546 1311.9417 0.0000 0.0000 1723.7090 -7383.2098 295.5400 -9106.9188 -7386.3134 298.9632 -690.9375 -645.7411 30355.9009 -235.8207 -181.0462
ENERGY: 1200000 8.0420 4.5844 5.6871 0.0000 -10629.7020 1461.0128 0.0000 0.0000 1757.1778 -7393.1980 301.2784 -9150.3758 -7387.0481 299.0994 -166.0519 -85.0527 30473.3736 -276.9082 -221.7243
ENERGY: 1500000 6.1731 5.6876 6.9848 0.0000 -10725.8001 1557.7081 0.0000 0.0000 1694.1447 -7455.1018 290.4710 -9149.2466 -7397.7245 297.7155 999.8711 1086.7377 29688.3901 -167.8915 -114.3466
TCL: Running FEP window   4: Lambda1 0.8499999999999999 Lambda2 0.7999999999999998 [dLambda -0.050000000000000044]
TCL: Setting parameter firsttimestep to 0
TCL: Setting parameter alchLambda to 0.8499999999999999
Info: NONBONDED TABLE R-SQUARED SPACING: 0.0625
Info: NONBONDED TABLE SIZE: 705 POINTS
TCL: Setting parameter alchLambda2 to 0.7999999999999998
Info: NONBONDED TABLE R-SQUARED SPACING: 0.0625
Info: NONBONDED TABLE SIZE: 705 POINTS
TCL: Running for 1500000 steps
ETITLE: TS BOND ANGLE DIHED IMPRP ELECT VDW BOUNDARY MISC KINETIC TOTAL TEMP POTENTIAL TOTALAVG TEMPAVG PRESSURE GPRESSURE VOLUME PRESSAVG GPRESSAVG
ENERGY: 0 6.1731 5.6876 6.9848 0.0000 -10724.5747 1558.5074 0.0000 0.0000 1693.2750 -7453.9467 290.3219 -9147.2217 -7453.9467 290.3219 1004.7933 1085.4377 29688.3901 1004.7933 1085.4377
ENERGY: 300000 5.9422 8.3559 6.4027 0.0000 -10725.6281 1498.2074 0.0000 0.0000 1783.3810 -7423.3388 305.7711 -9206.7199 -7395.8658 300.0465 219.0008 248.8192 30248.5112 325.7751 393.9856
ENERGY: 600000 4.1187 3.4559 8.9849 0.0000 -10423.1184 1288.6521 0.0000 0.0000 1734.1367 -7383.7701 297.3279 -9117.9068 -7383.4253 300.2169 -721.2395 -716.5606 29949.2472 166.8289 212.7088
ENERGY: 900000 5.7547 3.8679 6.4766 0.0000 -10489.9681 1364.5897 0.0000 0.0000 1787.0867 -7322.1925 306.4065 -9109.2792 -7382.7943 300.5137 -361.9350 -340.3479 30203.7836 61.0407 107.7987
ENERGY: 1200000 4.3387 11.0084 6.4951 0.0000 -10740.3305 1534.1020 0.0000 0.0000 1705.6745 -7478.7118 292.4479 -9184.3863 -7391.3322 299.8634 454.0018 541.4059 30198.6893 147.3188 198.7874
ENERGY: 1500000 6.9036 7.0819 7.8642 0.0000 -10574.1258 1403.7341 0.0000 0.0000 1716.5872 -7431.9548 294.3189 -9148.5420 -7386.1511 299.7403 -492.2475 -389.5912 30432.8438 127.9239 180.8160
TCL: Running FEP window   5: Lambda1 0.7999999999999998 Lambda2 0.7499999999999998 [dLambda -0.050000000000000044]
TCL: Setting parameter firsttimestep to 0
TCL: Setting parameter alchLambda to 0.7999999999999998
Info: NONBONDED TABLE R-SQUARED SPACING: 0.0625
Info: NONBONDED TABLE SIZE: 705 POINTS
TCL: Setting parameter alchLambda2 to 0.7499999999999998
Info: NONBONDED TABLE R-SQUARED SPACING: 0.0625
Info: NONBONDED TABLE SIZE: 705 POINTS
TCL: Running for 1500000 steps
ETITLE: TS BOND ANGLE DIHED IMPRP ELECT VDW BOUNDARY MISC KINETIC TOTAL TEMP POTENTIAL TOTALAVG TEMPAVG PRESSURE GPRESSURE VOLUME PRESSAVG GPRESSAVG
ENERGY: 0 6.9036 7.0819 7.8642 0.0000 -10573.5288 1403.6357 0.0000 0.0000 1715.7219 -7432.3215 294.1705 -9148.0434 -7432.3215 294.1705 -487.9267 -403.9676 30432.8438 -487.9267 -403.9676
ENERGY: 300000 3.6513 5.3724 9.5467 0.0000 -10514.7782 1381.9830 0.0000 0.0000 1790.3217 -7323.9031 306.9611 -9114.2248 -7398.1497 299.3975 -168.0359 -58.8052 29883.8915 -211.6782 -141.4414
ENERGY: 600000 6.3737 6.2435 5.4911 0.0000 -10662.6563 1490.3689 0.0000 0.0000 1738.5594 -7415.6197 298.0862 -9154.1791 -7379.0064 299.6698 318.0563 455.4392 30135.4100 2.7173 81.4231
ENERGY: 900000 7.3734 4.0227 8.5533 0.0000 -10438.9269 1347.2113 0.0000 0.0000 1701.7281 -7370.0381 291.7712 -9071.7662 -7375.4519 299.2963 -490.6223 -459.5746 29934.7264 41.2364 117.6947
ENERGY: 1200000 4.2958 6.4199 10.5506 0.0000 -10529.4733 1408.6333 0.0000 0.0000 1794.0201 -7305.5537 307.5952 -9099.5738 -7376.3607 299.3457 197.7562 217.3460 30029.9443 -23.4822 54.6271
ENERGY: 1500000 5.2030 7.6529 5.4572 0.0000 -10646.1807 1507.9236 0.0000 0.0000 1713.0168 -7406.9272 293.7067 -9119.9440 -7373.3006 298.8631 481.0393 557.1942 30349.7791 -65.3389 13.3833
TCL: Running FEP window   6: Lambda1 0.7499999999999998 Lambda2 0.6999999999999997 [dLambda -0.050000000000000044]
TCL: Setting parameter firsttimestep to 0
TCL: Setting parameter alchLambda to 0.7499999999999998
Info: NONBONDED TABLE R-SQUARED SPACING: 0.0625
Info: NONBONDED TABLE SIZE: 705 POINTS
TCL: Setting parameter alchLambda2 to 0.6999999999999997
Info: NONBONDED TABLE R-SQUARED SPACING: 0.0625
Info: NONBONDED TABLE SIZE: 705 POINTS
TCL: Running for 1500000 steps
ETITLE: TS BOND ANGLE DIHED IMPRP ELECT VDW BOUNDARY MISC KINETIC TOTAL TEMP POTENTIAL TOTALAVG TEMPAVG PRESSURE GPRESSURE VOLUME PRESSAVG GPRESSAVG
ENERGY: 0 5.2030 7.6529 5.4572 0.0000 -10644.8802 1508.0556 0.0000 0.0000 1712.1547 -7406.3568 293.5589 -9118.5115 -7406.3568 293.5589 454.8763 547.8835 30349.7791 454.8763 547.8835
ENERGY: 300000 4.3175 7.2811 7.2922 0.0000 -10580.7062 1530.5988 0.0000 0.0000 1702.3089 -7328.9077 291.8708 -9031.2166 -7397.1227 293.6218 800.3693 845.2743 30447.0087 159.8510 216.7902
ENERGY: 600000 6.0304 6.3083 7.0507 0.0000 -10537.4423 1417.8439 0.0000 0.0000 1771.7692 -7328.4397 303.7802 -9100.2089 -7380.7366 297.3677 14.9315 65.7974 29904.2533 139.8665 197.5466
ENERGY: 900000 4.3808 8.2106 5.9747 0.0000 -10544.9874 1398.5084 0.0000 0.0000 1775.7205 -7352.1923 304.4577 -9127.9128 -7374.5371 298.4258 -344.9815 -279.0626 30780.3330 165.8447 233.4581
ENERGY: 1200000 5.6295 7.4961 6.6640 0.0000 -10445.7173 1333.7178 0.0000 0.0000 1755.6215 -7336.5883 301.0116 -9092.2099 -7364.7694 299.2149 -939.1539 -900.7705 30766.0075 57.4772 126.5142
ENERGY: 1500000 3.4758 6.5228 7.9719 0.0000 -10547.1825 1455.3187 0.0000 0.0000 1749.0898 -7324.8035 299.8917 -9073.8933 -7364.0795 299.8908 173.1066 292.2257 30342.0418 43.4649 116.4181
TCL: Running FEP window   7: Lambda1 0.6999999999999997 Lambda2 0.6499999999999997 [dLambda -0.050000000000000044]
TCL: Setting parameter firsttimestep to 0
TCL: Setting parameter alchLambda to 0.6999999999999997
Info: NONBONDED TABLE R-SQUARED SPACING: 0.0625
Info: NONBONDED TABLE SIZE: 705 POINTS
TCL: Setting parameter alchLambda2 to 0.6499999999999997
Info: NONBONDED TABLE R-SQUARED SPACING: 0.0625
Info: NONBONDED TABLE SIZE: 705 POINTS
TCL: Running for 1500000 steps
ETITLE: TS BOND ANGLE DIHED IMPRP ELECT VDW BOUNDARY MISC KINETIC TOTAL TEMP POTENTIAL TOTALAVG TEMPAVG PRESSURE GPRESSURE VOLUME PRESSAVG GPRESSAVG
ENERGY: 0 3.4758 6.5228 7.9719 0.0000 -10546.1642 1454.7269 0.0000 0.0000 1748.2489 -7325.2179 299.7475 -9073.4668 -7325.2179 299.7475 194.8528 275.5449 30342.0418 194.8528 275.5449
ENERGY: 300000 9.1184 5.8996 4.2004 0.0000 -10428.9037 1288.5135 0.0000 0.0000 1704.7757 -7416.3960 292.2938 -9121.1718 -7369.9295 300.6209 -1364.2214 -1236.1547 30241.3799 -35.9745 27.4837
ENERGY: 600000 6.1359 4.9762 5.1096 0.0000 -10627.8920 1450.4877 0.0000 0.0000 1755.1146 -7406.0680 300.9247 -9161.1826 -7390.5937 297.3516 6.6864 110.4447 29916.1570 -79.4570 -19.7710
ENERGY: 900000 5.6663 6.6637 6.5817 0.0000 -10530.1703 1475.9771 0.0000 0.0000 1761.8527 -7273.4289 302.0799 -9035.2816 -7367.2117 299.4203 667.8765 731.7447 30140.4361 -28.9574 27.9281
ENERGY: 1200000 4.1611 6.4804 5.1895 0.0000 -10759.2550 1519.4108 0.0000 0.0000 1745.5112 -7478.5019 299.2781 -9224.0131 -7385.2526 298.9458 317.3724 420.9461 30059.7498 -17.3097 44.0454
ENERGY: 1500000 9.0301 5.2669 5.3997 0.0000 -10550.7145 1399.8793 0.0000 0.0000 1763.8067 -7367.3317 302.4150 -9131.1384 -7380.8267 299.3031 -331.9522 -347.8390 30354.1444 -56.4242 0.9548
TCL: Running FEP window   8: Lambda1 0.6499999999999997 Lambda2 0.5999999999999996 [dLambda -0.050000000000000044]
TCL: Setting parameter firsttimestep to 0
TCL: Setting parameter alchLambda to 0.6499999999999997
Info: NONBONDED TABLE R-SQUARED SPACING: 0.0625
Info: NONBONDED TABLE SIZE: 705 POINTS
TCL: Setting parameter alchLambda2 to 0.5999999999999996
Info: NONBONDED TABLE R-SQUARED SPACING: 0.0625
Info: NONBONDED TABLE SIZE: 705 POINTS
TCL: Running for 1500000 steps
ETITLE: TS BOND ANGLE DIHED IMPRP ELECT VDW BOUNDARY MISC KINETIC TOTAL TEMP POTENTIAL TOTALAVG TEMPAVG PRESSURE GPRESSURE VOLUME PRESSAVG GPRESSAVG
ENERGY: 0 9.0301 5.2669 5.3997 0.0000 -10549.7556 1400.3689 0.0000 0.0000 1762.9931 -7366.6968 302.2755 -9129.6899 -7366.6968 302.2755 -438.9093 -352.2208 30354.1444 -438.9093 -352.2208
ENERGY: 300000 7.1912 8.9583 6.3027 0.0000 -10619.3048 1444.5154 0.0000 0.0000 1742.6399 -7409.6973 298.7858 -9152.3372 -7360.2324 301.2355 -33.6717 50.4757 30279.7668 199.6925 267.1848
ENERGY: 600000 3.8133 7.5313 7.6054 0.0000 -10474.6202 1407.8586 0.0000 0.0000 1746.7978 -7301.0138 299.4987 -9047.8116 -7356.6225 300.2391 -293.0657 -258.0714 30871.1740 134.9102 195.5260
ENERGY: 900000 4.2706 6.7642 4.5091 0.0000 -10514.0663 1423.4870 0.0000 0.0000 1690.9485 -7384.0868 289.9230 -9075.0353 -7362.6058 300.4130 81.7112 139.9861 30006.8154 -15.8994 43.9274
ENERGY: 1200000 7.4058 6.7180 7.9493 0.0000 -10510.9476 1393.7547 0.0000 0.0000 1748.8591 -7346.2607 299.8521 -9095.1198 -7366.0341 299.8059 -154.2571 -101.2899 29978.6646 23.5605 88.9930
ENERGY: 1500000 7.5867 5.8395 11.2352 0.0000 -10460.0472 1378.0171 0.0000 0.0000 1791.4657 -7265.9029 307.1573 -9057.3686 -7357.2331 301.2903 -267.5697 -215.8974 30420.8902 -131.4485 -74.3517
TCL: Running FEP window   9: Lambda1 0.5999999999999996 Lambda2 0.5499999999999996 [dLambda -0.050000000000000044]
TCL: Setting parameter firsttimestep to 0
TCL: Setting parameter alchLambda to 0.5999999999999996
Info: NONBONDED TABLE R-SQUARED SPACING: 0.0625
Info: NONBONDED TABLE SIZE: 705 POINTS
TCL: Setting parameter alchLambda2 to 0.5499999999999996
Info: NONBONDED TABLE R-SQUARED SPACING: 0.0625
Info: NONBONDED TABLE SIZE: 705 POINTS
TCL: Running for 1500000 steps
ETITLE: TS BOND ANGLE DIHED IMPRP ELECT VDW BOUNDARY MISC KINETIC TOTAL TEMP POTENTIAL TOTALAVG TEMPAVG PRESSURE GPRESSURE VOLUME PRESSAVG GPRESSAVG
ENERGY: 0 7.5867 5.8395 11.2352 0.0000 -10459.5676 1378.6333 0.0000 0.0000 1790.5654 -7265.7074 307.0029 -9056.2728 -7265.7074 307.0029 -295.2319 -218.1684 30420.8902 -295.2319 -218.1684
ENERGY: 300000 7.6039 5.9677 3.5683 0.0000 -10538.7344 1361.5879 0.0000 0.0000 1771.4288 -7388.5778 303.7218 -9160.0065 -7375.6802 304.2627 -881.2647 -779.1817 30064.3344 -496.3843 -442.3991
ENERGY: 600000 7.6456 4.8692 4.2447 0.0000 -10544.2173 1451.6006 0.0000 0.0000 1795.3499 -7280.5074 307.8232 -9075.8573 -7361.1468 304.0467 -36.0561 99.9918 30510.4757 0.9021 59.5495
ENERGY: 900000 4.1078 5.9617 6.8680 0.0000 -10474.8711 1348.6429 0.0000 0.0000 1785.5348 -7323.7559 306.1404 -9109.2907 -7365.8774 304.1890 -493.4154 -395.5306 29979.1533 -23.6117 33.1932
ENERGY: 1200000 8.1374 4.0973 4.5582 0.0000 -10455.8280 1360.8578 0.0000 0.0000 1773.3062 -7304.8711 304.0437 -9078.1773 -7368.5474 303.0730 -826.0434 -773.5662 30609.8224 -67.2135 -13.1993
ENERGY: 1500000 3.8173 8.8548 6.6088 0.0000 -10541.7311 1400.3780 0.0000 0.0000 1743.2546 -7378.8177 298.8912 -9122.0723 -7375.4279 301.3346 -119.1055 -64.6246 30081.5449 -170.6374 -122.3453
TCL: Running FEP window  10: Lambda1 0.5499999999999996 Lambda2 0.4999999999999996 [dLambda -0.04999999999999999]
TCL: Setting parameter firsttimestep to 0
TCL: Setting parameter alchLambda to 0.5499999999999996
Info: NONBONDED TABLE R-SQUARED SPACING: 0.0625
Info: NONBONDED TABLE SIZE: 705 POINTS
TCL: Setting parameter alchLambda2 to 0.4999999999999996
Info: NONBONDED TABLE R-SQUARED SPACING: 0.0625
Info: NONBONDED TABLE SIZE: 705 POINTS
TCL: Running for 1500000 steps
ETITLE: TS BOND ANGLE DIHED IMPRP ELECT VDW BOUNDARY MISC KINETIC TOTAL TEMP POTENTIAL TOTALAVG TEMPAVG PRESSURE GPRESSURE VOLUME PRESSAVG GPRESSAVG
ENERGY: 0 3.8173 8.8548 6.6088 0.0000 -10541.5621 1400.5090 0.0000 0.0000 1742.3836 -7379.3887 298.7418 -9121.7723 -7379.3887 298.7418 -152.6721 -73.5205 30081.5449 -152.6721 -73.5205
ENERGY: 300000 6.0628 6.1684 5.4292 0.0000 -10361.8458 1334.6294 0.0000 0.0000 1717.2309 -7292.3250 294.4293 -9009.5559 -7328.7132 296.5143 -566.6164 -517.9976 30193.2814 -395.5043 -334.8511
ENERGY: 600000 5.5406 6.4076 6.3623 0.0000 -10579.7180 1447.1859 0.0000 0.0000 1757.1729 -7357.0486 301.2776 -9114.2215 -7344.4999 296.5869 340.3797 410.1264 29918.2487 -150.3396 -80.4273
ENERGY: 900000 5.0399 7.0941 6.6172 0.0000 -10612.0335 1478.9238 0.0000 0.0000 1775.0207 -7339.3379 304.3377 -9114.3587 -7360.6617 296.5828 299.2100 363.8910 29925.5755 -198.9040 -125.3780
ENERGY: 1200000 4.9806 8.0337 4.9809 0.0000 -10521.0348 1400.2804 0.0000 0.0000 1779.1084 -7323.6508 305.0385 -9102.7592 -7367.5137 298.2407 -153.1410 -82.9982 30293.3429 -44.1305 30.0451
ENERGY: 1500000 4.6368 9.0010 11.7610 0.0000 -10523.6448 1393.7340 0.0000 0.0000 1727.5567 -7376.9553 296.1997 -9104.5120 -7377.8947 297.7038 -437.8560 -358.5959 30266.7582 -157.3417 -84.7722
TCL: Running FEP window  11: Lambda1 0.4999999999999996 Lambda2 0.4499999999999996 [dLambda -0.04999999999999999]
TCL: Setting parameter firsttimestep to 0
TCL: Setting parameter alchLambda to 0.4999999999999996
Info: NONBONDED TABLE R-SQUARED SPACING: 0.0625
Info: NONBONDED TABLE SIZE: 705 POINTS
TCL: Setting parameter alchLambda2 to 0.4499999999999996
Info: NONBONDED TABLE R-SQUARED SPACING: 0.0625
Info: NONBONDED TABLE SIZE: 705 POINTS
TCL: Running for 1500000 steps
ETITLE: TS BOND ANGLE DIHED IMPRP ELECT VDW BOUNDARY MISC KINETIC TOTAL TEMP POTENTIAL TOTALAVG TEMPAVG PRESSURE GPRESSURE VOLUME PRESSAVG GPRESSAVG
ENERGY: 0 4.6368 9.0010 11.7610 0.0000 -10522.9919 1394.4760 0.0000 0.0000 1726.7053 -7376.4118 296.0537 -9103.1171 -7376.4118 296.0537 -449.7451 -362.0405 30266.7582 -449.7451 -362.0405
ENERGY: 300000 2.5357 5.8337 6.4686 0.0000 -10588.9270 1446.2316 0.0000 0.0000 1702.8834 -7424.9740 291.9693 -9127.8574 -7372.5782 297.1682 -104.1709 -49.2122 30460.4765 179.8550 233.1662
ENERGY: 600000 10.5830 5.3285 8.9581 0.0000 -10610.7272 1465.4372 0.0000 0.0000 1675.5631 -7444.8572 287.2851 -9120.4203 -7378.1096 296.5615 160.5710 201.5295 29915.6952 158.0665 219.2722
ENERGY: 900000 4.4006 8.1674 5.0914 0.0000 -10523.5893 1431.7810 0.0000 0.0000 1720.1037 -7354.0452 294.9218 -9074.1489 -7370.7669 296.2783 -27.8762 71.7077 30302.0162 101.0236 166.4092
ENERGY: 1200000 7.6434 5.3728 7.5531 0.0000 -10681.6063 1459.4453 0.0000 0.0000 1713.1941 -7488.3976 293.7371 -9201.5917 -7377.5594 297.1105 14.3068 24.9419 30194.4885 185.5114 247.8414
ENERGY: 1500000 6.2965 5.1448 6.9636 0.0000 -10406.8707 1344.0966 0.0000 0.0000 1713.8636 -7330.5056 293.8519 -9044.3691 -7367.0299 297.5882 -609.4769 -411.6900 30039.0945 151.7472 223.9103
TCL: Running FEP window  12: Lambda1 0.4499999999999996 Lambda2 0.39999999999999963 [dLambda -0.04999999999999999]
TCL: Setting parameter firsttimestep to 0
TCL: Setting parameter alchLambda to 0.4499999999999996
Info: NONBONDED TABLE R-SQUARED SPACING: 0.0625
Info: NONBONDED TABLE SIZE: 705 POINTS
TCL: Setting parameter alchLambda2 to 0.39999999999999963
Info: NONBONDED TABLE R-SQUARED SPACING: 0.0625
Info: NONBONDED TABLE SIZE: 705 POINTS
TCL: Running for 1500000 steps
ETITLE: TS BOND ANGLE DIHED IMPRP ELECT VDW BOUNDARY MISC KINETIC TOTAL TEMP POTENTIAL TOTALAVG TEMPAVG PRESSURE GPRESSURE VOLUME PRESSAVG GPRESSAVG
ENERGY: 0 6.2965 5.1448 6.9636 0.0000 -10406.8709 1345.0482 0.0000 0.0000 1713.0473 -7330.3704 293.7120 -9043.4177 -7330.3704 293.7120 -510.9261 -410.8689 30039.0945 -510.9261 -410.8689
ENERGY: 300000 7.4410 2.5091 9.5367 0.0000 -10521.5749 1444.9749 0.0000 0.0000 1722.0949 -7335.0184 295.2632 -9057.1133 -7368.5035 296.6784 165.8206 247.8382 30199.6865 -357.4239 -288.1952
ENERGY: 600000 4.1246 6.3811 4.3506 0.0000 -10533.5216 1401.5504 0.0000 0.0000 1782.8517 -7334.2633 305.6803 -9117.1149 -7366.3889 297.5626 -301.5191 -196.4521 30134.8734 -331.8975 -267.9661
ENERGY: 900000 6.4648 8.3571 7.5312 0.0000 -10559.4167 1392.6700 0.0000 0.0000 1759.0511 -7385.3425 301.5996 -9144.3936 -7366.9908 298.7874 -153.6530 -117.7390 29768.4585 -182.9262 -119.3174
ENERGY: 1200000 10.7603 6.8599 4.1022 0.0000 -10630.4288 1497.2576 0.0000 0.0000 1672.8050 -7438.6437 286.8122 -9111.4487 -7376.1222 298.1027 613.2419 647.9813 29927.7572 -114.8423 -53.5702
ENERGY: 1500000 7.6312 4.9598 4.0797 0.0000 -10601.7780 1450.8513 0.0000 0.0000 1730.8100 -7403.4459 296.7575 -9134.2560 -7369.7458 298.3122 -154.0712 -35.7808 30113.6558 -101.6409 -33.9091
TCL: Running FEP window  13: Lambda1 0.39999999999999963 Lambda2 0.34999999999999964 [dLambda -0.04999999999999999]
TCL: Setting parameter firsttimestep to 0
TCL: Setting parameter alchLambda to 0.39999999999999963
Info: NONBONDED TABLE R-SQUARED SPACING: 0.0625
Info: NONBONDED TABLE SIZE: 705 POINTS
TCL: Setting parameter alchLambda2 to 0.34999999999999964
Info: NONBONDED TABLE R-SQUARED SPACING: 0.0625
Info: NONBONDED TABLE SIZE: 705 POINTS
TCL: Running for 1500000 steps
ETITLE: TS BOND ANGLE DIHED IMPRP ELECT VDW BOUNDARY MISC KINETIC TOTAL TEMP POTENTIAL TOTALAVG TEMPAVG PRESSURE GPRESSURE VOLUME PRESSAVG GPRESSAVG
ENERGY: 0 7.6312 4.9598 4.0797 0.0000 -10601.7785 1451.2621 0.0000 0.0000 1729.9473 -7403.8984 296.6096 -9133.8457 -7403.8984 296.6096 -117.5120 -39.2163 30113.6558 -117.5120 -39.2163
ENERGY: 300000 2.7460 9.4729 11.6362 0.0000 -10533.4919 1360.3745 0.0000 0.0000 1750.3056 -7398.9567 300.1001 -9149.2624 -7357.2748 301.5214 -542.3401 -482.4141 30324.3829 -333.6447 -263.7998
ENERGY: 600000 5.9198 5.6745 7.3351 0.0000 -10404.8120 1282.2332 0.0000 0.0000 1830.9641 -7272.6852 313.9295 -9103.6492 -7337.0706 303.3292 -1137.7612 -1056.2447 30228.4940 -267.9544 -210.4281
ENERGY: 900000 6.0982 6.6185 4.8680 0.0000 -10600.1959 1401.8385 0.0000 0.0000 1691.2607 -7489.5120 289.9765 -9180.7726 -7373.3313 300.6353 -618.2858 -606.2272 30152.1614 -315.3719 -252.3804
ENERGY: 1200000 4.4076 9.0900 7.1538 0.0000 -10592.1091 1502.1585 0.0000 0.0000 1803.7826 -7265.5166 309.2691 -9069.2992 -7377.6115 300.4596 791.6438 842.0155 30186.5749 -166.5623 -99.2181
ENERGY: 1500000 6.9377 4.4155 9.6653 0.0000 -10644.8599 1455.3809 0.0000 0.0000 1713.1955 -7455.2651 293.7374 -9168.4606 -7370.1224 300.2989 -9.0686 50.0276 29841.6143 -119.9036 -50.9328
TCL: Running FEP window  14: Lambda1 0.34999999999999964 Lambda2 0.29999999999999966 [dLambda -0.04999999999999999]
TCL: Setting parameter firsttimestep to 0
TCL: Setting parameter alchLambda to 0.34999999999999964
Info: NONBONDED TABLE R-SQUARED SPACING: 0.0625
Info: NONBONDED TABLE SIZE: 705 POINTS
TCL: Setting parameter alchLambda2 to 0.29999999999999966
Info: NONBONDED TABLE R-SQUARED SPACING: 0.0625
Info: NONBONDED TABLE SIZE: 705 POINTS
TCL: Running for 1500000 steps
ETITLE: TS BOND ANGLE DIHED IMPRP ELECT VDW BOUNDARY MISC KINETIC TOTAL TEMP POTENTIAL TOTALAVG TEMPAVG PRESSURE GPRESSURE VOLUME PRESSAVG GPRESSAVG
ENERGY: 0 6.9377 4.4155 9.6653 0.0000 -10644.8600 1455.6433 0.0000 0.0000 1712.3544 -7455.8440 293.5932 -9168.1983 -7455.8440 293.5932 -28.2704 42.9219 29841.6143 -28.2704 42.9219
ENERGY: 300000 5.5193 6.7489 4.2451 0.0000 -10630.3743 1469.1036 0.0000 0.0000 1764.2795 -7380.4778 302.4960 -9144.7573 -7411.2677 297.5803 155.4422 227.4800 30068.6405 273.3432 332.2893
ENERGY: 600000 6.2505 3.5362 3.8161 0.0000 -10539.1614 1450.2846 0.0000 0.0000 1772.4792 -7302.7947 303.9019 -9075.2739 -7377.6360 300.3494 382.0026 482.6758 29884.2098 110.7721 166.3694
ENERGY: 900000 5.1210 8.0157 4.1414 0.0000 -10562.8179 1412.2351 0.0000 0.0000 1765.1023 -7368.2023 302.6371 -9133.3046 -7380.1791 300.2182 -69.0518 -43.4355 30052.9600 -31.5608 28.6006
ENERGY: 1200000 4.4454 5.6947 10.2453 0.0000 -10446.9461 1402.3799 0.0000 0.0000 1798.6541 -7225.5267 308.3897 -9024.1808 -7369.2941 301.0598 -161.8217 -78.9407 30380.5603 -84.5537 -20.2683
ENERGY: 1500000 8.1194 6.0484 9.9161 0.0000 -10445.2129 1362.0717 0.0000 0.0000 1744.1374 -7314.9198 299.0425 -9059.0572 -7374.3415 300.0886 -356.6487 -343.8449 29825.4085 -109.3128 -49.9331
TCL: Running FEP window  15: Lambda1 0.29999999999999966 Lambda2 0.24999999999999967 [dLambda -0.04999999999999999]
TCL: Setting parameter firsttimestep to 0
TCL: Setting parameter alchLambda to 0.29999999999999966
Info: NONBONDED TABLE R-SQUARED SPACING: 0.0625
Info: NONBONDED TABLE SIZE: 705 POINTS
TCL: Setting parameter alchLambda2 to 0.24999999999999967
Info: NONBONDED TABLE R-SQUARED SPACING: 0.0625
Info: NONBONDED TABLE SIZE: 705 POINTS
TCL: Running for 1500000 steps
ETITLE: TS BOND ANGLE DIHED IMPRP ELECT VDW BOUNDARY MISC KINETIC TOTAL TEMP POTENTIAL TOTALAVG TEMPAVG PRESSURE GPRESSURE VOLUME PRESSAVG GPRESSAVG
ENERGY: 0 8.1194 6.0484 9.9161 0.0000 -10445.2136 1362.3367 0.0000 0.0000 1743.2953 -7315.4977 298.8982 -9058.7930 -7315.4977 298.8982 -417.8301 -349.5150 29825.4085 -417.8301 -349.5150
ENERGY: 300000 6.9150 3.4828 8.6319 0.0000 -10573.7667 1415.8378 0.0000 0.0000 1717.5427 -7421.3565 294.4827 -9138.8992 -7369.9715 298.4231 -351.9721 -305.9303 30106.2132 -362.0403 -300.5705
ENERGY: 600000 5.9597 7.4267 8.8816 0.0000 -10485.7056 1386.9768 0.0000 0.0000 1746.2284 -7330.2324 299.4011 -9076.4608 -7365.4791 297.3517 20.1354 34.6143 29962.9768 -209.1492 -161.5609
ENERGY: 900000 7.4485 9.7220 11.1164 0.0000 -10595.7183 1426.8407 0.0000 0.0000 1725.5506 -7415.0402 295.8557 -9140.5908 -7363.7431 297.2538 -353.6410 -284.5954 30101.2020 -290.3853 -228.9867
ENERGY: 1200000 5.3051 5.6454 2.8903 0.0000 -10477.6752 1392.3947 0.0000 0.0000 1752.2467 -7319.1929 300.4329 -9071.4397 -7351.4054 298.5174 -177.2592 -109.1371 30214.5896 -266.6533 -210.4232
ENERGY: 1500000 2.2352 5.3460 5.4913 0.0000 -10436.6533 1370.1404 0.0000 0.0000 1797.0255 -7256.4150 308.1105 -9053.4405 -7348.0448 298.5455 -235.1182 -185.4689 30209.5873 -221.5590 -165.1946
TCL: Running FEP window  16: Lambda1 0.24999999999999967 Lambda2 0.19999999999999968 [dLambda -0.04999999999999999]
TCL: Setting parameter firsttimestep to 0
TCL: Setting parameter alchLambda to 0.24999999999999967
Info: NONBONDED TABLE R-SQUARED SPACING: 0.0625
Info: NONBONDED TABLE SIZE: 705 POINTS
TCL: Setting parameter alchLambda2 to 0.19999999999999968
Info: NONBONDED TABLE R-SQUARED SPACING: 0.0625
Info: NONBONDED TABLE SIZE: 705 POINTS
TCL: Running for 1500000 steps
ETITLE: TS BOND ANGLE DIHED IMPRP ELECT VDW BOUNDARY MISC KINETIC TOTAL TEMP POTENTIAL TOTALAVG TEMPAVG PRESSURE GPRESSURE VOLUME PRESSAVG GPRESSAVG
ENERGY: 0 2.2352 5.3460 5.4913 0.0000 -10436.6544 1370.2520 0.0000 0.0000 1796.1626 -7257.1672 307.9626 -9053.3298 -7257.1672 307.9626 -245.0225 -189.9270 30209.5873 -245.0225 -189.9270
ENERGY: 300000 4.9968 7.6033 9.7086 0.0000 -10563.5646 1432.9978 0.0000 0.0000 1747.5229 -7360.7353 299.6230 -9108.2581 -7353.3782 299.9210 507.2916 593.3061 29428.1985 -62.0144 -15.2005
ENERGY: 600000 4.4747 5.7127 4.0779 0.0000 -10664.5675 1487.2764 0.0000 0.0000 1865.4842 -7297.5416 319.8482 -9163.0258 -7352.2615 301.5675 692.6696 789.8611 29726.8112 34.8026 91.2153
ENERGY: 900000 8.4763 9.3348 6.6394 0.0000 -10668.6460 1405.4242 0.0000 0.0000 1737.9480 -7500.8233 297.9813 -9238.7713 -7361.6190 302.2544 -520.6442 -444.6120 29714.4559 26.0347 71.0072
ENERGY: 1200000 4.3190 5.2100 5.1384 0.0000 -10626.7729 1471.1599 0.0000 0.0000 1713.5648 -7427.3808 293.8007 -9140.9456 -7364.6989 301.4223 125.8070 195.2661 30015.5189 29.0492 78.9625
ENERGY: 1500000 4.9419 4.3189 6.2635 0.0000 -10502.9416 1396.3352 0.0000 0.0000 1784.7288 -7306.3533 306.0022 -9091.0821 -7362.8301 301.7119 -159.4403 -122.4974 30499.9511 6.8115 53.8798
TCL: Running FEP window  17: Lambda1 0.19999999999999968 Lambda2 0.1499999999999997 [dLambda -0.04999999999999999]
TCL: Setting parameter firsttimestep to 0
TCL: Setting parameter alchLambda to 0.19999999999999968
Info: NONBONDED TABLE R-SQUARED SPACING: 0.0625
Info: NONBONDED TABLE SIZE: 705 POINTS
TCL: Setting parameter alchLambda2 to 0.1499999999999997
Info: NONBONDED TABLE R-SQUARED SPACING: 0.0625
Info: NONBONDED TABLE SIZE: 705 POINTS
TCL: Running for 1500000 steps
ETITLE: TS BOND ANGLE DIHED IMPRP ELECT VDW BOUNDARY MISC KINETIC TOTAL TEMP POTENTIAL TOTALAVG TEMPAVG PRESSURE GPRESSURE VOLUME PRESSAVG GPRESSAVG
ENERGY: 0 4.9419 4.3189 6.2635 0.0000 -10502.9410 1396.7022 0.0000 0.0000 1783.8360 -7306.8785 305.8491 -9090.7145 -7306.8785 305.8491 -203.8721 -127.5199 30499.9511 -203.8721 -127.5199
ENERGY: 300000 9.5742 4.8063 9.7852 0.0000 -10679.5248 1424.5558 0.0000 0.0000 1699.4121 -7531.3911 291.3741 -9230.8032 -7385.6099 299.5644 -580.0390 -570.5192 29969.2451 -577.6065 -515.1942
ENERGY: 600000 6.1854 8.0405 4.6909 0.0000 -10530.6364 1453.0471 0.0000 0.0000 1780.3425 -7278.3300 305.2501 -9058.6725 -7374.9758 299.5162 172.5566 264.1965 30137.9097 -135.4584 -77.7540
ENERGY: 900000 7.2902 6.0819 4.9042 0.0000 -10586.6570 1410.2662 0.0000 0.0000 1759.5963 -7398.5183 301.6931 -9158.1146 -7371.6719 299.9675 -92.0987 -16.2539 29262.3691 -76.9285 -22.7063
ENERGY: 1200000 4.1265 10.9749 4.4013 0.0000 -10422.7881 1399.2876 0.0000 0.0000 1784.6583 -7219.3395 305.9901 -9003.9978 -7365.7653 300.2974 -89.2529 -18.7819 30126.5261 -27.4983 30.7917
ENERGY: 1500000 7.6864 5.1876 2.7390 0.0000 -10709.8601 1567.8943 0.0000 0.0000 1712.3901 -7413.9628 293.5993 -9126.3528 -7372.5390 299.5672 1102.0753 1153.6063 29840.3428 68.5428 124.5038
TCL: Running FEP window  18: Lambda1 0.1499999999999997 Lambda2 0.09999999999999969 [dLambda -0.05 ]
TCL: Setting parameter firsttimestep to 0
TCL: Setting parameter alchLambda to 0.1499999999999997
Info: NONBONDED TABLE R-SQUARED SPACING: 0.0625
Info: NONBONDED TABLE SIZE: 705 POINTS
TCL: Setting parameter alchLambda2 to 0.09999999999999969
Info: NONBONDED TABLE R-SQUARED SPACING: 0.0625
Info: NONBONDED TABLE SIZE: 705 POINTS
TCL: Running for 1500000 steps
ETITLE: TS BOND ANGLE DIHED IMPRP ELECT VDW BOUNDARY MISC KINETIC TOTAL TEMP POTENTIAL TOTALAVG TEMPAVG PRESSURE GPRESSURE VOLUME PRESSAVG GPRESSAVG
ENERGY: 0 7.6865 5.1876 2.7390 0.0000 -10709.8602 1568.4203 0.0000 0.0000 1711.4777 -7414.3491 293.4429 -9125.8268 -7414.3491 293.4429 1068.9146 1149.1906 29840.3428 1068.9146 1149.1906
ENERGY: 300000 2.7683 7.4905 4.6983 0.0000 -10394.8829 1381.6761 0.0000 0.0000 1736.2865 -7261.9631 297.6965 -8998.2496 -7355.4531 298.1871 -72.3077 -56.5606 30173.9798 554.5084 609.3659
ENERGY: 600000 11.7591 10.4328 7.7871 0.0000 -10554.6653 1377.5536 0.0000 0.0000 1756.4566 -7390.6762 301.1547 -9147.1327 -7355.7953 299.4131 -573.7547 -544.5593 30239.7850 126.5187 180.9182
ENERGY: 900000 7.7266 8.4003 4.0731 0.0000 -10538.5988 1393.6429 0.0000 0.0000 1718.6983 -7406.0577 294.6809 -9124.7560 -7351.3164 298.5963 -420.3353 -355.8014 29942.3113 85.7083 133.5070
ENERGY: 1200000 5.5772 9.8514 6.7646 0.0000 -10645.0822 1423.6345 0.0000 0.0000 1729.3808 -7469.8738 296.5124 -9199.2545 -7359.2825 297.5264 -289.0209 -259.2084 29821.8257 28.4964 80.6104
ENERGY: 1500000 8.1204 8.8729 7.2881 0.0000 -10558.8480 1455.9432 0.0000 0.0000 1749.4372 -7329.1862 299.9512 -9078.6234 -7362.2549 297.9723 48.6432 139.6698 29910.6223 46.6406 102.4563
TCL: Running FEP window  19: Lambda1 0.09999999999999969 Lambda2 0.049999999999999684 [dLambda -0.05 ]
TCL: Setting parameter firsttimestep to 0
TCL: Setting parameter alchLambda to 0.09999999999999969
Info: NONBONDED TABLE R-SQUARED SPACING: 0.0625
Info: NONBONDED TABLE SIZE: 705 POINTS
TCL: Setting parameter alchLambda2 to 0.049999999999999684
Info: NONBONDED TABLE R-SQUARED SPACING: 0.0625
Info: NONBONDED TABLE SIZE: 705 POINTS
TCL: Running for 1500000 steps
ETITLE: TS BOND ANGLE DIHED IMPRP ELECT VDW BOUNDARY MISC KINETIC TOTAL TEMP POTENTIAL TOTALAVG TEMPAVG PRESSURE GPRESSURE VOLUME PRESSAVG GPRESSAVG
ENERGY: 0 8.1204 8.8729 7.2881 0.0000 -10558.8466 1455.2221 0.0000 0.0000 1748.5915 -7330.7517 299.8062 -9079.3431 -7330.7517 299.8062 57.0983 129.4645 29910.6223 57.0983 129.4645
ENERGY: 300000 7.3834 8.4308 5.8924 0.0000 -10552.5141 1407.3916 0.0000 0.0000 1789.6820 -7333.7339 306.8514 -9123.4158 -7316.6642 301.3848 -649.4605 -576.5057 30545.0864 -413.1282 -345.2923
ENERGY: 600000 9.6639 4.2636 6.3328 0.0000 -10548.4674 1432.2846 0.0000 0.0000 1759.2892 -7336.6334 301.6404 -9095.9226 -7337.5388 301.3052 -368.7074 -277.0845 30381.0489 -168.8339 -105.5368
ENERGY: 900000 8.4268 8.2484 2.6960 0.0000 -10672.4585 1448.2740 0.0000 0.0000 1739.7542 -7465.0590 298.2910 -9204.8132 -7352.4528 301.2533 -146.1517 -119.7824 29435.3287 2.1118 64.1046
ENERGY: 1200000 9.9155 8.0748 4.5526 0.0000 -10583.3383 1435.5573 0.0000 0.0000 1778.4757 -7346.7625 304.9300 -9125.2382 -7349.0830 301.5371 -228.1259 -175.8056 30233.7699 16.5659 75.6514
ENERGY: 1500000 8.6838 4.0782 5.8591 0.0000 -10498.6857 1367.2773 0.0000 0.0000 1795.8216 -7316.9657 307.9041 -9112.7873 -7346.8071 301.7217 -653.7394 -587.2818 30150.5154 -11.2586 50.7149
TCL: Running FEP window  20: Lambda1 0.049999999999999684 Lambda2 0.0    [dLambda -0.049999999999999684]
TCL: Setting parameter firsttimestep to 0
TCL: Setting parameter alchLambda to 0.049999999999999684
Info: NONBONDED TABLE R-SQUARED SPACING: 0.0625
Info: NONBONDED TABLE SIZE: 705 POINTS
TCL: Setting parameter alchLambda2 to 0.0
Info: NONBONDED TABLE R-SQUARED SPACING: 0.0625
Info: NONBONDED TABLE SIZE: 705 POINTS
TCL: Running for 1500000 steps
ETITLE: TS BOND ANGLE DIHED IMPRP ELECT VDW BOUNDARY MISC KINETIC TOTAL TEMP POTENTIAL TOTALAVG TEMPAVG PRESSURE GPRESSURE VOLUME PRESSAVG GPRESSAVG
ENERGY: 0 8.6838 4.0782 5.8591 0.0000 -10498.6859 1367.6453 0.0000 0.0000 1794.9717 -7317.4478 307.7584 -9112.4195 -7317.4478 307.7584 -682.1559 -589.4259 30150.5154 -682.1559 -589.4259
ENERGY: 300000 4.6329 5.2626 7.1179 0.0000 -10602.6449 1448.7343 0.0000 0.0000 1723.6765 -7413.2206 295.5344 -9136.8972 -7368.7322 299.8577 186.1709 263.4370 29739.8800 156.5011 238.4218
ENERGY: 600000 0.9879 7.4469 9.5903 0.0000 -10491.2892 1412.8459 0.0000 0.0000 1752.5329 -7307.8853 300.4820 -9060.4183 -7366.2022 299.0011 -38.6451 2.7965 30011.8385 75.9441 148.8875
ENERGY: 900000 4.2027 5.8058 5.5814 0.0000 -10635.9701 1481.7497 0.0000 0.0000 1796.3424 -7342.2881 307.9934 -9138.6306 -7352.3375 300.0032 506.7183 576.5925 29524.1295 -1.8820 68.2587
ENERGY: 1200000 5.4507 5.1407 5.6863 0.0000 -10589.3832 1475.0351 0.0000 0.0000 1715.0929 -7382.9774 294.0627 -9098.0703 -7353.5382 299.4749 270.1548 333.4646 29675.5677 7.2466 82.9642
ENERGY: 1500000 9.3826 7.3215 7.3274 0.0000 -10635.1834 1455.0789 0.0000 0.0000 1786.6987 -7369.3744 306.3399 -9156.0731 -7362.4565 299.0061 -129.3361 -22.5503 29884.4139 -21.2378 58.9611
TCL: Exiting due to exit command.
