Info: SIMULATION PARAMETERS:
Info: TIMESTEP               2
Info: NUMBER OF STEPS        0
Info: STEPS PER CYCLE        10
Info: PERIODIC CELL BASIS 1  30.3455 0 0
Info: PERIODIC CELL BASIS 2  0 31.4136 0
Info: PERIODIC CELL BASIS 3  0 0 31.6904
Info: PERIODIC CELL CENTER   0 0 0
Info: WRAPPING WATERS AROUND PERIODIC BOUNDARIES ON OUTPUT.
Info: WRAPPING ALL CLUSTERS AROUND PERIODIC BOUNDARIES ON OUTPUT.
Info: FIRST LDB TIMESTEP     50
Info: LAST LDB TIMESTEP     -1
Info: HOM BACKGROUND SCALING 1
Info: PME BACKGROUND SCALING 1
Info: MIN ATOMS PER PATCH    40
Info: EMPTY PATCH LOAD       40 ATOMS
Info: VELOCITY FILE          mobley_646007_equil.vel
Info: CENTER OF MASS MOVING INITIALLY? NO
Info: DIELECTRIC             1
Info: EXCLUDE                SCALED ONE-FOUR
Info: 1-4 ELECTROSTATICS SCALED BY 0.833333
Info: MODIFIED 1-4 VDW PARAMETERS WILL BE USED
Info: DCD FILENAME           mobley_646007_prod.dcd
Info: DCD FREQUENCY          100000
Info: DCD FIRST STEP         100000
Info: DCD FILE WILL CONTAIN UNIT CELL DATA
Info: XST FILENAME           mobley_646007_prod.xst
Info: XST FREQUENCY          100000
Info: NO VELOCITY DCD OUTPUT
Info: NO FORCE DCD OUTPUT
Info: OUTPUT FILENAME        mobley_646007_prod
Info: BINARY OUTPUT FILES WILL BE USED
Info: RESTART FILENAME       mobley_646007_prod.restart
Info: RESTART FREQUENCY      100000
Info: BINARY RESTART FILES WILL BE USED
Info: CUTOFF                 9
Info: PAIRLIST DISTANCE      11
Info: PAIRLIST SHRINK RATE   0.01
Info: PAIRLIST GROW RATE     0.01
Info: PAIRLIST TRIGGER       0.3
Info: PAIRLISTS PER CYCLE    2
Info: PAIRLISTS ENABLED
Info: MARGIN                 2
Info: HYDROGEN GROUP CUTOFF  2.5
Info: PATCH DIMENSION        15.5
Info: ENERGY OUTPUT STEPS    100000
Info: ENERGY EVALUATION STEPS    100000
Info: OUTPUT ENERGY PRECISION 4
Info: CROSSTERM ENERGY INCLUDED IN DIHEDRAL
Info: TIMING OUTPUT STEPS    1000000
Info: PRESSURE OUTPUT STEPS  100000
Info: ALCHEMICAL FEP ON
Info: FEP CURRENT LAMBDA VALUE     1
Info: FEP COMPARISON LAMBDA VALUE  0.95
Info: FEP INTRA-ALCHEMICAL NON-BONDED INTERACTIONS WILL BE RETAINED
Info: FEP INTRA-ALCHEMICAL BONDED INTERACTIONS WILL BE RETAINED
Info: FEP VDW SHIFTING COEFFICIENT 5
Info: FEP ELEC. ACTIVE FOR ANNIHILATED PARTICLES BETWEEN LAMBDA = 0 AND LAMBDA = 0.5
Info: FEP ELEC. ACTIVE FOR EXNIHILATED PARTICLES BETWEEN LAMBDA = 0.5 AND LAMBDA = 1
Info: FEP VDW ACTIVE FOR ANNIHILATED PARTICLES BETWEEN LAMBDA = 0 AND LAMBDA = 1
Info: FEP VDW ACTIVE FOR EXNIHILATED PARTICLES BETWEEN LAMBDA = 0 AND LAMBDA = 1
Info: FEP BOND ACTIVE FOR ANNIHILATED PARTICLES BETWEEN LAMBDA = 1 AND LAMBDA = 1
Info: FEP BOND ACTIVE FOR EXNIHILATED PARTICLES BETWEEN LAMBDA = 0 AND LAMBDA = 0
Info: LANGEVIN DYNAMICS ACTIVE
Info: LANGEVIN TEMPERATURE   300
Info: LANGEVIN USING BBK INTEGRATOR
Info: LANGEVIN DAMPING COEFFICIENT IS 1 INVERSE PS
Info: LANGEVIN DYNAMICS APPLIED TO HYDROGENS
Info: LANGEVIN PISTON PRESSURE CONTROL ACTIVE
Info:        TARGET PRESSURE IS 1.01325 BAR
Info:     OSCILLATION PERIOD IS 50 FS
Info:             DECAY TIME IS 25 FS
Info:     PISTON TEMPERATURE IS 300 K
Info:       PRESSURE CONTROL IS GROUP-BASED
Info:    INITIAL STRAIN RATE IS -9.7304e-05 -9.7304e-05 -9.7304e-05
Info:       CELL FLUCTUATION IS ISOTROPIC
Info: PARTICLE MESH EWALD (PME) ACTIVE
Info: PME TOLERANCE               1e-06
Info: PME EWALD COEFFICIENT       0.348832
Info: PME INTERPOLATION ORDER     4
Info: PME GRID DIMENSIONS         32 32 32
Info: PME MAXIMUM GRID SPACING    1
Info: PME CALCULATION WILL BE PERFORMED ON GPU
Info: FULL ELECTROSTATIC EVALUATION FREQUENCY      2
Info: USING VERLET I (r-RESPA) MTS SCHEME.
Info: C1 SPLITTING OF LONG RANGE ELECTROSTATICS
Info: PLACING ATOMS IN PATCHES BY HYDROGEN GROUPS
Info: RIGID BONDS TO HYDROGEN : ALL
Info:         ERROR TOLERANCE : 1e-08
Info:          MAX ITERATIONS : 100
Info: RIGID WATER USING SETTLE ALGORITHM
Info: RANDOM NUMBER SEED     1743580200
Info: USE HYDROGEN BONDS?    NO
Info: Using AMBER format force field!
Info: AMBER PARM FILE        mobley_646007.prmtop
Info: COORDINATE PDB         mobley_646007.pdb
Info: Exclusions will be read from PARM file!
Info: SCNB (VDW SCALING)     2
Info: USING ARITHMETIC MEAN TO COMBINE L-J SIGMA PARAMETERS
Info: BINARY COORDINATES     mobley_646007_equil.coor
Info: SUMMARY OF PARAMETERS:
Info: 7 BONDS
Info: 9 ANGLES
Info:   9 HARMONIC
Info:   0 COSINE-BASED
Info: 8 DIHEDRAL
Info: 0 IMPROPER
Info: 0 CROSSTERM
Info: 0 VDW
Info: 28 VDW_PAIRS
Info: 0 NBTHOLE_PAIRS
Info: To read alchdata from file: mobley_646007.pdb
Info: To read alchflag data from column: 5
Info: STRUCTURE SUMMARY:
Info: 2921 ATOMS
Info: 2921 BONDS
Info: 27 ANGLES
Info: 43 DIHEDRALS
Info: 0 IMPROPERS
Info: 0 CROSSTERMS
Info: 2982 EXCLUSIONS
Info: 2916 RIGID BONDS
Info: ALCH: 0 ATOMS TO DISAPPEAR IN FINAL STATE
Info: ALCH: 14 ATOMS TO APPEAR IN FINAL STATE
Info: 5847 DEGREES OF FREEDOM
Info: 974 HYDROGEN GROUPS
Info: 3 ATOMS IN LARGEST HYDROGEN GROUP
Info: 974 MIGRATION GROUPS
Info: 3 ATOMS IN LARGEST MIGRATION GROUP
Info: TOTAL MASS = 17528.6 amu
Info: TOTAL CHARGE = -2.98023e-08 e
Info: MASS DENSITY = 0.963535 g/cm^3
Info: ATOM DENSITY = 0.0966923 atoms/A^3
Info: ADDED 0 IMPLICIT EXCLUSIONS
Info: NONBONDED TABLE R-SQUARED SPACING: 0.0625
Info: NONBONDED TABLE SIZE: 705 POINTS
Info: REMOVING COM VELOCITY -0.106683 -0.075203 0.0390353
Info: Use 3D box decompostion in PME FFT.
Info: Updated CUDA force table with 4096 elements.
Info: Updated CUDA LJ table with 7 x 7 elements.
Info: Found 17 unique exclusion lists needing 36 bytes
TCL: Running for 1500000 steps
ETITLE: TS BOND ANGLE DIHED IMPRP ELECT VDW BOUNDARY MISC KINETIC TOTAL TEMP POTENTIAL TOTALAVG TEMPAVG PRESSURE GPRESSURE VOLUME PRESSAVG GPRESSAVG
ENERGY: 0 1.1100 10.9241 8.8616 0.0000 -10616.5359 1412.5218 0.0000 0.0000 1707.3914 -7475.7270 293.8938 -9183.1183 -7475.7270 293.8938 -368.8976 -284.0118 30209.2365 -368.8976 -284.0118
ENERGY: 300000 1.5931 7.7613 8.6497 0.0000 -10636.4412 1437.2779 0.0000 0.0000 1749.2674 -7431.8919 301.1019 -9181.1593 -7421.5152 297.5354 47.8398 121.3395 30204.5795 163.4355 224.8147
ENERGY: 600000 2.5951 7.1463 11.4009 0.0000 -10568.6905 1399.9480 0.0000 0.0000 1758.0346 -7389.5656 302.6110 -9147.6002 -7405.8193 300.1818 -183.6205 -175.4647 30114.6316 -58.0751 0.5136
ENERGY: 900000 1.3454 9.5752 9.4629 0.0000 -10802.2758 1528.1079 0.0000 0.0000 1755.1907 -7498.5937 302.1215 -9253.7844 -7422.3783 299.4540 790.1886 769.2771 29677.8632 -111.6180 -61.0361
ENERGY: 1200000 1.2517 9.8180 10.6283 0.0000 -10518.3181 1381.3137 0.0000 0.0000 1772.8706 -7342.4359 305.1647 -9115.3065 -7420.0987 300.0248 -136.1399 -115.7262 29924.6165 -94.9726 -42.3094
ENERGY: 1500000 1.4661 11.1481 9.1990 0.0000 -10514.7118 1399.5045 0.0000 0.0000 1727.6533 -7365.7407 297.3815 -9093.3940 -7414.1140 299.8152 -415.2827 -297.9404 30541.7073 -118.4115 -63.1677
TCL: Running FEP window   2: Lambda1 0.95   Lambda2 0.8999999999999999 [dLambda -0.050000000000000044]
TCL: Setting parameter firsttimestep to 0
TCL: Setting parameter alchLambda to 0.95
Info: NONBONDED TABLE R-SQUARED SPACING: 0.0625
Info: NONBONDED TABLE SIZE: 705 POINTS
TCL: Setting parameter alchLambda2 to 0.8999999999999999
Info: NONBONDED TABLE R-SQUARED SPACING: 0.0625
Info: NONBONDED TABLE SIZE: 705 POINTS
TCL: Running for 1500000 steps
ETITLE: TS BOND ANGLE DIHED IMPRP ELECT VDW BOUNDARY MISC KINETIC TOTAL TEMP POTENTIAL TOTALAVG TEMPAVG PRESSURE GPRESSURE VOLUME PRESSAVG GPRESSAVG
ENERGY: 0 1.4661 11.1481 9.1990 0.0000 -10513.1418 1398.3733 0.0000 0.0000 1726.7127 -7366.2425 297.2196 -9092.9553 -7366.2425 297.2196 -398.7899 -317.5215 30541.7073 -398.7899 -317.5215
ENERGY: 300000 1.0650 13.7378 8.2415 0.0000 -10667.4257 1525.3099 0.0000 0.0000 1733.5597 -7385.5119 298.3981 -9119.0716 -7382.1949 299.5945 805.4809 832.4622 30076.9332 -170.8957 -105.1038
ENERGY: 600000 0.8790 7.1311 10.2985 0.0000 -10585.1176 1364.7100 0.0000 0.0000 1857.5819 -7344.5171 319.7461 -9202.0990 -7399.4449 301.8336 -804.5250 -731.9842 30424.9056 60.9529 116.1364
ENERGY: 900000 2.7186 14.2688 8.8245 0.0000 -10549.2348 1355.4383 0.0000 0.0000 1773.9218 -7394.0627 305.3457 -9167.9845 -7403.1066 300.4833 -584.7652 -547.4112 30001.0750 -162.1601 -103.2211
ENERGY: 1200000 0.5734 9.1480 12.4714 0.0000 -10664.8724 1452.7248 0.0000 0.0000 1693.2013 -7496.7535 291.4512 -9189.9547 -7409.9249 299.1855 200.1158 304.7617 29737.0643 -163.1883 -100.6407
ENERGY: 1500000 1.2131 9.9383 10.4274 0.0000 -10683.5391 1446.7094 0.0000 0.0000 1678.8135 -7536.4374 288.9747 -9215.2510 -7409.3462 298.6872 -21.6479 40.1075 30037.1672 -179.7502 -109.7078
TCL: Running FEP window   3: Lambda1 0.8999999999999999 Lambda2 0.8499999999999999 [dLambda -0.050000000000000044]
TCL: Setting parameter firsttimestep to 0
TCL: Setting parameter alchLambda to 0.8999999999999999
Info: NONBONDED TABLE R-SQUARED SPACING: 0.0625
Info: NONBONDED TABLE SIZE: 705 POINTS
TCL: Setting parameter alchLambda2 to 0.8499999999999999
Info: NONBONDED TABLE R-SQUARED SPACING: 0.0625
Info: NONBONDED TABLE SIZE: 705 POINTS
TCL: Running for 1500000 steps
ETITLE: TS BOND ANGLE DIHED IMPRP ELECT VDW BOUNDARY MISC KINETIC TOTAL TEMP POTENTIAL TOTALAVG TEMPAVG PRESSURE GPRESSURE VOLUME PRESSAVG GPRESSAVG
ENERGY: 0 1.2131 9.9383 10.4274 0.0000 -10682.3478 1446.6697 0.0000 0.0000 1677.9580 -7536.1412 288.8274 -9214.0992 -7536.1412 288.8274 -59.4483 35.0850 30037.1672 -59.4483 35.0850
ENERGY: 300000 1.8333 14.0768 7.4207 0.0000 -10730.2308 1509.8144 0.0000 0.0000 1758.7076 -7438.3779 302.7268 -9197.0855 -7432.6184 296.2437 642.0069 677.4998 29770.5166 143.6172 229.1078
ENERGY: 600000 1.4102 14.9614 8.3366 0.0000 -10674.3720 1448.4128 0.0000 0.0000 1751.8912 -7449.3597 301.5535 -9201.2509 -7416.0209 296.4893 141.0733 252.4363 29829.8154 175.6451 246.1874
ENERGY: 900000 0.9062 10.5195 12.4164 0.0000 -10505.9722 1391.4287 0.0000 0.0000 1765.9460 -7324.7554 303.9728 -9090.7014 -7404.0119 297.5675 -14.4343 90.5406 29965.9648 82.7279 146.4981
ENERGY: 1200000 2.6347 7.8641 12.1518 0.0000 -10542.7836 1442.0180 0.0000 0.0000 1806.9724 -7271.1427 311.0347 -9078.1151 -7398.4297 298.5850 338.8206 374.3138 30104.4113 66.6067 128.5737
ENERGY: 1500000 2.4619 9.8638 10.3087 0.0000 -10719.0231 1538.3559 0.0000 0.0000 1783.5067 -7374.5262 306.9955 -9158.0329 -7399.2580 299.0698 1009.7600 1078.0831 29645.1587 114.1462 174.6817
TCL: Running FEP window   4: Lambda1 0.8499999999999999 Lambda2 0.7999999999999998 [dLambda -0.050000000000000044]
TCL: Setting parameter firsttimestep to 0
TCL: Setting parameter alchLambda to 0.8499999999999999
Info: NONBONDED TABLE R-SQUARED SPACING: 0.0625
Info: NONBONDED TABLE SIZE: 705 POINTS
TCL: Setting parameter alchLambda2 to 0.7999999999999998
Info: NONBONDED TABLE R-SQUARED SPACING: 0.0625
Info: NONBONDED TABLE SIZE: 705 POINTS
TCL: Running for 1500000 steps
ETITLE: TS BOND ANGLE DIHED IMPRP ELECT VDW BOUNDARY MISC KINETIC TOTAL TEMP POTENTIAL TOTALAVG TEMPAVG PRESSURE GPRESSURE VOLUME PRESSAVG GPRESSAVG
ENERGY: 0 2.4619 9.8638 10.3087 0.0000 -10717.8830 1537.6838 0.0000 0.0000 1782.6313 -7374.9335 306.8448 -9157.5649 -7374.9335 306.8448 988.3633 1060.1562 29645.1587 988.3633 1060.1562
ENERGY: 300000 0.7341 11.0292 9.2021 0.0000 -10533.8673 1389.5474 0.0000 0.0000 1711.7488 -7411.6057 294.6438 -9123.3545 -7406.4819 297.9909 -411.5183 -324.1181 30419.9012 -235.7556 -162.0058
ENERGY: 600000 3.4219 11.4422 8.6292 0.0000 -10455.1072 1369.9502 0.0000 0.0000 1726.9331 -7334.7306 297.2575 -9061.6637 -7407.2385 296.8807 -397.9193 -365.1881 30208.3341 -149.9604 -68.6826
ENERGY: 900000 1.1942 12.1151 9.7615 0.0000 -10565.3751 1424.4257 0.0000 0.0000 1760.2237 -7357.6549 302.9878 -9117.8786 -7396.4959 298.9491 295.9240 415.1082 29743.9814 -78.4467 -0.9545
ENERGY: 1200000 0.6760 9.8299 9.1263 0.0000 -10533.5035 1436.4017 0.0000 0.0000 1775.3396 -7302.1299 305.5897 -9077.4696 -7394.3092 299.4920 323.7546 370.8085 30035.6281 -97.6435 -15.0111
ENERGY: 1500000 2.2813 17.6361 9.2959 0.0000 -10626.3731 1420.7763 0.0000 0.0000 1784.6742 -7391.7092 307.1965 -9176.3834 -7398.1862 299.8488 -69.8019 -9.0597 30061.5919 -44.7346 34.0353
TCL: Running FEP window   5: Lambda1 0.7999999999999998 Lambda2 0.7499999999999998 [dLambda -0.050000000000000044]
TCL: Setting parameter firsttimestep to 0
TCL: Setting parameter alchLambda to 0.7999999999999998
Info: NONBONDED TABLE R-SQUARED SPACING: 0.0625
Info: NONBONDED TABLE SIZE: 705 POINTS
TCL: Setting parameter alchLambda2 to 0.7499999999999998
Info: NONBONDED TABLE R-SQUARED SPACING: 0.0625
Info: NONBONDED TABLE SIZE: 705 POINTS
TCL: Running for 1500000 steps
ETITLE: TS BOND ANGLE DIHED IMPRP ELECT VDW BOUNDARY MISC KINETIC TOTAL TEMP POTENTIAL TOTALAVG TEMPAVG PRESSURE GPRESSURE VOLUME PRESSAVG GPRESSAVG
ENERGY: 0 2.2813 17.6361 9.2959 0.0000 -10625.0809 1420.9555 0.0000 0.0000 1783.7692 -7391.1428 307.0407 -9174.9120 -7391.1428 307.0407 -107.4320 -12.2653 30061.5919 -107.4320 -12.2653
ENERGY: 300000 0.4619 9.4343 9.8615 0.0000 -10562.8636 1394.8122 0.0000 0.0000 1749.5545 -7398.7392 301.1513 -9148.2938 -7438.4187 302.3648 -379.8259 -302.4862 30417.5632 -129.6537 -58.5756
ENERGY: 600000 1.3872 7.1121 13.3963 0.0000 -10660.6224 1426.5535 0.0000 0.0000 1767.8394 -7444.3339 304.2987 -9212.1733 -7447.5356 301.8586 -69.7945 -80.6893 30109.9552 71.9467 114.5385
ENERGY: 900000 1.1422 9.7530 10.6995 0.0000 -10411.2644 1287.2509 0.0000 0.0000 1754.2859 -7348.1330 301.9657 -9102.4189 -7432.4231 300.9231 -1282.2332 -1214.7150 30881.3350 -205.3599 -161.0545
ENERGY: 1200000 1.1326 13.6491 6.6457 0.0000 -10538.5432 1389.6620 0.0000 0.0000 1831.0558 -7296.3980 315.1802 -9127.4538 -7425.8233 300.9218 -51.7692 -34.1806 30087.0567 -137.5246 -86.5959
ENERGY: 1500000 0.9675 8.9741 11.8694 0.0000 -10561.8876 1442.9097 0.0000 0.0000 1754.1011 -7343.0658 301.9339 -9097.1669 -7426.9270 300.4727 576.2374 651.3322 29644.5335 -85.0898 -36.4200
TCL: Running FEP window   6: Lambda1 0.7499999999999998 Lambda2 0.6999999999999997 [dLambda -0.050000000000000044]
TCL: Setting parameter firsttimestep to 0
TCL: Setting parameter alchLambda to 0.7499999999999998
Info: NONBONDED TABLE R-SQUARED SPACING: 0.0625
Info: NONBONDED TABLE SIZE: 705 POINTS
TCL: Setting parameter alchLambda2 to 0.6999999999999997
Info: NONBONDED TABLE R-SQUARED SPACING: 0.0625
Info: NONBONDED TABLE SIZE: 705 POINTS
TCL: Running for 1500000 steps
ETITLE: TS BOND ANGLE DIHED IMPRP ELECT VDW BOUNDARY MISC KINETIC TOTAL TEMP POTENTIAL TOTALAVG TEMPAVG PRESSURE GPRESSURE VOLUME PRESSAVG GPRESSAVG
ENERGY: 0 0.9675 8.9741 11.8694 0.0000 -10561.1264 1443.0837 0.0000 0.0000 1753.2282 -7343.0035 301.7837 -9096.2317 -7343.0035 301.7837 543.4167 644.8503 29644.5335 543.4167 644.8503
ENERGY: 300000 0.7234 8.8627 10.9927 0.0000 -10537.6186 1450.1354 0.0000 0.0000 1744.8065 -7322.0979 300.3340 -9066.9044 -7390.9157 300.3889 385.3649 400.0476 30480.3720 253.1894 307.5531
ENERGY: 600000 0.8050 10.0503 11.4370 0.0000 -10456.3490 1325.9019 0.0000 0.0000 1797.8716 -7310.2832 309.4682 -9108.1548 -7373.2679 302.7565 -727.8056 -666.5081 30125.2214 42.1345 96.4968
ENERGY: 900000 3.2050 10.4574 7.7326 0.0000 -10604.7673 1461.9742 0.0000 0.0000 1744.2424 -7377.1556 300.2369 -9121.3980 -7380.0984 301.2264 168.3489 186.5909 30383.5835 88.0909 144.8074
ENERGY: 1200000 1.6363 12.5415 8.9523 0.0000 -10749.5677 1538.1141 0.0000 0.0000 1714.6492 -7473.6743 295.1431 -9188.3235 -7397.0204 300.4231 802.8178 834.3363 30055.1056 178.0941 234.5124
ENERGY: 1500000 3.0401 13.2144 7.4398 0.0000 -10590.3322 1402.0989 0.0000 0.0000 1690.9370 -7473.6019 291.0615 -9164.5389 -7405.4518 299.5474 -134.1434 -64.9487 29948.0252 132.1325 193.5080
TCL: Running FEP window   7: Lambda1 0.6999999999999997 Lambda2 0.6499999999999997 [dLambda -0.050000000000000044]
TCL: Setting parameter firsttimestep to 0
TCL: Setting parameter alchLambda to 0.6999999999999997
Info: NONBONDED TABLE R-SQUARED SPACING: 0.0625
Info: NONBONDED TABLE SIZE: 705 POINTS
TCL: Setting parameter alchLambda2 to 0.6499999999999997
Info: NONBONDED TABLE R-SQUARED SPACING: 0.0625
Info: NONBONDED TABLE SIZE: 705 POINTS
TCL: Running for 1500000 steps
ETITLE: TS BOND ANGLE DIHED IMPRP ELECT VDW BOUNDARY MISC KINETIC TOTAL TEMP POTENTIAL TOTALAVG TEMPAVG PRESSURE GPRESSURE VOLUME PRESSAVG GPRESSAVG
ENERGY: 0 3.0401 13.2144 7.4398 0.0000 -10589.1160 1401.4582 0.0000 0.0000 1690.0528 -7473.9106 290.9093 -9163.9634 -7473.9106 290.9093 -158.7160 -82.0493 29948.0252 -158.7160 -82.0493
ENERGY: 300000 1.0990 12.1113 7.8668 0.0000 -10628.2830 1444.6974 0.0000 0.0000 1761.8681 -7400.6405 303.2709 -9162.5085 -7411.5563 300.5344 103.7479 165.4034 29871.6873 285.7272 339.6233
ENERGY: 600000 0.2807 15.4904 7.7408 0.0000 -10663.9731 1433.6492 0.0000 0.0000 1733.1914 -7473.6206 298.3347 -9206.8120 -7436.8701 299.2926 -129.4687 -88.2710 30178.5446 157.3226 214.3121
ENERGY: 900000 0.9726 15.2208 11.6386 0.0000 -10510.1740 1353.6368 0.0000 0.0000 1747.9037 -7380.8015 300.8672 -9128.7053 -7438.8615 298.2778 -627.5506 -617.0578 30309.4268 -0.1918 57.1066
ENERGY: 1200000 2.8136 15.6395 7.4162 0.0000 -10646.2284 1456.3364 0.0000 0.0000 1675.7877 -7488.2350 288.4538 -9164.0227 -7434.9360 298.5747 -77.8968 45.7679 30396.8102 9.6332 76.4829
ENERGY: 1500000 1.4456 10.2532 11.7190 0.0000 -10561.9453 1345.7930 0.0000 0.0000 1759.0993 -7433.6353 302.7943 -9192.7346 -7437.0169 298.8771 -801.1243 -788.6145 30133.6895 -102.7427 -34.2101
TCL: Running FEP window   8: Lambda1 0.6499999999999997 Lambda2 0.5999999999999996 [dLambda -0.050000000000000044]
TCL: Setting parameter firsttimestep to 0
TCL: Setting parameter alchLambda to 0.6499999999999997
Info: NONBONDED TABLE R-SQUARED SPACING: 0.0625
Info: NONBONDED TABLE SIZE: 705 POINTS
TCL: Setting parameter alchLambda2 to 0.5999999999999996
Info: NONBONDED TABLE R-SQUARED SPACING: 0.0625
Info: NONBONDED TABLE SIZE: 705 POINTS
TCL: Running for 1500000 steps
ETITLE: TS BOND ANGLE DIHED IMPRP ELECT VDW BOUNDARY MISC KINETIC TOTAL TEMP POTENTIAL TOTALAVG TEMPAVG PRESSURE GPRESSURE VOLUME PRESSAVG GPRESSAVG
ENERGY: 0 1.4456 10.2532 11.7190 0.0000 -10560.0845 1345.7892 0.0000 0.0000 1758.1981 -7432.6795 302.6391 -9190.8775 -7432.6795 302.6391 -863.6351 -792.0266 30133.6895 -863.6351 -792.0266
ENERGY: 300000 1.9029 12.7495 6.9902 0.0000 -10621.6641 1437.2264 0.0000 0.0000 1714.4527 -7448.3424 295.1092 -9162.7951 -7440.5748 299.8527 319.0124 358.1803 29795.5315 -91.5779 -41.2586
ENERGY: 600000 3.2848 13.2960 9.2361 0.0000 -10626.9478 1455.9915 0.0000 0.0000 1724.2767 -7420.8627 296.8002 -9145.1395 -7416.1043 299.2456 325.0151 404.5994 29920.3521 -13.4371 43.1824
ENERGY: 900000 0.7622 9.8770 10.4751 0.0000 -10393.1792 1324.0528 0.0000 0.0000 1655.1404 -7392.8718 284.8998 -9048.0122 -7413.7189 297.3629 -708.0552 -649.0986 30255.3818 -52.1183 6.7504
ENERGY: 1200000 2.9960 17.1436 7.2401 0.0000 -10596.5041 1427.4734 0.0000 0.0000 1757.0511 -7384.5998 302.4417 -9141.6509 -7414.7297 297.7975 -53.4262 3.7984 30205.8446 17.7659 79.7845
ENERGY: 1500000 1.3983 12.8944 7.1786 0.0000 -10696.1386 1476.3055 0.0000 0.0000 1735.3740 -7462.9878 298.7104 -9198.3618 -7410.1008 298.0290 465.4163 516.2619 29673.1602 93.9233 150.7543
TCL: Running FEP window   9: Lambda1 0.5999999999999996 Lambda2 0.5499999999999996 [dLambda -0.050000000000000044]
TCL: Setting parameter firsttimestep to 0
TCL: Setting parameter alchLambda to 0.5999999999999996
Info: NONBONDED TABLE R-SQUARED SPACING: 0.0625
Info: NONBONDED TABLE SIZE: 705 POINTS
TCL: Setting parameter alchLambda2 to 0.5499999999999996
Info: NONBONDED TABLE R-SQUARED SPACING: 0.0625
Info: NONBONDED TABLE SIZE: 705 POINTS
TCL: Running for 1500000 steps
ETITLE: TS BOND ANGLE DIHED IMPRP ELECT VDW BOUNDARY MISC KINETIC TOTAL TEMP POTENTIAL TOTALAVG TEMPAVG PRESSURE GPRESSURE VOLUME PRESSAVG GPRESSAVG
ENERGY: 0 1.3983 12.8944 7.1786 0.0000 -10695.7439 1476.5002 0.0000 0.0000 1734.4937 -7463.2787 298.5589 -9197.7724 -7463.2787 298.5589 434.7833 515.1709 29673.1602 434.7833 515.1709
ENERGY: 300000 1.2313 7.2951 9.5089 0.0000 -10578.2273 1470.1800 0.0000 0.0000 1701.7848 -7388.2271 292.9287 -9090.0119 -7435.8299 296.2082 276.3253 313.8809 30334.4458 75.4516 114.2293
ENERGY: 600000 2.7276 11.3086 8.3017 0.0000 -10530.9277 1403.5460 0.0000 0.0000 1758.4623 -7346.5815 302.6846 -9105.0438 -7406.9246 297.5693 133.1497 165.2605 29883.4102 14.6004 59.2890
ENERGY: 900000 1.4846 12.2947 9.2076 0.0000 -10583.3468 1404.4349 0.0000 0.0000 1763.4422 -7392.4828 303.5418 -9155.9250 -7400.4734 299.1924 -88.4676 -21.7763 30017.5070 -17.1987 27.7842
ENERGY: 1200000 0.7630 11.7809 10.2255 0.0000 -10620.5572 1425.8061 0.0000 0.0000 1707.3904 -7464.5914 293.8936 -9171.9818 -7392.5197 299.6547 -4.7168 51.9589 29906.9991 -35.7989 11.4247
ENERGY: 1500000 2.3531 13.7366 6.3425 0.0000 -10496.2019 1390.8553 0.0000 0.0000 1839.3531 -7243.5612 316.6084 -9082.9143 -7369.8960 301.0992 48.5955 66.5817 29852.1374 -87.7474 -29.7633
TCL: Running FEP window  10: Lambda1 0.5499999999999996 Lambda2 0.4999999999999996 [dLambda -0.04999999999999999]
TCL: Setting parameter firsttimestep to 0
TCL: Setting parameter alchLambda to 0.5499999999999996
Info: NONBONDED TABLE R-SQUARED SPACING: 0.0625
Info: NONBONDED TABLE SIZE: 705 POINTS
TCL: Setting parameter alchLambda2 to 0.4999999999999996
Info: NONBONDED TABLE R-SQUARED SPACING: 0.0625
Info: NONBONDED TABLE SIZE: 705 POINTS
TCL: Running for 1500000 steps
ETITLE: TS BOND ANGLE DIHED IMPRP ELECT VDW BOUNDARY MISC KINETIC TOTAL TEMP POTENTIAL TOTALAVG TEMPAVG PRESSURE GPRESSURE VOLUME PRESSAVG GPRESSAVG
ENERGY: 0 2.3531 13.7366 6.3425 0.0000 -10495.7065 1391.0795 0.0000 0.0000 1838.4698 -7243.7250 316.4563 -9082.1947 -7243.7250 316.4563 -5.8481 63.3454 29852.1374 -5.8481 63.3454
ENERGY: 300000 2.3395 11.4458 7.7606 0.0000 -10501.8828 1361.6292 0.0000 0.0000 1748.9534 -7369.7543 301.0478 -9118.7077 -7370.0312 299.5463 -648.5940 -545.7213 30218.5792 3.9443 60.0494
ENERGY: 600000 0.5231 9.0834 8.3232 0.0000 -10466.9652 1344.2015 0.0000 0.0000 1729.0302 -7375.8039 297.6185 -9104.8340 -7389.3097 299.3528 -796.7409 -720.5010 30599.5654 -242.1644 -187.7119
ENERGY: 900000 1.0153 9.3413 8.0026 0.0000 -10451.6812 1391.0441 0.0000 0.0000 1760.0910 -7282.1868 302.9650 -9042.2778 -7378.9102 299.2870 300.1049 364.4561 29842.3672 -215.2639 -150.9659
ENERGY: 1200000 1.0340 11.6673 9.9000 0.0000 -10678.6831 1480.7792 0.0000 0.0000 1824.5599 -7350.7427 314.0620 -9175.3026 -7383.3060 301.0130 336.3574 407.0319 29931.5209 -149.4466 -89.4022
ENERGY: 1500000 1.4952 9.7106 8.6871 0.0000 -10495.5582 1351.6801 0.0000 0.0000 1719.0874 -7404.8979 295.9070 -9123.9853 -7378.6365 300.5672 -502.3325 -379.9897 30011.9367 -143.9074 -76.6290
TCL: Running FEP window  11: Lambda1 0.4999999999999996 Lambda2 0.4499999999999996 [dLambda -0.04999999999999999]
TCL: Setting parameter firsttimestep to 0
TCL: Setting parameter alchLambda to 0.4999999999999996
Info: NONBONDED TABLE R-SQUARED SPACING: 0.0625
Info: NONBONDED TABLE SIZE: 705 POINTS
TCL: Setting parameter alchLambda2 to 0.4499999999999996
Info: NONBONDED TABLE R-SQUARED SPACING: 0.0625
Info: NONBONDED TABLE SIZE: 705 POINTS
TCL: Running for 1500000 steps
ETITLE: TS BOND ANGLE DIHED IMPRP ELECT VDW BOUNDARY MISC KINETIC TOTAL TEMP POTENTIAL TOTALAVG TEMPAVG PRESSURE GPRESSURE VOLUME PRESSAVG GPRESSAVG
ENERGY: 0 1.4952 9.7106 8.6871 0.0000 -10496.0376 1351.5218 0.0000 0.0000 1718.2127 -7406.4103 295.7564 -9124.6229 -7406.4103 295.7564 -464.1783 -388.5521 30011.9367 -464.1783 -388.5521
ENERGY: 300000 3.0043 10.8547 8.1537 0.0000 -10668.4165 1461.1979 0.0000 0.0000 1747.8616 -7437.3443 300.8599 -9185.2060 -7409.8915 293.9885 150.3139 264.1080 29995.3465 -319.3820 -249.2768
ENERGY: 600000 1.6879 12.5849 7.2970 0.0000 -10690.5415 1527.1230 0.0000 0.0000 1765.7891 -7376.0596 303.9458 -9141.8488 -7388.2873 298.8896 1009.9857 1075.2477 29673.0857 -60.2314 2.8002
ENERGY: 900000 1.2211 8.1006 9.4106 0.0000 -10576.2257 1382.4334 0.0000 0.0000 1729.9099 -7445.1500 297.7699 -9175.0600 -7390.2555 299.0964 -443.8914 -373.6188 30062.4570 -21.9638 35.3070
ENERGY: 1200000 0.8084 7.2228 10.7245 0.0000 -10457.4557 1289.4453 0.0000 0.0000 1737.6601 -7411.5946 299.1039 -9149.2547 -7398.1514 298.5527 -1193.8082 -1189.9594 30490.8229 -113.9591 -63.3554
ENERGY: 1500000 1.3859 12.1566 9.9886 0.0000 -10414.2209 1351.8588 0.0000 0.0000 1775.2710 -7263.5600 305.5779 -9038.8310 -7384.6285 299.2993 -137.5716 -59.3375 29738.9087 -125.2798 -72.6850
TCL: Running FEP window  12: Lambda1 0.4499999999999996 Lambda2 0.39999999999999963 [dLambda -0.04999999999999999]
TCL: Setting parameter firsttimestep to 0
TCL: Setting parameter alchLambda to 0.4499999999999996
Info: NONBONDED TABLE R-SQUARED SPACING: 0.0625
Info: NONBONDED TABLE SIZE: 705 POINTS
TCL: Setting parameter alchLambda2 to 0.39999999999999963
Info: NONBONDED TABLE R-SQUARED SPACING: 0.0625
Info: NONBONDED TABLE SIZE: 705 POINTS
TCL: Running for 1500000 steps
ETITLE: TS BOND ANGLE DIHED IMPRP ELECT VDW BOUNDARY MISC KINETIC TOTAL TEMP POTENTIAL TOTALAVG TEMPAVG PRESSURE GPRESSURE VOLUME PRESSAVG GPRESSAVG
ENERGY: 0 1.3859 12.1566 9.9886 0.0000 -10414.2212 1352.0704 0.0000 0.0000 1774.4044 -7264.2153 305.4287 -9038.6197 -7264.2153 305.4287 -137.9889 -62.5395 29738.9087 -137.9889 -62.5395
ENERGY: 300000 4.3664 10.0820 8.8671 0.0000 -10522.8281 1346.0790 0.0000 0.0000 1710.2914 -7443.1423 294.3929 -9153.4337 -7354.0008 299.6467 -711.3583 -608.4114 30310.4773 -120.5457 -51.1877
ENERGY: 600000 1.3172 10.5620 8.7027 0.0000 -10653.1921 1463.6087 0.0000 0.0000 1769.7872 -7399.2143 304.6340 -9169.0015 -7357.8714 302.0425 483.9908 582.7880 29528.8019 -151.4134 -77.3212
ENERGY: 900000 2.2651 9.5578 9.1563 0.0000 -10488.9484 1376.4389 0.0000 0.0000 1779.5707 -7311.9596 306.3180 -9091.5303 -7347.1209 302.8175 -303.7825 -229.0958 30138.9850 -272.4064 -190.6653
ENERGY: 1200000 0.4814 8.1115 11.4352 0.0000 -10533.6077 1378.1032 0.0000 0.0000 1772.1956 -7363.2807 305.0485 -9135.4763 -7349.2495 303.0782 -451.0062 -387.4540 30328.1158 -275.5686 -201.4291
ENERGY: 1500000 1.6929 8.9073 11.3485 0.0000 -10572.0777 1416.6125 0.0000 0.0000 1717.2378 -7416.2786 295.5886 -9133.5164 -7362.6208 301.7848 -140.2234 -58.2737 30156.6261 -248.9480 -171.0566
TCL: Running FEP window  13: Lambda1 0.39999999999999963 Lambda2 0.34999999999999964 [dLambda -0.04999999999999999]
TCL: Setting parameter firsttimestep to 0
TCL: Setting parameter alchLambda to 0.39999999999999963
Info: NONBONDED TABLE R-SQUARED SPACING: 0.0625
Info: NONBONDED TABLE SIZE: 705 POINTS
TCL: Setting parameter alchLambda2 to 0.34999999999999964
Info: NONBONDED TABLE R-SQUARED SPACING: 0.0625
Info: NONBONDED TABLE SIZE: 705 POINTS
TCL: Running for 1500000 steps
ETITLE: TS BOND ANGLE DIHED IMPRP ELECT VDW BOUNDARY MISC KINETIC TOTAL TEMP POTENTIAL TOTALAVG TEMPAVG PRESSURE GPRESSURE VOLUME PRESSAVG GPRESSAVG
ENERGY: 0 1.6929 8.9073 11.3485 0.0000 -10572.0780 1417.0213 0.0000 0.0000 1716.3484 -7416.7597 295.4355 -9133.1081 -7416.7597 295.4355 -148.3852 -57.2628 30156.6261 -148.3852 -57.2628
ENERGY: 300000 1.6982 8.8997 10.5072 0.0000 -10574.7870 1431.2662 0.0000 0.0000 1759.2163 -7363.1994 302.8144 -9122.4157 -7395.6500 298.7246 191.8375 216.4234 29831.1544 26.7243 82.0456
ENERGY: 600000 0.6804 9.5071 9.6068 0.0000 -10558.4276 1381.0470 0.0000 0.0000 1735.2357 -7422.3505 298.6866 -9157.5862 -7412.3071 297.9801 42.7801 95.4150 29296.3641 -60.5287 -8.3604
ENERGY: 900000 0.9686 8.2359 8.1603 0.0000 -10582.5481 1434.0287 0.0000 0.0000 1710.2213 -7420.9333 294.3809 -9131.1546 -7421.2544 297.4395 75.5275 173.2497 29916.6935 -142.6432 -87.4576
ENERGY: 1200000 0.4730 13.1886 8.7942 0.0000 -10602.2161 1439.7682 0.0000 0.0000 1781.4234 -7358.5687 306.6369 -9139.9921 -7403.3266 298.7033 157.9788 212.4112 29998.8644 1.1936 54.2099
ENERGY: 1500000 2.4899 9.8971 9.1027 0.0000 -10570.5796 1386.4807 0.0000 0.0000 1719.6089 -7443.0004 295.9968 -9162.6093 -7402.1918 298.5715 -435.2777 -345.8374 30054.6247 -34.1350 19.3485
TCL: Running FEP window  14: Lambda1 0.34999999999999964 Lambda2 0.29999999999999966 [dLambda -0.04999999999999999]
TCL: Setting parameter firsttimestep to 0
TCL: Setting parameter alchLambda to 0.34999999999999964
Info: NONBONDED TABLE R-SQUARED SPACING: 0.0625
Info: NONBONDED TABLE SIZE: 705 POINTS
TCL: Setting parameter alchLambda2 to 0.29999999999999966
Info: NONBONDED TABLE R-SQUARED SPACING: 0.0625
Info: NONBONDED TABLE SIZE: 705 POINTS
TCL: Running for 1500000 steps
ETITLE: TS BOND ANGLE DIHED IMPRP ELECT VDW BOUNDARY MISC KINETIC TOTAL TEMP POTENTIAL TOTALAVG TEMPAVG PRESSURE GPRESSURE VOLUME PRESSAVG GPRESSAVG
ENERGY: 0 2.4899 9.8971 9.1027 0.0000 -10570.5796 1386.6018 0.0000 0.0000 1718.7484 -7443.7398 295.8487 -9162.4882 -7443.7398 295.8487 -425.9582 -348.3797 30054.6247 -425.9582 -348.3797
ENERGY: 300000 1.5020 7.6987 11.0870 0.0000 -10753.1019 1491.3816 0.0000 0.0000 1651.0214 -7590.4113 284.1908 -9241.4327 -7410.4221 296.5077 414.3008 497.2259 29441.2772 245.3326 288.6916
ENERGY: 600000 3.7089 16.4935 6.5831 0.0000 -10527.2910 1367.0332 0.0000 0.0000 1690.9138 -7442.5585 291.0575 -9133.4723 -7378.1870 297.6684 -580.6620 -539.4967 30014.7268 138.7375 165.8570
ENERGY: 900000 1.4708 8.6575 8.4267 0.0000 -10676.5105 1457.5121 0.0000 0.0000 1769.8270 -7430.6165 304.6408 -9200.4435 -7374.6700 300.6062 -74.1690 32.1245 30042.1319 161.4022 193.6123
ENERGY: 1200000 1.7739 9.4632 8.9459 0.0000 -10623.6738 1432.0820 0.0000 0.0000 1788.3894 -7383.0194 307.8360 -9171.4088 -7373.2880 301.5386 -130.6175 -9.5029 29837.1074 132.9826 176.8335
ENERGY: 1500000 2.2960 12.5097 7.4898 0.0000 -10577.5450 1394.6428 0.0000 0.0000 1786.6103 -7373.9963 307.5297 -9160.6066 -7371.8602 301.1961 -521.7189 -493.1961 30235.7549 45.7523 92.0866
TCL: Running FEP window  15: Lambda1 0.29999999999999966 Lambda2 0.24999999999999967 [dLambda -0.04999999999999999]
TCL: Setting parameter firsttimestep to 0
TCL: Setting parameter alchLambda to 0.29999999999999966
Info: NONBONDED TABLE R-SQUARED SPACING: 0.0625
Info: NONBONDED TABLE SIZE: 705 POINTS
TCL: Setting parameter alchLambda2 to 0.24999999999999967
Info: NONBONDED TABLE R-SQUARED SPACING: 0.0625
Info: NONBONDED TABLE SIZE: 705 POINTS
TCL: Running for 1500000 steps
ETITLE: TS BOND ANGLE DIHED IMPRP ELECT VDW BOUNDARY MISC KINETIC TOTAL TEMP POTENTIAL TOTALAVG TEMPAVG PRESSURE GPRESSURE VOLUME PRESSAVG GPRESSAVG
ENERGY: 0 2.2961 12.5097 7.4898 0.0000 -10577.5444 1394.5920 0.0000 0.0000 1785.7323 -7374.9245 307.3786 -9160.6568 -7374.9245 307.3786 -575.2036 -495.7595 30235.7549 -575.2036 -495.7595
ENERGY: 300000 0.6742 12.6833 9.5858 0.0000 -10712.9314 1455.0346 0.0000 0.0000 1739.3212 -7495.6323 299.3898 -9234.9534 -7433.7039 301.4671 376.8445 405.4977 29317.4442 -310.0181 -228.8063
ENERGY: 600000 1.5826 11.2469 9.3091 0.0000 -10580.4711 1414.2780 0.0000 0.0000 1752.1257 -7391.9288 301.5939 -9144.0546 -7403.5582 301.4820 -114.0468 -30.9098 30069.9564 -281.3573 -207.8204
ENERGY: 900000 1.2379 11.7357 10.0702 0.0000 -10668.8856 1456.1622 0.0000 0.0000 1746.3942 -7443.2853 300.6073 -9189.6795 -7397.1075 301.7013 -12.2999 56.7022 29869.5015 -209.0384 -130.8143
ENERGY: 1200000 0.3102 12.0913 8.4880 0.0000 -10499.2144 1440.9802 0.0000 0.0000 1749.9765 -7287.3683 301.2240 -9037.3447 -7395.9580 301.5483 248.3613 361.2927 30303.6920 -118.2753 -42.9840
ENERGY: 1500000 0.9450 7.4858 11.2763 0.0000 -10596.3499 1420.4861 0.0000 0.0000 1752.2554 -7403.9014 301.6162 -9156.1567 -7402.3123 301.0329 -7.4499 62.2166 29683.6491 -97.6837 -24.5405
TCL: Running FEP window  16: Lambda1 0.24999999999999967 Lambda2 0.19999999999999968 [dLambda -0.04999999999999999]
TCL: Setting parameter firsttimestep to 0
TCL: Setting parameter alchLambda to 0.24999999999999967
Info: NONBONDED TABLE R-SQUARED SPACING: 0.0625
Info: NONBONDED TABLE SIZE: 705 POINTS
TCL: Setting parameter alchLambda2 to 0.19999999999999968
Info: NONBONDED TABLE R-SQUARED SPACING: 0.0625
Info: NONBONDED TABLE SIZE: 705 POINTS
TCL: Running for 1500000 steps
ETITLE: TS BOND ANGLE DIHED IMPRP ELECT VDW BOUNDARY MISC KINETIC TOTAL TEMP POTENTIAL TOTALAVG TEMPAVG PRESSURE GPRESSURE VOLUME PRESSAVG GPRESSAVG
ENERGY: 0 0.9450 7.4857 11.2763 0.0000 -10596.3492 1420.3215 0.0000 0.0000 1751.3465 -7404.9742 301.4598 -9156.3207 -7404.9742 301.4598 -16.5969 57.8132 29683.6491 -16.5969 57.8132
ENERGY: 300000 1.8077 11.6946 8.1937 0.0000 -10690.7601 1450.8989 0.0000 0.0000 1785.5778 -7432.5874 307.3520 -9218.1652 -7421.5157 297.4845 -90.1850 10.9394 30040.3790 -423.9293 -321.5969
ENERGY: 600000 1.1945 9.4929 9.7026 0.0000 -10413.0057 1338.7554 0.0000 0.0000 1750.6003 -7303.2600 301.3313 -9053.8603 -7380.2048 299.7322 -404.6594 -453.8753 30280.1348 -340.6233 -261.9626
ENERGY: 900000 1.4015 9.6555 10.1258 0.0000 -10741.5421 1501.8146 0.0000 0.0000 1737.3395 -7481.2052 299.0488 -9218.5447 -7376.7050 300.9627 667.6672 700.0223 29428.7085 -241.7213 -174.1934
ENERGY: 1200000 1.3741 11.8061 9.7008 0.0000 -10704.3545 1466.2691 0.0000 0.0000 1745.5832 -7469.6212 300.4677 -9215.2044 -7374.3430 302.2521 -36.6711 -21.3437 30211.2838 -160.4855 -99.9203
ENERGY: 1500000 1.7289 11.6374 9.2571 0.0000 -10628.1274 1470.3654 0.0000 0.0000 1698.8759 -7436.2626 292.4280 -9135.1385 -7378.4033 300.3903 111.7010 169.0350 30065.9970 -118.2206 -60.4391
TCL: Running FEP window  17: Lambda1 0.19999999999999968 Lambda2 0.1499999999999997 [dLambda -0.04999999999999999]
TCL: Setting parameter firsttimestep to 0
TCL: Setting parameter alchLambda to 0.19999999999999968
Info: NONBONDED TABLE R-SQUARED SPACING: 0.0625
Info: NONBONDED TABLE SIZE: 705 POINTS
TCL: Setting parameter alchLambda2 to 0.1499999999999997
Info: NONBONDED TABLE R-SQUARED SPACING: 0.0625
Info: NONBONDED TABLE SIZE: 705 POINTS
TCL: Running for 1500000 steps
ETITLE: TS BOND ANGLE DIHED IMPRP ELECT VDW BOUNDARY MISC KINETIC TOTAL TEMP POTENTIAL TOTALAVG TEMPAVG PRESSURE GPRESSURE VOLUME PRESSAVG GPRESSAVG
ENERGY: 0 1.7289 11.6374 9.2571 0.0000 -10628.1271 1470.2447 0.0000 0.0000 1697.9930 -7437.2660 292.2760 -9135.2590 -7437.2660 292.2760 87.9520 167.3972 30065.9970 87.9520 167.3972
ENERGY: 300000 2.4205 12.9369 10.2820 0.0000 -10487.1872 1308.4893 0.0000 0.0000 1700.4408 -7452.6177 292.6974 -9153.0585 -7440.5515 295.6053 -1170.2611 -1127.6712 30418.3421 -517.3160 -427.9258
ENERGY: 600000 2.0754 13.2576 10.5612 0.0000 -10695.3851 1450.0916 0.0000 0.0000 1725.3154 -7494.0839 296.9790 -9219.3993 -7407.9482 299.3687 59.9046 107.1384 29646.0597 -342.0462 -249.9358
ENERGY: 900000 0.7876 10.8726 8.8609 0.0000 -10631.8412 1452.1901 0.0000 0.0000 1760.4692 -7398.6608 303.0301 -9159.1300 -7408.7702 300.6038 346.4980 382.6844 29695.6801 -206.3014 -124.2707
ENERGY: 1200000 0.7554 11.8097 8.1052 0.0000 -10486.6724 1348.5663 0.0000 0.0000 1764.4722 -7352.9635 303.7191 -9117.4357 -7390.8945 300.6235 -576.6324 -551.7483 30160.0694 -190.8655 -118.8550
ENERGY: 1500000 1.1956 16.1876 8.5359 0.0000 -10470.3155 1384.6500 0.0000 0.0000 1764.6631 -7295.0833 303.7520 -9059.7463 -7392.4990 300.7507 -163.6192 -145.2560 30112.5899 -125.1175 -57.8161
TCL: Running FEP window  18: Lambda1 0.1499999999999997 Lambda2 0.09999999999999969 [dLambda -0.05 ]
TCL: Setting parameter firsttimestep to 0
TCL: Setting parameter alchLambda to 0.1499999999999997
Info: NONBONDED TABLE R-SQUARED SPACING: 0.0625
Info: NONBONDED TABLE SIZE: 705 POINTS
TCL: Setting parameter alchLambda2 to 0.09999999999999969
Info: NONBONDED TABLE R-SQUARED SPACING: 0.0625
Info: NONBONDED TABLE SIZE: 705 POINTS
TCL: Running for 1500000 steps
ETITLE: TS BOND ANGLE DIHED IMPRP ELECT VDW BOUNDARY MISC KINETIC TOTAL TEMP POTENTIAL TOTALAVG TEMPAVG PRESSURE GPRESSURE VOLUME PRESSAVG GPRESSAVG
ENERGY: 0 1.1956 16.1876 8.5359 0.0000 -10470.3152 1384.8568 0.0000 0.0000 1763.8153 -7295.7240 303.6060 -9059.5393 -7295.7240 303.6060 -239.7020 -149.2111 30112.5899 -239.7020 -149.2111
ENERGY: 300000 0.8948 10.2508 11.3447 0.0000 -10652.7926 1451.1380 0.0000 0.0000 1792.7156 -7386.4487 308.5807 -9179.1643 -7397.2692 303.3518 166.6062 268.8388 29909.6990 -21.5435 61.2234
ENERGY: 600000 0.8524 10.7644 9.2658 0.0000 -10649.5062 1469.9849 0.0000 0.0000 1797.7691 -7360.8696 309.4505 -9158.6387 -7374.8691 303.5472 554.0561 611.2799 29832.9994 43.3575 112.5039
ENERGY: 900000 1.1741 16.3178 8.4213 0.0000 -10527.9906 1397.1974 0.0000 0.0000 1830.5965 -7274.2836 315.1011 -9104.8801 -7372.6911 302.8257 -228.1249 -147.1986 30058.2994 -44.1120 23.6966
ENERGY: 1200000 0.3656 13.2024 7.2902 0.0000 -10645.4527 1403.9481 0.0000 0.0000 1764.1119 -7456.5346 303.6571 -9220.6465 -7388.6778 301.6528 -504.6108 -420.9889 30077.1033 -93.6875 -36.1087
ENERGY: 1500000 3.2928 9.7659 7.5050 0.0000 -10643.7990 1392.6740 0.0000 0.0000 1739.8700 -7490.6913 299.4843 -9230.5612 -7394.4852 301.8223 -605.7317 -516.2646 29546.0555 -150.1208 -95.3714
TCL: Running FEP window  19: Lambda1 0.09999999999999969 Lambda2 0.049999999999999684 [dLambda -0.05 ]
TCL: Setting parameter firsttimestep to 0
TCL: Setting parameter alchLambda to 0.09999999999999969
Info: NONBONDED TABLE R-SQUARED SPACING: 0.0625
Info: NONBONDED TABLE SIZE: 705 POINTS
TCL: Setting parameter alchLambda2 to 0.049999999999999684
Info: NONBONDED TABLE R-SQUARED SPACING: 0.0625
Info: NONBONDED TABLE SIZE: 705 POINTS
TCL: Running for 1500000 steps
ETITLE: TS BOND ANGLE DIHED IMPRP ELECT VDW BOUNDARY MISC KINETIC TOTAL TEMP POTENTIAL TOTALAVG TEMPAVG PRESSURE GPRESSURE VOLUME PRESSAVG GPRESSAVG
ENERGY: 0 3.2928 9.7659 7.5050 0.0000 -10643.7997 1393.1213 0.0000 0.0000 1738.9744 -7491.1402 299.3302 -9230.1146 -7491.1402 299.3302 -587.9917 -515.2785 29546.0555 -587.9917 -515.2785
ENERGY: 300000 0.5884 12.5516 7.8188 0.0000 -10484.4061 1327.0773 0.0000 0.0000 1754.2971 -7382.0730 301.9677 -9136.3701 -7399.6193 303.8845 -1120.1152 -1005.8452 30477.2044 -682.1215 -615.1503
ENERGY: 600000 4.6486 13.2414 10.1107 0.0000 -10550.4420 1377.5690 0.0000 0.0000 1751.1152 -7393.7571 301.4200 -9144.8723 -7379.5556 304.2584 -300.6125 -269.7520 29786.1492 -337.6203 -276.2370
ENERGY: 900000 1.8134 12.8066 7.4805 0.0000 -10544.7338 1367.8767 0.0000 0.0000 1757.5322 -7397.2244 302.5245 -9154.7566 -7387.4839 303.4924 -656.8789 -575.4037 30160.8867 -347.4018 -282.8091
ENERGY: 1200000 0.7942 11.0763 8.1935 0.0000 -10542.3981 1414.2927 0.0000 0.0000 1743.1093 -7364.9320 300.0419 -9108.0413 -7389.1460 302.0272 -233.6675 -174.9571 30210.1045 -366.5260 -299.8629
ENERGY: 1500000 1.2067 9.8595 8.7018 0.0000 -10528.2125 1400.5223 0.0000 0.0000 1756.6217 -7351.3006 302.3678 -9107.9222 -7378.5190 302.5771 -35.5341 26.9424 29794.9355 -323.1318 -261.7291
TCL: Running FEP window  20: Lambda1 0.049999999999999684 Lambda2 0.0    [dLambda -0.049999999999999684]
TCL: Setting parameter firsttimestep to 0
TCL: Setting parameter alchLambda to 0.049999999999999684
Info: NONBONDED TABLE R-SQUARED SPACING: 0.0625
Info: NONBONDED TABLE SIZE: 705 POINTS
TCL: Setting parameter alchLambda2 to 0.0
Info: NONBONDED TABLE R-SQUARED SPACING: 0.0625
Info: NONBONDED TABLE SIZE: 705 POINTS
TCL: Running for 1500000 steps
ETITLE: TS BOND ANGLE DIHED IMPRP ELECT VDW BOUNDARY MISC KINETIC TOTAL TEMP POTENTIAL TOTALAVG TEMPAVG PRESSURE GPRESSURE VOLUME PRESSAVG GPRESSAVG
ENERGY: 0 1.2067 9.8595 8.7018 0.0000 -10528.2109 1400.4097 0.0000 0.0000 1755.7931 -7352.2401 302.2252 -9108.0332 -7352.2401 302.2252 -66.4887 22.9916 29794.9355 -66.4887 22.9916
ENERGY: 300000 0.4706 13.1860 8.3685 0.0000 -10600.5425 1425.9164 0.0000 0.0000 1795.6888 -7356.9122 309.0924 -9152.6010 -7393.1414 299.5170 307.5223 286.3561 29581.9408 -218.8745 -180.6229
ENERGY: 600000 0.7453 8.9586 10.1886 0.0000 -10689.7614 1492.3901 0.0000 0.0000 1767.8304 -7409.6483 304.2972 -9177.4787 -7405.7667 300.3586 109.4787 194.0290 30253.1260 -193.9664 -152.6949
ENERGY: 900000 2.9757 16.9593 7.9545 0.0000 -10909.1689 1591.2878 0.0000 0.0000 1736.9581 -7553.0335 298.9831 -9289.9916 -7410.0698 301.3766 975.5287 1025.4191 29283.4130 -0.1229 42.3289
ENERGY: 1200000 0.8429 12.1659 8.1989 0.0000 -10737.4911 1550.5965 0.0000 0.0000 1797.9464 -7367.7405 309.4810 -9165.6869 -7413.3077 302.0424 975.8588 1053.5815 29738.7844 82.3536 126.2244
ENERGY: 1500000 1.4667 9.3921 11.0451 0.0000 -10724.5255 1460.7356 0.0000 0.0000 1764.4341 -7477.4518 303.7125 -9241.8859 -7405.9641 302.8581 268.6826 375.5248 29268.3466 106.1817 161.3697
TCL: Exiting due to exit command.
