Info: SIMULATION PARAMETERS:
Info: TIMESTEP               2
Info: NUMBER OF STEPS        0
Info: STEPS PER CYCLE        10
Info: PERIODIC CELL BASIS 1  30.5113 0 0
Info: PERIODIC CELL BASIS 2  0 30.9475 0
Info: PERIODIC CELL BASIS 3  0 0 32.2881
Info: PERIODIC CELL CENTER   0 0 0
Info: WRAPPING WATERS AROUND PERIODIC BOUNDARIES ON OUTPUT.
Info: WRAPPING ALL CLUSTERS AROUND PERIODIC BOUNDARIES ON OUTPUT.
Info: FIRST LDB TIMESTEP     50
Info: LAST LDB TIMESTEP     -1
Info: HOM BACKGROUND SCALING 1
Info: PME BACKGROUND SCALING 1
Info: MIN ATOMS PER PATCH    40
Info: EMPTY PATCH LOAD       40 ATOMS
Info: VELOCITY FILE          mobley_6739648_equil.vel
Info: CENTER OF MASS MOVING INITIALLY? NO
Info: DIELECTRIC             1
Info: EXCLUDE                SCALED ONE-FOUR
Info: 1-4 ELECTROSTATICS SCALED BY 0.833333
Info: MODIFIED 1-4 VDW PARAMETERS WILL BE USED
Info: DCD FILENAME           mobley_6739648_prod.dcd
Info: DCD FREQUENCY          100000
Info: DCD FIRST STEP         100000
Info: DCD FILE WILL CONTAIN UNIT CELL DATA
Info: XST FILENAME           mobley_6739648_prod.xst
Info: XST FREQUENCY          100000
Info: NO VELOCITY DCD OUTPUT
Info: NO FORCE DCD OUTPUT
Info: OUTPUT FILENAME        mobley_6739648_prod
Info: BINARY OUTPUT FILES WILL BE USED
Info: RESTART FILENAME       mobley_6739648_prod.restart
Info: RESTART FREQUENCY      100000
Info: BINARY RESTART FILES WILL BE USED
Info: CUTOFF                 9
Info: PAIRLIST DISTANCE      11
Info: PAIRLIST SHRINK RATE   0.01
Info: PAIRLIST GROW RATE     0.01
Info: PAIRLIST TRIGGER       0.3
Info: PAIRLISTS PER CYCLE    2
Info: PAIRLISTS ENABLED
Info: MARGIN                 2
Info: HYDROGEN GROUP CUTOFF  2.5
Info: PATCH DIMENSION        15.5
Info: ENERGY OUTPUT STEPS    100000
Info: ENERGY EVALUATION STEPS    100000
Info: OUTPUT ENERGY PRECISION 4
Info: CROSSTERM ENERGY INCLUDED IN DIHEDRAL
Info: TIMING OUTPUT STEPS    1000000
Info: PRESSURE OUTPUT STEPS  100000
Info: ALCHEMICAL FEP ON
Info: FEP CURRENT LAMBDA VALUE     1
Info: FEP COMPARISON LAMBDA VALUE  0.95
Info: FEP INTRA-ALCHEMICAL NON-BONDED INTERACTIONS WILL BE RETAINED
Info: FEP INTRA-ALCHEMICAL BONDED INTERACTIONS WILL BE RETAINED
Info: FEP VDW SHIFTING COEFFICIENT 5
Info: FEP ELEC. ACTIVE FOR ANNIHILATED PARTICLES BETWEEN LAMBDA = 0 AND LAMBDA = 0.5
Info: FEP ELEC. ACTIVE FOR EXNIHILATED PARTICLES BETWEEN LAMBDA = 0.5 AND LAMBDA = 1
Info: FEP VDW ACTIVE FOR ANNIHILATED PARTICLES BETWEEN LAMBDA = 0 AND LAMBDA = 1
Info: FEP VDW ACTIVE FOR EXNIHILATED PARTICLES BETWEEN LAMBDA = 0 AND LAMBDA = 1
Info: FEP BOND ACTIVE FOR ANNIHILATED PARTICLES BETWEEN LAMBDA = 1 AND LAMBDA = 1
Info: FEP BOND ACTIVE FOR EXNIHILATED PARTICLES BETWEEN LAMBDA = 0 AND LAMBDA = 0
Info: LANGEVIN DYNAMICS ACTIVE
Info: LANGEVIN TEMPERATURE   300
Info: LANGEVIN USING BBK INTEGRATOR
Info: LANGEVIN DAMPING COEFFICIENT IS 1 INVERSE PS
Info: LANGEVIN DYNAMICS APPLIED TO HYDROGENS
Info: LANGEVIN PISTON PRESSURE CONTROL ACTIVE
Info:        TARGET PRESSURE IS 1.01325 BAR
Info:     OSCILLATION PERIOD IS 50 FS
Info:             DECAY TIME IS 25 FS
Info:     PISTON TEMPERATURE IS 300 K
Info:       PRESSURE CONTROL IS GROUP-BASED
Info:    INITIAL STRAIN RATE IS 4.58615e-06 4.58615e-06 4.58615e-06
Info:       CELL FLUCTUATION IS ISOTROPIC
Info: PARTICLE MESH EWALD (PME) ACTIVE
Info: PME TOLERANCE               1e-06
Info: PME EWALD COEFFICIENT       0.348832
Info: PME INTERPOLATION ORDER     4
Info: PME GRID DIMENSIONS         32 32 36
Info: PME MAXIMUM GRID SPACING    1
Info: PME CALCULATION WILL BE PERFORMED ON GPU
Info: FULL ELECTROSTATIC EVALUATION FREQUENCY      2
Info: USING VERLET I (r-RESPA) MTS SCHEME.
Info: C1 SPLITTING OF LONG RANGE ELECTROSTATICS
Info: PLACING ATOMS IN PATCHES BY HYDROGEN GROUPS
Info: RIGID BONDS TO HYDROGEN : ALL
Info:         ERROR TOLERANCE : 1e-08
Info:          MAX ITERATIONS : 100
Info: RIGID WATER USING SETTLE ALGORITHM
Info: RANDOM NUMBER SEED     1743581491
Info: USE HYDROGEN BONDS?    NO
Info: Using AMBER format force field!
Info: AMBER PARM FILE        mobley_6739648.prmtop
Info: COORDINATE PDB         mobley_6739648.pdb
Info: Exclusions will be read from PARM file!
Info: SCNB (VDW SCALING)     2
Info: USING ARITHMETIC MEAN TO COMBINE L-J SIGMA PARAMETERS
Info: BINARY COORDINATES     mobley_6739648_equil.coor
Info: SUMMARY OF PARAMETERS:
Info: 5 BONDS
Info: 5 ANGLES
Info:   5 HARMONIC
Info:   0 COSINE-BASED
Info: 8 DIHEDRAL
Info: 0 IMPROPER
Info: 0 CROSSTERM
Info: 0 VDW
Info: 15 VDW_PAIRS
Info: 0 NBTHOLE_PAIRS
Info: To read alchdata from file: mobley_6739648.pdb
Info: To read alchflag data from column: 5
Info: STRUCTURE SUMMARY:
Info: 2930 ATOMS
Info: 2930 BONDS
Info: 26 ANGLES
Info: 44 DIHEDRALS
Info: 0 IMPROPERS
Info: 0 CROSSTERMS
Info: 2983 EXCLUSIONS
Info: 2924 RIGID BONDS
Info: ALCH: 0 ATOMS TO DISAPPEAR IN FINAL STATE
Info: ALCH: 14 ATOMS TO APPEAR IN FINAL STATE
Info: 5866 DEGREES OF FREEDOM
Info: 978 HYDROGEN GROUPS
Info: 3 ATOMS IN LARGEST HYDROGEN GROUP
Info: 978 MIGRATION GROUPS
Info: 3 ATOMS IN LARGEST MIGRATION GROUP
Info: TOTAL MASS = 17599.7 amu
Info: TOTAL CHARGE = -0.000399977 e
Info: MASS DENSITY = 0.958595 g/cm^3
Info: ATOM DENSITY = 0.0961035 atoms/A^3
Info: ADDED 0 IMPLICIT EXCLUSIONS
Info: NONBONDED TABLE R-SQUARED SPACING: 0.0625
Info: NONBONDED TABLE SIZE: 705 POINTS
Info: REMOVING COM VELOCITY -0.065388 -0.0333553 0.0895247
Info: Use 3D box decompostion in PME FFT.
Info: Updated CUDA force table with 4096 elements.
Info: Updated CUDA LJ table with 5 x 5 elements.
Info: Found 15 unique exclusion lists needing 32 bytes
TCL: Running for 1500000 steps
ETITLE: TS BOND ANGLE DIHED IMPRP ELECT VDW BOUNDARY MISC KINETIC TOTAL TEMP POTENTIAL TOTALAVG TEMPAVG PRESSURE GPRESSURE VOLUME PRESSAVG GPRESSAVG
ENERGY: 0 2.5488 3.3738 4.2929 0.0000 -10602.6568 1427.7712 0.0000 0.0000 1729.8614 -7434.8088 296.7971 -9164.6701 -7434.8088 296.7971 -304.6575 -221.0669 30487.9636 -304.6575 -221.0669
ENERGY: 300000 8.1515 6.0492 3.6220 0.0000 -10496.3240 1348.1945 0.0000 0.0000 1780.5364 -7349.7704 305.4915 -9130.3068 -7390.6203 304.1552 -755.4811 -650.9250 30440.0313 -150.8597 -57.2407
ENERGY: 600000 0.6889 7.3962 6.2822 0.0000 -10648.6968 1454.1144 0.0000 0.0000 1800.3933 -7379.8219 308.8984 -9180.2152 -7400.5755 304.5440 122.4989 167.7500 30174.2840 28.9850 97.9867
ENERGY: 900000 1.0484 7.0797 4.4203 0.0000 -10389.1576 1363.9601 0.0000 0.0000 1756.8387 -7255.8104 301.4257 -9012.6491 -7401.5332 302.8233 -160.1442 -75.3132 30486.5382 92.6137 162.5747
ENERGY: 1200000 6.1610 7.5350 3.8960 0.0000 -10680.0405 1499.2394 0.0000 0.0000 1710.3198 -7452.8894 293.4443 -9163.2091 -7400.8776 301.8622 384.5170 401.7777 30145.0405 95.1063 156.6966
ENERGY: 1500000 0.8151 6.5125 4.3213 0.0000 -10517.8323 1359.8453 0.0000 0.0000 1728.7448 -7417.5934 296.6055 -9146.3382 -7397.0614 302.1898 -53.2357 10.0922 29760.1911 -2.6356 55.2331
TCL: Running FEP window   2: Lambda1 0.95   Lambda2 0.8999999999999999 [dLambda -0.050000000000000044]
TCL: Setting parameter firsttimestep to 0
TCL: Setting parameter alchLambda to 0.95
Info: NONBONDED TABLE R-SQUARED SPACING: 0.0625
Info: NONBONDED TABLE SIZE: 705 POINTS
TCL: Setting parameter alchLambda2 to 0.8999999999999999
Info: NONBONDED TABLE R-SQUARED SPACING: 0.0625
Info: NONBONDED TABLE SIZE: 705 POINTS
TCL: Running for 1500000 steps
ETITLE: TS BOND ANGLE DIHED IMPRP ELECT VDW BOUNDARY MISC KINETIC TOTAL TEMP POTENTIAL TOTALAVG TEMPAVG PRESSURE GPRESSURE VOLUME PRESSAVG GPRESSAVG
ENERGY: 0 0.8151 6.5125 4.3213 0.0000 -10516.7560 1359.1614 0.0000 0.0000 1727.8925 -7418.0532 296.4593 -9145.9458 -7418.0532 296.4593 -97.4643 -10.6241 29760.1911 -97.4643 -10.6241
ENERGY: 300000 1.4873 3.2737 3.9420 0.0000 -10660.2065 1489.9550 0.0000 0.0000 1748.9407 -7412.6079 300.0706 -9161.5486 -7444.6002 301.0665 741.3357 811.3733 29790.9246 236.5384 274.6732
ENERGY: 600000 0.6161 6.6706 4.2500 0.0000 -10631.5741 1420.1403 0.0000 0.0000 1747.3602 -7452.5370 299.7994 -9199.8972 -7449.1181 301.6182 -159.7800 -98.4959 30050.2163 110.2325 161.4119
ENERGY: 900000 4.4887 7.5932 3.7250 0.0000 -10659.7191 1471.0174 0.0000 0.0000 1766.0758 -7406.8191 303.0105 -9172.8949 -7441.5252 302.3315 242.7420 294.1887 29883.3108 123.3372 176.9232
ENERGY: 1200000 0.7012 4.6579 3.8485 0.0000 -10643.6696 1463.3909 0.0000 0.0000 1700.8309 -7470.2402 291.8162 -9171.0711 -7441.1691 301.4005 258.8935 306.4897 30253.5954 134.8611 191.1490
ENERGY: 1500000 0.5211 7.6090 5.5752 0.0000 -10636.9563 1434.6879 0.0000 0.0000 1797.3221 -7391.2410 308.3715 -9188.5631 -7435.9870 301.8678 227.7445 248.7321 29787.5880 136.9592 192.4551
TCL: Running FEP window   3: Lambda1 0.8999999999999999 Lambda2 0.8499999999999999 [dLambda -0.050000000000000044]
TCL: Setting parameter firsttimestep to 0
TCL: Setting parameter alchLambda to 0.8999999999999999
Info: NONBONDED TABLE R-SQUARED SPACING: 0.0625
Info: NONBONDED TABLE SIZE: 705 POINTS
TCL: Setting parameter alchLambda2 to 0.8499999999999999
Info: NONBONDED TABLE R-SQUARED SPACING: 0.0625
Info: NONBONDED TABLE SIZE: 705 POINTS
TCL: Running for 1500000 steps
ETITLE: TS BOND ANGLE DIHED IMPRP ELECT VDW BOUNDARY MISC KINETIC TOTAL TEMP POTENTIAL TOTALAVG TEMPAVG PRESSURE GPRESSURE VOLUME PRESSAVG GPRESSAVG
ENERGY: 0 0.5211 7.6090 5.5752 0.0000 -10635.9067 1434.6421 0.0000 0.0000 1796.4588 -7391.1005 308.2234 -9187.5593 -7391.1005 308.2234 154.8145 235.5337 29787.5880 154.8145 235.5337
ENERGY: 300000 2.5059 5.3122 3.6785 0.0000 -10585.6432 1409.8925 0.0000 0.0000 1731.7500 -7432.5040 297.1211 -9164.2540 -7383.0436 304.1538 -76.9443 -45.8018 29885.9528 100.2481 154.6967
ENERGY: 600000 0.3003 4.1827 3.9115 0.0000 -10484.5277 1318.9006 0.0000 0.0000 1753.6705 -7403.5620 300.8821 -9157.2326 -7388.7190 302.3682 -768.7786 -625.3293 29973.8651 -51.1144 27.1979
ENERGY: 900000 2.1368 7.4826 3.6357 0.0000 -10572.0872 1363.6282 0.0000 0.0000 1767.4629 -7427.7410 303.2485 -9195.2039 -7393.6530 301.5401 -717.2819 -675.9434 30377.3017 -69.2352 -3.0691
ENERGY: 1200000 1.5486 6.7533 4.1523 0.0000 -10389.5007 1272.1422 0.0000 0.0000 1810.3856 -7294.5189 310.6128 -9104.9045 -7396.5951 302.6457 -1074.3524 -930.7159 30350.8842 -72.0129 -9.9192
ENERGY: 1500000 2.5809 4.7111 4.0956 0.0000 -10505.7115 1415.8650 0.0000 0.0000 1804.1115 -7274.3475 309.5364 -9078.4590 -7396.3278 301.9658 35.5518 105.4247 30612.2525 -51.3993 11.8051
TCL: Running FEP window   4: Lambda1 0.8499999999999999 Lambda2 0.7999999999999998 [dLambda -0.050000000000000044]
TCL: Setting parameter firsttimestep to 0
TCL: Setting parameter alchLambda to 0.8499999999999999
Info: NONBONDED TABLE R-SQUARED SPACING: 0.0625
Info: NONBONDED TABLE SIZE: 705 POINTS
TCL: Setting parameter alchLambda2 to 0.7999999999999998
Info: NONBONDED TABLE R-SQUARED SPACING: 0.0625
Info: NONBONDED TABLE SIZE: 705 POINTS
TCL: Running for 1500000 steps
ETITLE: TS BOND ANGLE DIHED IMPRP ELECT VDW BOUNDARY MISC KINETIC TOTAL TEMP POTENTIAL TOTALAVG TEMPAVG PRESSURE GPRESSURE VOLUME PRESSAVG GPRESSAVG
ENERGY: 0 2.5809 4.7111 4.0956 0.0000 -10504.8828 1415.9043 0.0000 0.0000 1803.2042 -7274.3868 309.3807 -9077.5910 -7274.3868 309.3807 16.5396 99.9751 30612.2525 16.5396 99.9751
ENERGY: 300000 1.1003 4.8902 3.8924 0.0000 -10524.7337 1326.4850 0.0000 0.0000 1726.6394 -7461.7265 296.2443 -9188.3658 -7395.5318 300.7762 -793.6010 -727.3579 30069.4129 -228.8318 -163.4369
ENERGY: 600000 2.1350 7.6811 4.3949 0.0000 -10562.8109 1403.8437 0.0000 0.0000 1758.3930 -7386.3630 301.6923 -9144.7560 -7391.3262 301.5137 -114.8038 -83.6399 30137.1555 -288.6122 -245.0208
ENERGY: 900000 0.9324 2.1972 3.9342 0.0000 -10494.3495 1392.4333 0.0000 0.0000 1725.3759 -7369.4765 296.0275 -9094.8523 -7388.5134 300.4375 -178.6759 -125.3970 30232.1780 -166.5411 -116.6386
ENERGY: 1200000 2.2707 5.5697 4.0977 0.0000 -10488.8477 1362.0975 0.0000 0.0000 1754.9533 -7359.8588 301.1022 -9114.8121 -7382.9844 301.1205 -260.4453 -270.6856 30244.4030 -78.2324 -33.5811
ENERGY: 1500000 1.2674 4.9840 4.1139 0.0000 -10530.5304 1405.6403 0.0000 0.0000 1785.6173 -7328.9075 306.3633 -9114.5247 -7388.3261 301.3950 -122.1407 -15.9706 30123.1388 -87.1652 -40.5169
TCL: Running FEP window   5: Lambda1 0.7999999999999998 Lambda2 0.7499999999999998 [dLambda -0.050000000000000044]
TCL: Setting parameter firsttimestep to 0
TCL: Setting parameter alchLambda to 0.7999999999999998
Info: NONBONDED TABLE R-SQUARED SPACING: 0.0625
Info: NONBONDED TABLE SIZE: 705 POINTS
TCL: Setting parameter alchLambda2 to 0.7499999999999998
Info: NONBONDED TABLE R-SQUARED SPACING: 0.0625
Info: NONBONDED TABLE SIZE: 705 POINTS
TCL: Running for 1500000 steps
ETITLE: TS BOND ANGLE DIHED IMPRP ELECT VDW BOUNDARY MISC KINETIC TOTAL TEMP POTENTIAL TOTALAVG TEMPAVG PRESSURE GPRESSURE VOLUME PRESSAVG GPRESSAVG
ENERGY: 0 1.2674 4.9840 4.1139 0.0000 -10529.0599 1405.2218 0.0000 0.0000 1784.7282 -7328.7446 306.2107 -9113.4728 -7328.7446 306.2107 -102.1081 -24.4441 30123.1388 -102.1081 -24.4441
ENERGY: 300000 1.8102 3.7595 3.5547 0.0000 -10586.5115 1349.2425 0.0000 0.0000 1692.9328 -7535.2118 290.4611 -9228.1445 -7406.7494 299.8451 -910.3479 -823.0291 30253.6786 37.1250 157.9904
ENERGY: 600000 2.9937 8.5999 3.7529 0.0000 -10539.8749 1469.1216 0.0000 0.0000 1748.5263 -7306.8806 299.9995 -9055.4069 -7410.1500 298.7397 471.1188 551.5516 30481.6140 142.0511 243.5002
ENERGY: 900000 1.4017 5.5702 4.6332 0.0000 -10618.9503 1428.5604 0.0000 0.0000 1708.5947 -7470.1900 293.1483 -9178.7847 -7405.6840 298.8692 11.8275 4.8436 30060.5421 100.0318 178.2541
ENERGY: 1200000 2.0112 10.4256 3.7325 0.0000 -10527.5503 1360.0524 0.0000 0.0000 1693.7974 -7457.5313 290.6095 -9151.3286 -7412.9663 298.3438 -816.6760 -764.6929 30677.9610 -36.8529 36.2384
ENERGY: 1500000 0.6606 10.4400 3.9177 0.0000 -10795.3223 1571.2028 0.0000 0.0000 1748.4712 -7460.6300 299.9900 -9209.1012 -7429.3677 298.2816 1144.2627 1222.2863 29747.1415 4.9837 81.0053
TCL: Running FEP window   6: Lambda1 0.7499999999999998 Lambda2 0.6999999999999997 [dLambda -0.050000000000000044]
TCL: Setting parameter firsttimestep to 0
TCL: Setting parameter alchLambda to 0.7499999999999998
Info: NONBONDED TABLE R-SQUARED SPACING: 0.0625
Info: NONBONDED TABLE SIZE: 705 POINTS
TCL: Setting parameter alchLambda2 to 0.6999999999999997
Info: NONBONDED TABLE R-SQUARED SPACING: 0.0625
Info: NONBONDED TABLE SIZE: 705 POINTS
TCL: Running for 1500000 steps
ETITLE: TS BOND ANGLE DIHED IMPRP ELECT VDW BOUNDARY MISC KINETIC TOTAL TEMP POTENTIAL TOTALAVG TEMPAVG PRESSURE GPRESSURE VOLUME PRESSAVG GPRESSAVG
ENERGY: 0 0.6606 10.4400 3.9177 0.0000 -10794.0122 1571.6338 0.0000 0.0000 1747.6230 -7459.7370 299.8445 -9207.3600 -7459.7370 299.8445 1136.5343 1219.7790 29747.1415 1136.5343 1219.7790
ENERGY: 300000 0.8244 4.7420 4.3162 0.0000 -10565.4889 1425.5290 0.0000 0.0000 1700.1824 -7429.8950 291.7050 -9130.0774 -7415.8010 299.3184 -140.6998 -39.5933 30189.5135 109.4533 186.4664
ENERGY: 600000 3.2609 6.4836 4.1394 0.0000 -10621.5733 1494.8845 0.0000 0.0000 1731.3641 -7381.4409 297.0549 -9112.8050 -7412.9105 298.7702 486.7546 553.7049 30267.1370 73.8954 141.1509
ENERGY: 900000 1.1533 6.2964 4.0425 0.0000 -10560.0824 1405.7300 0.0000 0.0000 1776.6720 -7366.1882 304.8285 -9142.8602 -7419.6686 299.1059 -45.1816 1.6991 30113.2102 8.4640 70.6489
ENERGY: 1200000 0.5465 6.3854 4.9164 0.0000 -10667.1519 1522.1254 0.0000 0.0000 1733.5374 -7399.6407 297.4278 -9133.1782 -7415.4842 299.1726 773.4085 860.0563 30078.3830 18.4328 84.8470
ENERGY: 1500000 1.4375 6.2914 4.2625 0.0000 -10657.8941 1490.4707 0.0000 0.0000 1779.2808 -7376.1512 305.2761 -9155.4320 -7415.6067 299.2225 706.1977 803.0832 29984.7558 24.0279 94.9935
TCL: Running FEP window   7: Lambda1 0.6999999999999997 Lambda2 0.6499999999999997 [dLambda -0.050000000000000044]
TCL: Setting parameter firsttimestep to 0
TCL: Setting parameter alchLambda to 0.6999999999999997
Info: NONBONDED TABLE R-SQUARED SPACING: 0.0625
Info: NONBONDED TABLE SIZE: 705 POINTS
TCL: Setting parameter alchLambda2 to 0.6499999999999997
Info: NONBONDED TABLE R-SQUARED SPACING: 0.0625
Info: NONBONDED TABLE SIZE: 705 POINTS
TCL: Running for 1500000 steps
ETITLE: TS BOND ANGLE DIHED IMPRP ELECT VDW BOUNDARY MISC KINETIC TOTAL TEMP POTENTIAL TOTALAVG TEMPAVG PRESSURE GPRESSURE VOLUME PRESSAVG GPRESSAVG
ENERGY: 0 1.4375 6.2914 4.2625 0.0000 -10656.4749 1489.6993 0.0000 0.0000 1778.3974 -7376.3868 305.1245 -9154.7842 -7376.3868 305.1245 689.7690 789.5591 29984.7558 689.7690 789.5591
ENERGY: 300000 1.8317 7.9715 4.0936 0.0000 -10444.4584 1325.8282 0.0000 0.0000 1743.7367 -7360.9969 299.1777 -9104.7335 -7388.3694 301.7939 -715.7437 -756.1947 30450.4492 -3.3071 59.3242
ENERGY: 600000 2.0681 4.4893 3.2817 0.0000 -10541.3847 1383.9297 0.0000 0.0000 1756.1410 -7391.4749 301.3059 -9147.6159 -7396.9897 301.8194 -304.3560 -270.0420 29975.0794 -127.6292 -79.2519
ENERGY: 900000 1.9775 8.0425 3.7828 0.0000 -10607.7164 1470.7146 0.0000 0.0000 1768.9216 -7354.2774 303.4988 -9123.1990 -7384.6824 301.0930 264.2113 282.9313 30336.4938 -82.2173 -31.0232
ENERGY: 1200000 3.6501 6.8323 4.7489 0.0000 -10555.6907 1438.0816 0.0000 0.0000 1769.4974 -7332.8803 303.5975 -9102.3777 -7384.0731 301.0083 38.1643 55.4377 30442.3034 -25.9573 28.9138
ENERGY: 1500000 3.5255 7.1500 3.6000 0.0000 -10584.5976 1406.3169 0.0000 0.0000 1741.4910 -7422.5143 298.7924 -9164.0053 -7390.3349 300.1155 -237.7031 -140.9749 29994.7804 -38.7802 14.3744
TCL: Running FEP window   8: Lambda1 0.6499999999999997 Lambda2 0.5999999999999996 [dLambda -0.050000000000000044]
TCL: Setting parameter firsttimestep to 0
TCL: Setting parameter alchLambda to 0.6499999999999997
Info: NONBONDED TABLE R-SQUARED SPACING: 0.0625
Info: NONBONDED TABLE SIZE: 705 POINTS
TCL: Setting parameter alchLambda2 to 0.5999999999999996
Info: NONBONDED TABLE R-SQUARED SPACING: 0.0625
Info: NONBONDED TABLE SIZE: 705 POINTS
TCL: Running for 1500000 steps
ETITLE: TS BOND ANGLE DIHED IMPRP ELECT VDW BOUNDARY MISC KINETIC TOTAL TEMP POTENTIAL TOTALAVG TEMPAVG PRESSURE GPRESSURE VOLUME PRESSAVG GPRESSAVG
ENERGY: 0 3.5255 7.1500 3.6000 0.0000 -10583.4826 1406.4666 0.0000 0.0000 1740.6559 -7422.0847 298.6491 -9162.7405 -7422.0847 298.6491 -214.3391 -139.4775 29994.7804 -214.3391 -139.4775
ENERGY: 300000 0.3220 6.6534 5.0504 0.0000 -10611.3477 1444.7074 0.0000 0.0000 1781.3995 -7373.2150 305.6396 -9154.6145 -7395.7304 300.5757 126.0713 152.4722 30218.6530 46.2094 104.5647
ENERGY: 600000 1.4552 5.4839 3.5963 0.0000 -10663.4025 1446.6091 0.0000 0.0000 1785.3975 -7420.8605 306.3256 -9206.2580 -7407.4009 302.7843 -55.0267 1.1263 30304.0012 -3.5225 47.1032
ENERGY: 900000 1.2686 4.9918 4.1435 0.0000 -10742.7511 1489.5024 0.0000 0.0000 1747.7438 -7495.1011 299.8652 -9242.8449 -7420.2511 301.9733 394.4430 458.2040 29805.2570 -13.8199 37.6599
ENERGY: 1200000 1.0494 7.9092 4.2052 0.0000 -10625.5311 1497.2004 0.0000 0.0000 1816.7208 -7298.4461 311.6998 -9115.1669 -7422.4623 302.4709 615.6528 703.4356 30321.2044 16.2049 75.2051
ENERGY: 1500000 3.7820 4.8268 3.7630 0.0000 -10643.7283 1419.3476 0.0000 0.0000 1798.9117 -7413.0972 308.6442 -9212.0089 -7419.8454 303.1409 -299.8876 -240.8134 30263.5895 -13.7862 43.0848
TCL: Running FEP window   9: Lambda1 0.5999999999999996 Lambda2 0.5499999999999996 [dLambda -0.050000000000000044]
TCL: Setting parameter firsttimestep to 0
TCL: Setting parameter alchLambda to 0.5999999999999996
Info: NONBONDED TABLE R-SQUARED SPACING: 0.0625
Info: NONBONDED TABLE SIZE: 705 POINTS
TCL: Setting parameter alchLambda2 to 0.5499999999999996
Info: NONBONDED TABLE R-SQUARED SPACING: 0.0625
Info: NONBONDED TABLE SIZE: 705 POINTS
TCL: Running for 1500000 steps
ETITLE: TS BOND ANGLE DIHED IMPRP ELECT VDW BOUNDARY MISC KINETIC TOTAL TEMP POTENTIAL TOTALAVG TEMPAVG PRESSURE GPRESSURE VOLUME PRESSAVG GPRESSAVG
ENERGY: 0 3.7820 4.8268 3.7630 0.0000 -10643.4662 1419.9582 0.0000 0.0000 1797.9984 -7413.1379 308.4875 -9211.1363 -7413.1379 308.4875 -322.9840 -239.6769 30263.5895 -322.9840 -239.6769
ENERGY: 300000 2.1084 8.5710 4.5948 0.0000 -10378.8331 1312.3801 0.0000 0.0000 1762.6292 -7288.5496 302.4191 -9051.1788 -7372.0517 307.6463 -973.3320 -887.3459 30624.1186 -387.6151 -296.4626
ENERGY: 600000 3.2458 7.1541 4.1824 0.0000 -10630.4309 1439.4019 0.0000 0.0000 1749.4718 -7426.9748 300.1617 -9176.4466 -7391.9300 303.3829 -293.8780 -218.2517 30412.5336 -288.4465 -201.8209
ENERGY: 900000 1.7893 7.2158 3.6775 0.0000 -10647.4473 1434.0807 0.0000 0.0000 1761.7812 -7438.9028 302.2737 -9200.6840 -7392.0089 303.3394 -143.1018 -68.5944 30120.6295 -235.8614 -159.6842
ENERGY: 1200000 2.7994 6.5801 4.2826 0.0000 -10637.7205 1482.4522 0.0000 0.0000 1742.6381 -7398.9680 298.9892 -9141.6061 -7384.5410 303.1372 826.9379 859.5459 29558.5968 -93.8461 -20.6994
ENERGY: 1500000 2.8264 4.9172 3.5764 0.0000 -10648.3806 1403.5191 0.0000 0.0000 1736.8546 -7496.6870 297.9969 -9233.5415 -7396.8683 303.3734 -570.4447 -469.8143 30077.2360 -115.6748 -42.1381
TCL: Running FEP window  10: Lambda1 0.5499999999999996 Lambda2 0.4999999999999996 [dLambda -0.04999999999999999]
TCL: Setting parameter firsttimestep to 0
TCL: Setting parameter alchLambda to 0.5499999999999996
Info: NONBONDED TABLE R-SQUARED SPACING: 0.0625
Info: NONBONDED TABLE SIZE: 705 POINTS
TCL: Setting parameter alchLambda2 to 0.4999999999999996
Info: NONBONDED TABLE R-SQUARED SPACING: 0.0625
Info: NONBONDED TABLE SIZE: 705 POINTS
TCL: Running for 1500000 steps
ETITLE: TS BOND ANGLE DIHED IMPRP ELECT VDW BOUNDARY MISC KINETIC TOTAL TEMP POTENTIAL TOTALAVG TEMPAVG PRESSURE GPRESSURE VOLUME PRESSAVG GPRESSAVG
ENERGY: 0 2.8265 4.9172 3.5764 0.0000 -10647.6881 1403.7720 0.0000 0.0000 1735.9409 -7496.6551 297.8402 -9232.5960 -7496.6551 297.8402 -561.9642 -472.1192 30077.2360 -561.9642 -472.1192
ENERGY: 300000 1.9243 7.1774 3.7785 0.0000 -10457.6355 1371.9482 0.0000 0.0000 1762.8879 -7309.9192 302.4635 -9072.8071 -7392.8139 301.4132 -213.4489 -139.5407 30413.8593 -157.0173 -72.0671
ENERGY: 600000 3.1352 5.3463 3.5342 0.0000 -10674.6127 1457.1911 0.0000 0.0000 1718.4151 -7486.9907 294.8332 -9205.4058 -7432.6466 297.9494 -36.6439 -13.4748 30226.5909 -249.2014 -173.2965
ENERGY: 900000 2.7933 8.0701 3.8362 0.0000 -10637.5065 1528.0225 0.0000 0.0000 1786.1370 -7308.6474 306.4524 -9094.7844 -7431.4875 298.9839 600.4219 810.1209 30562.7939 -153.0354 -77.5042
ENERGY: 1200000 0.4120 7.5159 4.5574 0.0000 -10601.4291 1431.3513 0.0000 0.0000 1738.9663 -7418.6262 298.3592 -9157.5925 -7423.4713 300.2197 29.7998 92.3436 30138.9929 -16.8613 55.8332
ENERGY: 1500000 1.9083 7.6603 3.6915 0.0000 -10645.5328 1420.3308 0.0000 0.0000 1752.0646 -7459.8774 300.6065 -9211.9420 -7430.0573 299.0225 -443.5293 -384.3744 30415.0462 -48.5668 19.6950
TCL: Running FEP window  11: Lambda1 0.4999999999999996 Lambda2 0.4499999999999996 [dLambda -0.04999999999999999]
TCL: Setting parameter firsttimestep to 0
TCL: Setting parameter alchLambda to 0.4999999999999996
Info: NONBONDED TABLE R-SQUARED SPACING: 0.0625
Info: NONBONDED TABLE SIZE: 705 POINTS
TCL: Setting parameter alchLambda2 to 0.4499999999999996
Info: NONBONDED TABLE R-SQUARED SPACING: 0.0625
Info: NONBONDED TABLE SIZE: 705 POINTS
TCL: Running for 1500000 steps
ETITLE: TS BOND ANGLE DIHED IMPRP ELECT VDW BOUNDARY MISC KINETIC TOTAL TEMP POTENTIAL TOTALAVG TEMPAVG PRESSURE GPRESSURE VOLUME PRESSAVG GPRESSAVG
ENERGY: 0 1.9083 7.6602 3.6915 0.0000 -10644.9375 1419.8577 0.0000 0.0000 1751.1650 -7460.6548 300.4522 -9211.8198 -7460.6548 300.4522 -468.4377 -391.9859 30415.0462 -468.4377 -391.9859
ENERGY: 300000 2.8212 8.2846 3.9775 0.0000 -10467.1125 1413.1170 0.0000 0.0000 1734.8251 -7304.0872 297.6487 -9038.9123 -7389.7982 301.8326 4.5017 68.5859 30489.1905 231.8538 301.7618
ENERGY: 600000 0.8214 9.0719 3.9709 0.0000 -10652.5974 1486.9959 0.0000 0.0000 1747.9648 -7403.7724 299.9031 -9151.7372 -7397.0869 301.1814 350.1963 429.5314 30394.7195 108.1352 173.5985
ENERGY: 900000 3.7881 5.6279 3.7657 0.0000 -10649.6017 1504.2302 0.0000 0.0000 1793.2219 -7338.9678 307.6680 -9132.1897 -7391.3893 303.0109 581.6727 693.7405 30059.4008 126.0312 209.7727
ENERGY: 1200000 0.6383 6.6900 3.7828 0.0000 -10657.2760 1424.1745 0.0000 0.0000 1725.3510 -7496.6394 296.0232 -9221.9904 -7394.0712 301.3923 -191.7340 -146.0495 29911.4859 -25.3926 57.2006
ENERGY: 1500000 0.4517 5.0253 4.8079 0.0000 -10577.3960 1421.4931 0.0000 0.0000 1737.7495 -7407.8686 298.1505 -9145.6181 -7402.3709 300.3266 58.2202 135.9205 30056.0722 -3.8508 77.1740
TCL: Running FEP window  12: Lambda1 0.4499999999999996 Lambda2 0.39999999999999963 [dLambda -0.04999999999999999]
TCL: Setting parameter firsttimestep to 0
TCL: Setting parameter alchLambda to 0.4499999999999996
Info: NONBONDED TABLE R-SQUARED SPACING: 0.0625
Info: NONBONDED TABLE SIZE: 705 POINTS
TCL: Setting parameter alchLambda2 to 0.39999999999999963
Info: NONBONDED TABLE R-SQUARED SPACING: 0.0625
Info: NONBONDED TABLE SIZE: 705 POINTS
TCL: Running for 1500000 steps
ETITLE: TS BOND ANGLE DIHED IMPRP ELECT VDW BOUNDARY MISC KINETIC TOTAL TEMP POTENTIAL TOTALAVG TEMPAVG PRESSURE GPRESSURE VOLUME PRESSAVG GPRESSAVG
ENERGY: 0 0.4517 5.0253 4.8079 0.0000 -10577.3949 1421.8573 0.0000 0.0000 1736.8820 -7408.3708 298.0016 -9145.2528 -7408.3708 298.0016 69.4969 132.6103 30056.0722 69.4969 132.6103
ENERGY: 300000 2.2168 6.3490 4.2692 0.0000 -10518.6683 1368.6568 0.0000 0.0000 1738.6447 -7398.5319 298.3041 -9137.1765 -7427.9365 298.3727 -714.9483 -640.9083 30751.1633 -198.8077 -119.4644
ENERGY: 600000 0.9207 5.6468 3.8101 0.0000 -10613.8385 1406.0452 0.0000 0.0000 1781.5142 -7415.9015 305.6593 -9197.4157 -7412.3293 299.9449 -260.1086 -178.2394 30234.8393 -243.9004 -170.0429
ENERGY: 900000 0.6220 4.6280 3.7167 0.0000 -10582.3066 1425.9883 0.0000 0.0000 1709.7345 -7437.6171 293.3439 -9147.3516 -7418.4470 298.9018 77.7948 124.3062 29971.5084 -195.9006 -124.9865
ENERGY: 1200000 1.4947 3.9864 3.8441 0.0000 -10552.6884 1477.2219 0.0000 0.0000 1748.2297 -7317.9116 299.9486 -9066.1412 -7418.5740 298.7282 535.8788 587.1300 30327.0960 -125.8063 -58.5565
ENERGY: 1500000 1.7124 7.0896 4.3681 0.0000 -10434.3751 1303.0907 0.0000 0.0000 1741.2952 -7376.8191 298.7588 -9118.1143 -7415.9390 298.3820 -1057.6995 -997.7806 30428.1284 -220.7671 -152.6031
TCL: Running FEP window  13: Lambda1 0.39999999999999963 Lambda2 0.34999999999999964 [dLambda -0.04999999999999999]
TCL: Setting parameter firsttimestep to 0
TCL: Setting parameter alchLambda to 0.39999999999999963
Info: NONBONDED TABLE R-SQUARED SPACING: 0.0625
Info: NONBONDED TABLE SIZE: 705 POINTS
TCL: Setting parameter alchLambda2 to 0.34999999999999964
Info: NONBONDED TABLE R-SQUARED SPACING: 0.0625
Info: NONBONDED TABLE SIZE: 705 POINTS
TCL: Running for 1500000 steps
ETITLE: TS BOND ANGLE DIHED IMPRP ELECT VDW BOUNDARY MISC KINETIC TOTAL TEMP POTENTIAL TOTALAVG TEMPAVG PRESSURE GPRESSURE VOLUME PRESSAVG GPRESSAVG
ENERGY: 0 1.7124 7.0896 4.3681 0.0000 -10434.3760 1303.1963 0.0000 0.0000 1740.4847 -7377.5249 298.6198 -9118.0096 -7377.5249 298.6198 -1093.6943 -1003.2299 30428.1284 -1093.6943 -1003.2299
ENERGY: 300000 3.0280 5.5355 5.0947 0.0000 -10779.1303 1535.3428 0.0000 0.0000 1761.7478 -7468.3815 302.2679 -9230.1294 -7406.1940 301.9701 640.5021 733.9741 29754.4035 -271.0203 -195.8514
ENERGY: 600000 5.3829 3.6666 3.9568 0.0000 -10478.4347 1351.1293 0.0000 0.0000 1750.3759 -7363.9232 300.3168 -9114.2991 -7408.9624 302.0318 -855.3598 -802.2302 30459.2094 -214.4142 -149.0013
ENERGY: 900000 2.2221 6.4034 3.6048 0.0000 -10599.6935 1537.5803 0.0000 0.0000 1760.1221 -7289.7607 301.9890 -9049.8828 -7408.4140 300.6575 1385.8767 1420.6708 29973.7375 39.9289 99.5993
ENERGY: 1200000 1.1348 9.2629 3.5628 0.0000 -10765.6697 1557.7072 0.0000 0.0000 1745.5670 -7448.4351 299.4917 -9194.0020 -7400.2609 301.7111 1212.0805 1279.2474 29571.8592 82.5427 148.7710
ENERGY: 1500000 0.9092 7.4476 3.9712 0.0000 -10615.8075 1388.3495 0.0000 0.0000 1658.5350 -7556.5950 284.5594 -9215.1300 -7411.9098 300.2015 -727.2600 -670.8418 30378.4936 25.0277 90.1712
TCL: Running FEP window  14: Lambda1 0.34999999999999964 Lambda2 0.29999999999999966 [dLambda -0.04999999999999999]
TCL: Setting parameter firsttimestep to 0
TCL: Setting parameter alchLambda to 0.34999999999999964
Info: NONBONDED TABLE R-SQUARED SPACING: 0.0625
Info: NONBONDED TABLE SIZE: 705 POINTS
TCL: Setting parameter alchLambda2 to 0.29999999999999966
Info: NONBONDED TABLE R-SQUARED SPACING: 0.0625
Info: NONBONDED TABLE SIZE: 705 POINTS
TCL: Running for 1500000 steps
ETITLE: TS BOND ANGLE DIHED IMPRP ELECT VDW BOUNDARY MISC KINETIC TOTAL TEMP POTENTIAL TOTALAVG TEMPAVG PRESSURE GPRESSURE VOLUME PRESSAVG GPRESSAVG
ENERGY: 0 0.9092 7.4476 3.9712 0.0000 -10615.8084 1388.6571 0.0000 0.0000 1657.6395 -7557.1838 284.4058 -9214.8233 -7557.1838 284.4058 -743.3384 -673.4230 30378.4936 -743.3384 -673.4230
ENERGY: 300000 1.9549 4.0756 3.8784 0.0000 -10664.9727 1432.7176 0.0000 0.0000 1772.5503 -7449.7960 304.1213 -9222.3463 -7390.2541 299.5093 -277.8494 -211.2124 30089.8474 -467.9736 -375.6634
ENERGY: 600000 2.1730 3.3518 4.6587 0.0000 -10635.6120 1456.1662 0.0000 0.0000 1749.7267 -7419.5355 300.2054 -9169.2622 -7395.1237 301.1950 90.9555 174.2585 29952.9034 -179.0536 -103.4977
ENERGY: 900000 4.2459 2.8588 3.7349 0.0000 -10743.4568 1473.9549 0.0000 0.0000 1788.0405 -7470.6219 306.7790 -9258.6623 -7402.2651 302.1446 165.9751 200.2696 29796.6210 -27.1829 43.9968
ENERGY: 1200000 2.5314 5.9705 3.5256 0.0000 -10629.8646 1403.6866 0.0000 0.0000 1707.1207 -7507.0298 292.8954 -9214.1505 -7416.2817 300.3572 -440.0093 -359.2102 30013.6184 -27.2456 42.5924
ENERGY: 1500000 1.2545 2.8603 3.5536 0.0000 -10492.9554 1380.9124 0.0000 0.0000 1719.7977 -7384.5771 295.0704 -9104.3747 -7411.8280 300.2162 -439.4927 -423.8716 30632.6260 -84.5583 -22.9646
TCL: Running FEP window  15: Lambda1 0.29999999999999966 Lambda2 0.24999999999999967 [dLambda -0.04999999999999999]
TCL: Setting parameter firsttimestep to 0
TCL: Setting parameter alchLambda to 0.29999999999999966
Info: NONBONDED TABLE R-SQUARED SPACING: 0.0625
Info: NONBONDED TABLE SIZE: 705 POINTS
TCL: Setting parameter alchLambda2 to 0.24999999999999967
Info: NONBONDED TABLE R-SQUARED SPACING: 0.0625
Info: NONBONDED TABLE SIZE: 705 POINTS
TCL: Running for 1500000 steps
ETITLE: TS BOND ANGLE DIHED IMPRP ELECT VDW BOUNDARY MISC KINETIC TOTAL TEMP POTENTIAL TOTALAVG TEMPAVG PRESSURE GPRESSURE VOLUME PRESSAVG GPRESSAVG
ENERGY: 0 1.2545 2.8603 3.5536 0.0000 -10492.9551 1381.2826 0.0000 0.0000 1718.9458 -7385.0584 294.9243 -9104.0042 -7385.0584 294.9243 -507.2439 -425.6563 30632.6260 -507.2439 -425.6563
ENERGY: 300000 5.6273 3.7628 3.5789 0.0000 -10662.7011 1513.1541 0.0000 0.0000 1797.2075 -7339.3705 308.3518 -9136.5780 -7357.7855 303.9399 430.1822 471.0635 30457.6709 -9.5508 36.0216
ENERGY: 600000 3.1704 4.5846 4.0620 0.0000 -10613.2201 1418.7813 0.0000 0.0000 1804.0100 -7378.6118 309.5190 -9182.6218 -7390.4344 302.9691 37.1572 131.6278 29582.7177 -179.9772 -110.4346
ENERGY: 900000 2.6975 3.7465 3.9898 0.0000 -10501.1124 1403.3314 0.0000 0.0000 1774.7976 -7312.5497 304.5069 -9087.3473 -7385.8266 302.0538 -253.8616 -212.3781 30528.9813 -251.5445 -184.3813
ENERGY: 1200000 1.0116 5.0313 3.8640 0.0000 -10585.6885 1411.1092 0.0000 0.0000 1816.3885 -7348.2839 311.6428 -9164.6724 -7392.1115 302.0434 -36.4926 10.1514 30071.2036 -256.7563 -190.7323
ENERGY: 1500000 1.9192 5.0236 3.5260 0.0000 -10533.9039 1457.4291 0.0000 0.0000 1801.2744 -7264.7316 309.0496 -9066.0060 -7383.1769 302.5249 274.5431 346.4620 30663.8063 -127.3162 -58.4759
TCL: Running FEP window  16: Lambda1 0.24999999999999967 Lambda2 0.19999999999999968 [dLambda -0.04999999999999999]
TCL: Setting parameter firsttimestep to 0
TCL: Setting parameter alchLambda to 0.24999999999999967
Info: NONBONDED TABLE R-SQUARED SPACING: 0.0625
Info: NONBONDED TABLE SIZE: 705 POINTS
TCL: Setting parameter alchLambda2 to 0.19999999999999968
Info: NONBONDED TABLE R-SQUARED SPACING: 0.0625
Info: NONBONDED TABLE SIZE: 705 POINTS
TCL: Running for 1500000 steps
ETITLE: TS BOND ANGLE DIHED IMPRP ELECT VDW BOUNDARY MISC KINETIC TOTAL TEMP POTENTIAL TOTALAVG TEMPAVG PRESSURE GPRESSURE VOLUME PRESSAVG GPRESSAVG
ENERGY: 0 1.9192 5.0236 3.5260 0.0000 -10533.9056 1457.2502 0.0000 0.0000 1800.4079 -7265.7788 308.9009 -9066.1867 -7265.7788 308.9009 264.1792 345.9176 30663.8063 264.1792 345.9176
ENERGY: 300000 2.7062 5.0061 4.4862 0.0000 -10587.0657 1382.0602 0.0000 0.0000 1765.3618 -7427.4453 302.8880 -9192.8071 -7406.1274 300.4536 -605.0907 -512.9420 30066.2215 -340.4659 -261.1931
ENERGY: 600000 0.7690 6.9287 3.5951 0.0000 -10695.3936 1532.0906 0.0000 0.0000 1823.4362 -7328.5742 312.8520 -9152.0103 -7394.0881 301.8406 1015.4122 1088.7542 29850.5157 -104.5959 -31.2584
ENERGY: 900000 2.5890 9.2492 4.0895 0.0000 -10559.9016 1419.6749 0.0000 0.0000 1759.9228 -7364.3762 301.9548 -9124.2990 -7398.8043 301.7340 67.7574 57.1051 29871.5516 -50.9980 12.1255
ENERGY: 1200000 3.1769 4.8146 3.8409 0.0000 -10577.7195 1493.6292 0.0000 0.0000 1727.1597 -7345.0982 296.3335 -9072.2579 -7398.3122 300.1497 834.8979 844.3354 30043.9097 24.4332 80.5617
ENERGY: 1500000 0.7939 5.6649 4.1343 0.0000 -10688.1191 1491.6642 0.0000 0.0000 1728.5229 -7457.3389 296.5674 -9185.8617 -7400.2759 300.2449 552.4509 566.1074 29892.0649 82.5189 136.4768
TCL: Running FEP window  17: Lambda1 0.19999999999999968 Lambda2 0.1499999999999997 [dLambda -0.04999999999999999]
TCL: Setting parameter firsttimestep to 0
TCL: Setting parameter alchLambda to 0.19999999999999968
Info: NONBONDED TABLE R-SQUARED SPACING: 0.0625
Info: NONBONDED TABLE SIZE: 705 POINTS
TCL: Setting parameter alchLambda2 to 0.1499999999999997
Info: NONBONDED TABLE R-SQUARED SPACING: 0.0625
Info: NONBONDED TABLE SIZE: 705 POINTS
TCL: Running for 1500000 steps
ETITLE: TS BOND ANGLE DIHED IMPRP ELECT VDW BOUNDARY MISC KINETIC TOTAL TEMP POTENTIAL TOTALAVG TEMPAVG PRESSURE GPRESSURE VOLUME PRESSAVG GPRESSAVG
ENERGY: 0 0.7939 5.6649 4.1343 0.0000 -10688.1205 1491.8922 0.0000 0.0000 1727.6878 -7457.9473 296.4242 -9185.6351 -7457.9473 296.4242 478.6953 563.7122 29892.0649 478.6953 563.7122
ENERGY: 300000 2.8591 3.4823 3.8019 0.0000 -10620.3558 1412.0176 0.0000 0.0000 1773.9098 -7424.2852 304.3546 -9198.1950 -7388.2631 302.2162 26.6849 118.5782 29660.1567 224.7886 306.2206
ENERGY: 600000 2.4898 5.4024 3.8973 0.0000 -10574.7316 1367.6053 0.0000 0.0000 1763.3682 -7431.9686 302.5459 -9195.3368 -7398.3010 302.4766 -818.5636 -730.2954 30619.8295 100.2735 172.7694
ENERGY: 900000 2.3607 3.4228 4.2126 0.0000 -10555.0059 1361.1166 0.0000 0.0000 1751.2502 -7432.6431 300.4668 -9183.8933 -7411.0727 302.0647 -331.5122 -324.9156 29751.4268 122.4872 182.8046
ENERGY: 1200000 1.2532 5.9081 4.5065 0.0000 -10667.6388 1518.3090 0.0000 0.0000 1702.8188 -7434.8432 292.1573 -9137.6620 -7422.9251 299.9506 911.2094 1061.7262 29388.4106 63.7277 139.1247
ENERGY: 1500000 0.7964 5.9171 4.1223 0.0000 -10624.0154 1425.7905 0.0000 0.0000 1756.3739 -7431.0152 301.3459 -9187.3891 -7419.7857 300.0459 -90.5626 -50.8130 29902.6628 55.1017 120.4040
TCL: Running FEP window  18: Lambda1 0.1499999999999997 Lambda2 0.09999999999999969 [dLambda -0.05 ]
TCL: Setting parameter firsttimestep to 0
TCL: Setting parameter alchLambda to 0.1499999999999997
Info: NONBONDED TABLE R-SQUARED SPACING: 0.0625
Info: NONBONDED TABLE SIZE: 705 POINTS
TCL: Setting parameter alchLambda2 to 0.09999999999999969
Info: NONBONDED TABLE R-SQUARED SPACING: 0.0625
Info: NONBONDED TABLE SIZE: 705 POINTS
TCL: Running for 1500000 steps
ETITLE: TS BOND ANGLE DIHED IMPRP ELECT VDW BOUNDARY MISC KINETIC TOTAL TEMP POTENTIAL TOTALAVG TEMPAVG PRESSURE GPRESSURE VOLUME PRESSAVG GPRESSAVG
ENERGY: 0 0.7964 5.9171 4.1223 0.0000 -10624.0153 1425.2627 0.0000 0.0000 1755.4899 -7432.4270 301.1942 -9187.9169 -7432.4270 301.1942 -132.1606 -55.8222 29902.6628 -132.1606 -55.8222
ENERGY: 300000 1.6736 4.8001 3.8446 0.0000 -10476.0837 1340.7201 0.0000 0.0000 1739.8763 -7385.1691 298.5154 -9125.0454 -7411.6740 301.2624 -920.8300 -842.6756 30425.6150 -93.8681 -28.1745
ENERGY: 600000 2.4191 6.4401 3.6597 0.0000 -10644.9103 1457.2635 0.0000 0.0000 1720.3409 -7454.7870 295.1636 -9175.1278 -7402.0279 300.6400 345.5313 355.0797 29610.0620 227.4479 289.2031
ENERGY: 900000 1.9734 6.5810 4.9664 0.0000 -10514.1207 1351.5381 0.0000 0.0000 1741.9453 -7407.1165 298.8704 -9149.0618 -7401.8813 301.4026 -444.2098 -456.0649 29899.6563 163.0291 218.2559
ENERGY: 1200000 0.6809 5.0222 4.3679 0.0000 -10501.8845 1421.6590 0.0000 0.0000 1740.2220 -7329.9326 298.5747 -9070.1546 -7403.8602 300.5742 279.3320 268.4245 30129.1097 142.1754 198.0237
ENERGY: 1500000 0.9668 6.4142 3.6492 0.0000 -10700.3130 1436.6344 0.0000 0.0000 1805.8724 -7446.7760 309.8385 -9252.6483 -7402.4188 301.7352 -395.7522 -293.3083 30042.7077 53.5191 111.3889
TCL: Running FEP window  19: Lambda1 0.09999999999999969 Lambda2 0.049999999999999684 [dLambda -0.05 ]
TCL: Setting parameter firsttimestep to 0
TCL: Setting parameter alchLambda to 0.09999999999999969
Info: NONBONDED TABLE R-SQUARED SPACING: 0.0625
Info: NONBONDED TABLE SIZE: 705 POINTS
TCL: Setting parameter alchLambda2 to 0.049999999999999684
Info: NONBONDED TABLE R-SQUARED SPACING: 0.0625
Info: NONBONDED TABLE SIZE: 705 POINTS
TCL: Running for 1500000 steps
ETITLE: TS BOND ANGLE DIHED IMPRP ELECT VDW BOUNDARY MISC KINETIC TOTAL TEMP POTENTIAL TOTALAVG TEMPAVG PRESSURE GPRESSURE VOLUME PRESSAVG GPRESSAVG
ENERGY: 0 0.9668 6.4142 3.6492 0.0000 -10700.3127 1436.1434 0.0000 0.0000 1805.0153 -7448.1238 309.6914 -9253.1391 -7448.1238 309.6914 -378.9511 -293.7586 30042.7077 -378.9511 -293.7586
ENERGY: 300000 3.8414 3.1014 3.4396 0.0000 -10459.4091 1351.3213 0.0000 0.0000 1755.9129 -7341.7926 301.2668 -9097.7055 -7405.2940 302.6448 -593.7200 -484.3055 30271.0187 -153.0027 -72.4905
ENERGY: 600000 0.8347 6.4793 3.9774 0.0000 -10531.8275 1436.3098 0.0000 0.0000 1768.5451 -7315.6813 303.4342 -9084.2264 -7389.0894 303.1098 191.5397 241.3123 30075.1515 -85.9587 -12.3177
ENERGY: 900000 8.0395 4.7460 3.8733 0.0000 -10497.7738 1369.9619 0.0000 0.0000 1809.7967 -7301.3564 310.5118 -9111.1531 -7384.0499 302.8995 -466.3385 -431.3521 30326.0329 -183.5310 -113.0774
ENERGY: 1200000 1.1331 4.1643 3.6225 0.0000 -10603.9417 1453.1406 0.0000 0.0000 1751.5478 -7390.3333 300.5179 -9141.8811 -7388.4135 302.1467 635.6503 682.5081 29556.2368 -83.0078 -11.7283
ENERGY: 1500000 1.1450 7.9794 4.6545 0.0000 -10740.9959 1492.4677 0.0000 0.0000 1731.9758 -7502.7735 297.1599 -9234.7493 -7402.6089 301.4176 386.7057 435.5489 29573.1184 -47.4345 26.8896
TCL: Running FEP window  20: Lambda1 0.049999999999999684 Lambda2 0.0    [dLambda -0.049999999999999684]
TCL: Setting parameter firsttimestep to 0
TCL: Setting parameter alchLambda to 0.049999999999999684
Info: NONBONDED TABLE R-SQUARED SPACING: 0.0625
Info: NONBONDED TABLE SIZE: 705 POINTS
TCL: Setting parameter alchLambda2 to 0.0
Info: NONBONDED TABLE R-SQUARED SPACING: 0.0625
Info: NONBONDED TABLE SIZE: 705 POINTS
TCL: Running for 1500000 steps
ETITLE: TS BOND ANGLE DIHED IMPRP ELECT VDW BOUNDARY MISC KINETIC TOTAL TEMP POTENTIAL TOTALAVG TEMPAVG PRESSURE GPRESSURE VOLUME PRESSAVG GPRESSAVG
ENERGY: 0 1.1450 7.9794 4.6545 0.0000 -10740.9946 1492.7428 0.0000 0.0000 1731.0852 -7503.3876 297.0071 -9234.4728 -7503.3876 297.0071 355.5604 433.4640 29573.1184 355.5604 433.4640
ENERGY: 300000 3.3602 5.1948 3.7843 0.0000 -10636.0125 1463.1375 0.0000 0.0000 1754.4398 -7406.0959 301.0141 -9160.5357 -7440.6432 300.8229 150.5308 236.7794 29916.6463 147.1028 225.5286
ENERGY: 600000 2.1720 7.5711 4.1758 0.0000 -10491.3189 1354.4914 0.0000 0.0000 1685.7309 -7437.1777 289.2255 -9122.9086 -7423.3265 299.0633 -545.9738 -526.1477 30184.8675 -123.5017 -53.5537
ENERGY: 900000 0.6785 7.3817 3.6751 0.0000 -10415.1192 1291.6239 0.0000 0.0000 1780.2013 -7331.5587 305.4340 -9111.7600 -7417.6938 299.6891 -952.6883 -842.9617 30275.3962 -188.9190 -110.7210
ENERGY: 1200000 1.4568 1.4884 3.5628 0.0000 -10659.4010 1493.3745 0.0000 0.0000 1797.6551 -7361.8634 308.4286 -9159.5185 -7405.4233 301.1252 596.2464 635.8414 29777.0702 -143.6163 -68.3852
ENERGY: 1500000 2.5773 6.5473 3.7019 0.0000 -10568.0181 1398.9333 0.0000 0.0000 1794.4081 -7361.8503 307.8715 -9156.2583 -7413.3709 301.0886 -382.5933 -294.1903 30238.7404 -198.7101 -126.9733
TCL: Exiting due to exit command.
