Info: SIMULATION PARAMETERS:
Info: TIMESTEP               2
Info: NUMBER OF STEPS        0
Info: STEPS PER CYCLE        10
Info: PERIODIC CELL BASIS 1  32.9696 0 0
Info: PERIODIC CELL BASIS 2  0 33.3366 0
Info: PERIODIC CELL BASIS 3  0 0 27.6502
Info: PERIODIC CELL CENTER   0 0 0
Info: WRAPPING WATERS AROUND PERIODIC BOUNDARIES ON OUTPUT.
Info: WRAPPING ALL CLUSTERS AROUND PERIODIC BOUNDARIES ON OUTPUT.
Info: FIRST LDB TIMESTEP     50
Info: LAST LDB TIMESTEP     -1
Info: HOM BACKGROUND SCALING 1
Info: PME BACKGROUND SCALING 1
Info: MIN ATOMS PER PATCH    40
Info: EMPTY PATCH LOAD       40 ATOMS
Info: VELOCITY FILE          mobley_5510474_equil.vel
Info: CENTER OF MASS MOVING INITIALLY? NO
Info: DIELECTRIC             1
Info: EXCLUDE                SCALED ONE-FOUR
Info: 1-4 ELECTROSTATICS SCALED BY 0.833333
Info: MODIFIED 1-4 VDW PARAMETERS WILL BE USED
Info: DCD FILENAME           mobley_5510474_prod.dcd
Info: DCD FREQUENCY          100000
Info: DCD FIRST STEP         100000
Info: DCD FILE WILL CONTAIN UNIT CELL DATA
Info: XST FILENAME           mobley_5510474_prod.xst
Info: XST FREQUENCY          100000
Info: NO VELOCITY DCD OUTPUT
Info: NO FORCE DCD OUTPUT
Info: OUTPUT FILENAME        mobley_5510474_prod
Info: BINARY OUTPUT FILES WILL BE USED
Info: RESTART FILENAME       mobley_5510474_prod.restart
Info: RESTART FREQUENCY      100000
Info: BINARY RESTART FILES WILL BE USED
Info: CUTOFF                 9
Info: PAIRLIST DISTANCE      11
Info: PAIRLIST SHRINK RATE   0.01
Info: PAIRLIST GROW RATE     0.01
Info: PAIRLIST TRIGGER       0.3
Info: PAIRLISTS PER CYCLE    2
Info: PAIRLISTS ENABLED
Info: MARGIN                 2
Info: HYDROGEN GROUP CUTOFF  2.5
Info: PATCH DIMENSION        15.5
Info: ENERGY OUTPUT STEPS    100000
Info: ENERGY EVALUATION STEPS    100000
Info: OUTPUT ENERGY PRECISION 4
Info: CROSSTERM ENERGY INCLUDED IN DIHEDRAL
Info: TIMING OUTPUT STEPS    1000000
Info: PRESSURE OUTPUT STEPS  100000
Info: ALCHEMICAL FEP ON
Info: FEP CURRENT LAMBDA VALUE     0
Info: FEP COMPARISON LAMBDA VALUE  0.05
Info: FEP INTRA-ALCHEMICAL NON-BONDED INTERACTIONS WILL BE RETAINED
Info: FEP INTRA-ALCHEMICAL BONDED INTERACTIONS WILL BE RETAINED
Info: FEP VDW SHIFTING COEFFICIENT 5
Info: FEP ELEC. ACTIVE FOR ANNIHILATED PARTICLES BETWEEN LAMBDA = 0 AND LAMBDA = 0.5
Info: FEP ELEC. ACTIVE FOR EXNIHILATED PARTICLES BETWEEN LAMBDA = 0.5 AND LAMBDA = 1
Info: FEP VDW ACTIVE FOR ANNIHILATED PARTICLES BETWEEN LAMBDA = 0 AND LAMBDA = 1
Info: FEP VDW ACTIVE FOR EXNIHILATED PARTICLES BETWEEN LAMBDA = 0 AND LAMBDA = 1
Info: FEP BOND ACTIVE FOR ANNIHILATED PARTICLES BETWEEN LAMBDA = 1 AND LAMBDA = 1
Info: FEP BOND ACTIVE FOR EXNIHILATED PARTICLES BETWEEN LAMBDA = 0 AND LAMBDA = 0
Info: LANGEVIN DYNAMICS ACTIVE
Info: LANGEVIN TEMPERATURE   300
Info: LANGEVIN USING BBK INTEGRATOR
Info: LANGEVIN DAMPING COEFFICIENT IS 1 INVERSE PS
Info: LANGEVIN DYNAMICS APPLIED TO HYDROGENS
Info: LANGEVIN PISTON PRESSURE CONTROL ACTIVE
Info:        TARGET PRESSURE IS 1.01325 BAR
Info:     OSCILLATION PERIOD IS 50 FS
Info:             DECAY TIME IS 25 FS
Info:     PISTON TEMPERATURE IS 300 K
Info:       PRESSURE CONTROL IS GROUP-BASED
Info:    INITIAL STRAIN RATE IS -0.000258264 -0.000258264 -0.000258264
Info:       CELL FLUCTUATION IS ISOTROPIC
Info: PARTICLE MESH EWALD (PME) ACTIVE
Info: PME TOLERANCE               1e-06
Info: PME EWALD COEFFICIENT       0.348832
Info: PME INTERPOLATION ORDER     4
Info: PME GRID DIMENSIONS         36 36 28
Info: PME MAXIMUM GRID SPACING    1
Info: PME CALCULATION WILL BE PERFORMED ON GPU
Info: FULL ELECTROSTATIC EVALUATION FREQUENCY      2
Info: USING VERLET I (r-RESPA) MTS SCHEME.
Info: C1 SPLITTING OF LONG RANGE ELECTROSTATICS
Info: PLACING ATOMS IN PATCHES BY HYDROGEN GROUPS
Info: RIGID BONDS TO HYDROGEN : ALL
Info:         ERROR TOLERANCE : 1e-08
Info:          MAX ITERATIONS : 100
Info: RIGID WATER USING SETTLE ALGORITHM
Info: RANDOM NUMBER SEED     1743635726
Info: USE HYDROGEN BONDS?    NO
Info: Using AMBER format force field!
Info: AMBER PARM FILE        mobley_5510474.prmtop
Info: COORDINATE PDB         mobley_5510474.pdb
Info: Exclusions will be read from PARM file!
Info: SCNB (VDW SCALING)     2
Info: USING ARITHMETIC MEAN TO COMBINE L-J SIGMA PARAMETERS
Info: BINARY COORDINATES     mobley_5510474_equil.coor
Info: SUMMARY OF PARAMETERS:
Info: 6 BONDS
Info: 5 ANGLES
Info:   5 HARMONIC
Info:   0 COSINE-BASED
Info: 3 DIHEDRAL
Info: 0 IMPROPER
Info: 0 CROSSTERM
Info: 0 VDW
Info: 21 VDW_PAIRS
Info: 0 NBTHOLE_PAIRS
Info: To read alchdata from file: mobley_5510474.pdb
Info: To read alchflag data from column: 5
Info: STRUCTURE SUMMARY:
Info: 2947 ATOMS
Info: 2949 BONDS
Info: 38 ANGLES
Info: 68 DIHEDRALS
Info: 0 IMPROPERS
Info: 0 CROSSTERMS
Info: 3034 EXCLUSIONS
Info: 2929 RIGID BONDS
Info: ALCH: 0 ATOMS TO DISAPPEAR IN FINAL STATE
Info: ALCH: 22 ATOMS TO APPEAR IN FINAL STATE
Info: 5912 DEGREES OF FREEDOM
Info: 993 HYDROGEN GROUPS
Info: 3 ATOMS IN LARGEST HYDROGEN GROUP
Info: 993 MIGRATION GROUPS
Info: 3 ATOMS IN LARGEST MIGRATION GROUP
Info: TOTAL MASS = 17887.6 amu
Info: TOTAL CHARGE = -9.99719e-05 e
Info: MASS DENSITY = 0.977409 g/cm^3
Info: ATOM DENSITY = 0.096972 atoms/A^3
Info: ADDED 0 IMPLICIT EXCLUSIONS
Info: NONBONDED TABLE R-SQUARED SPACING: 0.0625
Info: NONBONDED TABLE SIZE: 705 POINTS
Info: REDUCING NUMBER OF PATCHES TO IMPROVE LOAD BALANCE
Info: REMOVING COM VELOCITY 0.13854 0.0168596 -0.076439
Info: Use 3D box decompostion in PME FFT.
Info: Updated CUDA force table with 4096 elements.
Info: Updated CUDA LJ table with 6 x 6 elements.
Info: Found 24 unique exclusion lists needing 68 bytes
TCL: Running for 1500000 steps
ETITLE: TS BOND ANGLE DIHED IMPRP ELECT VDW BOUNDARY MISC KINETIC TOTAL TEMP POTENTIAL TOTALAVG TEMPAVG PRESSURE GPRESSURE VOLUME PRESSAVG GPRESSAVG
ENERGY: 0 5.7917 5.1642 5.5400 0.0000 -10685.9031 1518.5567 0.0000 0.0000 1716.5658 -7434.2848 292.2244 -9150.8506 -7434.2848 292.2244 452.9881 541.5831 30390.2115 452.9881 541.5831
ENERGY: 300000 3.9903 5.7956 3.9200 0.0000 -10799.1563 1548.7805 0.0000 0.0000 1719.6772 -7516.9927 292.7540 -9236.6699 -7455.9258 295.7019 889.6205 993.0266 29470.5920 118.1538 188.6373
ENERGY: 600000 9.6622 2.4844 4.4651 0.0000 -10583.0459 1436.6678 0.0000 0.0000 1792.1072 -7337.6592 305.0844 -9129.7664 -7431.1588 297.2649 53.5455 84.6788 30262.4303 -21.7152 39.2153
ENERGY: 900000 11.4028 3.0261 4.4354 0.0000 -10598.7018 1384.8184 0.0000 0.0000 1719.7859 -7475.2333 292.7725 -9195.0192 -7446.5411 295.5795 -832.4959 -771.2604 30082.1598 -100.8727 -38.7484
ENERGY: 1200000 6.0437 4.0625 3.7384 0.0000 -10652.8050 1437.5754 0.0000 0.0000 1752.6943 -7448.6906 298.3748 -9201.3849 -7452.0335 296.7952 -191.7012 -155.6754 30347.8459 -36.9279 23.4432
ENERGY: 1500000 8.3053 5.1288 5.0178 0.0000 -10655.0012 1436.2778 0.0000 0.0000 1767.3613 -7432.9101 300.8717 -9200.2714 -7450.3654 297.8766 -178.1497 -144.8953 30158.9624 1.7750 65.0724
TCL: Running FEP window   2: Lambda1 0.05   Lambda2 0.1    [dLambda 0.05  ]
TCL: Setting parameter firsttimestep to 0
TCL: Setting parameter alchLambda to 0.05
Info: NONBONDED TABLE R-SQUARED SPACING: 0.0625
Info: NONBONDED TABLE SIZE: 705 POINTS
TCL: Setting parameter alchLambda2 to 0.1
Info: NONBONDED TABLE R-SQUARED SPACING: 0.0625
Info: NONBONDED TABLE SIZE: 705 POINTS
TCL: Running for 1500000 steps
ETITLE: TS BOND ANGLE DIHED IMPRP ELECT VDW BOUNDARY MISC KINETIC TOTAL TEMP POTENTIAL TOTALAVG TEMPAVG PRESSURE GPRESSURE VOLUME PRESSAVG GPRESSAVG
ENERGY: 0 8.3053 5.1288 5.0178 0.0000 -10655.0008 1442.6035 0.0000 0.0000 1766.4929 -7427.4524 300.7238 -9193.9453 -7427.4524 300.7238 -195.9707 -131.2450 30158.9624 -195.9707 -131.2450
ENERGY: 300000 9.9897 3.2002 4.2767 0.0000 -10628.7938 1439.0732 0.0000 0.0000 1793.0136 -7379.2403 305.2387 -9172.2539 -7389.0587 304.4529 -240.5505 -189.4031 30248.4282 -353.0752 -265.9028
ENERGY: 600000 6.7903 3.2144 4.4276 0.0000 -10507.3821 1394.0059 0.0000 0.0000 1730.1016 -7368.8424 294.5287 -9098.9440 -7402.2282 299.5560 -221.5088 -185.0089 30078.5155 -261.7707 -193.5589
ENERGY: 900000 6.3934 6.1618 8.3994 0.0000 -10531.7728 1340.5768 0.0000 0.0000 1754.5784 -7415.6629 298.6955 -9170.2413 -7397.7904 299.1017 -866.9725 -814.5921 30439.5861 -231.5334 -156.4853
ENERGY: 1200000 6.6349 6.3687 8.6925 0.0000 -10629.6282 1436.9998 0.0000 0.0000 1748.4572 -7422.4751 297.6535 -9170.9324 -7407.2149 298.8599 -186.9728 -156.7454 30308.8021 -271.4604 -197.4736
ENERGY: 1500000 6.4519 3.5112 6.2324 0.0000 -10606.0500 1405.2652 0.0000 0.0000 1790.6690 -7393.9203 304.8395 -9184.5893 -7408.3548 299.1258 -115.8138 -61.2417 29852.6460 -260.1784 -191.4913
TCL: Running FEP window   3: Lambda1 0.1    Lambda2 0.15000000000000002 [dLambda 0.05000000000000002]
TCL: Setting parameter firsttimestep to 0
TCL: Setting parameter alchLambda to 0.1
Info: NONBONDED TABLE R-SQUARED SPACING: 0.0625
Info: NONBONDED TABLE SIZE: 705 POINTS
TCL: Setting parameter alchLambda2 to 0.15000000000000002
Info: NONBONDED TABLE R-SQUARED SPACING: 0.0625
Info: NONBONDED TABLE SIZE: 705 POINTS
TCL: Running for 1500000 steps
ETITLE: TS BOND ANGLE DIHED IMPRP ELECT VDW BOUNDARY MISC KINETIC TOTAL TEMP POTENTIAL TOTALAVG TEMPAVG PRESSURE GPRESSURE VOLUME PRESSAVG GPRESSAVG
ENERGY: 0 6.4519 3.5112 6.2324 0.0000 -10606.0531 1412.3622 0.0000 0.0000 1789.7734 -7387.7221 304.6871 -9177.4955 -7387.7221 304.6871 -115.5420 -32.5983 29852.6460 -115.5420 -32.5983
ENERGY: 300000 2.4733 4.1333 4.7117 0.0000 -10602.2815 1373.0999 0.0000 0.0000 1766.6204 -7451.2431 300.7455 -9217.8634 -7417.8175 300.9805 -342.3735 -356.1528 30067.1063 -200.7874 -125.5215
ENERGY: 600000 6.7357 6.4188 6.4669 0.0000 -10609.6448 1412.1918 0.0000 0.0000 1813.1903 -7364.6413 308.6735 -9177.8316 -7413.1462 302.3625 -504.4882 -438.6248 30530.6994 23.0530 77.8016
ENERGY: 900000 4.8216 3.5842 4.7923 0.0000 -10589.9468 1440.6534 0.0000 0.0000 1736.7482 -7399.3471 295.6602 -9136.0953 -7405.4378 301.8540 -64.5426 -56.1425 30262.2225 -68.9905 -14.7373
ENERGY: 1200000 7.7029 4.3301 3.8502 0.0000 -10483.2933 1330.9435 0.0000 0.0000 1732.5995 -7403.8673 294.9539 -9136.4668 -7402.8930 301.0881 -955.3734 -877.7420 30365.6244 -104.6400 -46.8282
ENERGY: 1500000 6.1340 9.3915 7.7717 0.0000 -10588.3328 1436.7561 0.0000 0.0000 1752.4789 -7375.8007 298.3381 -9128.2796 -7400.4314 301.1789 102.0031 126.5774 30403.7842 -37.0834 15.4223
TCL: Running FEP window   4: Lambda1 0.15000000000000002 Lambda2 0.2    [dLambda 0.04999999999999999]
TCL: Setting parameter firsttimestep to 0
TCL: Setting parameter alchLambda to 0.15000000000000002
Info: NONBONDED TABLE R-SQUARED SPACING: 0.0625
Info: NONBONDED TABLE SIZE: 705 POINTS
TCL: Setting parameter alchLambda2 to 0.2
Info: NONBONDED TABLE R-SQUARED SPACING: 0.0625
Info: NONBONDED TABLE SIZE: 705 POINTS
TCL: Running for 1500000 steps
ETITLE: TS BOND ANGLE DIHED IMPRP ELECT VDW BOUNDARY MISC KINETIC TOTAL TEMP POTENTIAL TOTALAVG TEMPAVG PRESSURE GPRESSURE VOLUME PRESSAVG GPRESSAVG
ENERGY: 0 6.1340 9.3915 7.7717 0.0000 -10588.3319 1436.7718 0.0000 0.0000 1751.6190 -7376.6440 298.1917 -9128.2630 -7376.6440 298.1917 53.2402 130.3810 30403.7842 53.2402 130.3810
ENERGY: 300000 8.6685 4.4584 9.4025 0.0000 -10694.2655 1514.6289 0.0000 0.0000 1776.6122 -7380.4950 302.4465 -9157.1072 -7391.9004 301.7626 594.1166 685.6144 29838.4246 116.5640 180.7048
ENERGY: 600000 8.4474 3.8088 5.7152 0.0000 -10618.8765 1467.2843 0.0000 0.0000 1791.8072 -7341.8136 305.0333 -9133.6208 -7375.6070 301.9646 206.8481 289.0924 30363.1965 17.6631 81.1735
ENERGY: 900000 6.3612 3.1631 5.5738 0.0000 -10647.4134 1454.9016 0.0000 0.0000 1786.9084 -7390.5053 304.1993 -9177.4136 -7387.2339 300.6050 254.7028 284.4342 30001.5720 -24.3122 32.0028
ENERGY: 1200000 4.6325 3.0803 7.4326 0.0000 -10782.0112 1499.2460 0.0000 0.0000 1759.2864 -7508.3333 299.4970 -9267.6197 -7403.1805 301.0556 106.7597 161.1152 29965.5985 -20.0746 38.9027
ENERGY: 1500000 10.0929 3.0846 4.8225 0.0000 -10516.0363 1390.9724 0.0000 0.0000 1739.4032 -7367.6607 296.1121 -9107.0639 -7407.3917 300.0089 -538.3537 -423.8881 30402.2874 -11.9704 50.6684
TCL: Running FEP window   5: Lambda1 0.2    Lambda2 0.25   [dLambda 0.04999999999999999]
TCL: Setting parameter firsttimestep to 0
TCL: Setting parameter alchLambda to 0.2
Info: NONBONDED TABLE R-SQUARED SPACING: 0.0625
Info: NONBONDED TABLE SIZE: 705 POINTS
TCL: Setting parameter alchLambda2 to 0.25
Info: NONBONDED TABLE R-SQUARED SPACING: 0.0625
Info: NONBONDED TABLE SIZE: 705 POINTS
TCL: Running for 1500000 steps
ETITLE: TS BOND ANGLE DIHED IMPRP ELECT VDW BOUNDARY MISC KINETIC TOTAL TEMP POTENTIAL TOTALAVG TEMPAVG PRESSURE GPRESSURE VOLUME PRESSAVG GPRESSAVG
ENERGY: 0 10.0929 3.0846 4.8225 0.0000 -10516.0351 1390.3613 0.0000 0.0000 1738.5016 -7369.1722 295.9587 -9107.6738 -7369.1722 295.9587 -489.0921 -421.0152 30402.2874 -489.0921 -421.0152
ENERGY: 300000 5.9388 4.0175 4.5203 0.0000 -10534.6015 1383.9636 0.0000 0.0000 1744.6067 -7391.5547 296.9980 -9136.1614 -7417.5456 297.1756 -398.0755 -349.6019 30946.4832 -284.4182 -239.9512
ENERGY: 600000 7.5287 4.9413 3.6376 0.0000 -10599.3361 1396.2306 0.0000 0.0000 1787.4583 -7399.5397 304.2929 -9186.9980 -7410.5700 298.2139 -49.7182 -56.3327 29576.3515 -282.5480 -241.6411
ENERGY: 900000 6.9938 5.5360 3.5238 0.0000 -10577.7752 1391.3978 0.0000 0.0000 1732.6195 -7437.7043 294.9573 -9170.3238 -7407.2055 298.3260 -145.9585 -157.5584 29986.5466 -170.2126 -130.1371
ENERGY: 1200000 2.6501 3.4854 3.1650 0.0000 -10649.2308 1480.1142 0.0000 0.0000 1757.8714 -7401.9446 299.2561 -9159.8160 -7408.5244 298.8013 489.6175 551.9890 30459.8447 -103.1503 -60.4785
ENERGY: 1500000 8.1228 5.0472 4.2464 0.0000 -10754.0326 1449.6267 0.0000 0.0000 1804.1191 -7482.8704 307.1292 -9286.9896 -7413.9468 299.2629 -71.2490 -30.1414 30061.5456 -24.2793 19.5924
TCL: Running FEP window   6: Lambda1 0.25   Lambda2 0.3    [dLambda 0.04999999999999999]
TCL: Setting parameter firsttimestep to 0
TCL: Setting parameter alchLambda to 0.25
Info: NONBONDED TABLE R-SQUARED SPACING: 0.0625
Info: NONBONDED TABLE SIZE: 705 POINTS
TCL: Setting parameter alchLambda2 to 0.3
Info: NONBONDED TABLE R-SQUARED SPACING: 0.0625
Info: NONBONDED TABLE SIZE: 705 POINTS
TCL: Running for 1500000 steps
ETITLE: TS BOND ANGLE DIHED IMPRP ELECT VDW BOUNDARY MISC KINETIC TOTAL TEMP POTENTIAL TOTALAVG TEMPAVG PRESSURE GPRESSURE VOLUME PRESSAVG GPRESSAVG
ENERGY: 0 8.1228 5.0472 4.2464 0.0000 -10754.0323 1450.0498 0.0000 0.0000 1803.2226 -7483.3436 306.9766 -9286.5662 -7483.3436 306.9766 -104.2015 -21.0916 30061.5456 -104.2015 -21.0916
ENERGY: 300000 5.1052 4.3621 5.0621 0.0000 -10790.8736 1605.4169 0.0000 0.0000 1808.9655 -7361.9618 307.9543 -9170.9274 -7433.7264 300.2566 1444.5737 1567.3373 29886.9955 -24.3557 76.0026
ENERGY: 600000 5.0271 4.5387 6.3558 0.0000 -10583.0136 1359.7720 0.0000 0.0000 1745.6791 -7461.6410 297.1805 -9207.3201 -7448.3742 298.9249 -729.2689 -705.5878 30383.0809 2.3167 88.2603
ENERGY: 900000 10.4045 3.9303 3.0696 0.0000 -10360.8632 1256.0147 0.0000 0.0000 1703.7330 -7383.7111 290.0397 -9087.4441 -7439.8110 298.1143 -1492.1642 -1403.0415 30443.3557 -202.2331 -119.4759
ENERGY: 1200000 7.7353 5.9677 9.9234 0.0000 -10675.7759 1437.2196 0.0000 0.0000 1763.4669 -7451.4630 300.2087 -9214.9299 -7431.8831 298.8416 -426.4198 -328.3589 30281.8625 -205.0006 -116.5392
ENERGY: 1500000 11.7556 3.8032 5.2858 0.0000 -10667.6818 1397.9822 0.0000 0.0000 1719.3715 -7529.4835 292.7020 -9248.8550 -7442.8096 298.4591 -571.6533 -492.8709 29851.4104 -131.2864 -46.5866
TCL: Running FEP window   7: Lambda1 0.3    Lambda2 0.35   [dLambda 0.04999999999999999]
TCL: Setting parameter firsttimestep to 0
TCL: Setting parameter alchLambda to 0.3
Info: NONBONDED TABLE R-SQUARED SPACING: 0.0625
Info: NONBONDED TABLE SIZE: 705 POINTS
TCL: Setting parameter alchLambda2 to 0.35
Info: NONBONDED TABLE R-SQUARED SPACING: 0.0625
Info: NONBONDED TABLE SIZE: 705 POINTS
TCL: Running for 1500000 steps
ETITLE: TS BOND ANGLE DIHED IMPRP ELECT VDW BOUNDARY MISC KINETIC TOTAL TEMP POTENTIAL TOTALAVG TEMPAVG PRESSURE GPRESSURE VOLUME PRESSAVG GPRESSAVG
ENERGY: 0 11.7556 3.8032 5.2858 0.0000 -10667.6800 1398.4130 0.0000 0.0000 1718.5118 -7529.9107 292.5556 -9248.4225 -7529.9107 292.5556 -569.6914 -482.7115 29851.4104 -569.6914 -482.7115
ENERGY: 300000 6.9037 4.6789 4.3380 0.0000 -10665.1614 1463.3717 0.0000 0.0000 1760.5863 -7425.2828 299.7183 -9185.8691 -7436.8147 297.3591 238.2318 331.3933 30192.2902 -51.8767 7.8458
ENERGY: 600000 3.9968 3.1617 4.4561 0.0000 -10827.3046 1611.6320 0.0000 0.0000 1819.9930 -7384.0650 309.8316 -9204.0579 -7417.1609 299.8813 1583.2031 1597.7785 30071.0393 163.9049 222.4784
ENERGY: 900000 6.5505 4.4217 3.5064 0.0000 -10764.1171 1518.2735 0.0000 0.0000 1787.3908 -7443.9742 304.2815 -9231.3650 -7410.4101 301.0515 527.7699 555.7943 30104.4071 180.8431 233.2512
ENERGY: 1200000 6.1897 4.1215 5.5813 0.0000 -10684.8350 1455.1317 0.0000 0.0000 1738.1952 -7475.6156 295.9065 -9213.8108 -7417.7608 300.7694 -197.6083 -103.3946 30736.6328 144.5619 203.2303
ENERGY: 1500000 9.5932 6.8502 5.0656 0.0000 -10650.3711 1411.2038 0.0000 0.0000 1719.1177 -7498.5406 292.6588 -9217.6583 -7426.9384 299.1634 -596.9217 -503.5447 30445.6534 83.3045 142.2740
TCL: Running FEP window   8: Lambda1 0.35   Lambda2 0.39999999999999997 [dLambda 0.04999999999999999]
TCL: Setting parameter firsttimestep to 0
TCL: Setting parameter alchLambda to 0.35
Info: NONBONDED TABLE R-SQUARED SPACING: 0.0625
Info: NONBONDED TABLE SIZE: 705 POINTS
TCL: Setting parameter alchLambda2 to 0.39999999999999997
Info: NONBONDED TABLE R-SQUARED SPACING: 0.0625
Info: NONBONDED TABLE SIZE: 705 POINTS
TCL: Running for 1500000 steps
ETITLE: TS BOND ANGLE DIHED IMPRP ELECT VDW BOUNDARY MISC KINETIC TOTAL TEMP POTENTIAL TOTALAVG TEMPAVG PRESSURE GPRESSURE VOLUME PRESSAVG GPRESSAVG
ENERGY: 0 9.5932 6.8502 5.0656 0.0000 -10650.3709 1411.0706 0.0000 0.0000 1718.2666 -7499.5247 292.5139 -9217.7913 -7499.5247 292.5139 -592.6408 -492.3128 30445.6534 -592.6408 -492.3128
ENERGY: 300000 3.8069 5.1821 7.3691 0.0000 -10542.9737 1449.0995 0.0000 0.0000 1773.2723 -7304.2437 301.8779 -9077.5160 -7396.7754 298.7025 229.5032 259.9801 30678.9290 -232.4425 -158.4191
ENERGY: 600000 6.0084 5.0559 7.7223 0.0000 -10716.9882 1507.5136 0.0000 0.0000 1779.8648 -7410.8232 303.0002 -9190.6879 -7406.2727 299.5490 538.9889 562.9787 30275.1592 -86.7289 -27.7641
ENERGY: 900000 7.6534 4.9435 5.0641 0.0000 -10664.4960 1447.8177 0.0000 0.0000 1740.4872 -7458.5301 296.2967 -9199.0173 -7416.1844 299.6633 -280.9098 -245.6841 30660.7284 -2.1530 58.1881
ENERGY: 1200000 4.0045 2.9948 5.4325 0.0000 -10749.1036 1492.1928 0.0000 0.0000 1761.9455 -7482.5334 299.9497 -9244.4790 -7423.3215 299.3737 612.5288 636.7995 29908.2910 10.7380 66.2585
ENERGY: 1500000 7.5304 5.3617 6.2027 0.0000 -10469.8826 1328.3517 0.0000 0.0000 1762.6388 -7359.7973 300.0677 -9122.4361 -7415.0228 299.6435 -793.4242 -758.0387 30349.2313 -88.5247 -32.2529
TCL: Running FEP window   9: Lambda1 0.39999999999999997 Lambda2 0.44999999999999996 [dLambda 0.04999999999999999]
TCL: Setting parameter firsttimestep to 0
TCL: Setting parameter alchLambda to 0.39999999999999997
Info: NONBONDED TABLE R-SQUARED SPACING: 0.0625
Info: NONBONDED TABLE SIZE: 705 POINTS
TCL: Setting parameter alchLambda2 to 0.44999999999999996
Info: NONBONDED TABLE R-SQUARED SPACING: 0.0625
Info: NONBONDED TABLE SIZE: 705 POINTS
TCL: Running for 1500000 steps
ETITLE: TS BOND ANGLE DIHED IMPRP ELECT VDW BOUNDARY MISC KINETIC TOTAL TEMP POTENTIAL TOTALAVG TEMPAVG PRESSURE GPRESSURE VOLUME PRESSAVG GPRESSAVG
ENERGY: 0 7.5304 5.3617 6.2027 0.0000 -10469.8825 1328.9406 0.0000 0.0000 1761.7465 -7360.1006 299.9158 -9121.8471 -7360.1006 299.9158 -812.6600 -744.1492 30349.2313 -812.6600 -744.1492
ENERGY: 300000 6.9731 6.0696 6.8089 0.0000 -10610.5987 1435.7107 0.0000 0.0000 1708.8050 -7446.2314 290.9032 -9155.0364 -7408.1084 299.9362 -183.5936 -167.7954 30458.0397 -494.3902 -447.5570
ENERGY: 600000 11.0592 7.4136 3.6824 0.0000 -10728.5010 1470.4258 0.0000 0.0000 1779.4816 -7456.4383 302.9350 -9235.9200 -7440.7126 298.4734 -56.8485 8.9143 30190.9376 -289.9251 -239.8172
ENERGY: 900000 7.5047 5.9768 7.6594 0.0000 -10710.3821 1480.8011 0.0000 0.0000 1733.2682 -7475.1719 295.0677 -9208.4401 -7443.7696 298.1203 374.9242 404.6898 30115.9866 -59.7475 -7.3771
ENERGY: 1200000 6.7927 4.2270 4.7364 0.0000 -10660.6807 1440.6375 0.0000 0.0000 1753.6458 -7450.6412 298.5368 -9204.2870 -7429.6493 299.7326 -57.7511 15.8927 30270.7014 -36.4905 18.2874
ENERGY: 1500000 7.6312 8.2480 11.0921 0.0000 -10542.2190 1413.7832 0.0000 0.0000 1744.6722 -7356.7923 297.0091 -9101.4645 -7425.4998 299.5755 -370.2136 -263.6962 30755.4621 -36.6996 24.0752
TCL: Running FEP window  10: Lambda1 0.44999999999999996 Lambda2 0.49999999999999994 [dLambda 0.04999999999999999]
TCL: Setting parameter firsttimestep to 0
TCL: Setting parameter alchLambda to 0.44999999999999996
Info: NONBONDED TABLE R-SQUARED SPACING: 0.0625
Info: NONBONDED TABLE SIZE: 705 POINTS
TCL: Setting parameter alchLambda2 to 0.49999999999999994
Info: NONBONDED TABLE R-SQUARED SPACING: 0.0625
Info: NONBONDED TABLE SIZE: 705 POINTS
TCL: Running for 1500000 steps
ETITLE: TS BOND ANGLE DIHED IMPRP ELECT VDW BOUNDARY MISC KINETIC TOTAL TEMP POTENTIAL TOTALAVG TEMPAVG PRESSURE GPRESSURE VOLUME PRESSAVG GPRESSAVG
ENERGY: 0 7.6312 8.2480 11.0921 0.0000 -10542.2199 1413.1677 0.0000 0.0000 1743.7995 -7358.2814 296.8606 -9102.0809 -7358.2814 296.8606 -347.5906 -259.1320 30755.4621 -347.5906 -259.1320
ENERGY: 300000 9.2989 3.6610 7.5821 0.0000 -10630.0899 1398.7758 0.0000 0.0000 1738.9007 -7471.8714 296.0266 -9210.7721 -7394.1022 300.6570 -473.2669 -395.3827 29987.7615 -46.6417 7.9288
ENERGY: 600000 5.8305 7.6886 5.2802 0.0000 -10625.3070 1439.6099 0.0000 0.0000 1708.1288 -7458.7689 290.7881 -9166.8977 -7411.4052 299.6195 23.5953 46.0907 30425.3606 -50.3460 -3.0228
ENERGY: 900000 6.4712 7.5965 3.2352 0.0000 -10512.4459 1381.9779 0.0000 0.0000 1762.8307 -7350.3343 300.1004 -9113.1651 -7402.4410 299.8006 -304.5204 -202.1456 30529.2056 -76.5545 -23.5282
ENERGY: 1200000 7.8922 8.0395 6.6999 0.0000 -10643.3291 1429.8865 0.0000 0.0000 1782.8261 -7407.9848 303.5044 -9190.8109 -7409.1220 300.1934 242.2107 311.1488 29881.4812 -20.5888 30.5631
ENERGY: 1500000 5.1520 5.4036 6.2096 0.0000 -10620.8194 1454.5019 0.0000 0.0000 1758.4125 -7391.1399 299.3482 -9149.5524 -7410.7922 300.2987 72.2480 153.3918 30618.1311 -31.2268 25.7789
TCL: Running FEP window  11: Lambda1 0.49999999999999994 Lambda2 0.5499999999999999 [dLambda 0.04999999999999999]
TCL: Setting parameter firsttimestep to 0
TCL: Setting parameter alchLambda to 0.49999999999999994
Info: NONBONDED TABLE R-SQUARED SPACING: 0.0625
Info: NONBONDED TABLE SIZE: 705 POINTS
TCL: Setting parameter alchLambda2 to 0.5499999999999999
Info: NONBONDED TABLE R-SQUARED SPACING: 0.0625
Info: NONBONDED TABLE SIZE: 705 POINTS
TCL: Running for 1500000 steps
ETITLE: TS BOND ANGLE DIHED IMPRP ELECT VDW BOUNDARY MISC KINETIC TOTAL TEMP POTENTIAL TOTALAVG TEMPAVG PRESSURE GPRESSURE VOLUME PRESSAVG GPRESSAVG
ENERGY: 0 5.1520 5.4036 6.2096 0.0000 -10620.8198 1454.9100 0.0000 0.0000 1757.5582 -7391.5864 299.2028 -9149.1446 -7391.5864 299.2028 95.4116 168.2355 30618.1311 95.4116 168.2355
ENERGY: 300000 5.8312 3.9786 5.3290 0.0000 -10559.3049 1409.1198 0.0000 0.0000 1727.8394 -7407.2068 294.1435 -9135.0462 -7402.5637 297.1419 -152.4546 -39.9713 30207.8201 227.9592 298.8082
ENERGY: 600000 8.0371 5.3621 10.9168 0.0000 -10607.6023 1445.6405 0.0000 0.0000 1803.5794 -7334.0664 307.0374 -9137.6458 -7401.1953 299.9024 -405.2195 -290.4653 31036.0567 180.7091 250.6258
ENERGY: 900000 10.6465 4.9839 7.9167 0.0000 -10698.7982 1496.8835 0.0000 0.0000 1776.7312 -7401.6364 302.4668 -9178.3677 -7386.6641 300.6835 133.1653 206.2733 30722.0867 50.0002 131.5910
ENERGY: 1200000 8.6666 2.7036 5.1022 0.0000 -10538.2427 1419.7012 0.0000 0.0000 1760.2425 -7341.8266 299.6598 -9102.0691 -7399.6105 299.3898 8.3094 36.9933 30971.8613 -6.5324 66.7230
ENERGY: 1500000 6.8955 6.3908 4.3032 0.0000 -10512.9734 1376.9593 0.0000 0.0000 1766.2347 -7352.1899 300.6799 -9118.4246 -7390.1315 300.4755 -197.0571 -107.0854 30356.8914 -101.3028 -24.7004
TCL: Running FEP window  12: Lambda1 0.5499999999999999 Lambda2 0.6    [dLambda 0.050000000000000044]
TCL: Setting parameter firsttimestep to 0
TCL: Setting parameter alchLambda to 0.5499999999999999
Info: NONBONDED TABLE R-SQUARED SPACING: 0.0625
Info: NONBONDED TABLE SIZE: 705 POINTS
TCL: Setting parameter alchLambda2 to 0.6
Info: NONBONDED TABLE R-SQUARED SPACING: 0.0625
Info: NONBONDED TABLE SIZE: 705 POINTS
TCL: Running for 1500000 steps
ETITLE: TS BOND ANGLE DIHED IMPRP ELECT VDW BOUNDARY MISC KINETIC TOTAL TEMP POTENTIAL TOTALAVG TEMPAVG PRESSURE GPRESSURE VOLUME PRESSAVG GPRESSAVG
ENERGY: 0 6.8955 6.3908 4.3032 0.0000 -10512.8294 1376.2861 0.0000 0.0000 1765.3692 -7353.5845 300.5325 -9118.9537 -7353.5845 300.5325 -179.4394 -102.6364 30356.8914 -179.4394 -102.6364
ENERGY: 300000 5.4872 5.2467 6.1351 0.0000 -10644.0899 1408.4342 0.0000 0.0000 1759.9923 -7458.7945 299.6172 -9218.7867 -7405.4409 299.6724 -381.2847 -337.8568 30517.2402 -274.0425 -206.2156
ENERGY: 600000 6.7863 6.3834 4.0847 0.0000 -10590.7339 1405.1769 0.0000 0.0000 1812.3239 -7355.9787 308.5260 -9168.3026 -7387.1521 302.6767 -478.4273 -394.5212 30669.1501 -136.2824 -78.7776
ENERGY: 900000 8.3755 8.4326 2.3146 0.0000 -10700.0305 1476.2823 0.0000 0.0000 1733.3648 -7471.2607 295.0842 -9204.6255 -7401.9695 302.0846 294.5196 401.0122 29976.0065 -53.0707 12.4781
ENERGY: 1200000 11.2037 3.8473 7.0571 0.0000 -10637.9577 1425.0246 0.0000 0.0000 1840.5970 -7350.2281 313.3392 -9190.8251 -7404.3432 302.1524 -251.8834 -174.5285 30477.9906 -102.5306 -33.8431
ENERGY: 1500000 5.4381 5.4721 3.0257 0.0000 -10575.9572 1395.6645 0.0000 0.0000 1737.1595 -7429.1972 295.7302 -9166.3568 -7410.9174 300.5637 -375.1766 -274.1739 30491.3146 -131.5021 -61.6389
TCL: Running FEP window  13: Lambda1 0.6    Lambda2 0.65   [dLambda 0.050000000000000044]
TCL: Setting parameter firsttimestep to 0
TCL: Setting parameter alchLambda to 0.6
Info: NONBONDED TABLE R-SQUARED SPACING: 0.0625
Info: NONBONDED TABLE SIZE: 705 POINTS
TCL: Setting parameter alchLambda2 to 0.65
Info: NONBONDED TABLE R-SQUARED SPACING: 0.0625
Info: NONBONDED TABLE SIZE: 705 POINTS
TCL: Running for 1500000 steps
ETITLE: TS BOND ANGLE DIHED IMPRP ELECT VDW BOUNDARY MISC KINETIC TOTAL TEMP POTENTIAL TOTALAVG TEMPAVG PRESSURE GPRESSURE VOLUME PRESSAVG GPRESSAVG
ENERGY: 0 5.4381 5.4721 3.0257 0.0000 -10575.5368 1395.6125 0.0000 0.0000 1736.3194 -7429.6690 295.5872 -9165.9884 -7429.6690 295.5872 -350.9917 -261.1048 30491.3146 -350.9917 -261.1048
ENERGY: 300000 6.4318 4.4481 3.2021 0.0000 -10519.7282 1366.7248 0.0000 0.0000 1726.5397 -7412.3817 293.9223 -9138.9214 -7422.0414 297.4620 -571.6282 -505.3434 30603.9170 -315.2101 -226.8073
ENERGY: 600000 5.2099 3.9863 4.2042 0.0000 -10529.7918 1348.3779 0.0000 0.0000 1759.6389 -7408.3747 299.5570 -9168.0136 -7391.1746 299.9412 -965.5755 -871.1884 30847.6472 -332.1989 -261.0071
ENERGY: 900000 13.6942 9.3938 4.2130 0.0000 -10652.1882 1486.3415 0.0000 0.0000 1788.1224 -7350.4233 304.4060 -9138.5457 -7403.5796 299.8503 557.5916 586.5819 30259.4842 -98.9036 -36.2890
ENERGY: 1200000 8.7734 4.6538 3.8071 0.0000 -10623.1901 1459.0158 0.0000 0.0000 1790.1601 -7356.7798 304.7529 -9146.9399 -7398.8965 300.2655 165.4265 224.7572 30770.7835 -127.6386 -78.5044
ENERGY: 1500000 6.7321 3.2118 6.1130 0.0000 -10663.2189 1458.1598 0.0000 0.0000 1811.1608 -7377.8415 308.3280 -9189.0023 -7404.1210 300.9747 504.7197 535.4263 29915.3262 -15.5121 37.2565
TCL: Running FEP window  14: Lambda1 0.65   Lambda2 0.7000000000000001 [dLambda 0.050000000000000044]
TCL: Setting parameter firsttimestep to 0
TCL: Setting parameter alchLambda to 0.65
Info: NONBONDED TABLE R-SQUARED SPACING: 0.0625
Info: NONBONDED TABLE SIZE: 705 POINTS
TCL: Setting parameter alchLambda2 to 0.7000000000000001
Info: NONBONDED TABLE R-SQUARED SPACING: 0.0625
Info: NONBONDED TABLE SIZE: 705 POINTS
TCL: Running for 1500000 steps
ETITLE: TS BOND ANGLE DIHED IMPRP ELECT VDW BOUNDARY MISC KINETIC TOTAL TEMP POTENTIAL TOTALAVG TEMPAVG PRESSURE GPRESSURE VOLUME PRESSAVG GPRESSAVG
ENERGY: 0 6.7320 3.2118 6.1130 0.0000 -10663.4254 1457.1267 0.0000 0.0000 1810.2883 -7379.9536 308.1795 -9190.2419 -7379.9536 308.1795 457.8495 542.5473 29915.3262 457.8495 542.5473
ENERGY: 300000 3.8558 9.0891 7.9646 0.0000 -10658.6419 1420.3699 0.0000 0.0000 1797.4187 -7419.9437 305.9886 -9217.3624 -7406.9152 303.4919 146.7075 125.8406 30205.5842 53.7872 95.5208
ENERGY: 600000 10.6453 2.4410 6.8126 0.0000 -10683.9105 1451.8227 0.0000 0.0000 1757.5498 -7454.6392 299.2014 -9212.1889 -7406.8969 302.3078 -125.6284 -99.3059 30381.0102 -109.2386 -63.6987
ENERGY: 900000 7.2857 4.0301 7.2976 0.0000 -10620.8350 1401.7100 0.0000 0.0000 1799.8724 -7400.6392 306.4063 -9200.5116 -7399.5840 303.0231 -288.4011 -273.1656 30291.0344 -27.5658 17.7546
ENERGY: 1200000 5.6437 4.1225 2.6541 0.0000 -10755.2620 1512.0882 0.0000 0.0000 1693.6239 -7537.1296 288.3188 -9230.7535 -7405.7055 300.7145 433.5439 531.9114 30492.7509 -11.3344 38.3057
ENERGY: 1500000 6.5747 3.0844 8.2748 0.0000 -10653.9061 1500.3192 0.0000 0.0000 1771.3295 -7364.3235 301.5472 -9135.6530 -7400.0311 300.7823 634.6814 687.9622 30632.0434 98.0017 157.6767
TCL: Running FEP window  15: Lambda1 0.7000000000000001 Lambda2 0.7500000000000001 [dLambda 0.050000000000000044]
TCL: Setting parameter firsttimestep to 0
TCL: Setting parameter alchLambda to 0.7000000000000001
Info: NONBONDED TABLE R-SQUARED SPACING: 0.0625
Info: NONBONDED TABLE SIZE: 705 POINTS
TCL: Setting parameter alchLambda2 to 0.7500000000000001
Info: NONBONDED TABLE R-SQUARED SPACING: 0.0625
Info: NONBONDED TABLE SIZE: 705 POINTS
TCL: Running for 1500000 steps
ETITLE: TS BOND ANGLE DIHED IMPRP ELECT VDW BOUNDARY MISC KINETIC TOTAL TEMP POTENTIAL TOTALAVG TEMPAVG PRESSURE GPRESSURE VOLUME PRESSAVG GPRESSAVG
ENERGY: 0 6.5747 3.0844 8.2748 0.0000 -10653.8122 1500.8266 0.0000 0.0000 1770.4813 -7364.5704 301.4028 -9135.0517 -7364.5704 301.4028 633.5206 709.6563 30632.0434 633.5206 709.6563
ENERGY: 300000 6.0129 7.9881 4.2113 0.0000 -10497.1177 1338.7049 0.0000 0.0000 1747.8543 -7392.3462 297.5508 -9140.2004 -7416.3236 298.4349 -561.3828 -457.6022 30430.9352 -62.7082 -8.4567
ENERGY: 600000 4.0901 4.3685 10.1637 0.0000 -10566.6004 1430.7006 0.0000 0.0000 1797.9834 -7319.2942 306.0847 -9117.2776 -7405.3147 301.1741 544.2479 610.6676 30024.8191 -14.8789 38.2939
ENERGY: 900000 7.3865 6.5183 7.5696 0.0000 -10568.1436 1370.5562 0.0000 0.0000 1747.3144 -7428.7987 297.4589 -9176.1130 -7413.6637 301.0060 -435.3692 -388.5273 30195.7416 -137.0434 -92.7469
ENERGY: 1200000 4.0324 7.7905 5.2182 0.0000 -10730.5784 1428.1191 0.0000 0.0000 1782.5019 -7502.9163 303.4492 -9285.4182 -7417.8006 301.8440 -45.8915 29.1403 30087.1496 -193.3854 -140.6016
ENERGY: 1500000 5.5893 6.5423 4.0964 0.0000 -10537.9354 1351.4610 0.0000 0.0000 1730.0841 -7440.1623 294.5257 -9170.2464 -7417.8214 301.2659 -428.6836 -344.5886 30193.9093 -231.5008 -172.2139
TCL: Running FEP window  16: Lambda1 0.7500000000000001 Lambda2 0.8000000000000002 [dLambda 0.050000000000000044]
TCL: Setting parameter firsttimestep to 0
TCL: Setting parameter alchLambda to 0.7500000000000001
Info: NONBONDED TABLE R-SQUARED SPACING: 0.0625
Info: NONBONDED TABLE SIZE: 705 POINTS
TCL: Setting parameter alchLambda2 to 0.8000000000000002
Info: NONBONDED TABLE R-SQUARED SPACING: 0.0625
Info: NONBONDED TABLE SIZE: 705 POINTS
TCL: Running for 1500000 steps
ETITLE: TS BOND ANGLE DIHED IMPRP ELECT VDW BOUNDARY MISC KINETIC TOTAL TEMP POTENTIAL TOTALAVG TEMPAVG PRESSURE GPRESSURE VOLUME PRESSAVG GPRESSAVG
ENERGY: 0 5.5893 6.5423 4.0964 0.0000 -10538.5050 1351.3660 0.0000 0.0000 1729.1721 -7441.7390 294.3704 -9170.9111 -7441.7390 294.3704 -407.5304 -326.0310 30193.9093 -407.5304 -326.0310
ENERGY: 300000 5.5098 4.4006 4.1403 0.0000 -10793.6310 1548.0794 0.0000 0.0000 1787.3748 -7444.1262 304.2787 -9231.5009 -7410.0094 303.7808 1167.3348 1140.8704 29787.5857 175.2033 228.4293
ENERGY: 600000 7.0975 4.4444 4.1000 0.0000 -10497.8301 1324.2347 0.0000 0.0000 1758.8337 -7399.1198 299.4200 -9157.9535 -7424.0389 301.3976 -580.2550 -563.1252 30338.0850 -98.9887 -48.7933
ENERGY: 900000 7.5696 5.7197 6.5734 0.0000 -10717.6947 1470.9014 0.0000 0.0000 1749.6914 -7477.2392 297.8636 -9226.9306 -7439.9824 300.3074 95.9947 127.9909 30603.5048 -177.6233 -128.1031
ENERGY: 1200000 4.9588 4.6204 5.9741 0.0000 -10752.7246 1494.4467 0.0000 0.0000 1772.4415 -7470.2830 301.7365 -9242.7245 -7434.7262 300.7581 528.0670 548.6299 30201.1525 15.1324 68.9213
ENERGY: 1500000 7.1703 3.8719 7.7210 0.0000 -10624.0812 1457.2280 0.0000 0.0000 1748.2498 -7399.8402 297.6182 -9148.0900 -7424.2195 301.2799 321.5560 390.0748 30569.8348 7.5153 63.8236
TCL: Running FEP window  17: Lambda1 0.8000000000000002 Lambda2 0.8500000000000002 [dLambda 0.050000000000000044]
TCL: Setting parameter firsttimestep to 0
TCL: Setting parameter alchLambda to 0.8000000000000002
Info: NONBONDED TABLE R-SQUARED SPACING: 0.0625
Info: NONBONDED TABLE SIZE: 705 POINTS
TCL: Setting parameter alchLambda2 to 0.8500000000000002
Info: NONBONDED TABLE R-SQUARED SPACING: 0.0625
Info: NONBONDED TABLE SIZE: 705 POINTS
TCL: Running for 1500000 steps
ETITLE: TS BOND ANGLE DIHED IMPRP ELECT VDW BOUNDARY MISC KINETIC TOTAL TEMP POTENTIAL TOTALAVG TEMPAVG PRESSURE GPRESSURE VOLUME PRESSAVG GPRESSAVG
ENERGY: 0 7.1703 3.8719 7.7210 0.0000 -10624.4433 1456.4726 0.0000 0.0000 1747.3251 -7401.8824 297.4608 -9149.2075 -7401.8824 297.4608 317.2628 396.3168 30569.8348 317.2628 396.3168
ENERGY: 300000 4.7137 3.4657 4.2013 0.0000 -10629.3107 1413.8682 0.0000 0.0000 1767.9449 -7435.1169 300.9710 -9203.0618 -7382.9827 304.0591 270.4629 265.8535 30106.8858 91.6801 120.0388
ENERGY: 600000 6.6744 4.1160 5.3968 0.0000 -10753.9183 1531.4299 0.0000 0.0000 1784.2664 -7422.0348 303.7496 -9206.3012 -7388.1055 304.7422 502.4613 605.3612 30434.3354 128.5991 182.6978
ENERGY: 900000 4.2989 4.9451 6.1203 0.0000 -10760.3240 1571.3146 0.0000 0.0000 1829.4376 -7344.2075 311.4394 -9173.6451 -7387.4427 304.8717 994.9959 1021.8634 30712.2059 131.6443 195.3548
ENERGY: 1200000 8.5053 4.8702 7.8073 0.0000 -10640.0628 1362.8820 0.0000 0.0000 1770.3621 -7485.6359 301.3825 -9255.9980 -7399.3830 304.0061 -682.1733 -614.5049 30225.3917 49.9322 118.5819
ENERGY: 1500000 8.3828 5.8487 6.6003 0.0000 -10767.5235 1519.2088 0.0000 0.0000 1774.5325 -7452.9504 302.0925 -9227.4829 -7409.2004 303.1809 578.3083 656.0175 30257.9277 99.2906 166.2398
TCL: Running FEP window  18: Lambda1 0.8500000000000002 Lambda2 0.9000000000000002 [dLambda 0.050000000000000044]
TCL: Setting parameter firsttimestep to 0
TCL: Setting parameter alchLambda to 0.8500000000000002
Info: NONBONDED TABLE R-SQUARED SPACING: 0.0625
Info: NONBONDED TABLE SIZE: 705 POINTS
TCL: Setting parameter alchLambda2 to 0.9000000000000002
Info: NONBONDED TABLE R-SQUARED SPACING: 0.0625
Info: NONBONDED TABLE SIZE: 705 POINTS
TCL: Running for 1500000 steps
ETITLE: TS BOND ANGLE DIHED IMPRP ELECT VDW BOUNDARY MISC KINETIC TOTAL TEMP POTENTIAL TOTALAVG TEMPAVG PRESSURE GPRESSURE VOLUME PRESSAVG GPRESSAVG
ENERGY: 0 8.3828 5.8487 6.6003 0.0000 -10767.9425 1519.1658 0.0000 0.0000 1773.6740 -7454.2709 301.9463 -9227.9449 -7454.2709 301.9463 599.1649 673.4666 30257.9277 599.1649 673.4666
ENERGY: 300000 6.1050 3.1062 4.0618 0.0000 -10572.8493 1367.0461 0.0000 0.0000 1810.1883 -7382.3419 308.1624 -9192.5302 -7407.9034 304.9810 -346.7386 -212.1322 30634.6522 -36.4083 24.8279
ENERGY: 600000 6.8850 3.1771 5.1440 0.0000 -10575.3830 1424.1757 0.0000 0.0000 1692.2795 -7443.7217 288.0899 -9136.0011 -7414.3828 301.9638 -281.1374 -183.1091 30867.7701 -146.4332 -69.2914
ENERGY: 900000 8.0971 4.2737 7.4393 0.0000 -10659.2191 1430.6059 0.0000 0.0000 1762.4767 -7446.3264 300.0401 -9208.8030 -7427.5409 300.7593 -265.2667 -193.8355 30707.1468 -80.4431 -13.5685
ENERGY: 1200000 7.1603 8.8031 4.9636 0.0000 -10731.0489 1496.7814 0.0000 0.0000 1731.4948 -7481.8458 294.7658 -9213.3405 -7429.4651 299.6031 679.0790 715.6423 30186.9275 -53.7036 9.7324
ENERGY: 1500000 6.9620 6.0312 5.7724 0.0000 -10634.5911 1425.5433 0.0000 0.0000 1795.6774 -7394.6048 305.6921 -9190.2822 -7427.9529 300.4008 -33.4564 -15.9389 30458.3661 -59.6002 2.1865
TCL: Running FEP window  19: Lambda1 0.9000000000000002 Lambda2 0.9500000000000003 [dLambda 0.050000000000000044]
TCL: Setting parameter firsttimestep to 0
TCL: Setting parameter alchLambda to 0.9000000000000002
Info: NONBONDED TABLE R-SQUARED SPACING: 0.0625
Info: NONBONDED TABLE SIZE: 705 POINTS
TCL: Setting parameter alchLambda2 to 0.9500000000000003
Info: NONBONDED TABLE R-SQUARED SPACING: 0.0625
Info: NONBONDED TABLE SIZE: 705 POINTS
TCL: Running for 1500000 steps
ETITLE: TS BOND ANGLE DIHED IMPRP ELECT VDW BOUNDARY MISC KINETIC TOTAL TEMP POTENTIAL TOTALAVG TEMPAVG PRESSURE GPRESSURE VOLUME PRESSAVG GPRESSAVG
ENERGY: 0 6.9620 6.0312 5.7724 0.0000 -10634.7616 1425.5689 0.0000 0.0000 1794.7760 -7395.6512 305.5387 -9190.4272 -7395.6512 305.5387 -93.2377 6.6294 30458.3661 -93.2377 6.6294
ENERGY: 300000 5.3132 3.6643 11.0921 0.0000 -10552.6765 1354.8037 0.0000 0.0000 1770.3288 -7407.4744 301.3768 -9177.8032 -7434.8950 301.1089 -686.4812 -658.5646 31125.4958 -9.3572 37.1232
ENERGY: 600000 4.8336 4.1439 6.4664 0.0000 -10671.2262 1439.0252 0.0000 0.0000 1792.5009 -7424.2562 305.1514 -9216.7571 -7444.1711 300.0112 -205.6894 -127.6179 30951.6755 100.1727 158.4687
ENERGY: 900000 5.1601 3.0018 7.1549 0.0000 -10662.0253 1452.3453 0.0000 0.0000 1761.6363 -7432.7269 299.8971 -9194.3632 -7436.4233 300.3440 218.6477 327.5738 30172.1107 252.1947 321.7339
ENERGY: 1200000 5.9785 5.7227 9.8401 0.0000 -10701.6195 1458.1152 0.0000 0.0000 1750.5997 -7471.3633 298.0182 -9221.9630 -7449.0698 299.7026 204.7235 336.6389 30282.0828 168.9685 242.7236
ENERGY: 1500000 6.4521 4.9760 3.6435 0.0000 -10650.2203 1422.3462 0.0000 0.0000 1739.3323 -7473.4701 296.1001 -9212.8024 -7446.0393 299.3526 -129.2095 -116.8063 30425.4676 137.9794 205.8746
TCL: Running FEP window  20: Lambda1 0.9500000000000003 Lambda2 1.0    [dLambda 0.04999999999999971]
TCL: Setting parameter firsttimestep to 0
TCL: Setting parameter alchLambda to 0.9500000000000003
Info: NONBONDED TABLE R-SQUARED SPACING: 0.0625
Info: NONBONDED TABLE SIZE: 705 POINTS
TCL: Setting parameter alchLambda2 to 1.0
Info: NONBONDED TABLE R-SQUARED SPACING: 0.0625
Info: NONBONDED TABLE SIZE: 705 POINTS
TCL: Running for 1500000 steps
ETITLE: TS BOND ANGLE DIHED IMPRP ELECT VDW BOUNDARY MISC KINETIC TOTAL TEMP POTENTIAL TOTALAVG TEMPAVG PRESSURE GPRESSURE VOLUME PRESSAVG GPRESSAVG
ENERGY: 0 6.4521 4.9760 3.6435 0.0000 -10650.9658 1421.9858 0.0000 0.0000 1738.4920 -7475.4164 295.9570 -9213.9084 -7475.4164 295.9570 -178.2338 -103.9409 30425.4676 -178.2338 -103.9409
ENERGY: 300000 7.5941 4.9651 5.2568 0.0000 -10735.8431 1472.1494 0.0000 0.0000 1810.3579 -7435.5197 308.1913 -9245.8776 -7434.7452 303.2398 232.0072 381.2156 30027.8737 79.8384 169.5477
ENERGY: 600000 7.8165 5.2844 4.4415 0.0000 -10601.1701 1382.2738 0.0000 0.0000 1815.7622 -7385.5917 309.1113 -9201.3539 -7412.4181 302.9143 -386.6761 -340.4731 30594.9635 69.8413 133.4876
ENERGY: 900000 8.5758 4.3266 7.9844 0.0000 -10583.6669 1372.9876 0.0000 0.0000 1783.2914 -7406.5011 303.5836 -9189.7925 -7406.2518 302.7346 -295.3854 -312.6061 30244.6416 -39.2993 19.2386
ENERGY: 1200000 7.7127 5.7849 4.1032 0.0000 -10593.5764 1421.9676 0.0000 0.0000 1782.5240 -7371.4841 303.4529 -9154.0081 -7409.5036 301.6307 23.1438 91.0304 30653.4836 -34.1906 22.1485
ENERGY: 1500000 3.9521 10.3195 3.7197 0.0000 -10697.8849 1453.8062 0.0000 0.0000 1795.5041 -7430.5833 305.6626 -9226.0874 -7421.1349 301.5989 408.2681 492.4969 30285.2329 18.2991 73.6877
TCL: Exiting due to exit command.
