Info: SIMULATION PARAMETERS:
Info: TIMESTEP               2
Info: NUMBER OF STEPS        0
Info: STEPS PER CYCLE        10
Info: PERIODIC CELL BASIS 1  31.7625 0 0
Info: PERIODIC CELL BASIS 2  0 29.6845 0
Info: PERIODIC CELL BASIS 3  0 0 32.3758
Info: PERIODIC CELL CENTER   0 0 0
Info: WRAPPING WATERS AROUND PERIODIC BOUNDARIES ON OUTPUT.
Info: WRAPPING ALL CLUSTERS AROUND PERIODIC BOUNDARIES ON OUTPUT.
Info: FIRST LDB TIMESTEP     50
Info: LAST LDB TIMESTEP     -1
Info: HOM BACKGROUND SCALING 1
Info: PME BACKGROUND SCALING 1
Info: MIN ATOMS PER PATCH    40
Info: EMPTY PATCH LOAD       40 ATOMS
Info: VELOCITY FILE          mobley_7200804_equil.vel
Info: CENTER OF MASS MOVING INITIALLY? NO
Info: DIELECTRIC             1
Info: EXCLUDE                SCALED ONE-FOUR
Info: 1-4 ELECTROSTATICS SCALED BY 0.833333
Info: MODIFIED 1-4 VDW PARAMETERS WILL BE USED
Info: DCD FILENAME           mobley_7200804_prod.dcd
Info: DCD FREQUENCY          100000
Info: DCD FIRST STEP         100000
Info: DCD FILE WILL CONTAIN UNIT CELL DATA
Info: XST FILENAME           mobley_7200804_prod.xst
Info: XST FREQUENCY          100000
Info: NO VELOCITY DCD OUTPUT
Info: NO FORCE DCD OUTPUT
Info: OUTPUT FILENAME        mobley_7200804_prod
Info: BINARY OUTPUT FILES WILL BE USED
Info: RESTART FILENAME       mobley_7200804_prod.restart
Info: RESTART FREQUENCY      100000
Info: BINARY RESTART FILES WILL BE USED
Info: CUTOFF                 9
Info: PAIRLIST DISTANCE      11
Info: PAIRLIST SHRINK RATE   0.01
Info: PAIRLIST GROW RATE     0.01
Info: PAIRLIST TRIGGER       0.3
Info: PAIRLISTS PER CYCLE    2
Info: PAIRLISTS ENABLED
Info: MARGIN                 2
Info: HYDROGEN GROUP CUTOFF  2.5
Info: PATCH DIMENSION        15.5
Info: ENERGY OUTPUT STEPS    100000
Info: ENERGY EVALUATION STEPS    100000
Info: OUTPUT ENERGY PRECISION 4
Info: CROSSTERM ENERGY INCLUDED IN DIHEDRAL
Info: TIMING OUTPUT STEPS    1000000
Info: PRESSURE OUTPUT STEPS  100000
Info: ALCHEMICAL FEP ON
Info: FEP CURRENT LAMBDA VALUE     0
Info: FEP COMPARISON LAMBDA VALUE  0.05
Info: FEP INTRA-ALCHEMICAL NON-BONDED INTERACTIONS WILL BE RETAINED
Info: FEP INTRA-ALCHEMICAL BONDED INTERACTIONS WILL BE RETAINED
Info: FEP VDW SHIFTING COEFFICIENT 5
Info: FEP ELEC. ACTIVE FOR ANNIHILATED PARTICLES BETWEEN LAMBDA = 0 AND LAMBDA = 0.5
Info: FEP ELEC. ACTIVE FOR EXNIHILATED PARTICLES BETWEEN LAMBDA = 0.5 AND LAMBDA = 1
Info: FEP VDW ACTIVE FOR ANNIHILATED PARTICLES BETWEEN LAMBDA = 0 AND LAMBDA = 1
Info: FEP VDW ACTIVE FOR EXNIHILATED PARTICLES BETWEEN LAMBDA = 0 AND LAMBDA = 1
Info: FEP BOND ACTIVE FOR ANNIHILATED PARTICLES BETWEEN LAMBDA = 1 AND LAMBDA = 1
Info: FEP BOND ACTIVE FOR EXNIHILATED PARTICLES BETWEEN LAMBDA = 0 AND LAMBDA = 0
Info: LANGEVIN DYNAMICS ACTIVE
Info: LANGEVIN TEMPERATURE   300
Info: LANGEVIN USING BBK INTEGRATOR
Info: LANGEVIN DAMPING COEFFICIENT IS 1 INVERSE PS
Info: LANGEVIN DYNAMICS APPLIED TO HYDROGENS
Info: LANGEVIN PISTON PRESSURE CONTROL ACTIVE
Info:        TARGET PRESSURE IS 1.01325 BAR
Info:     OSCILLATION PERIOD IS 50 FS
Info:             DECAY TIME IS 25 FS
Info:     PISTON TEMPERATURE IS 300 K
Info:       PRESSURE CONTROL IS GROUP-BASED
Info:    INITIAL STRAIN RATE IS -0.000349341 -0.000349341 -0.000349341
Info:       CELL FLUCTUATION IS ISOTROPIC
Info: PARTICLE MESH EWALD (PME) ACTIVE
Info: PME TOLERANCE               1e-06
Info: PME EWALD COEFFICIENT       0.348832
Info: PME INTERPOLATION ORDER     4
Info: PME GRID DIMENSIONS         32 32 36
Info: PME MAXIMUM GRID SPACING    1
Info: PME CALCULATION WILL BE PERFORMED ON GPU
Info: FULL ELECTROSTATIC EVALUATION FREQUENCY      2
Info: USING VERLET I (r-RESPA) MTS SCHEME.
Info: C1 SPLITTING OF LONG RANGE ELECTROSTATICS
Info: PLACING ATOMS IN PATCHES BY HYDROGEN GROUPS
Info: RIGID BONDS TO HYDROGEN : ALL
Info:         ERROR TOLERANCE : 1e-08
Info:          MAX ITERATIONS : 100
Info: RIGID WATER USING SETTLE ALGORITHM
Info: RANDOM NUMBER SEED     1743550689
Info: USE HYDROGEN BONDS?    NO
Info: Using AMBER format force field!
Info: AMBER PARM FILE        mobley_7200804.prmtop
Info: COORDINATE PDB         mobley_7200804.pdb
Info: Exclusions will be read from PARM file!
Info: SCNB (VDW SCALING)     2
Info: USING ARITHMETIC MEAN TO COMBINE L-J SIGMA PARAMETERS
Info: BINARY COORDINATES     mobley_7200804_equil.coor
Info: SUMMARY OF PARAMETERS:
Info: 7 BONDS
Info: 5 ANGLES
Info:   5 HARMONIC
Info:   0 COSINE-BASED
Info: 3 DIHEDRAL
Info: 0 IMPROPER
Info: 0 CROSSTERM
Info: 0 VDW
Info: 21 VDW_PAIRS
Info: 0 NBTHOLE_PAIRS
Info: To read alchdata from file: mobley_7200804.pdb
Info: To read alchflag data from column: 5
Info: STRUCTURE SUMMARY:
Info: 2953 ATOMS
Info: 2953 BONDS
Info: 19 ANGLES
Info: 32 DIHEDRALS
Info: 0 IMPROPERS
Info: 0 CROSSTERMS
Info: 2995 EXCLUSIONS
Info: 2945 RIGID BONDS
Info: ALCH: 0 ATOMS TO DISAPPEAR IN FINAL STATE
Info: ALCH: 13 ATOMS TO APPEAR IN FINAL STATE
Info: 5914 DEGREES OF FREEDOM
Info: 988 HYDROGEN GROUPS
Info: 3 ATOMS IN LARGEST HYDROGEN GROUP
Info: 988 MIGRATION GROUPS
Info: 3 ATOMS IN LARGEST MIGRATION GROUP
Info: TOTAL MASS = 17767.8 amu
Info: TOTAL CHARGE = -0.000100017 e
Info: MASS DENSITY = 0.96656 g/cm^3
Info: ATOM DENSITY = 0.0967386 atoms/A^3
Info: ADDED 0 IMPLICIT EXCLUSIONS
Info: NONBONDED TABLE R-SQUARED SPACING: 0.0625
Info: NONBONDED TABLE SIZE: 705 POINTS
Info: REMOVING COM VELOCITY -0.128641 -0.123246 0.007463
Info: Use 3D box decompostion in PME FFT.
Info: Updated CUDA force table with 4096 elements.
Info: Updated CUDA LJ table with 6 x 6 elements.
Info: Found 15 unique exclusion lists needing 28 bytes
TCL: Running for 1500000 steps
ETITLE: TS BOND ANGLE DIHED IMPRP ELECT VDW BOUNDARY MISC KINETIC TOTAL TEMP POTENTIAL TOTALAVG TEMPAVG PRESSURE GPRESSURE VOLUME PRESSAVG GPRESSAVG
ENERGY: 0 0.4782 3.6068 5.6895 0.0000 -10747.1166 1500.8167 0.0000 0.0000 1780.3121 -7456.2133 302.9739 -9236.5254 -7456.2133 302.9739 330.9964 405.5755 30525.5507 330.9964 405.5755
ENERGY: 300000 5.7189 4.0032 2.7079 0.0000 -10516.5850 1310.0441 0.0000 0.0000 1763.2082 -7430.9027 300.0632 -9194.1109 -7477.9878 302.0493 -799.4587 -731.6194 30026.3243 -115.1240 -52.2046
ENERGY: 600000 2.1720 1.3299 3.1958 0.0000 -10696.3943 1483.4612 0.0000 0.0000 1814.4317 -7391.8038 308.7804 -9206.2355 -7437.1829 303.7285 556.9716 561.7869 30511.1778 -115.7856 -40.7961
ENERGY: 900000 3.6864 3.9590 1.5139 0.0000 -10687.9536 1419.6688 0.0000 0.0000 1800.7799 -7458.3457 306.4571 -9259.1256 -7438.7597 302.9127 -426.3499 -306.2566 30717.3916 -298.0009 -214.8311
ENERGY: 1200000 1.4743 2.0571 0.4099 0.0000 -10554.3126 1359.7223 0.0000 0.0000 1790.5917 -7400.0573 304.7233 -9190.6491 -7449.1687 302.3077 -202.4486 -140.8210 29807.5617 -96.6256 -20.4597
ENERGY: 1500000 5.5164 4.2777 3.1578 0.0000 -10629.8397 1391.3963 0.0000 0.0000 1764.7436 -7460.7479 300.3244 -9225.4915 -7448.1063 302.7262 -274.2111 -212.2029 30270.4712 -101.2494 -32.2392
TCL: Running FEP window   2: Lambda1 0.05   Lambda2 0.1    [dLambda 0.05  ]
TCL: Setting parameter firsttimestep to 0
TCL: Setting parameter alchLambda to 0.05
Info: NONBONDED TABLE R-SQUARED SPACING: 0.0625
Info: NONBONDED TABLE SIZE: 705 POINTS
TCL: Setting parameter alchLambda2 to 0.1
Info: NONBONDED TABLE R-SQUARED SPACING: 0.0625
Info: NONBONDED TABLE SIZE: 705 POINTS
TCL: Running for 1500000 steps
ETITLE: TS BOND ANGLE DIHED IMPRP ELECT VDW BOUNDARY MISC KINETIC TOTAL TEMP POTENTIAL TOTALAVG TEMPAVG PRESSURE GPRESSURE VOLUME PRESSAVG GPRESSAVG
ENERGY: 0 5.5164 4.2777 3.1578 0.0000 -10629.8401 1398.0021 0.0000 0.0000 1763.8840 -7455.0021 300.1781 -9218.8861 -7455.0021 300.1781 -288.4109 -205.8032 30270.4712 -288.4109 -205.8032
ENERGY: 300000 2.8029 4.9314 3.6424 0.0000 -10478.9802 1306.1451 0.0000 0.0000 1743.3618 -7418.0965 296.6857 -9161.4583 -7456.5534 301.8868 -975.9766 -915.5796 30715.8454 -423.0974 -334.0403
ENERGY: 600000 2.1982 2.1669 3.8132 0.0000 -10698.7674 1442.7684 0.0000 0.0000 1725.1038 -7522.7169 293.5785 -9247.8207 -7469.8671 301.5316 145.1322 164.2368 30134.1007 -402.0556 -337.6843
ENERGY: 900000 0.6709 5.1290 0.7958 0.0000 -10602.2270 1339.3863 0.0000 0.0000 1755.5261 -7500.7190 298.7558 -9256.2450 -7486.6331 300.0485 -754.3972 -649.8464 30202.8978 -367.4451 -314.6934
ENERGY: 1200000 4.3071 2.6067 4.5042 0.0000 -10783.4988 1560.9722 0.0000 0.0000 1741.7935 -7469.3150 296.4188 -9211.1086 -7490.5115 299.4772 1154.7170 1162.6761 29880.3573 -123.5250 -79.3178
ENERGY: 1500000 4.2577 4.2320 2.4654 0.0000 -10826.1306 1546.3809 0.0000 0.0000 1736.8631 -7531.9315 295.5797 -9268.7946 -7492.0067 298.6370 710.9651 822.4102 29945.4047 -128.9353 -78.4581
TCL: Running FEP window   3: Lambda1 0.1    Lambda2 0.15000000000000002 [dLambda 0.05000000000000002]
TCL: Setting parameter firsttimestep to 0
TCL: Setting parameter alchLambda to 0.1
Info: NONBONDED TABLE R-SQUARED SPACING: 0.0625
Info: NONBONDED TABLE SIZE: 705 POINTS
TCL: Setting parameter alchLambda2 to 0.15000000000000002
Info: NONBONDED TABLE R-SQUARED SPACING: 0.0625
Info: NONBONDED TABLE SIZE: 705 POINTS
TCL: Running for 1500000 steps
ETITLE: TS BOND ANGLE DIHED IMPRP ELECT VDW BOUNDARY MISC KINETIC TOTAL TEMP POTENTIAL TOTALAVG TEMPAVG PRESSURE GPRESSURE VOLUME PRESSAVG GPRESSAVG
ENERGY: 0 4.2577 4.2320 2.4654 0.0000 -10826.1277 1548.8358 0.0000 0.0000 1735.9927 -7530.3441 295.4316 -9266.3368 -7530.3441 295.4316 749.4802 828.4907 29945.4047 749.4802 828.4907
ENERGY: 300000 4.0737 2.8838 4.2241 0.0000 -10766.9780 1492.8183 0.0000 0.0000 1748.7697 -7514.2085 297.6060 -9262.9782 -7496.0986 296.6778 166.9874 217.7228 30578.8516 233.6859 300.9067
ENERGY: 600000 3.2716 3.9511 1.6046 0.0000 -10777.0797 1471.6585 0.0000 0.0000 1826.6394 -7469.9543 310.8579 -9296.5938 -7472.6055 299.8995 271.9220 331.1774 29951.9346 42.5545 106.6535
ENERGY: 900000 1.8816 3.3143 0.8608 0.0000 -10665.8283 1365.4527 0.0000 0.0000 1796.6449 -7497.6741 305.7534 -9294.3190 -7471.8475 299.9316 -797.0464 -668.0013 30421.9575 -220.9697 -146.7501
ENERGY: 1200000 3.2619 4.6752 4.1295 0.0000 -10763.3491 1430.2114 0.0000 0.0000 1772.3477 -7548.7233 301.6185 -9321.0710 -7475.8228 301.3929 -453.3250 -404.2436 30464.9425 -149.2780 -79.8707
ENERGY: 1500000 1.7119 3.9705 4.3860 0.0000 -10695.5450 1500.2640 0.0000 0.0000 1802.4691 -7382.7435 306.7446 -9185.2126 -7473.1947 300.9113 679.0716 743.6979 29897.5912 -12.3702 52.0385
TCL: Running FEP window   4: Lambda1 0.15000000000000002 Lambda2 0.2    [dLambda 0.04999999999999999]
TCL: Setting parameter firsttimestep to 0
TCL: Setting parameter alchLambda to 0.15000000000000002
Info: NONBONDED TABLE R-SQUARED SPACING: 0.0625
Info: NONBONDED TABLE SIZE: 705 POINTS
TCL: Setting parameter alchLambda2 to 0.2
Info: NONBONDED TABLE R-SQUARED SPACING: 0.0625
Info: NONBONDED TABLE SIZE: 705 POINTS
TCL: Running for 1500000 steps
ETITLE: TS BOND ANGLE DIHED IMPRP ELECT VDW BOUNDARY MISC KINETIC TOTAL TEMP POTENTIAL TOTALAVG TEMPAVG PRESSURE GPRESSURE VOLUME PRESSAVG GPRESSAVG
ENERGY: 0 1.7119 3.9705 4.3860 0.0000 -10695.5433 1502.4981 0.0000 0.0000 1801.5834 -7381.3935 306.5939 -9182.9769 -7381.3935 306.5939 673.3623 756.9965 29897.5912 673.3623 756.9965
ENERGY: 300000 2.1391 3.9162 2.8443 0.0000 -10696.2179 1422.0960 0.0000 0.0000 1743.9770 -7521.2454 296.7904 -9265.2224 -7453.1151 298.9129 -247.4488 -264.4952 30486.2545 113.8456 146.2146
ENERGY: 600000 3.7510 2.6434 3.6720 0.0000 -10598.1400 1409.3556 0.0000 0.0000 1721.3616 -7457.3563 292.9417 -9178.7179 -7466.1790 297.5445 -450.5735 -370.7300 30966.6108 -99.8949 -54.1617
ENERGY: 900000 1.4910 1.6377 1.3944 0.0000 -10669.6131 1446.5673 0.0000 0.0000 1721.9403 -7496.5824 293.0402 -9218.5227 -7481.1972 297.7132 -41.4153 -19.3809 30599.7312 -78.8724 -38.9326
ENERGY: 1200000 2.4370 2.9024 1.9800 0.0000 -10559.2594 1327.9648 0.0000 0.0000 1659.2959 -7564.6793 282.3793 -9223.9752 -7493.0086 296.1226 -991.3824 -935.1384 30447.1551 -198.9457 -154.3839
ENERGY: 1500000 0.7481 2.2436 5.7952 0.0000 -10682.0374 1412.6453 0.0000 0.0000 1712.5010 -7548.1042 291.4338 -9260.6053 -7498.5424 296.3346 -204.7924 -117.5050 29971.2931 -169.2869 -118.7039
TCL: Running FEP window   5: Lambda1 0.2    Lambda2 0.25   [dLambda 0.04999999999999999]
TCL: Setting parameter firsttimestep to 0
TCL: Setting parameter alchLambda to 0.2
Info: NONBONDED TABLE R-SQUARED SPACING: 0.0625
Info: NONBONDED TABLE SIZE: 705 POINTS
TCL: Setting parameter alchLambda2 to 0.25
Info: NONBONDED TABLE R-SQUARED SPACING: 0.0625
Info: NONBONDED TABLE SIZE: 705 POINTS
TCL: Running for 1500000 steps
ETITLE: TS BOND ANGLE DIHED IMPRP ELECT VDW BOUNDARY MISC KINETIC TOTAL TEMP POTENTIAL TOTALAVG TEMPAVG PRESSURE GPRESSURE VOLUME PRESSAVG GPRESSAVG
ENERGY: 0 0.7481 2.2436 5.7952 0.0000 -10682.0383 1413.3880 0.0000 0.0000 1711.6165 -7548.2469 291.2833 -9259.8634 -7548.2469 291.2833 -193.1169 -109.1713 29971.2931 -193.1169 -109.1713
ENERGY: 300000 4.3366 0.8302 2.8165 0.0000 -10731.8166 1425.6496 0.0000 0.0000 1705.9809 -7592.2028 290.3242 -9298.1837 -7542.2692 294.4948 -160.5357 -129.5985 30120.6283 137.7217 217.7215
ENERGY: 600000 1.8917 3.3321 4.8094 0.0000 -10751.3227 1426.1758 0.0000 0.0000 1731.5039 -7583.6099 294.6677 -9315.1138 -7547.0646 294.4592 -281.6212 -241.6089 30055.9476 7.5441 75.3204
ENERGY: 900000 1.7463 1.4114 1.2218 0.0000 -10721.4252 1398.6271 0.0000 0.0000 1740.2030 -7578.2157 296.1481 -9318.4187 -7551.4810 295.6899 -940.8096 -871.0359 31154.2202 -89.8881 -24.9958
ENERGY: 1200000 4.6179 4.8848 1.8261 0.0000 -10640.0263 1317.5820 0.0000 0.0000 1688.8636 -7622.2519 287.4112 -9311.1155 -7539.9229 296.2465 -1105.1077 -1036.5720 30088.2100 -198.3685 -131.5847
ENERGY: 1500000 2.1284 2.5387 1.0633 0.0000 -10679.2950 1459.4038 0.0000 0.0000 1730.3836 -7483.7772 294.4770 -9214.1607 -7532.6441 297.3045 436.7306 430.7903 30341.9108 -147.2477 -86.3600
TCL: Running FEP window   6: Lambda1 0.25   Lambda2 0.3    [dLambda 0.04999999999999999]
TCL: Setting parameter firsttimestep to 0
TCL: Setting parameter alchLambda to 0.25
Info: NONBONDED TABLE R-SQUARED SPACING: 0.0625
Info: NONBONDED TABLE SIZE: 705 POINTS
TCL: Setting parameter alchLambda2 to 0.3
Info: NONBONDED TABLE R-SQUARED SPACING: 0.0625
Info: NONBONDED TABLE SIZE: 705 POINTS
TCL: Running for 1500000 steps
ETITLE: TS BOND ANGLE DIHED IMPRP ELECT VDW BOUNDARY MISC KINETIC TOTAL TEMP POTENTIAL TOTALAVG TEMPAVG PRESSURE GPRESSURE VOLUME PRESSAVG GPRESSAVG
ENERGY: 0 2.1284 2.5387 1.0633 0.0000 -10679.2947 1459.0150 0.0000 0.0000 1729.5013 -7485.0480 294.3269 -9214.5492 -7485.0480 294.3269 347.2326 432.9945 30341.9108 347.2326 432.9945
ENERGY: 300000 4.8118 2.2670 1.7656 0.0000 -10714.9245 1444.3188 0.0000 0.0000 1804.4170 -7457.3443 307.0761 -9261.7613 -7483.4179 301.1328 256.2808 311.3845 30017.6825 -69.3598 -2.2342
ENERGY: 600000 4.1517 3.2435 2.2663 0.0000 -10720.1479 1493.1681 0.0000 0.0000 1717.6834 -7499.6349 292.3157 -9217.3182 -7476.0948 299.4226 304.7082 371.7057 30581.4621 167.4577 228.7116
ENERGY: 900000 1.9556 2.7928 1.9270 0.0000 -10608.7505 1418.7543 0.0000 0.0000 1761.4070 -7421.9137 299.7566 -9183.3208 -7484.5401 299.9115 -96.3732 -62.9947 30734.2953 194.5728 259.5345
ENERGY: 1200000 2.3938 2.3490 1.2195 0.0000 -10753.6004 1431.4737 0.0000 0.0000 1734.8517 -7581.3125 295.2374 -9316.1643 -7486.7603 300.0031 -223.2983 -158.0862 30172.3509 178.6971 245.2307
ENERGY: 1500000 2.0588 3.8806 6.6104 0.0000 -10829.8051 1515.5118 0.0000 0.0000 1813.5084 -7488.2350 308.6233 -9301.7435 -7482.7528 300.8585 717.9295 781.8073 29833.2971 188.0338 250.8181
TCL: Running FEP window   7: Lambda1 0.3    Lambda2 0.35   [dLambda 0.04999999999999999]
TCL: Setting parameter firsttimestep to 0
TCL: Setting parameter alchLambda to 0.3
Info: NONBONDED TABLE R-SQUARED SPACING: 0.0625
Info: NONBONDED TABLE SIZE: 705 POINTS
TCL: Setting parameter alchLambda2 to 0.35
Info: NONBONDED TABLE R-SQUARED SPACING: 0.0625
Info: NONBONDED TABLE SIZE: 705 POINTS
TCL: Running for 1500000 steps
ETITLE: TS BOND ANGLE DIHED IMPRP ELECT VDW BOUNDARY MISC KINETIC TOTAL TEMP POTENTIAL TOTALAVG TEMPAVG PRESSURE GPRESSURE VOLUME PRESSAVG GPRESSAVG
ENERGY: 0 2.0588 3.8806 6.6104 0.0000 -10829.8073 1515.3015 0.0000 0.0000 1812.6701 -7489.2858 308.4806 -9301.9560 -7489.2858 308.4806 690.4359 781.2384 29833.2971 690.4359 781.2384
ENERGY: 300000 4.3296 1.0473 4.3301 0.0000 -10802.6949 1509.1061 0.0000 0.0000 1786.4478 -7497.4339 304.0181 -9283.8818 -7492.0939 303.7578 437.5757 515.8245 29968.9107 352.7632 426.7600
ENERGY: 600000 2.0778 5.3221 1.2831 0.0000 -10858.6075 1553.2292 0.0000 0.0000 1741.9021 -7554.7931 296.4373 -9296.6952 -7506.2614 301.5669 936.8456 1043.8490 29510.2047 328.0352 405.9153
ENERGY: 900000 3.3228 2.6825 3.5556 0.0000 -10670.7365 1435.9287 0.0000 0.0000 1756.6638 -7468.5831 298.9494 -9225.2469 -7484.4634 300.8133 -199.0675 -95.5442 30544.0740 214.8821 295.2442
ENERGY: 1200000 1.3278 1.8542 2.9568 0.0000 -10737.1784 1500.5948 0.0000 0.0000 1773.3029 -7457.1419 301.7811 -9230.4448 -7478.3395 301.0466 400.5436 394.3563 30354.8653 282.2673 356.0893
ENERGY: 1500000 2.2546 5.5350 2.7170 0.0000 -10809.6544 1540.6396 0.0000 0.0000 1757.5384 -7500.9697 299.0983 -9258.5081 -7479.1954 300.8112 933.5825 949.6303 30036.6830 324.6903 391.9434
TCL: Running FEP window   8: Lambda1 0.35   Lambda2 0.39999999999999997 [dLambda 0.04999999999999999]
TCL: Setting parameter firsttimestep to 0
TCL: Setting parameter alchLambda to 0.35
Info: NONBONDED TABLE R-SQUARED SPACING: 0.0625
Info: NONBONDED TABLE SIZE: 705 POINTS
TCL: Setting parameter alchLambda2 to 0.39999999999999997
Info: NONBONDED TABLE R-SQUARED SPACING: 0.0625
Info: NONBONDED TABLE SIZE: 705 POINTS
TCL: Running for 1500000 steps
ETITLE: TS BOND ANGLE DIHED IMPRP ELECT VDW BOUNDARY MISC KINETIC TOTAL TEMP POTENTIAL TOTALAVG TEMPAVG PRESSURE GPRESSURE VOLUME PRESSAVG GPRESSAVG
ENERGY: 0 2.2546 5.5350 2.7170 0.0000 -10809.6552 1540.3439 0.0000 0.0000 1756.7103 -7502.0944 298.9573 -9258.8047 -7502.0944 298.9573 877.2494 951.7521 30036.6830 877.2494 951.7521
ENERGY: 300000 2.9988 1.0157 1.9398 0.0000 -10790.1058 1494.2894 0.0000 0.0000 1798.2804 -7491.5818 306.0317 -9289.8622 -7503.7859 298.8907 430.4816 436.1001 29891.8587 61.4500 100.1947
ENERGY: 600000 1.0670 2.5562 2.8247 0.0000 -10689.7073 1501.5762 0.0000 0.0000 1758.7309 -7422.9523 299.3012 -9181.6832 -7490.5416 299.5681 793.7124 817.8862 30111.7277 162.9152 199.5438
ENERGY: 900000 1.5742 3.5841 1.7626 0.0000 -10714.6291 1484.3887 0.0000 0.0000 1775.6740 -7447.6453 302.1846 -9223.3194 -7488.8810 299.2021 445.6729 451.9166 30473.3379 124.4887 170.7755
ENERGY: 1200000 1.5155 3.9006 2.7370 0.0000 -10629.3824 1410.1784 0.0000 0.0000 1828.3232 -7382.7276 311.1444 -9211.0508 -7477.0219 299.6520 -148.3975 -106.7339 30548.2497 46.1366 88.7522
ENERGY: 1500000 2.5501 6.1604 5.3379 0.0000 -10637.3228 1406.8090 0.0000 0.0000 1736.5904 -7479.8749 295.5333 -9216.4653 -7481.0529 298.8716 -176.9457 -148.6441 30556.8652 24.1223 68.4790
TCL: Running FEP window   9: Lambda1 0.39999999999999997 Lambda2 0.44999999999999996 [dLambda 0.04999999999999999]
TCL: Setting parameter firsttimestep to 0
TCL: Setting parameter alchLambda to 0.39999999999999997
Info: NONBONDED TABLE R-SQUARED SPACING: 0.0625
Info: NONBONDED TABLE SIZE: 705 POINTS
TCL: Setting parameter alchLambda2 to 0.44999999999999996
Info: NONBONDED TABLE R-SQUARED SPACING: 0.0625
Info: NONBONDED TABLE SIZE: 705 POINTS
TCL: Running for 1500000 steps
ETITLE: TS BOND ANGLE DIHED IMPRP ELECT VDW BOUNDARY MISC KINETIC TOTAL TEMP POTENTIAL TOTALAVG TEMPAVG PRESSURE GPRESSURE VOLUME PRESSAVG GPRESSAVG
ENERGY: 0 2.5501 6.1604 5.3379 0.0000 -10637.3230 1406.7009 0.0000 0.0000 1735.6884 -7480.8853 295.3798 -9216.5736 -7480.8853 295.3798 -217.8652 -147.2711 30556.8652 -217.8652 -147.2711
ENERGY: 300000 1.7813 7.5656 2.9805 0.0000 -10763.5423 1481.4108 0.0000 0.0000 1784.4811 -7485.3229 303.6834 -9269.8040 -7500.3156 299.7991 267.7511 343.8194 30255.1881 -94.3188 -22.2075
ENERGY: 600000 1.1625 1.6600 4.1476 0.0000 -10674.2622 1394.8382 0.0000 0.0000 1856.2668 -7416.1871 315.8999 -9272.4539 -7495.3244 302.5970 -132.3832 -84.4776 29898.0797 6.1912 59.0103
ENERGY: 900000 5.4999 4.2984 2.1082 0.0000 -10792.7012 1528.4879 0.0000 0.0000 1750.3202 -7501.9866 297.8699 -9252.3067 -7508.0032 300.8755 530.4641 573.0290 30522.0669 71.7919 121.9514
ENERGY: 1200000 4.2921 1.0960 4.0619 0.0000 -10576.6175 1385.3793 0.0000 0.0000 1742.0825 -7439.7056 296.4680 -9181.7881 -7509.7083 300.0482 -418.1492 -256.9068 30266.1991 27.5995 93.6640
ENERGY: 1500000 2.0236 4.4568 5.0302 0.0000 -10613.0239 1460.1239 0.0000 0.0000 1783.9230 -7357.4665 303.5884 -9141.3895 -7508.3205 299.7086 533.6108 585.0083 30272.5125 12.8435 80.0772
TCL: Running FEP window  10: Lambda1 0.44999999999999996 Lambda2 0.49999999999999994 [dLambda 0.04999999999999999]
TCL: Setting parameter firsttimestep to 0
TCL: Setting parameter alchLambda to 0.44999999999999996
Info: NONBONDED TABLE R-SQUARED SPACING: 0.0625
Info: NONBONDED TABLE SIZE: 705 POINTS
TCL: Setting parameter alchLambda2 to 0.49999999999999994
Info: NONBONDED TABLE R-SQUARED SPACING: 0.0625
Info: NONBONDED TABLE SIZE: 705 POINTS
TCL: Running for 1500000 steps
ETITLE: TS BOND ANGLE DIHED IMPRP ELECT VDW BOUNDARY MISC KINETIC TOTAL TEMP POTENTIAL TOTALAVG TEMPAVG PRESSURE GPRESSURE VOLUME PRESSAVG GPRESSAVG
ENERGY: 0 2.0236 4.4568 5.0302 0.0000 -10613.0247 1460.0950 0.0000 0.0000 1783.0326 -7358.3866 303.4369 -9141.4192 -7358.3866 303.4369 506.6275 588.6527 30272.5125 506.6275 588.6527
ENERGY: 300000 1.6114 1.9909 1.9891 0.0000 -10730.8561 1497.1574 0.0000 0.0000 1776.1144 -7451.9929 302.2595 -9228.1072 -7458.8827 301.5851 390.3995 454.2567 30434.9421 -1.6953 75.0705
ENERGY: 600000 2.0653 2.7330 4.6177 0.0000 -10745.2864 1499.7925 0.0000 0.0000 1741.0014 -7495.0764 296.2840 -9236.0779 -7449.8241 301.6831 651.6207 694.7393 29950.2329 161.0186 240.2599
ENERGY: 900000 2.4528 6.5649 1.8433 0.0000 -10536.9452 1391.0443 0.0000 0.0000 1757.5427 -7377.4972 299.0990 -9135.0399 -7452.5212 300.9968 -59.8361 18.0015 30430.0232 193.1507 260.8795
ENERGY: 1200000 2.7835 3.1884 4.2604 0.0000 -10572.0222 1318.6960 0.0000 0.0000 1718.0362 -7525.0577 292.3758 -9243.0940 -7469.3435 299.6926 -1020.0669 -986.9608 30495.1065 121.1578 183.3367
ENERGY: 1500000 5.2236 2.5870 2.3687 0.0000 -10712.3343 1521.5198 0.0000 0.0000 1759.1055 -7421.5298 299.3649 -9180.6353 -7465.3361 300.3248 783.4363 865.1813 30722.1228 191.7114 262.9823
TCL: Running FEP window  11: Lambda1 0.49999999999999994 Lambda2 0.5499999999999999 [dLambda 0.04999999999999999]
TCL: Setting parameter firsttimestep to 0
TCL: Setting parameter alchLambda to 0.49999999999999994
Info: NONBONDED TABLE R-SQUARED SPACING: 0.0625
Info: NONBONDED TABLE SIZE: 705 POINTS
TCL: Setting parameter alchLambda2 to 0.5499999999999999
Info: NONBONDED TABLE R-SQUARED SPACING: 0.0625
Info: NONBONDED TABLE SIZE: 705 POINTS
TCL: Running for 1500000 steps
ETITLE: TS BOND ANGLE DIHED IMPRP ELECT VDW BOUNDARY MISC KINETIC TOTAL TEMP POTENTIAL TOTALAVG TEMPAVG PRESSURE GPRESSURE VOLUME PRESSAVG GPRESSAVG
ENERGY: 0 5.2236 2.5870 2.3687 0.0000 -10712.3338 1521.3830 0.0000 0.0000 1758.2265 -7422.5451 299.2154 -9180.7716 -7422.5451 299.2154 797.3393 866.4761 30722.1228 797.3393 866.4761
ENERGY: 300000 2.2679 1.8046 2.4046 0.0000 -10701.0580 1393.3218 0.0000 0.0000 1808.6624 -7492.5967 307.7986 -9301.2591 -7474.6611 301.7833 -685.7332 -647.0736 30684.1354 -142.7291 -53.6460
ENERGY: 600000 1.6142 4.4723 1.3501 0.0000 -10855.6746 1537.3449 0.0000 0.0000 1787.1983 -7523.6948 304.1458 -9310.8932 -7495.8368 301.1287 775.9399 835.3003 30057.6301 180.9645 251.9881
ENERGY: 900000 2.2825 5.2247 6.6377 0.0000 -10723.1269 1467.3830 0.0000 0.0000 1758.4935 -7483.1055 299.2608 -9241.5990 -7503.2046 300.2418 63.6471 136.1821 30555.3534 43.0022 116.3123
ENERGY: 1200000 5.0944 5.0534 4.8868 0.0000 -10742.4768 1417.7099 0.0000 0.0000 1788.6957 -7521.0366 304.4006 -9309.7323 -7506.5144 299.9042 -434.7074 -345.9232 30917.0942 39.0545 122.3408
ENERGY: 1500000 1.2574 6.9477 1.1767 0.0000 -10650.3237 1404.0869 0.0000 0.0000 1775.2060 -7461.6491 302.1049 -9236.8551 -7509.4842 299.1574 -176.5191 -139.0989 30266.8684 19.3875 96.9315
TCL: Running FEP window  12: Lambda1 0.5499999999999999 Lambda2 0.6    [dLambda 0.050000000000000044]
TCL: Setting parameter firsttimestep to 0
TCL: Setting parameter alchLambda to 0.5499999999999999
Info: NONBONDED TABLE R-SQUARED SPACING: 0.0625
Info: NONBONDED TABLE SIZE: 705 POINTS
TCL: Setting parameter alchLambda2 to 0.6
Info: NONBONDED TABLE R-SQUARED SPACING: 0.0625
Info: NONBONDED TABLE SIZE: 705 POINTS
TCL: Running for 1500000 steps
ETITLE: TS BOND ANGLE DIHED IMPRP ELECT VDW BOUNDARY MISC KINETIC TOTAL TEMP POTENTIAL TOTALAVG TEMPAVG PRESSURE GPRESSURE VOLUME PRESSAVG GPRESSAVG
ENERGY: 0 1.2574 6.9477 1.1767 0.0000 -10650.0622 1404.0930 0.0000 0.0000 1774.3512 -7462.2362 301.9595 -9236.5874 -7462.2362 301.9595 -204.1141 -130.5511 30266.8684 -204.1141 -130.5511
ENERGY: 300000 3.3975 2.4329 4.8817 0.0000 -10627.1648 1381.2399 0.0000 0.0000 1701.2097 -7534.0031 289.5122 -9235.2128 -7503.9832 297.9069 -552.2819 -523.9217 30602.5770 -181.0956 -156.7658
ENERGY: 600000 2.3802 0.9318 2.6348 0.0000 -10837.3792 1483.6347 0.0000 0.0000 1779.2836 -7568.5141 302.7989 -9347.7976 -7534.3078 298.0336 120.6766 121.1626 30241.1625 -85.6345 -48.6337
ENERGY: 900000 4.2626 2.0616 3.9732 0.0000 -10626.1030 1390.3406 0.0000 0.0000 1714.0617 -7511.4032 291.6994 -9225.4650 -7527.8981 297.6475 -281.6170 -190.2874 30003.1831 -134.1047 -90.8610
ENERGY: 1200000 2.0396 2.1560 5.0087 0.0000 -10660.3939 1412.0564 0.0000 0.0000 1712.4711 -7526.6622 291.4287 -9239.1333 -7520.1974 297.9999 -327.1555 -287.7286 30652.1621 -74.9453 -34.8964
ENERGY: 1500000 3.9636 3.6399 2.7202 0.0000 -10727.3760 1474.9227 0.0000 0.0000 1761.1535 -7480.9761 299.7135 -9242.1296 -7525.1584 297.9817 77.1068 88.0221 30558.5122 -2.4712 33.7857
TCL: Running FEP window  13: Lambda1 0.6    Lambda2 0.65   [dLambda 0.050000000000000044]
TCL: Setting parameter firsttimestep to 0
TCL: Setting parameter alchLambda to 0.6
Info: NONBONDED TABLE R-SQUARED SPACING: 0.0625
Info: NONBONDED TABLE SIZE: 705 POINTS
TCL: Setting parameter alchLambda2 to 0.65
Info: NONBONDED TABLE R-SQUARED SPACING: 0.0625
Info: NONBONDED TABLE SIZE: 705 POINTS
TCL: Running for 1500000 steps
ETITLE: TS BOND ANGLE DIHED IMPRP ELECT VDW BOUNDARY MISC KINETIC TOTAL TEMP POTENTIAL TOTALAVG TEMPAVG PRESSURE GPRESSURE VOLUME PRESSAVG GPRESSAVG
ENERGY: 0 3.9636 3.6399 2.7202 0.0000 -10727.7481 1475.0873 0.0000 0.0000 1760.2950 -7482.0419 299.5674 -9242.3370 -7482.0419 299.5674 15.6749 96.2849 30558.5122 15.6749 96.2849
ENERGY: 300000 2.0578 3.2328 2.8571 0.0000 -10668.9195 1360.1213 0.0000 0.0000 1756.8196 -7543.8308 298.9759 -9300.6504 -7528.2463 295.9086 -1025.8621 -961.0924 30503.0917 44.5356 127.7952
ENERGY: 600000 1.8694 8.1137 1.2518 0.0000 -10670.0761 1438.5029 0.0000 0.0000 1740.9527 -7479.3856 296.2757 -9220.3384 -7523.4675 296.8898 -149.8701 -110.3643 30589.9514 -28.4890 53.4630
ENERGY: 900000 3.0881 3.4974 4.5540 0.0000 -10702.3351 1414.3911 0.0000 0.0000 1781.4662 -7495.3383 303.1703 -9276.8045 -7522.6535 296.3890 121.6155 171.8294 29769.0814 -96.1147 -23.1027
ENERGY: 1200000 0.9843 1.5424 2.2438 0.0000 -10741.9101 1453.9863 0.0000 0.0000 1725.2470 -7557.9064 293.6029 -9283.1534 -7515.8664 297.0998 -322.9709 -294.8408 30977.5816 -189.5764 -119.0740
ENERGY: 1500000 1.2606 1.2064 6.6715 0.0000 -10653.4909 1402.1293 0.0000 0.0000 1786.5267 -7455.6963 304.0315 -9242.2230 -7505.4465 298.6830 -272.8917 -193.3727 30463.7737 -168.1838 -99.8621
TCL: Running FEP window  14: Lambda1 0.65   Lambda2 0.7000000000000001 [dLambda 0.050000000000000044]
TCL: Setting parameter firsttimestep to 0
TCL: Setting parameter alchLambda to 0.65
Info: NONBONDED TABLE R-SQUARED SPACING: 0.0625
Info: NONBONDED TABLE SIZE: 705 POINTS
TCL: Setting parameter alchLambda2 to 0.7000000000000001
Info: NONBONDED TABLE R-SQUARED SPACING: 0.0625
Info: NONBONDED TABLE SIZE: 705 POINTS
TCL: Running for 1500000 steps
ETITLE: TS BOND ANGLE DIHED IMPRP ELECT VDW BOUNDARY MISC KINETIC TOTAL TEMP POTENTIAL TOTALAVG TEMPAVG PRESSURE GPRESSURE VOLUME PRESSAVG GPRESSAVG
ENERGY: 0 1.2606 1.2064 6.6715 0.0000 -10653.5810 1402.1408 0.0000 0.0000 1785.6522 -7456.6494 303.8827 -9242.3017 -7456.6494 303.8827 -254.0775 -186.0090 30463.7737 -254.0775 -186.0090
ENERGY: 300000 0.9262 1.9190 2.0196 0.0000 -10747.3227 1490.5103 0.0000 0.0000 1822.6203 -7429.3273 310.1739 -9251.9476 -7421.6246 305.8006 248.3565 320.0813 30782.5357 -154.6317 -84.3970
ENERGY: 600000 1.4973 2.4866 1.7232 0.0000 -10834.6225 1500.1163 0.0000 0.0000 1794.6235 -7534.1756 305.4094 -9328.7991 -7461.2460 303.2303 491.8921 576.5934 29968.3480 -176.7534 -111.8831
ENERGY: 900000 3.7846 2.9865 2.3844 0.0000 -10699.8967 1483.2406 0.0000 0.0000 1750.2494 -7457.2511 297.8578 -9207.5005 -7465.2564 302.8911 363.8867 427.8265 30752.4145 -135.8516 -81.4959
ENERGY: 1200000 3.2472 2.7194 1.9336 0.0000 -10823.5135 1468.2259 0.0000 0.0000 1795.0713 -7552.3161 305.4856 -9347.3875 -7476.6655 303.0755 -180.4022 -104.9864 30540.7067 -73.9003 -17.3811
ENERGY: 1500000 1.1260 3.1477 4.4908 0.0000 -10580.7235 1362.4699 0.0000 0.0000 1725.4527 -7484.0364 293.6379 -9209.4891 -7481.5854 301.3595 -630.8639 -501.5340 30481.1023 -106.3277 -47.1672
TCL: Running FEP window  15: Lambda1 0.7000000000000001 Lambda2 0.7500000000000001 [dLambda 0.050000000000000044]
TCL: Setting parameter firsttimestep to 0
TCL: Setting parameter alchLambda to 0.7000000000000001
Info: NONBONDED TABLE R-SQUARED SPACING: 0.0625
Info: NONBONDED TABLE SIZE: 705 POINTS
TCL: Setting parameter alchLambda2 to 0.7500000000000001
Info: NONBONDED TABLE R-SQUARED SPACING: 0.0625
Info: NONBONDED TABLE SIZE: 705 POINTS
TCL: Running for 1500000 steps
ETITLE: TS BOND ANGLE DIHED IMPRP ELECT VDW BOUNDARY MISC KINETIC TOTAL TEMP POTENTIAL TOTALAVG TEMPAVG PRESSURE GPRESSURE VOLUME PRESSAVG GPRESSAVG
ENERGY: 0 1.1260 3.1477 4.4908 0.0000 -10582.3529 1362.8154 0.0000 0.0000 1724.5829 -7486.1901 293.4899 -9210.7730 -7486.1901 293.4899 -578.2152 -492.9029 30481.1023 -578.2152 -492.9029
ENERGY: 300000 3.6082 2.4194 5.8157 0.0000 -10638.9037 1335.9476 0.0000 0.0000 1754.1708 -7536.9420 298.5252 -9291.1128 -7542.9927 294.6526 -828.8014 -771.0096 30297.4633 -365.2181 -306.3587
ENERGY: 600000 3.8087 4.8825 2.7730 0.0000 -10796.5654 1437.0111 0.0000 0.0000 1774.4097 -7573.6804 301.9694 -9348.0900 -7529.4828 298.0085 -308.2290 -249.5484 30458.0855 -203.5770 -151.1958
ENERGY: 900000 1.1038 1.1599 2.5829 0.0000 -10668.0911 1418.7751 0.0000 0.0000 1786.4006 -7458.0686 304.0100 -9244.4693 -7524.0734 298.7476 -179.3905 -81.5681 30177.6937 -152.5573 -101.7995
ENERGY: 1200000 2.9521 3.8927 1.6780 0.0000 -10726.0303 1387.2352 0.0000 0.0000 1714.1686 -7616.1036 291.7176 -9330.2721 -7513.8522 299.3391 -615.2004 -532.4740 30194.4277 -184.3018 -137.1244
ENERGY: 1500000 3.2255 3.5228 6.2829 0.0000 -10717.2806 1396.6973 0.0000 0.0000 1783.0133 -7524.5390 303.4336 -9307.5522 -7508.6181 298.9698 -411.7808 -311.4687 30227.3468 -211.7406 -159.5082
TCL: Running FEP window  16: Lambda1 0.7500000000000001 Lambda2 0.8000000000000002 [dLambda 0.050000000000000044]
TCL: Setting parameter firsttimestep to 0
TCL: Setting parameter alchLambda to 0.7500000000000001
Info: NONBONDED TABLE R-SQUARED SPACING: 0.0625
Info: NONBONDED TABLE SIZE: 705 POINTS
TCL: Setting parameter alchLambda2 to 0.8000000000000002
Info: NONBONDED TABLE R-SQUARED SPACING: 0.0625
Info: NONBONDED TABLE SIZE: 705 POINTS
TCL: Running for 1500000 steps
ETITLE: TS BOND ANGLE DIHED IMPRP ELECT VDW BOUNDARY MISC KINETIC TOTAL TEMP POTENTIAL TOTALAVG TEMPAVG PRESSURE GPRESSURE VOLUME PRESSAVG GPRESSAVG
ENERGY: 0 3.2255 3.5228 6.2829 0.0000 -10718.3345 1396.8317 0.0000 0.0000 1782.0948 -7526.3769 303.2773 -9308.4717 -7526.3769 303.2773 -397.3013 -303.6346 30227.3468 -397.3013 -303.6346
ENERGY: 300000 5.9563 1.8641 1.2885 0.0000 -10612.8452 1445.4948 0.0000 0.0000 1766.7185 -7391.5229 300.6605 -9158.2414 -7462.8635 301.4222 228.2357 322.7998 30481.1915 -62.0704 -3.2615
ENERGY: 600000 2.5889 2.8082 2.2751 0.0000 -10857.6180 1508.8072 0.0000 0.0000 1751.0576 -7590.0809 297.9954 -9341.1386 -7508.1684 298.6377 326.8870 406.5344 30227.0560 187.0551 239.7604
ENERGY: 900000 1.3151 2.4371 3.4570 0.0000 -10575.2857 1352.8440 0.0000 0.0000 1719.4346 -7495.7979 292.6138 -9215.2326 -7504.2041 299.1820 -581.3157 -513.3826 30284.1675 196.1817 253.4763
ENERGY: 1200000 0.4502 3.0013 4.9778 0.0000 -10781.1310 1500.8842 0.0000 0.0000 1759.3018 -7512.5157 299.3984 -9271.8174 -7512.6528 299.0497 584.1753 678.5290 30078.9785 248.1990 310.9042
ENERGY: 1500000 3.3626 1.7227 3.3240 0.0000 -10838.2767 1514.3214 0.0000 0.0000 1781.8965 -7533.6495 303.2435 -9315.5460 -7505.5288 299.9963 298.1268 390.3171 30394.9198 215.9315 283.5940
TCL: Running FEP window  17: Lambda1 0.8000000000000002 Lambda2 0.8500000000000002 [dLambda 0.050000000000000044]
TCL: Setting parameter firsttimestep to 0
TCL: Setting parameter alchLambda to 0.8000000000000002
Info: NONBONDED TABLE R-SQUARED SPACING: 0.0625
Info: NONBONDED TABLE SIZE: 705 POINTS
TCL: Setting parameter alchLambda2 to 0.8500000000000002
Info: NONBONDED TABLE R-SQUARED SPACING: 0.0625
Info: NONBONDED TABLE SIZE: 705 POINTS
TCL: Running for 1500000 steps
ETITLE: TS BOND ANGLE DIHED IMPRP ELECT VDW BOUNDARY MISC KINETIC TOTAL TEMP POTENTIAL TOTALAVG TEMPAVG PRESSURE GPRESSURE VOLUME PRESSAVG GPRESSAVG
ENERGY: 0 3.3626 1.7227 3.3240 0.0000 -10838.2440 1513.8096 0.0000 0.0000 1781.0182 -7535.0070 303.0940 -9316.0252 -7535.0070 303.0940 322.6109 394.0417 30394.9198 322.6109 394.0417
ENERGY: 300000 1.8803 2.3103 3.4722 0.0000 -10700.8344 1411.6645 0.0000 0.0000 1739.6273 -7541.8798 296.0501 -9281.5072 -7495.6345 301.2766 -299.5315 -214.2809 30269.2209 179.1841 245.1551
ENERGY: 600000 3.6699 3.5472 4.0220 0.0000 -10839.0878 1537.8326 0.0000 0.0000 1747.5825 -7542.4336 297.4040 -9290.0161 -7525.2746 299.6538 783.9138 811.2751 29893.2702 249.2811 302.4082
ENERGY: 900000 2.5900 4.8838 3.3905 0.0000 -10753.4440 1482.9329 0.0000 0.0000 1753.2264 -7506.4204 298.3644 -9259.6468 -7517.9688 299.4781 230.2367 239.0700 30680.3007 190.3514 236.3785
ENERGY: 1200000 1.2501 3.7980 2.7297 0.0000 -10464.5638 1298.9377 0.0000 0.0000 1791.4264 -7366.4220 304.8653 -9157.8484 -7506.7525 300.2276 -1051.5588 -978.3371 31141.7911 65.1048 116.8974
ENERGY: 1500000 3.8966 1.9561 1.2684 0.0000 -10687.3816 1369.6574 0.0000 0.0000 1772.1708 -7538.4323 301.5884 -9310.6031 -7500.4067 301.1403 -537.0265 -486.5977 30469.7793 42.2705 96.5498
TCL: Running FEP window  18: Lambda1 0.8500000000000002 Lambda2 0.9000000000000002 [dLambda 0.050000000000000044]
TCL: Setting parameter firsttimestep to 0
TCL: Setting parameter alchLambda to 0.8500000000000002
Info: NONBONDED TABLE R-SQUARED SPACING: 0.0625
Info: NONBONDED TABLE SIZE: 705 POINTS
TCL: Setting parameter alchLambda2 to 0.9000000000000002
Info: NONBONDED TABLE R-SQUARED SPACING: 0.0625
Info: NONBONDED TABLE SIZE: 705 POINTS
TCL: Running for 1500000 steps
ETITLE: TS BOND ANGLE DIHED IMPRP ELECT VDW BOUNDARY MISC KINETIC TOTAL TEMP POTENTIAL TOTALAVG TEMPAVG PRESSURE GPRESSURE VOLUME PRESSAVG GPRESSAVG
ENERGY: 0 3.8966 1.9561 1.2684 0.0000 -10687.6867 1369.6064 0.0000 0.0000 1771.3015 -7539.6576 301.4405 -9310.9592 -7539.6576 301.4405 -565.1517 -477.3459 30469.7793 -565.1517 -477.3459
ENERGY: 300000 0.9742 5.7474 4.9833 0.0000 -10709.4841 1457.1334 0.0000 0.0000 1810.1592 -7430.4866 308.0533 -9240.6457 -7507.8087 300.4628 -15.0123 79.3098 30623.6222 -131.2568 -59.0788
ENERGY: 600000 2.6593 2.3575 3.7636 0.0000 -10554.7765 1302.2965 0.0000 0.0000 1716.0111 -7527.6885 292.0311 -9243.6996 -7507.1467 300.0186 -1025.8501 -873.3156 30193.4360 -301.5770 -201.8888
ENERGY: 900000 6.1776 1.0148 4.9287 0.0000 -10789.5435 1472.0865 0.0000 0.0000 1815.3354 -7490.0006 308.9342 -9305.3359 -7497.7551 302.1151 256.9350 268.8530 30218.5038 -199.6135 -119.1109
ENERGY: 1200000 2.0339 4.1652 2.2928 0.0000 -10816.4471 1477.0772 0.0000 0.0000 1758.6476 -7572.2304 299.2870 -9330.8780 -7504.0327 301.1985 -98.7890 7.2763 30476.3366 -211.6821 -134.4667
ENERGY: 1500000 2.1291 3.0350 3.0137 0.0000 -10669.0836 1424.5329 0.0000 0.0000 1777.2057 -7459.1672 302.4452 -9236.3729 -7498.1017 301.1952 189.5329 277.7215 30201.3416 -191.9760 -109.3856
TCL: Running FEP window  19: Lambda1 0.9000000000000002 Lambda2 0.9500000000000003 [dLambda 0.050000000000000044]
TCL: Setting parameter firsttimestep to 0
TCL: Setting parameter alchLambda to 0.9000000000000002
Info: NONBONDED TABLE R-SQUARED SPACING: 0.0625
Info: NONBONDED TABLE SIZE: 705 POINTS
TCL: Setting parameter alchLambda2 to 0.9500000000000003
Info: NONBONDED TABLE R-SQUARED SPACING: 0.0625
Info: NONBONDED TABLE SIZE: 705 POINTS
TCL: Running for 1500000 steps
ETITLE: TS BOND ANGLE DIHED IMPRP ELECT VDW BOUNDARY MISC KINETIC TOTAL TEMP POTENTIAL TOTALAVG TEMPAVG PRESSURE GPRESSURE VOLUME PRESSAVG GPRESSAVG
ENERGY: 0 2.1291 3.0350 3.0137 0.0000 -10669.7887 1424.3128 0.0000 0.0000 1776.3459 -7460.9522 302.2989 -9237.2981 -7460.9522 302.2989 200.8745 282.9850 30201.3416 200.8745 282.9850
ENERGY: 300000 1.3095 2.7328 2.4468 0.0000 -10665.6312 1444.0604 0.0000 0.0000 1779.5837 -7435.4981 302.8499 -9215.0818 -7478.4565 301.7161 68.1243 140.4605 30479.6155 -32.6696 46.0943
ENERGY: 600000 1.2195 3.3928 3.7177 0.0000 -10583.4492 1311.3655 0.0000 0.0000 1730.2284 -7533.5252 294.4506 -9263.7536 -7491.2589 299.1114 -1013.6511 -984.7100 30612.5332 -119.9879 -60.3131
ENERGY: 900000 1.9768 3.5983 2.5771 0.0000 -10819.5075 1506.3017 0.0000 0.0000 1758.8393 -7546.2143 299.3196 -9305.0536 -7511.1361 299.5538 391.1264 457.2773 30195.8560 -5.2032 57.0572
ENERGY: 1200000 1.8822 2.8440 1.5196 0.0000 -10710.6759 1432.1320 0.0000 0.0000 1734.1352 -7538.1629 295.1155 -9272.2981 -7518.2193 298.4546 -118.9523 -112.2614 30474.4685 -83.5009 -18.2101
ENERGY: 1500000 1.9551 2.1748 1.7136 0.0000 -10715.0100 1472.5910 0.0000 0.0000 1753.2380 -7483.3374 298.3664 -9236.5755 -7516.6135 298.6299 300.4145 253.8196 30605.2912 -87.3357 -28.9214
TCL: Running FEP window  20: Lambda1 0.9500000000000003 Lambda2 1.0    [dLambda 0.04999999999999971]
TCL: Setting parameter firsttimestep to 0
TCL: Setting parameter alchLambda to 0.9500000000000003
Info: NONBONDED TABLE R-SQUARED SPACING: 0.0625
Info: NONBONDED TABLE SIZE: 705 POINTS
TCL: Setting parameter alchLambda2 to 1.0
Info: NONBONDED TABLE R-SQUARED SPACING: 0.0625
Info: NONBONDED TABLE SIZE: 705 POINTS
TCL: Running for 1500000 steps
ETITLE: TS BOND ANGLE DIHED IMPRP ELECT VDW BOUNDARY MISC KINETIC TOTAL TEMP POTENTIAL TOTALAVG TEMPAVG PRESSURE GPRESSURE VOLUME PRESSAVG GPRESSAVG
ENERGY: 0 1.9551 2.1748 1.7136 0.0000 -10715.9089 1473.1716 0.0000 0.0000 1752.3903 -7484.5035 298.2222 -9236.8938 -7484.5035 298.2222 188.3902 269.6249 30605.2912 188.3902 269.6249
ENERGY: 300000 0.6803 1.8116 1.8644 0.0000 -10610.8767 1439.5967 0.0000 0.0000 1728.5235 -7438.4003 294.1605 -9166.9237 -7456.3940 297.4979 219.9802 227.5172 30865.9487 272.3016 327.1248
ENERGY: 600000 3.5800 3.0627 2.0852 0.0000 -10672.9195 1387.3007 0.0000 0.0000 1749.5338 -7527.3571 297.7360 -9276.8909 -7485.1497 296.5853 -712.7144 -701.7988 30818.9769 -112.2319 -66.8490
ENERGY: 900000 2.2219 3.0392 2.2993 0.0000 -10722.0150 1407.0007 0.0000 0.0000 1734.2895 -7573.1645 295.1418 -9307.4540 -7487.6074 296.9417 -486.2524 -406.9359 30210.3383 -132.3837 -76.9848
ENERGY: 1200000 1.9088 2.2532 7.0050 0.0000 -10662.3307 1458.0413 0.0000 0.0000 1754.9493 -7438.1733 298.6576 -9193.1225 -7497.2849 296.2603 214.3964 287.5720 30635.5520 -129.3621 -61.2449
ENERGY: 1500000 0.8311 5.6213 1.9076 0.0000 -10519.1030 1333.8700 0.0000 0.0000 1821.5405 -7355.3326 309.9901 -9176.8730 -7487.8991 298.0706 -570.1384 -514.6428 30378.5445 -127.5337 -63.5779
TCL: Exiting due to exit command.
