Info: SIMULATION PARAMETERS:
Info: TIMESTEP               2
Info: NUMBER OF STEPS        0
Info: STEPS PER CYCLE        10
Info: PERIODIC CELL BASIS 1  32.1006 0 0
Info: PERIODIC CELL BASIS 2  0 30.1709 0
Info: PERIODIC CELL BASIS 3  0 0 32.028
Info: PERIODIC CELL CENTER   0 0 0
Info: WRAPPING WATERS AROUND PERIODIC BOUNDARIES ON OUTPUT.
Info: WRAPPING ALL CLUSTERS AROUND PERIODIC BOUNDARIES ON OUTPUT.
Info: FIRST LDB TIMESTEP     50
Info: LAST LDB TIMESTEP     -1
Info: HOM BACKGROUND SCALING 1
Info: PME BACKGROUND SCALING 1
Info: MIN ATOMS PER PATCH    40
Info: EMPTY PATCH LOAD       40 ATOMS
Info: VELOCITY FILE          mobley_1855337_equil.vel
Info: CENTER OF MASS MOVING INITIALLY? NO
Info: DIELECTRIC             1
Info: EXCLUDE                SCALED ONE-FOUR
Info: 1-4 ELECTROSTATICS SCALED BY 0.833333
Info: MODIFIED 1-4 VDW PARAMETERS WILL BE USED
Info: DCD FILENAME           mobley_1855337_prod.dcd
Info: DCD FREQUENCY          100000
Info: DCD FIRST STEP         100000
Info: DCD FILE WILL CONTAIN UNIT CELL DATA
Info: XST FILENAME           mobley_1855337_prod.xst
Info: XST FREQUENCY          100000
Info: NO VELOCITY DCD OUTPUT
Info: NO FORCE DCD OUTPUT
Info: OUTPUT FILENAME        mobley_1855337_prod
Info: BINARY OUTPUT FILES WILL BE USED
Info: RESTART FILENAME       mobley_1855337_prod.restart
Info: RESTART FREQUENCY      100000
Info: BINARY RESTART FILES WILL BE USED
Info: CUTOFF                 9
Info: PAIRLIST DISTANCE      11
Info: PAIRLIST SHRINK RATE   0.01
Info: PAIRLIST GROW RATE     0.01
Info: PAIRLIST TRIGGER       0.3
Info: PAIRLISTS PER CYCLE    2
Info: PAIRLISTS ENABLED
Info: MARGIN                 2
Info: HYDROGEN GROUP CUTOFF  2.5
Info: PATCH DIMENSION        15.5
Info: ENERGY OUTPUT STEPS    100000
Info: ENERGY EVALUATION STEPS    100000
Info: OUTPUT ENERGY PRECISION 4
Info: CROSSTERM ENERGY INCLUDED IN DIHEDRAL
Info: TIMING OUTPUT STEPS    1000000
Info: PRESSURE OUTPUT STEPS  100000
Info: ALCHEMICAL FEP ON
Info: FEP CURRENT LAMBDA VALUE     0
Info: FEP COMPARISON LAMBDA VALUE  0.05
Info: FEP INTRA-ALCHEMICAL NON-BONDED INTERACTIONS WILL BE RETAINED
Info: FEP INTRA-ALCHEMICAL BONDED INTERACTIONS WILL BE RETAINED
Info: FEP VDW SHIFTING COEFFICIENT 5
Info: FEP ELEC. ACTIVE FOR ANNIHILATED PARTICLES BETWEEN LAMBDA = 0 AND LAMBDA = 0.5
Info: FEP ELEC. ACTIVE FOR EXNIHILATED PARTICLES BETWEEN LAMBDA = 0.5 AND LAMBDA = 1
Info: FEP VDW ACTIVE FOR ANNIHILATED PARTICLES BETWEEN LAMBDA = 0 AND LAMBDA = 1
Info: FEP VDW ACTIVE FOR EXNIHILATED PARTICLES BETWEEN LAMBDA = 0 AND LAMBDA = 1
Info: FEP BOND ACTIVE FOR ANNIHILATED PARTICLES BETWEEN LAMBDA = 1 AND LAMBDA = 1
Info: FEP BOND ACTIVE FOR EXNIHILATED PARTICLES BETWEEN LAMBDA = 0 AND LAMBDA = 0
Info: LANGEVIN DYNAMICS ACTIVE
Info: LANGEVIN TEMPERATURE   300
Info: LANGEVIN USING BBK INTEGRATOR
Info: LANGEVIN DAMPING COEFFICIENT IS 1 INVERSE PS
Info: LANGEVIN DYNAMICS APPLIED TO HYDROGENS
Info: LANGEVIN PISTON PRESSURE CONTROL ACTIVE
Info:        TARGET PRESSURE IS 1.01325 BAR
Info:     OSCILLATION PERIOD IS 50 FS
Info:             DECAY TIME IS 25 FS
Info:     PISTON TEMPERATURE IS 300 K
Info:       PRESSURE CONTROL IS GROUP-BASED
Info:    INITIAL STRAIN RATE IS -0.000169821 -0.000169821 -0.000169821
Info:       CELL FLUCTUATION IS ISOTROPIC
Info: PARTICLE MESH EWALD (PME) ACTIVE
Info: PME TOLERANCE               1e-06
Info: PME EWALD COEFFICIENT       0.348832
Info: PME INTERPOLATION ORDER     4
Info: PME GRID DIMENSIONS         36 32 36
Info: PME MAXIMUM GRID SPACING    1
Info: PME CALCULATION WILL BE PERFORMED ON GPU
Info: FULL ELECTROSTATIC EVALUATION FREQUENCY      2
Info: USING VERLET I (r-RESPA) MTS SCHEME.
Info: C1 SPLITTING OF LONG RANGE ELECTROSTATICS
Info: PLACING ATOMS IN PATCHES BY HYDROGEN GROUPS
Info: RIGID BONDS TO HYDROGEN : ALL
Info:         ERROR TOLERANCE : 1e-08
Info:          MAX ITERATIONS : 100
Info: RIGID WATER USING SETTLE ALGORITHM
Info: RANDOM NUMBER SEED     1743519030
Info: USE HYDROGEN BONDS?    NO
Info: Using AMBER format force field!
Info: AMBER PARM FILE        mobley_1855337.prmtop
Info: COORDINATE PDB         mobley_1855337.pdb
Info: Exclusions will be read from PARM file!
Info: SCNB (VDW SCALING)     2
Info: USING ARITHMETIC MEAN TO COMBINE L-J SIGMA PARAMETERS
Info: BINARY COORDINATES     mobley_1855337_equil.coor
Info: SUMMARY OF PARAMETERS:
Info: 5 BONDS
Info: 3 ANGLES
Info:   3 HARMONIC
Info:   0 COSINE-BASED
Info: 2 DIHEDRAL
Info: 0 IMPROPER
Info: 0 CROSSTERM
Info: 0 VDW
Info: 15 VDW_PAIRS
Info: 0 NBTHOLE_PAIRS
Info: To read alchdata from file: mobley_1855337.pdb
Info: To read alchflag data from column: 5
Info: STRUCTURE SUMMARY:
Info: 2982 ATOMS
Info: 2982 BONDS
Info: 18 ANGLES
Info: 30 DIHEDRALS
Info: 0 IMPROPERS
Info: 0 CROSSTERMS
Info: 3021 EXCLUSIONS
Info: 2972 RIGID BONDS
Info: ALCH: 0 ATOMS TO DISAPPEAR IN FINAL STATE
Info: ALCH: 12 ATOMS TO APPEAR IN FINAL STATE
Info: 5974 DEGREES OF FREEDOM
Info: 1000 HYDROGEN GROUPS
Info: 3 ATOMS IN LARGEST HYDROGEN GROUP
Info: 1000 MIGRATION GROUPS
Info: 3 ATOMS IN LARGEST MIGRATION GROUP
Info: TOTAL MASS = 18051.7 amu
Info: TOTAL CHARGE = 0.000199986 e
Info: MASS DENSITY = 0.966378 g/cm^3
Info: ATOM DENSITY = 0.096134 atoms/A^3
Info: ADDED 0 IMPLICIT EXCLUSIONS
Info: NONBONDED TABLE R-SQUARED SPACING: 0.0625
Info: NONBONDED TABLE SIZE: 705 POINTS
Info: REMOVING COM VELOCITY 0.0698244 -0.0128066 0.0366273
Info: Use 3D box decompostion in PME FFT.
Info: Updated CUDA force table with 4096 elements.
Info: Updated CUDA LJ table with 5 x 5 elements.
Info: Found 15 unique exclusion lists needing 28 bytes
TCL: Running for 1500000 steps
ETITLE: TS BOND ANGLE DIHED IMPRP ELECT VDW BOUNDARY MISC KINETIC TOTAL TEMP POTENTIAL TOTALAVG TEMPAVG PRESSURE GPRESSURE VOLUME PRESSAVG GPRESSAVG
ENERGY: 0 2.7237 2.8655 1.7940 0.0000 -10735.6986 1456.4632 0.0000 0.0000 1813.1204 -7458.7318 305.4582 -9271.8521 -7458.7318 305.4582 -148.2389 -66.5707 31019.2173 -148.2389 -66.5707
ENERGY: 300000 1.5198 1.6654 1.6058 0.0000 -10884.9125 1478.4538 0.0000 0.0000 1785.6966 -7615.9712 300.8381 -9401.6678 -7570.3937 301.3455 31.9073 58.8543 30614.8925 -84.2254 -48.9569
ENERGY: 600000 5.3106 2.8765 3.3091 0.0000 -10882.5947 1450.7804 0.0000 0.0000 1791.0419 -7629.2762 301.7386 -9420.3180 -7579.5041 300.2221 -451.7622 -350.6841 30441.6591 -174.2420 -110.7636
ENERGY: 900000 3.2631 3.6395 2.2489 0.0000 -10874.2532 1500.9700 0.0000 0.0000 1781.2568 -7582.8748 300.0901 -9364.1316 -7577.1004 300.6524 195.4553 322.4173 30341.5357 -101.0984 -37.2249
ENERGY: 1200000 3.4280 1.0190 1.4221 0.0000 -10783.6073 1447.8833 0.0000 0.0000 1821.3381 -7508.5168 306.8427 -9329.8549 -7575.4178 300.1743 33.6120 71.2296 30688.2974 -57.8527 -2.7006
ENERGY: 1500000 1.2894 1.1073 2.6795 0.0000 -10682.1182 1328.1767 0.0000 0.0000 1819.0163 -7529.8490 306.4515 -9348.8653 -7576.3050 299.9394 -941.1996 -906.2665 30756.1550 -130.5006 -73.5019
TCL: Running FEP window   2: Lambda1 0.05   Lambda2 0.1    [dLambda 0.05  ]
TCL: Setting parameter firsttimestep to 0
TCL: Setting parameter alchLambda to 0.05
Info: NONBONDED TABLE R-SQUARED SPACING: 0.0625
Info: NONBONDED TABLE SIZE: 705 POINTS
TCL: Setting parameter alchLambda2 to 0.1
Info: NONBONDED TABLE R-SQUARED SPACING: 0.0625
Info: NONBONDED TABLE SIZE: 705 POINTS
TCL: Running for 1500000 steps
ETITLE: TS BOND ANGLE DIHED IMPRP ELECT VDW BOUNDARY MISC KINETIC TOTAL TEMP POTENTIAL TOTALAVG TEMPAVG PRESSURE GPRESSURE VOLUME PRESSAVG GPRESSAVG
ENERGY: 0 1.2894 1.1073 2.6795 0.0000 -10682.1177 1334.9454 0.0000 0.0000 1818.1225 -7523.9737 306.3009 -9342.0962 -7523.9737 306.3009 -977.2779 -893.1281 30756.1550 -977.2779 -893.1281
ENERGY: 300000 1.2696 1.1688 1.8452 0.0000 -10839.6669 1476.7074 0.0000 0.0000 1737.5066 -7621.1692 292.7195 -9358.6758 -7542.7296 300.3865 298.2493 365.4810 30241.6753 -555.6496 -469.9288
ENERGY: 600000 4.4737 1.9813 1.5176 0.0000 -10838.0328 1445.4597 0.0000 0.0000 1762.2551 -7622.3454 296.8889 -9384.6005 -7554.0079 300.1974 -265.0841 -223.7890 30728.2328 -567.5414 -498.4730
ENERGY: 900000 3.6513 0.9796 2.8149 0.0000 -10758.4866 1473.9159 0.0000 0.0000 1753.6964 -7523.4286 295.4470 -9277.1250 -7547.2967 301.3746 -17.0326 42.2762 31262.1135 -240.9264 -178.1676
ENERGY: 1200000 1.3021 3.5823 2.8565 0.0000 -10886.1880 1464.5485 0.0000 0.0000 1773.0315 -7640.8672 298.7044 -9413.8987 -7555.8738 301.6464 -154.9206 -102.3098 30426.4080 -207.5813 -136.8788
ENERGY: 1500000 4.8744 4.5066 2.8510 0.0000 -10836.2130 1478.1254 0.0000 0.0000 1776.8234 -7569.0322 299.3432 -9345.8556 -7551.6291 301.0189 -70.1795 -12.7180 30883.1076 -193.9529 -129.7196
TCL: Running FEP window   3: Lambda1 0.1    Lambda2 0.15000000000000002 [dLambda 0.05000000000000002]
TCL: Setting parameter firsttimestep to 0
TCL: Setting parameter alchLambda to 0.1
Info: NONBONDED TABLE R-SQUARED SPACING: 0.0625
Info: NONBONDED TABLE SIZE: 705 POINTS
TCL: Setting parameter alchLambda2 to 0.15000000000000002
Info: NONBONDED TABLE R-SQUARED SPACING: 0.0625
Info: NONBONDED TABLE SIZE: 705 POINTS
TCL: Running for 1500000 steps
ETITLE: TS BOND ANGLE DIHED IMPRP ELECT VDW BOUNDARY MISC KINETIC TOTAL TEMP POTENTIAL TOTALAVG TEMPAVG PRESSURE GPRESSURE VOLUME PRESSAVG GPRESSAVG
ENERGY: 0 4.8744 4.5066 2.8510 0.0000 -10836.2122 1479.7917 0.0000 0.0000 1775.9529 -7568.2355 299.1966 -9344.1884 -7568.2355 299.1966 -91.8267 -5.0753 30883.1076 -91.8267 -5.0753
ENERGY: 300000 2.2729 3.0070 4.7654 0.0000 -10848.2923 1499.2838 0.0000 0.0000 1839.0471 -7499.9161 309.8261 -9338.9632 -7558.5471 300.2196 81.8179 172.4956 30723.8580 -259.4892 -197.2279
ENERGY: 600000 1.9583 1.3900 0.5769 0.0000 -10768.5762 1452.0794 0.0000 0.0000 1737.7783 -7574.7934 292.7652 -9312.5717 -7569.9884 298.5571 -134.2934 -63.5803 31179.5177 -240.8333 -176.9542
ENERGY: 900000 2.6736 2.4898 0.6030 0.0000 -10905.8339 1516.8300 0.0000 0.0000 1759.3694 -7623.8682 296.4027 -9383.2376 -7575.4432 298.7963 409.4181 477.7844 30423.7971 -165.2648 -104.2945
ENERGY: 1200000 7.9862 3.8271 3.3840 0.0000 -10737.6367 1471.5111 0.0000 0.0000 1802.9458 -7447.9825 303.7441 -9250.9283 -7563.2725 299.3174 204.5879 239.9287 30849.5744 -65.1665 -5.9680
ENERGY: 1500000 3.1214 3.2624 2.3816 0.0000 -10825.0084 1522.1760 0.0000 0.0000 1845.4081 -7448.6589 310.8978 -9294.0670 -7547.4489 300.7568 629.0200 673.5791 30872.4648 -104.5224 -47.0573
TCL: Running FEP window   4: Lambda1 0.15000000000000002 Lambda2 0.2    [dLambda 0.04999999999999999]
TCL: Setting parameter firsttimestep to 0
TCL: Setting parameter alchLambda to 0.15000000000000002
Info: NONBONDED TABLE R-SQUARED SPACING: 0.0625
Info: NONBONDED TABLE SIZE: 705 POINTS
TCL: Setting parameter alchLambda2 to 0.2
Info: NONBONDED TABLE R-SQUARED SPACING: 0.0625
Info: NONBONDED TABLE SIZE: 705 POINTS
TCL: Running for 1500000 steps
ETITLE: TS BOND ANGLE DIHED IMPRP ELECT VDW BOUNDARY MISC KINETIC TOTAL TEMP POTENTIAL TOTALAVG TEMPAVG PRESSURE GPRESSURE VOLUME PRESSAVG GPRESSAVG
ENERGY: 0 3.1214 3.2624 2.3816 0.0000 -10825.0088 1523.0077 0.0000 0.0000 1844.4931 -7448.7426 310.7436 -9293.2357 -7448.7426 310.7436 588.1981 682.2352 30872.4648 588.1981 682.2352
ENERGY: 300000 2.1040 3.8606 1.5161 0.0000 -10741.8898 1402.7318 0.0000 0.0000 1821.0286 -7510.6487 306.7905 -9331.6773 -7509.3048 305.4898 -434.6579 -369.6292 30673.6632 157.5400 225.7579
ENERGY: 600000 5.6333 3.3514 1.9669 0.0000 -10938.9322 1535.9617 0.0000 0.0000 1779.8326 -7612.1863 299.8502 -9392.0189 -7537.6589 304.4040 635.6473 724.1562 30192.6607 474.2889 533.2329
ENERGY: 900000 2.6862 1.7731 1.0857 0.0000 -10837.8342 1411.4985 0.0000 0.0000 1838.4045 -7582.3862 309.7179 -9420.7907 -7538.9997 303.3850 -316.6503 -224.6998 30030.1070 453.4558 512.6287
ENERGY: 1200000 2.3871 3.1943 3.2753 0.0000 -10730.5549 1421.6756 0.0000 0.0000 1802.5323 -7497.4902 303.6744 -9300.0225 -7539.1307 303.3032 -395.4834 -301.6743 31369.2350 301.6104 369.4176
ENERGY: 1500000 4.7725 2.8115 3.0074 0.0000 -10786.4193 1370.9862 0.0000 0.0000 1805.4329 -7599.4086 304.1631 -9404.8416 -7553.2410 302.8931 -1073.3778 -952.6643 30731.5912 215.2585 282.0692
TCL: Running FEP window   5: Lambda1 0.2    Lambda2 0.25   [dLambda 0.04999999999999999]
TCL: Setting parameter firsttimestep to 0
TCL: Setting parameter alchLambda to 0.2
Info: NONBONDED TABLE R-SQUARED SPACING: 0.0625
Info: NONBONDED TABLE SIZE: 705 POINTS
TCL: Setting parameter alchLambda2 to 0.25
Info: NONBONDED TABLE R-SQUARED SPACING: 0.0625
Info: NONBONDED TABLE SIZE: 705 POINTS
TCL: Running for 1500000 steps
ETITLE: TS BOND ANGLE DIHED IMPRP ELECT VDW BOUNDARY MISC KINETIC TOTAL TEMP POTENTIAL TOTALAVG TEMPAVG PRESSURE GPRESSURE VOLUME PRESSAVG GPRESSAVG
ENERGY: 0 4.7725 2.8115 3.0074 0.0000 -10786.4206 1372.1153 0.0000 0.0000 1804.5566 -7599.1572 304.0155 -9403.7138 -7599.1572 304.0155 -1023.7502 -939.6772 30731.5912 -1023.7502 -939.6772
ENERGY: 300000 4.1381 1.9585 2.3057 0.0000 -10820.1093 1463.0248 0.0000 0.0000 1747.3291 -7601.3531 294.3743 -9348.6822 -7561.5380 298.2312 25.3515 116.3603 30295.4321 -52.1617 21.4400
ENERGY: 600000 1.2342 2.0718 2.7882 0.0000 -10879.5356 1491.5425 0.0000 0.0000 1755.1207 -7626.7781 295.6870 -9381.8989 -7566.0067 298.0618 103.6900 246.7781 30547.2405 -218.9895 -113.1510
ENERGY: 900000 3.5474 2.2455 1.7631 0.0000 -10761.3037 1401.7654 0.0000 0.0000 1813.2762 -7538.7061 305.4845 -9351.9823 -7551.3918 299.3754 -525.3755 -462.5920 30599.2102 -188.8130 -105.0672
ENERGY: 1200000 4.5081 1.0194 4.7384 0.0000 -10742.0150 1402.2421 0.0000 0.0000 1810.7369 -7518.7701 305.0567 -9329.5070 -7551.0450 300.6944 -627.5688 -570.8138 31296.8858 -170.3871 -86.5565
ENERGY: 1500000 7.6238 3.4468 1.9079 0.0000 -10856.8781 1423.4732 0.0000 0.0000 1794.5338 -7625.8927 302.3269 -9420.4265 -7549.6849 301.7475 -149.2930 -83.1593 30057.2012 -227.4557 -143.2875
TCL: Running FEP window   6: Lambda1 0.25   Lambda2 0.3    [dLambda 0.04999999999999999]
TCL: Setting parameter firsttimestep to 0
TCL: Setting parameter alchLambda to 0.25
Info: NONBONDED TABLE R-SQUARED SPACING: 0.0625
Info: NONBONDED TABLE SIZE: 705 POINTS
TCL: Setting parameter alchLambda2 to 0.3
Info: NONBONDED TABLE R-SQUARED SPACING: 0.0625
Info: NONBONDED TABLE SIZE: 705 POINTS
TCL: Running for 1500000 steps
ETITLE: TS BOND ANGLE DIHED IMPRP ELECT VDW BOUNDARY MISC KINETIC TOTAL TEMP POTENTIAL TOTALAVG TEMPAVG PRESSURE GPRESSURE VOLUME PRESSAVG GPRESSAVG
ENERGY: 0 7.6238 3.4468 1.9079 0.0000 -10856.8787 1423.8446 0.0000 0.0000 1793.6286 -7626.4271 302.1744 -9420.0557 -7626.4271 302.1744 -165.2636 -76.2758 30057.2012 -165.2636 -76.2758
ENERGY: 300000 2.7248 3.5371 2.8313 0.0000 -10689.4597 1398.0260 0.0000 0.0000 1794.3141 -7488.0264 302.2899 -9282.3405 -7559.1522 299.6122 -91.6576 -67.0254 30259.6294 -318.9244 -265.7906
ENERGY: 600000 2.4664 1.8925 1.8642 0.0000 -10679.3098 1406.6081 0.0000 0.0000 1798.7175 -7467.7612 303.0317 -9266.4787 -7535.7750 302.3102 -46.5216 7.4199 30375.1677 -69.7098 -11.2698
ENERGY: 900000 3.1040 3.4955 3.1468 0.0000 -10827.2374 1414.8865 0.0000 0.0000 1735.8065 -7666.7982 292.4331 -9402.6047 -7558.8419 301.8834 -402.2769 -356.7371 30274.8654 -54.5338 -8.9832
ENERGY: 1200000 4.7198 2.1435 2.7131 0.0000 -10869.2481 1524.1911 0.0000 0.0000 1804.2555 -7531.2251 303.9647 -9335.4807 -7566.2584 300.2963 622.6017 706.4210 30394.2133 -85.6518 -30.5267
ENERGY: 1500000 4.1570 3.0266 5.3525 0.0000 -10846.9663 1472.6824 0.0000 0.0000 1782.0935 -7579.6542 300.2311 -9361.7478 -7556.4945 300.6358 -8.1942 42.3916 30698.2011 -40.1876 14.0737
TCL: Running FEP window   7: Lambda1 0.3    Lambda2 0.35   [dLambda 0.04999999999999999]
TCL: Setting parameter firsttimestep to 0
TCL: Setting parameter alchLambda to 0.3
Info: NONBONDED TABLE R-SQUARED SPACING: 0.0625
Info: NONBONDED TABLE SIZE: 705 POINTS
TCL: Setting parameter alchLambda2 to 0.35
Info: NONBONDED TABLE R-SQUARED SPACING: 0.0625
Info: NONBONDED TABLE SIZE: 705 POINTS
TCL: Running for 1500000 steps
ETITLE: TS BOND ANGLE DIHED IMPRP ELECT VDW BOUNDARY MISC KINETIC TOTAL TEMP POTENTIAL TOTALAVG TEMPAVG PRESSURE GPRESSURE VOLUME PRESSAVG GPRESSAVG
ENERGY: 0 4.1570 3.0266 5.3525 0.0000 -10846.9669 1473.0658 0.0000 0.0000 1781.1985 -7580.1664 300.0803 -9361.3650 -7580.1664 300.0803 -25.6073 50.3256 30698.2011 -25.6073 50.3256
ENERGY: 300000 0.9952 2.1996 2.8220 0.0000 -10768.6355 1372.8663 0.0000 0.0000 1808.5763 -7581.1761 304.6927 -9389.7524 -7562.1032 301.3781 -544.6405 -485.1020 30561.9878 -264.2638 -167.8537
ENERGY: 600000 5.1091 1.3521 2.7785 0.0000 -10729.5016 1370.5020 0.0000 0.0000 1794.5197 -7555.2403 302.3245 -9349.7600 -7549.0376 301.4044 -931.6072 -843.7212 30979.7724 -262.2347 -181.9150
ENERGY: 900000 1.9787 1.5250 0.6577 0.0000 -10859.2986 1507.5068 0.0000 0.0000 1772.4746 -7575.1559 298.6106 -9347.6305 -7567.0495 300.5828 505.4184 517.2335 30783.6833 -145.4752 -71.0432
ENERGY: 1200000 2.5376 3.0919 0.9668 0.0000 -10903.6675 1448.0644 0.0000 0.0000 1788.1977 -7660.8091 301.2595 -9449.0068 -7568.6128 300.8539 -395.9876 -318.1323 30475.2620 -183.7307 -110.4681
ENERGY: 1500000 2.8018 2.8814 1.6996 0.0000 -10709.5483 1409.4506 0.0000 0.0000 1815.8436 -7476.8713 305.9170 -9292.7150 -7554.8774 301.1656 -291.7091 -246.2990 31054.8600 -182.2757 -112.5713
TCL: Running FEP window   8: Lambda1 0.35   Lambda2 0.39999999999999997 [dLambda 0.04999999999999999]
TCL: Setting parameter firsttimestep to 0
TCL: Setting parameter alchLambda to 0.35
Info: NONBONDED TABLE R-SQUARED SPACING: 0.0625
Info: NONBONDED TABLE SIZE: 705 POINTS
TCL: Setting parameter alchLambda2 to 0.39999999999999997
Info: NONBONDED TABLE R-SQUARED SPACING: 0.0625
Info: NONBONDED TABLE SIZE: 705 POINTS
TCL: Running for 1500000 steps
ETITLE: TS BOND ANGLE DIHED IMPRP ELECT VDW BOUNDARY MISC KINETIC TOTAL TEMP POTENTIAL TOTALAVG TEMPAVG PRESSURE GPRESSURE VOLUME PRESSAVG GPRESSAVG
ENERGY: 0 2.8018 2.8814 1.6996 0.0000 -10709.5500 1409.1656 0.0000 0.0000 1814.9371 -7478.0646 305.7643 -9293.0016 -7478.0646 305.7643 -315.9624 -244.5655 31054.8600 -315.9624 -244.5655
ENERGY: 300000 2.3525 3.3137 1.1148 0.0000 -10761.4803 1408.8802 0.0000 0.0000 1834.2118 -7511.6071 309.0115 -9345.8189 -7521.9802 304.0816 -64.0849 -16.8884 30577.3138 -250.4428 -191.1350
ENERGY: 600000 3.5513 1.3912 2.1329 0.0000 -10900.0675 1483.1334 0.0000 0.0000 1761.0821 -7648.7766 296.6913 -9409.8587 -7550.3270 301.4710 231.0944 386.8643 30220.0005 -90.1356 -14.0079
ENERGY: 900000 3.8126 2.1442 3.7856 0.0000 -10953.9130 1548.0033 0.0000 0.0000 1718.5691 -7677.5982 289.5291 -9396.1673 -7566.8277 299.2694 595.5137 671.9343 30437.5281 -105.3309 -31.0057
ENERGY: 1200000 4.2479 2.2360 1.9441 0.0000 -10892.7236 1458.6952 0.0000 0.0000 1761.7134 -7663.8870 296.7976 -9425.6004 -7566.6103 298.4326 -549.0245 -446.8764 31078.2222 -78.8942 -7.4874
ENERGY: 1500000 5.7252 0.8214 2.5322 0.0000 -10814.0717 1428.6903 0.0000 0.0000 1799.6090 -7576.6938 303.1819 -9376.3027 -7562.7758 299.0814 -815.8340 -665.4085 31062.4493 -145.9870 -70.3203
TCL: Running FEP window   9: Lambda1 0.39999999999999997 Lambda2 0.44999999999999996 [dLambda 0.04999999999999999]
TCL: Setting parameter firsttimestep to 0
TCL: Setting parameter alchLambda to 0.39999999999999997
Info: NONBONDED TABLE R-SQUARED SPACING: 0.0625
Info: NONBONDED TABLE SIZE: 705 POINTS
TCL: Setting parameter alchLambda2 to 0.44999999999999996
Info: NONBONDED TABLE R-SQUARED SPACING: 0.0625
Info: NONBONDED TABLE SIZE: 705 POINTS
TCL: Running for 1500000 steps
ETITLE: TS BOND ANGLE DIHED IMPRP ELECT VDW BOUNDARY MISC KINETIC TOTAL TEMP POTENTIAL TOTALAVG TEMPAVG PRESSURE GPRESSURE VOLUME PRESSAVG GPRESSAVG
ENERGY: 0 5.7252 0.8214 2.5322 0.0000 -10814.0728 1430.9102 0.0000 0.0000 1798.7287 -7575.3551 303.0336 -9374.0838 -7575.3551 303.0336 -735.7344 -645.4236 31062.4493 -735.7344 -645.4236
ENERGY: 300000 1.6430 2.7517 1.6602 0.0000 -10752.4011 1440.5980 0.0000 0.0000 1831.2267 -7474.5214 308.5086 -9305.7481 -7532.8911 304.9647 14.2988 46.5520 30914.2970 326.7870 407.9304
ENERGY: 600000 2.5172 2.7645 3.2077 0.0000 -10899.0150 1493.0258 0.0000 0.0000 1748.0312 -7649.4686 294.4926 -9397.4998 -7579.8273 301.8188 240.4778 244.4181 30404.3874 45.4192 106.5752
ENERGY: 900000 2.2573 3.0541 1.5560 0.0000 -10687.2946 1419.6309 0.0000 0.0000 1808.6169 -7452.1794 304.6995 -9260.7963 -7571.9256 302.2371 -124.2056 -63.0862 30945.4257 0.6787 79.0744
ENERGY: 1200000 6.0428 2.3870 3.0559 0.0000 -10910.6642 1467.9457 0.0000 0.0000 1736.6158 -7694.6170 292.5694 -9431.2328 -7576.8140 301.0747 -81.8421 -51.9104 30497.2838 -51.6552 18.8756
ENERGY: 1500000 3.5493 2.7138 1.8079 0.0000 -10843.3601 1442.2020 0.0000 0.0000 1844.6280 -7548.4592 310.7663 -9393.0872 -7581.2057 299.9913 -218.1677 -98.8990 30507.1965 -72.9104 -2.4372
TCL: Running FEP window  10: Lambda1 0.44999999999999996 Lambda2 0.49999999999999994 [dLambda 0.04999999999999999]
TCL: Setting parameter firsttimestep to 0
TCL: Setting parameter alchLambda to 0.44999999999999996
Info: NONBONDED TABLE R-SQUARED SPACING: 0.0625
Info: NONBONDED TABLE SIZE: 705 POINTS
TCL: Setting parameter alchLambda2 to 0.49999999999999994
Info: NONBONDED TABLE R-SQUARED SPACING: 0.0625
Info: NONBONDED TABLE SIZE: 705 POINTS
TCL: Running for 1500000 steps
ETITLE: TS BOND ANGLE DIHED IMPRP ELECT VDW BOUNDARY MISC KINETIC TOTAL TEMP POTENTIAL TOTALAVG TEMPAVG PRESSURE GPRESSURE VOLUME PRESSAVG GPRESSAVG
ENERGY: 0 3.5493 2.7138 1.8079 0.0000 -10843.3616 1442.3514 0.0000 0.0000 1843.7490 -7549.1902 310.6182 -9392.9392 -7549.1902 310.6182 -172.9887 -87.7452 30507.1965 -172.9887 -87.7452
ENERGY: 300000 4.6330 4.1556 1.1651 0.0000 -10967.2663 1608.8832 0.0000 0.0000 1824.2632 -7524.1663 307.3355 -9348.4295 -7520.6247 303.6058 1267.4871 1306.3284 30264.1837 329.0658 371.5921
ENERGY: 600000 2.5537 2.0709 5.2652 0.0000 -10856.5205 1483.3703 0.0000 0.0000 1742.7715 -7620.4889 293.6065 -9363.2604 -7529.5483 301.2193 70.1289 225.3951 30498.9549 449.3103 492.1562
ENERGY: 900000 2.3035 1.7823 3.1339 0.0000 -10880.6996 1471.6065 0.0000 0.0000 1765.0507 -7636.8227 297.3599 -9401.8734 -7549.1909 301.3676 53.2950 91.8732 30456.7064 265.4940 320.0845
ENERGY: 1200000 1.6428 2.2586 4.1908 0.0000 -10745.2839 1442.4248 0.0000 0.0000 1802.9398 -7491.8272 303.7431 -9294.7670 -7547.8979 301.0054 152.6797 153.6714 30380.6308 193.8215 245.8444
ENERGY: 1500000 1.2661 3.7329 2.3586 0.0000 -10686.5768 1390.1138 0.0000 0.0000 1737.0712 -7552.0342 292.6461 -9289.1053 -7551.2331 300.8846 -644.5207 -589.7513 31236.6310 116.3652 168.4514
TCL: Running FEP window  11: Lambda1 0.49999999999999994 Lambda2 0.5499999999999999 [dLambda 0.04999999999999999]
TCL: Setting parameter firsttimestep to 0
TCL: Setting parameter alchLambda to 0.49999999999999994
Info: NONBONDED TABLE R-SQUARED SPACING: 0.0625
Info: NONBONDED TABLE SIZE: 705 POINTS
TCL: Setting parameter alchLambda2 to 0.5499999999999999
Info: NONBONDED TABLE R-SQUARED SPACING: 0.0625
Info: NONBONDED TABLE SIZE: 705 POINTS
TCL: Running for 1500000 steps
ETITLE: TS BOND ANGLE DIHED IMPRP ELECT VDW BOUNDARY MISC KINETIC TOTAL TEMP POTENTIAL TOTALAVG TEMPAVG PRESSURE GPRESSURE VOLUME PRESSAVG GPRESSAVG
ENERGY: 0 1.2661 3.7329 2.3586 0.0000 -10686.5759 1390.3161 0.0000 0.0000 1736.1928 -7552.7093 292.4981 -9288.9021 -7552.7093 292.4981 -671.9383 -584.5678 31236.6310 -671.9383 -584.5678
ENERGY: 300000 2.8710 1.0287 1.5042 0.0000 -10772.8129 1352.4392 0.0000 0.0000 1793.3079 -7621.6618 302.1204 -9414.9697 -7553.0699 301.7640 -1092.1637 -996.8638 30482.3521 -170.9077 -113.2914
ENERGY: 600000 1.3575 1.3540 1.6533 0.0000 -10672.4964 1434.5007 0.0000 0.0000 1786.9142 -7446.7167 301.0432 -9233.6309 -7542.1427 303.2118 112.2644 243.9731 30945.5744 -173.6361 -108.7097
ENERGY: 900000 4.7287 3.1947 2.6221 0.0000 -10805.9883 1462.7044 0.0000 0.0000 1814.0788 -7518.6597 305.6197 -9332.7385 -7539.9893 303.7377 165.2042 242.7862 30750.0956 -43.8794 20.9973
ENERGY: 1200000 5.5062 2.3557 3.8449 0.0000 -10867.3498 1475.0517 0.0000 0.0000 1768.6924 -7611.8988 297.9734 -9380.5913 -7533.8378 303.6363 -171.2921 -73.8265 31150.4483 -68.3574 -7.8268
ENERGY: 1500000 1.2545 1.2908 2.1546 0.0000 -10782.2812 1454.5609 0.0000 0.0000 1757.6956 -7565.3247 296.1207 -9323.0203 -7542.1897 302.5978 -57.3610 24.1101 31026.8071 -95.8739 -34.5569
TCL: Running FEP window  12: Lambda1 0.5499999999999999 Lambda2 0.6    [dLambda 0.050000000000000044]
TCL: Setting parameter firsttimestep to 0
TCL: Setting parameter alchLambda to 0.5499999999999999
Info: NONBONDED TABLE R-SQUARED SPACING: 0.0625
Info: NONBONDED TABLE SIZE: 705 POINTS
TCL: Setting parameter alchLambda2 to 0.6
Info: NONBONDED TABLE R-SQUARED SPACING: 0.0625
Info: NONBONDED TABLE SIZE: 705 POINTS
TCL: Running for 1500000 steps
ETITLE: TS BOND ANGLE DIHED IMPRP ELECT VDW BOUNDARY MISC KINETIC TOTAL TEMP POTENTIAL TOTALAVG TEMPAVG PRESSURE GPRESSURE VOLUME PRESSAVG GPRESSAVG
ENERGY: 0 1.2545 1.2908 2.1546 0.0000 -10782.4760 1454.2330 0.0000 0.0000 1756.8198 -7566.7233 295.9732 -9323.5431 -7566.7233 295.9732 -34.6104 30.1136 31026.8071 -34.6104 30.1136
ENERGY: 300000 2.3762 3.7433 1.6438 0.0000 -10613.2160 1329.1331 0.0000 0.0000 1776.5542 -7499.7654 299.2979 -9276.3196 -7524.6429 301.7467 -857.6435 -889.0892 31230.7560 -409.3069 -352.9907
ENERGY: 600000 4.3561 4.5248 4.1041 0.0000 -10921.4362 1513.8442 0.0000 0.0000 1779.0988 -7615.5081 299.7266 -9394.6070 -7535.5035 302.6102 202.6301 229.3353 30884.1519 -357.1429 -296.0001
ENERGY: 900000 4.3775 2.9303 5.7485 0.0000 -10804.0794 1464.2205 0.0000 0.0000 1797.6893 -7529.1133 302.8585 -9326.8026 -7535.7153 302.2809 308.4328 284.0364 30488.3179 -173.3886 -125.5534
ENERGY: 1200000 5.3208 5.4044 2.0977 0.0000 -10819.8471 1466.6668 0.0000 0.0000 1785.7571 -7554.6003 300.8483 -9340.3574 -7533.0879 303.0840 -206.3330 -134.3078 31071.2247 -89.5445 -36.3851
ENERGY: 1500000 3.7200 1.3668 5.2181 0.0000 -10940.0194 1495.3241 0.0000 0.0000 1784.3926 -7649.9978 300.6184 -9434.3904 -7545.5827 302.4435 -113.0551 27.3388 30737.2854 -71.5948 -14.2731
TCL: Running FEP window  13: Lambda1 0.6    Lambda2 0.65   [dLambda 0.050000000000000044]
TCL: Setting parameter firsttimestep to 0
TCL: Setting parameter alchLambda to 0.6
Info: NONBONDED TABLE R-SQUARED SPACING: 0.0625
Info: NONBONDED TABLE SIZE: 705 POINTS
TCL: Setting parameter alchLambda2 to 0.65
Info: NONBONDED TABLE R-SQUARED SPACING: 0.0625
Info: NONBONDED TABLE SIZE: 705 POINTS
TCL: Running for 1500000 steps
ETITLE: TS BOND ANGLE DIHED IMPRP ELECT VDW BOUNDARY MISC KINETIC TOTAL TEMP POTENTIAL TOTALAVG TEMPAVG PRESSURE GPRESSURE VOLUME PRESSAVG GPRESSAVG
ENERGY: 0 3.7200 1.3668 5.2181 0.0000 -10940.1646 1495.6042 0.0000 0.0000 1783.5163 -7650.7392 300.4708 -9434.2555 -7650.7392 300.4708 -60.0136 41.0817 30737.2854 -60.0136 41.0817
ENERGY: 300000 5.1785 1.8971 2.8497 0.0000 -10801.5657 1457.9619 0.0000 0.0000 1813.0689 -7520.6097 305.4495 -9333.6785 -7568.9027 303.0107 -131.9351 -118.4844 31158.5413 -106.2410 -60.6961
ENERGY: 600000 1.0916 1.6335 0.6330 0.0000 -10795.5150 1425.5939 0.0000 0.0000 1796.4709 -7570.0921 302.6533 -9366.5630 -7580.0243 302.0959 -137.9627 -105.0158 30666.8524 -22.9291 11.0929
ENERGY: 900000 2.7118 2.1751 2.7796 0.0000 -10757.2850 1394.6112 0.0000 0.0000 1807.5395 -7547.4678 304.5180 -9355.0073 -7579.9578 302.8151 -497.9978 -473.9168 30992.4543 -46.2751 -3.2977
ENERGY: 1200000 1.7645 0.9087 3.2373 0.0000 -10689.6052 1371.1879 0.0000 0.0000 1774.2931 -7538.2136 298.9169 -9312.5068 -7572.6842 301.9347 -512.5504 -470.1239 30645.2639 -39.4080 4.6161
ENERGY: 1500000 3.0542 1.4983 3.2168 0.0000 -10933.0347 1545.3546 0.0000 0.0000 1781.7343 -7598.1765 300.1706 -9379.9108 -7569.2917 302.3647 756.4668 853.0093 30470.0795 24.7364 76.0578
TCL: Running FEP window  14: Lambda1 0.65   Lambda2 0.7000000000000001 [dLambda 0.050000000000000044]
TCL: Setting parameter firsttimestep to 0
TCL: Setting parameter alchLambda to 0.65
Info: NONBONDED TABLE R-SQUARED SPACING: 0.0625
Info: NONBONDED TABLE SIZE: 705 POINTS
TCL: Setting parameter alchLambda2 to 0.7000000000000001
Info: NONBONDED TABLE R-SQUARED SPACING: 0.0625
Info: NONBONDED TABLE SIZE: 705 POINTS
TCL: Running for 1500000 steps
ETITLE: TS BOND ANGLE DIHED IMPRP ELECT VDW BOUNDARY MISC KINETIC TOTAL TEMP POTENTIAL TOTALAVG TEMPAVG PRESSURE GPRESSURE VOLUME PRESSAVG GPRESSAVG
ENERGY: 0 3.0542 1.4983 3.2168 0.0000 -10933.0618 1544.8768 0.0000 0.0000 1780.8386 -7599.5771 300.0197 -9380.4157 -7599.5771 300.0197 780.9013 855.9504 30470.0795 780.9013 855.9504
ENERGY: 300000 5.0071 2.0888 2.1728 0.0000 -10853.6294 1425.7770 0.0000 0.0000 1807.1532 -7611.4305 304.4529 -9418.5837 -7574.9502 301.4370 -345.2817 -312.0372 30833.3631 135.2921 194.2004
ENERGY: 600000 2.6149 1.9220 0.6402 0.0000 -10817.8709 1442.9255 0.0000 0.0000 1810.2802 -7559.4881 304.9797 -9369.7683 -7577.0289 302.6366 -141.0480 -94.5546 30827.6383 109.1943 161.4943
ENERGY: 900000 2.6202 2.2891 2.4608 0.0000 -10704.4111 1415.3645 0.0000 0.0000 1861.7508 -7419.9256 313.6510 -9281.6764 -7562.6214 302.3328 -277.3377 -269.6785 31330.9545 -139.4394 -97.8652
ENERGY: 1200000 4.1657 3.7484 2.3757 0.0000 -10869.8257 1515.8042 0.0000 0.0000 1801.7655 -7541.9662 303.5452 -9343.7317 -7553.1453 302.6707 924.0711 934.9063 30264.4119 -57.3291 -10.5338
ENERGY: 1500000 1.4063 2.4248 2.0613 0.0000 -10757.7697 1362.7191 0.0000 0.0000 1808.1109 -7581.0472 304.6143 -9389.1581 -7556.5938 302.1773 -545.0174 -430.9707 30473.2117 -62.7386 -6.5036
TCL: Running FEP window  15: Lambda1 0.7000000000000001 Lambda2 0.7500000000000001 [dLambda 0.050000000000000044]
TCL: Setting parameter firsttimestep to 0
TCL: Setting parameter alchLambda to 0.7000000000000001
Info: NONBONDED TABLE R-SQUARED SPACING: 0.0625
Info: NONBONDED TABLE SIZE: 705 POINTS
TCL: Setting parameter alchLambda2 to 0.7500000000000001
Info: NONBONDED TABLE R-SQUARED SPACING: 0.0625
Info: NONBONDED TABLE SIZE: 705 POINTS
TCL: Running for 1500000 steps
ETITLE: TS BOND ANGLE DIHED IMPRP ELECT VDW BOUNDARY MISC KINETIC TOTAL TEMP POTENTIAL TOTALAVG TEMPAVG PRESSURE GPRESSURE VOLUME PRESSAVG GPRESSAVG
ENERGY: 0 1.4063 2.4248 2.0613 0.0000 -10757.9088 1362.1662 0.0000 0.0000 1807.2127 -7582.6375 304.4629 -9389.8502 -7582.6375 304.4629 -522.5908 -426.9228 30473.2117 -522.5908 -426.9228
ENERGY: 300000 2.0595 3.4356 3.1001 0.0000 -10847.3709 1429.3595 0.0000 0.0000 1763.9945 -7645.4217 297.1819 -9409.4161 -7609.0898 299.6352 -396.7496 -372.3621 31258.6267 -149.6309 -101.3357
ENERGY: 600000 4.7182 1.8525 5.0410 0.0000 -10810.6230 1427.3583 0.0000 0.0000 1743.1895 -7628.4634 293.6769 -9371.6529 -7580.9012 299.9161 -282.9053 -306.1501 30718.4481 -187.6971 -149.5955
ENERGY: 900000 3.5720 3.0007 2.0228 0.0000 -10796.1539 1418.3105 0.0000 0.0000 1818.6677 -7550.5802 306.3928 -9369.2479 -7562.0959 301.5145 -387.3278 -311.8568 31019.5207 -202.8057 -140.8930
ENERGY: 1200000 1.6740 2.2799 1.7120 0.0000 -10757.6853 1381.0167 0.0000 0.0000 1744.1281 -7626.8746 293.8350 -9371.0027 -7562.5191 301.4276 -581.4315 -499.4110 30734.8867 -292.9381 -228.2438
ENERGY: 1500000 3.4446 4.5390 2.1338 0.0000 -11045.1544 1567.8312 0.0000 0.0000 1774.7912 -7692.4147 299.0009 -9467.2059 -7566.6561 301.8998 788.2473 823.3762 30132.9373 -207.8137 -152.0295
TCL: Running FEP window  16: Lambda1 0.7500000000000001 Lambda2 0.8000000000000002 [dLambda 0.050000000000000044]
TCL: Setting parameter firsttimestep to 0
TCL: Setting parameter alchLambda to 0.7500000000000001
Info: NONBONDED TABLE R-SQUARED SPACING: 0.0625
Info: NONBONDED TABLE SIZE: 705 POINTS
TCL: Setting parameter alchLambda2 to 0.8000000000000002
Info: NONBONDED TABLE R-SQUARED SPACING: 0.0625
Info: NONBONDED TABLE SIZE: 705 POINTS
TCL: Running for 1500000 steps
ETITLE: TS BOND ANGLE DIHED IMPRP ELECT VDW BOUNDARY MISC KINETIC TOTAL TEMP POTENTIAL TOTALAVG TEMPAVG PRESSURE GPRESSURE VOLUME PRESSAVG GPRESSAVG
ENERGY: 0 3.4446 4.5390 2.1338 0.0000 -11045.2743 1567.3085 0.0000 0.0000 1773.9198 -7693.9286 298.8541 -9467.8484 -7693.9286 298.8541 752.6495 828.9827 30132.9373 752.6495 828.9827
ENERGY: 300000 1.8499 1.5683 2.7649 0.0000 -10717.8983 1403.7448 0.0000 0.0000 1791.0527 -7516.9176 301.7405 -9307.9703 -7580.7900 302.1453 -463.5427 -385.0863 31185.5349 -91.0924 -8.5861
ENERGY: 600000 2.0759 2.1265 1.7055 0.0000 -10886.7486 1436.5641 0.0000 0.0000 1736.0064 -7708.2702 292.4667 -9444.2767 -7586.9179 301.0166 -363.3613 -351.9443 31134.2882 -60.5285 -9.4709
ENERGY: 900000 3.7208 4.6047 3.7270 0.0000 -10810.7399 1379.6492 0.0000 0.0000 1791.5786 -7627.4596 301.8291 -9419.0382 -7589.3975 300.7331 -703.2205 -614.0493 30737.1778 -72.9688 -12.9837
ENERGY: 1200000 1.9712 2.1476 3.3269 0.0000 -10795.9642 1457.4769 0.0000 0.0000 1785.8622 -7545.1794 300.8660 -9331.0416 -7578.6670 300.1765 531.0459 545.7760 30401.3012 -63.3117 1.0484
ENERGY: 1500000 3.8311 3.8490 3.3544 0.0000 -10912.3290 1475.6165 0.0000 0.0000 1750.8879 -7674.7900 294.9738 -9425.6779 -7582.5069 300.5137 54.0247 147.8245 30328.9071 16.7308 81.5806
TCL: Running FEP window  17: Lambda1 0.8000000000000002 Lambda2 0.8500000000000002 [dLambda 0.050000000000000044]
TCL: Setting parameter firsttimestep to 0
TCL: Setting parameter alchLambda to 0.8000000000000002
Info: NONBONDED TABLE R-SQUARED SPACING: 0.0625
Info: NONBONDED TABLE SIZE: 705 POINTS
TCL: Setting parameter alchLambda2 to 0.8500000000000002
Info: NONBONDED TABLE R-SQUARED SPACING: 0.0625
Info: NONBONDED TABLE SIZE: 705 POINTS
TCL: Running for 1500000 steps
ETITLE: TS BOND ANGLE DIHED IMPRP ELECT VDW BOUNDARY MISC KINETIC TOTAL TEMP POTENTIAL TOTALAVG TEMPAVG PRESSURE GPRESSURE VOLUME PRESSAVG GPRESSAVG
ENERGY: 0 3.8311 3.8490 3.3544 0.0000 -10912.5406 1475.3264 0.0000 0.0000 1750.0012 -7676.1783 294.8245 -9426.1795 -7676.1783 294.8245 63.0140 157.4380 30328.9071 63.0140 157.4380
ENERGY: 300000 1.8893 2.5146 3.2472 0.0000 -10719.0493 1370.8661 0.0000 0.0000 1768.4714 -7572.0607 297.9361 -9340.5320 -7612.8683 295.2766 -812.2364 -760.4532 30954.3816 -286.5126 -198.1262
ENERGY: 600000 1.7462 3.3878 2.6086 0.0000 -10814.9614 1468.3371 0.0000 0.0000 1796.6122 -7542.2696 302.6771 -9338.8817 -7609.3607 296.7515 14.4045 42.3151 31098.0158 -54.2573 16.3035
ENERGY: 900000 1.4943 4.2054 1.1819 0.0000 -10734.9138 1408.9694 0.0000 0.0000 1795.7944 -7523.2684 302.5393 -9319.0629 -7587.9545 298.0771 -165.8599 -145.0322 31009.9199 -104.2966 -51.9891
ENERGY: 1200000 4.6650 4.9170 4.6728 0.0000 -10717.1294 1407.2392 0.0000 0.0000 1805.5411 -7490.0944 304.1813 -9295.6355 -7586.2411 298.0474 -144.9314 -91.9678 31005.4243 -78.8436 -26.3119
ENERGY: 1500000 2.8484 1.2227 2.8731 0.0000 -10893.6554 1506.1160 0.0000 0.0000 1826.3909 -7554.2042 307.6939 -9380.5952 -7582.5657 298.8684 303.4107 340.9223 30964.0780 -146.9807 -86.9057
TCL: Running FEP window  18: Lambda1 0.8500000000000002 Lambda2 0.9000000000000002 [dLambda 0.050000000000000044]
TCL: Setting parameter firsttimestep to 0
TCL: Setting parameter alchLambda to 0.8500000000000002
Info: NONBONDED TABLE R-SQUARED SPACING: 0.0625
Info: NONBONDED TABLE SIZE: 705 POINTS
TCL: Setting parameter alchLambda2 to 0.9000000000000002
Info: NONBONDED TABLE R-SQUARED SPACING: 0.0625
Info: NONBONDED TABLE SIZE: 705 POINTS
TCL: Running for 1500000 steps
ETITLE: TS BOND ANGLE DIHED IMPRP ELECT VDW BOUNDARY MISC KINETIC TOTAL TEMP POTENTIAL TOTALAVG TEMPAVG PRESSURE GPRESSURE VOLUME PRESSAVG GPRESSAVG
ENERGY: 0 2.8484 1.2227 2.8731 0.0000 -10893.8910 1506.0303 0.0000 0.0000 1825.5110 -7555.4055 307.5457 -9380.9165 -7555.4055 307.5457 273.8100 353.0323 30964.0780 273.8100 353.0323
ENERGY: 300000 1.5495 1.5219 2.0997 0.0000 -10861.0545 1498.2792 0.0000 0.0000 1794.5992 -7563.0050 302.3379 -9357.6042 -7583.9523 301.1421 559.7944 606.6207 30583.7623 44.0629 90.9295
ENERGY: 600000 5.8160 1.0406 2.2148 0.0000 -10860.7166 1479.2814 0.0000 0.0000 1802.1856 -7570.1783 303.6160 -9372.3639 -7571.9098 302.8285 336.2349 388.4977 30477.5800 112.1889 163.2129
ENERGY: 900000 0.9711 1.8477 3.4095 0.0000 -10948.2588 1539.9450 0.0000 0.0000 1764.2639 -7637.8216 297.2273 -9402.0855 -7587.9561 301.2377 605.9006 675.5285 30574.7951 135.2933 190.0484
ENERGY: 1200000 3.1503 1.9736 2.6361 0.0000 -10811.1971 1473.4695 0.0000 0.0000 1814.4708 -7515.4968 305.6857 -9329.9676 -7579.1756 302.5531 246.4789 331.1136 30683.0776 154.8400 219.2795
ENERGY: 1500000 3.8473 2.2039 4.1499 0.0000 -10889.1726 1497.1373 0.0000 0.0000 1811.2554 -7570.5787 305.1440 -9381.8341 -7588.4866 301.9290 364.6502 436.6176 30729.9078 112.5386 181.1790
TCL: Running FEP window  19: Lambda1 0.9000000000000002 Lambda2 0.9500000000000003 [dLambda 0.050000000000000044]
TCL: Setting parameter firsttimestep to 0
TCL: Setting parameter alchLambda to 0.9000000000000002
Info: NONBONDED TABLE R-SQUARED SPACING: 0.0625
Info: NONBONDED TABLE SIZE: 705 POINTS
TCL: Setting parameter alchLambda2 to 0.9500000000000003
Info: NONBONDED TABLE R-SQUARED SPACING: 0.0625
Info: NONBONDED TABLE SIZE: 705 POINTS
TCL: Running for 1500000 steps
ETITLE: TS BOND ANGLE DIHED IMPRP ELECT VDW BOUNDARY MISC KINETIC TOTAL TEMP POTENTIAL TOTALAVG TEMPAVG PRESSURE GPRESSURE VOLUME PRESSAVG GPRESSAVG
ENERGY: 0 3.8473 2.2039 4.1499 0.0000 -10889.2570 1497.3383 0.0000 0.0000 1810.3762 -7571.3414 304.9959 -9381.7176 -7571.3414 304.9959 361.5468 453.7070 30729.9078 361.5468 453.7070
ENERGY: 300000 3.1304 2.7980 1.8459 0.0000 -10883.9384 1490.0709 0.0000 0.0000 1766.1161 -7619.9770 297.5394 -9386.0931 -7587.3045 300.1530 426.4450 433.0908 30387.3519 -28.9456 27.7045
ENERGY: 600000 4.3980 1.8268 2.6085 0.0000 -10892.1885 1474.7966 0.0000 0.0000 1709.0695 -7699.4891 287.9287 -9408.5587 -7603.8265 298.3408 -24.6454 45.9368 30809.5356 -32.4743 35.3893
ENERGY: 900000 3.3725 3.2276 2.6564 0.0000 -10750.7863 1424.2718 0.0000 0.0000 1758.1705 -7559.0875 296.2008 -9317.2580 -7589.9680 298.3617 -326.3074 -265.0152 31039.0067 -70.9541 -1.3111
ENERGY: 1200000 3.7898 2.8673 2.3544 0.0000 -10760.9821 1447.9169 0.0000 0.0000 1789.4002 -7514.6536 301.4620 -9304.0538 -7584.4257 298.6727 -9.1492 14.8071 31104.5743 -72.0745 -7.3883
ENERGY: 1500000 5.4868 3.4560 3.2411 0.0000 -10674.3778 1363.4372 0.0000 0.0000 1840.9851 -7457.7716 310.1526 -9298.7567 -7576.4159 299.5822 -714.8626 -607.0050 31173.8545 -74.7627 -8.4225
TCL: Running FEP window  20: Lambda1 0.9500000000000003 Lambda2 1.0    [dLambda 0.04999999999999971]
TCL: Setting parameter firsttimestep to 0
TCL: Setting parameter alchLambda to 0.9500000000000003
Info: NONBONDED TABLE R-SQUARED SPACING: 0.0625
Info: NONBONDED TABLE SIZE: 705 POINTS
TCL: Setting parameter alchLambda2 to 1.0
Info: NONBONDED TABLE R-SQUARED SPACING: 0.0625
Info: NONBONDED TABLE SIZE: 705 POINTS
TCL: Running for 1500000 steps
ETITLE: TS BOND ANGLE DIHED IMPRP ELECT VDW BOUNDARY MISC KINETIC TOTAL TEMP POTENTIAL TOTALAVG TEMPAVG PRESSURE GPRESSURE VOLUME PRESSAVG GPRESSAVG
ENERGY: 0 5.4868 3.4560 3.2411 0.0000 -10674.6416 1363.0887 0.0000 0.0000 1840.0776 -7459.2914 309.9997 -9299.3690 -7459.2914 309.9997 -677.5035 -599.5043 31173.8545 -677.5035 -599.5043
ENERGY: 300000 4.1421 2.1946 2.1760 0.0000 -10735.7742 1386.2485 0.0000 0.0000 1766.6701 -7574.3429 297.6327 -9341.0130 -7548.0139 301.0505 -615.3088 -566.1485 30976.6980 -482.5836 -413.7491
ENERGY: 600000 5.9955 3.1490 3.2971 0.0000 -10803.6610 1428.1195 0.0000 0.0000 1791.9844 -7571.1155 301.8974 -9363.0999 -7557.5480 302.6763 -494.1844 -412.8221 31221.9732 -345.7252 -284.5717
ENERGY: 900000 1.5309 2.7875 1.3726 0.0000 -10914.5911 1502.7318 0.0000 0.0000 1770.2481 -7635.9202 298.2355 -9406.1683 -7565.6444 301.3144 435.8109 500.7371 30422.2436 -230.2238 -172.0793
ENERGY: 1200000 1.7502 5.3237 2.4916 0.0000 -10784.8024 1439.5402 0.0000 0.0000 1806.5189 -7529.1779 304.3460 -9335.6968 -7554.4250 301.3023 -214.7213 -127.6794 31324.8279 -133.3339 -67.2406
ENERGY: 1500000 4.3334 1.8306 5.2342 0.0000 -10642.5165 1363.1552 0.0000 0.0000 1755.6921 -7512.2710 295.7832 -9267.9631 -7558.7995 300.4780 -571.8310 -454.0677 31129.5187 -140.0614 -72.1418
TCL: Exiting due to exit command.
