Info: SIMULATION PARAMETERS:
Info: TIMESTEP               2
Info: NUMBER OF STEPS        0
Info: STEPS PER CYCLE        10
Info: PERIODIC CELL BASIS 1  31.3497 0 0
Info: PERIODIC CELL BASIS 2  0 31.3276 0
Info: PERIODIC CELL BASIS 3  0 0 31.6036
Info: PERIODIC CELL CENTER   0 0 0
Info: WRAPPING WATERS AROUND PERIODIC BOUNDARIES ON OUTPUT.
Info: WRAPPING ALL CLUSTERS AROUND PERIODIC BOUNDARIES ON OUTPUT.
Info: FIRST LDB TIMESTEP     50
Info: LAST LDB TIMESTEP     -1
Info: HOM BACKGROUND SCALING 1
Info: PME BACKGROUND SCALING 1
Info: MIN ATOMS PER PATCH    40
Info: EMPTY PATCH LOAD       40 ATOMS
Info: VELOCITY FILE          mobley_1896013_equil.vel
Info: CENTER OF MASS MOVING INITIALLY? NO
Info: DIELECTRIC             1
Info: EXCLUDE                SCALED ONE-FOUR
Info: 1-4 ELECTROSTATICS SCALED BY 0.833333
Info: MODIFIED 1-4 VDW PARAMETERS WILL BE USED
Info: DCD FILENAME           mobley_1896013_prod.dcd
Info: DCD FREQUENCY          100000
Info: DCD FIRST STEP         100000
Info: DCD FILE WILL CONTAIN UNIT CELL DATA
Info: XST FILENAME           mobley_1896013_prod.xst
Info: XST FREQUENCY          100000
Info: NO VELOCITY DCD OUTPUT
Info: NO FORCE DCD OUTPUT
Info: OUTPUT FILENAME        mobley_1896013_prod
Info: BINARY OUTPUT FILES WILL BE USED
Info: RESTART FILENAME       mobley_1896013_prod.restart
Info: RESTART FREQUENCY      100000
Info: BINARY RESTART FILES WILL BE USED
Info: CUTOFF                 9
Info: PAIRLIST DISTANCE      11
Info: PAIRLIST SHRINK RATE   0.01
Info: PAIRLIST GROW RATE     0.01
Info: PAIRLIST TRIGGER       0.3
Info: PAIRLISTS PER CYCLE    2
Info: PAIRLISTS ENABLED
Info: MARGIN                 2
Info: HYDROGEN GROUP CUTOFF  2.5
Info: PATCH DIMENSION        15.5
Info: ENERGY OUTPUT STEPS    100000
Info: ENERGY EVALUATION STEPS    100000
Info: OUTPUT ENERGY PRECISION 4
Info: CROSSTERM ENERGY INCLUDED IN DIHEDRAL
Info: TIMING OUTPUT STEPS    1000000
Info: PRESSURE OUTPUT STEPS  100000
Info: ALCHEMICAL FEP ON
Info: FEP CURRENT LAMBDA VALUE     0
Info: FEP COMPARISON LAMBDA VALUE  0.05
Info: FEP INTRA-ALCHEMICAL NON-BONDED INTERACTIONS WILL BE RETAINED
Info: FEP INTRA-ALCHEMICAL BONDED INTERACTIONS WILL BE RETAINED
Info: FEP VDW SHIFTING COEFFICIENT 5
Info: FEP ELEC. ACTIVE FOR ANNIHILATED PARTICLES BETWEEN LAMBDA = 0 AND LAMBDA = 0.5
Info: FEP ELEC. ACTIVE FOR EXNIHILATED PARTICLES BETWEEN LAMBDA = 0.5 AND LAMBDA = 1
Info: FEP VDW ACTIVE FOR ANNIHILATED PARTICLES BETWEEN LAMBDA = 0 AND LAMBDA = 1
Info: FEP VDW ACTIVE FOR EXNIHILATED PARTICLES BETWEEN LAMBDA = 0 AND LAMBDA = 1
Info: FEP BOND ACTIVE FOR ANNIHILATED PARTICLES BETWEEN LAMBDA = 1 AND LAMBDA = 1
Info: FEP BOND ACTIVE FOR EXNIHILATED PARTICLES BETWEEN LAMBDA = 0 AND LAMBDA = 0
Info: LANGEVIN DYNAMICS ACTIVE
Info: LANGEVIN TEMPERATURE   300
Info: LANGEVIN USING BBK INTEGRATOR
Info: LANGEVIN DAMPING COEFFICIENT IS 1 INVERSE PS
Info: LANGEVIN DYNAMICS APPLIED TO HYDROGENS
Info: LANGEVIN PISTON PRESSURE CONTROL ACTIVE
Info:        TARGET PRESSURE IS 1.01325 BAR
Info:     OSCILLATION PERIOD IS 50 FS
Info:             DECAY TIME IS 25 FS
Info:     PISTON TEMPERATURE IS 300 K
Info:       PRESSURE CONTROL IS GROUP-BASED
Info:    INITIAL STRAIN RATE IS 0.000369257 0.000369257 0.000369257
Info:       CELL FLUCTUATION IS ISOTROPIC
Info: PARTICLE MESH EWALD (PME) ACTIVE
Info: PME TOLERANCE               1e-06
Info: PME EWALD COEFFICIENT       0.348832
Info: PME INTERPOLATION ORDER     4
Info: PME GRID DIMENSIONS         32 32 32
Info: PME MAXIMUM GRID SPACING    1
Info: PME CALCULATION WILL BE PERFORMED ON GPU
Info: FULL ELECTROSTATIC EVALUATION FREQUENCY      2
Info: USING VERLET I (r-RESPA) MTS SCHEME.
Info: C1 SPLITTING OF LONG RANGE ELECTROSTATICS
Info: PLACING ATOMS IN PATCHES BY HYDROGEN GROUPS
Info: RIGID BONDS TO HYDROGEN : ALL
Info:         ERROR TOLERANCE : 1e-08
Info:          MAX ITERATIONS : 100
Info: RIGID WATER USING SETTLE ALGORITHM
Info: RANDOM NUMBER SEED     1743618258
Info: USE HYDROGEN BONDS?    NO
Info: Using AMBER format force field!
Info: AMBER PARM FILE        mobley_1896013.prmtop
Info: COORDINATE PDB         mobley_1896013.pdb
Info: Exclusions will be read from PARM file!
Info: SCNB (VDW SCALING)     2
Info: USING ARITHMETIC MEAN TO COMBINE L-J SIGMA PARAMETERS
Info: BINARY COORDINATES     mobley_1896013_equil.coor
Info: SUMMARY OF PARAMETERS:
Info: 8 BONDS
Info: 13 ANGLES
Info:   13 HARMONIC
Info:   0 COSINE-BASED
Info: 13 DIHEDRAL
Info: 0 IMPROPER
Info: 0 CROSSTERM
Info: 0 VDW
Info: 28 VDW_PAIRS
Info: 0 NBTHOLE_PAIRS
Info: To read alchdata from file: mobley_1896013.pdb
Info: To read alchflag data from column: 5
Info: STRUCTURE SUMMARY:
Info: 2990 ATOMS
Info: 2990 BONDS
Info: 35 ANGLES
Info: 81 DIHEDRALS
Info: 0 IMPROPERS
Info: 0 CROSSTERMS
Info: 3076 EXCLUSIONS
Info: 2980 RIGID BONDS
Info: ALCH: 0 ATOMS TO DISAPPEAR IN FINAL STATE
Info: ALCH: 20 ATOMS TO APPEAR IN FINAL STATE
Info: 5990 DEGREES OF FREEDOM
Info: 1000 HYDROGEN GROUPS
Info: 3 ATOMS IN LARGEST HYDROGEN GROUP
Info: 1000 MIGRATION GROUPS
Info: 3 ATOMS IN LARGEST MIGRATION GROUP
Info: TOTAL MASS = 17986 amu
Info: TOTAL CHARGE = -9.9957e-05 e
Info: MASS DENSITY = 0.962269 g/cm^3
Info: ATOM DENSITY = 0.0963329 atoms/A^3
Info: ADDED 0 IMPLICIT EXCLUSIONS
Info: NONBONDED TABLE R-SQUARED SPACING: 0.0625
Info: NONBONDED TABLE SIZE: 705 POINTS
Info: REDUCING NUMBER OF PATCHES TO IMPROVE LOAD BALANCE
Info: REMOVING COM VELOCITY -0.104324 -0.212177 -0.143779
Info: Use 3D box decompostion in PME FFT.
Info: Updated CUDA force table with 4096 elements.
Info: Updated CUDA LJ table with 7 x 7 elements.
Info: Found 23 unique exclusion lists needing 64 bytes
TCL: Running for 1500000 steps
ETITLE: TS BOND ANGLE DIHED IMPRP ELECT VDW BOUNDARY MISC KINETIC TOTAL TEMP POTENTIAL TOTALAVG TEMPAVG PRESSURE GPRESSURE VOLUME PRESSAVG GPRESSAVG
ENERGY: 0 2.4046 8.0875 13.8383 0.0000 -10789.5119 1451.9319 0.0000 0.0000 1753.7625 -7559.4872 294.6689 -9313.2497 -7559.4872 294.6689 -242.0388 -158.2829 31038.2148 -242.0388 -158.2829
ENERGY: 300000 2.5244 9.9475 13.6787 0.0000 -10611.7561 1315.5938 0.0000 0.0000 1804.8569 -7465.1549 303.2539 -9270.0117 -7532.1566 297.4483 -1037.3718 -1001.5941 30939.1391 -568.1576 -520.1722
ENERGY: 600000 3.8440 9.9162 12.8038 0.0000 -10634.9195 1341.5071 0.0000 0.0000 1807.7728 -7459.0756 303.7438 -9266.8485 -7523.1064 298.3966 -686.8633 -680.9590 30894.7121 -380.7986 -344.2336
ENERGY: 900000 3.1732 12.6881 15.1673 0.0000 -10825.0247 1465.7142 0.0000 0.0000 1762.2299 -7566.0519 296.0916 -9328.2819 -7535.6968 297.6816 245.3843 336.4653 30059.1692 -277.5189 -233.3720
ENERGY: 1200000 3.0774 10.5941 14.8919 0.0000 -10788.4566 1383.4415 0.0000 0.0000 1788.1401 -7588.3115 300.4451 -9376.4516 -7542.6767 297.9310 -744.7396 -624.5518 30396.3299 -321.0749 -265.3818
ENERGY: 1500000 3.6916 8.1471 14.6145 0.0000 -10846.9904 1492.7350 0.0000 0.0000 1801.2719 -7526.5304 302.6515 -9327.8023 -7542.1714 298.1226 216.3455 205.5473 30591.9874 -229.6761 -173.2475
TCL: Running FEP window   2: Lambda1 0.05   Lambda2 0.1    [dLambda 0.05  ]
TCL: Setting parameter firsttimestep to 0
TCL: Setting parameter alchLambda to 0.05
Info: NONBONDED TABLE R-SQUARED SPACING: 0.0625
Info: NONBONDED TABLE SIZE: 705 POINTS
TCL: Setting parameter alchLambda2 to 0.1
Info: NONBONDED TABLE R-SQUARED SPACING: 0.0625
Info: NONBONDED TABLE SIZE: 705 POINTS
TCL: Running for 1500000 steps
ETITLE: TS BOND ANGLE DIHED IMPRP ELECT VDW BOUNDARY MISC KINETIC TOTAL TEMP POTENTIAL TOTALAVG TEMPAVG PRESSURE GPRESSURE VOLUME PRESSAVG GPRESSAVG
ENERGY: 0 3.6916 8.1471 14.6145 0.0000 -10846.9917 1494.7130 0.0000 0.0000 1800.3924 -7525.4332 302.5037 -9325.8256 -7525.4332 302.5037 118.0671 210.1977 30591.9874 118.0671 210.1977
ENERGY: 300000 2.1085 13.2143 12.3972 0.0000 -10762.5594 1392.3499 0.0000 0.0000 1781.7338 -7560.7557 299.3687 -9342.4895 -7517.0195 302.3491 -599.8775 -479.5927 30319.3217 -102.3272 -14.2771
ENERGY: 600000 3.9626 10.4398 14.6319 0.0000 -10923.7416 1514.0570 0.0000 0.0000 1796.3778 -7584.2725 301.8292 -9380.6503 -7521.1299 301.2754 41.2505 100.2434 30844.2703 -114.5808 -19.9612
ENERGY: 900000 5.9644 12.2002 13.5814 0.0000 -10737.2406 1437.5837 0.0000 0.0000 1779.5190 -7488.3919 298.9966 -9267.9109 -7522.5288 302.1889 -16.4900 41.6645 30322.7818 16.9711 99.3838
ENERGY: 1200000 2.4701 15.0103 15.9130 0.0000 -10932.3819 1556.1986 0.0000 0.0000 1801.7530 -7541.0369 302.7323 -9342.7899 -7530.8544 301.8615 702.3588 793.6480 30466.5637 101.5305 185.4299
ENERGY: 1500000 5.2130 14.6884 14.2371 0.0000 -10861.6131 1454.5017 0.0000 0.0000 1756.8988 -7616.0742 295.1959 -9372.9730 -7539.2292 300.7000 -277.0323 -271.1228 30538.7305 145.7486 218.3822
TCL: Running FEP window   3: Lambda1 0.1    Lambda2 0.15000000000000002 [dLambda 0.05000000000000002]
TCL: Setting parameter firsttimestep to 0
TCL: Setting parameter alchLambda to 0.1
Info: NONBONDED TABLE R-SQUARED SPACING: 0.0625
Info: NONBONDED TABLE SIZE: 705 POINTS
TCL: Setting parameter alchLambda2 to 0.15000000000000002
Info: NONBONDED TABLE R-SQUARED SPACING: 0.0625
Info: NONBONDED TABLE SIZE: 705 POINTS
TCL: Running for 1500000 steps
ETITLE: TS BOND ANGLE DIHED IMPRP ELECT VDW BOUNDARY MISC KINETIC TOTAL TEMP POTENTIAL TOTALAVG TEMPAVG PRESSURE GPRESSURE VOLUME PRESSAVG GPRESSAVG
ENERGY: 0 5.2130 14.6884 14.2371 0.0000 -10861.6144 1454.5335 0.0000 0.0000 1755.9603 -7616.9822 295.0382 -9372.9425 -7616.9822 295.0382 -346.4174 -269.6468 30538.7305 -346.4174 -269.6468
ENERGY: 300000 4.1475 11.0113 14.5149 0.0000 -10916.2500 1558.5660 0.0000 0.0000 1790.4790 -7537.5313 300.8381 -9328.0103 -7577.2208 297.2295 650.6701 627.7623 30662.8706 -16.1650 49.1014
ENERGY: 600000 2.6679 6.8206 14.2330 0.0000 -10732.1162 1444.2953 0.0000 0.0000 1783.1462 -7480.9532 299.6060 -9264.0994 -7554.1728 297.9649 -48.9638 -65.6121 30913.6676 83.6754 129.2198
ENERGY: 900000 3.5359 11.3312 14.0352 0.0000 -11017.4198 1574.1531 0.0000 0.0000 1809.4434 -7604.9210 304.0245 -9414.3644 -7550.1658 298.9257 859.3576 872.9691 30147.8995 15.0286 62.8636
ENERGY: 1200000 4.7339 7.8676 14.2296 0.0000 -10792.6861 1477.3026 0.0000 0.0000 1838.5375 -7450.0149 308.9129 -9288.5524 -7546.6460 299.3935 -208.1277 -151.6545 31218.1406 -144.7517 -91.7599
ENERGY: 1500000 4.3774 10.3232 14.5877 0.0000 -10850.2866 1445.0307 0.0000 0.0000 1740.5141 -7635.4534 292.4429 -9375.9676 -7555.2494 299.0537 -556.5524 -504.9358 30709.3243 -118.6659 -68.2655
TCL: Running FEP window   4: Lambda1 0.15000000000000002 Lambda2 0.2    [dLambda 0.04999999999999999]
TCL: Setting parameter firsttimestep to 0
TCL: Setting parameter alchLambda to 0.15000000000000002
Info: NONBONDED TABLE R-SQUARED SPACING: 0.0625
Info: NONBONDED TABLE SIZE: 705 POINTS
TCL: Setting parameter alchLambda2 to 0.2
Info: NONBONDED TABLE R-SQUARED SPACING: 0.0625
Info: NONBONDED TABLE SIZE: 705 POINTS
TCL: Running for 1500000 steps
ETITLE: TS BOND ANGLE DIHED IMPRP ELECT VDW BOUNDARY MISC KINETIC TOTAL TEMP POTENTIAL TOTALAVG TEMPAVG PRESSURE GPRESSURE VOLUME PRESSAVG GPRESSAVG
ENERGY: 0 4.3774 10.3232 14.5877 0.0000 -10850.2868 1449.6784 0.0000 0.0000 1739.6087 -7631.7114 292.2908 -9371.3201 -7631.7114 292.2908 -590.3849 -493.7313 30709.3243 -590.3849 -493.7313
ENERGY: 300000 1.9212 11.2109 12.9117 0.0000 -10747.2465 1386.1052 0.0000 0.0000 1825.3824 -7509.7151 306.7026 -9335.0975 -7567.8310 296.3904 -696.2509 -645.0764 30658.5737 -701.8518 -629.4773
ENERGY: 600000 2.1565 7.2016 14.2312 0.0000 -10772.3711 1448.2105 0.0000 0.0000 1801.7196 -7498.8515 302.7267 -9300.5712 -7553.9982 299.2359 -245.0770 -164.3593 31098.7711 -345.1410 -283.8860
ENERGY: 900000 5.9191 10.4463 13.3430 0.0000 -10830.0879 1471.3301 0.0000 0.0000 1731.2459 -7597.8034 290.8857 -9329.0493 -7544.2340 299.4684 -197.4495 -126.3926 30644.0757 -365.2586 -292.9581
ENERGY: 1200000 3.6533 13.4600 16.4299 0.0000 -10712.9430 1353.2243 0.0000 0.0000 1715.3782 -7610.7973 288.2196 -9326.1755 -7554.2177 297.7514 -933.9831 -856.7097 30714.6019 -378.7885 -311.8761
ENERGY: 1500000 4.0825 13.4912 14.0057 0.0000 -10733.0934 1431.6181 0.0000 0.0000 1831.4862 -7438.4096 307.7281 -9269.8958 -7538.0235 299.0610 -175.9577 -76.9314 30950.4129 -328.2235 -258.3466
TCL: Running FEP window   5: Lambda1 0.2    Lambda2 0.25   [dLambda 0.04999999999999999]
TCL: Setting parameter firsttimestep to 0
TCL: Setting parameter alchLambda to 0.2
Info: NONBONDED TABLE R-SQUARED SPACING: 0.0625
Info: NONBONDED TABLE SIZE: 705 POINTS
TCL: Setting parameter alchLambda2 to 0.25
Info: NONBONDED TABLE R-SQUARED SPACING: 0.0625
Info: NONBONDED TABLE SIZE: 705 POINTS
TCL: Running for 1500000 steps
ETITLE: TS BOND ANGLE DIHED IMPRP ELECT VDW BOUNDARY MISC KINETIC TOTAL TEMP POTENTIAL TOTALAVG TEMPAVG PRESSURE GPRESSURE VOLUME PRESSAVG GPRESSAVG
ENERGY: 0 4.0825 13.4912 14.0057 0.0000 -10733.0931 1432.3356 0.0000 0.0000 1830.5831 -7438.5951 307.5764 -9269.1781 -7438.5951 307.5764 -158.2411 -72.6163 30950.4129 -158.2411 -72.6163
ENERGY: 300000 4.3831 9.5801 14.3794 0.0000 -10868.4703 1499.2547 0.0000 0.0000 1854.7104 -7486.1625 311.6303 -9340.8730 -7498.3754 304.2820 424.1154 495.4891 30287.1700 228.6782 303.0521
ENERGY: 600000 4.6917 5.9060 14.6368 0.0000 -10712.1663 1384.2767 0.0000 0.0000 1818.6982 -7483.9568 305.5795 -9302.6550 -7500.7376 304.7374 -844.9727 -822.4205 31183.8401 65.9943 120.6032
ENERGY: 900000 4.5895 6.9998 14.0445 0.0000 -10737.3684 1468.8750 0.0000 0.0000 1804.7827 -7438.0769 303.2414 -9242.8596 -7497.0913 303.4159 372.8153 452.5262 30539.7112 -63.9286 -4.3806
ENERGY: 1200000 6.8935 11.1091 14.0549 0.0000 -11000.0164 1616.9558 0.0000 0.0000 1790.8313 -7560.1718 300.8973 -9351.0031 -7501.5127 303.4346 986.7876 1043.7250 30701.5954 123.5193 181.6430
ENERGY: 1500000 4.8400 8.3855 14.3677 0.0000 -11002.5612 1534.1449 0.0000 0.0000 1803.2850 -7637.5382 302.9897 -9440.8232 -7518.4781 303.1902 165.5625 189.4501 30693.1063 24.7699 79.7720
TCL: Running FEP window   6: Lambda1 0.25   Lambda2 0.3    [dLambda 0.04999999999999999]
TCL: Setting parameter firsttimestep to 0
TCL: Setting parameter alchLambda to 0.25
Info: NONBONDED TABLE R-SQUARED SPACING: 0.0625
Info: NONBONDED TABLE SIZE: 705 POINTS
TCL: Setting parameter alchLambda2 to 0.3
Info: NONBONDED TABLE R-SQUARED SPACING: 0.0625
Info: NONBONDED TABLE SIZE: 705 POINTS
TCL: Running for 1500000 steps
ETITLE: TS BOND ANGLE DIHED IMPRP ELECT VDW BOUNDARY MISC KINETIC TOTAL TEMP POTENTIAL TOTALAVG TEMPAVG PRESSURE GPRESSURE VOLUME PRESSAVG GPRESSAVG
ENERGY: 0 4.8400 8.3855 14.3677 0.0000 -11002.5624 1535.2481 0.0000 0.0000 1802.3908 -7637.3304 302.8395 -9439.7212 -7637.3304 302.8395 126.9030 199.1181 30693.1063 126.9030 199.1181
ENERGY: 300000 2.8638 5.4358 14.9143 0.0000 -10640.1479 1352.2502 0.0000 0.0000 1763.2272 -7501.4566 296.2592 -9264.6838 -7533.4913 297.6104 -837.8728 -772.1308 30844.2112 -254.2355 -181.6158
ENERGY: 600000 3.0926 10.6868 13.6289 0.0000 -10899.7714 1465.9385 0.0000 0.0000 1758.0924 -7648.3321 295.3964 -9406.4245 -7551.4212 297.0647 -495.8190 -433.7184 30981.2265 -222.9416 -161.9496
ENERGY: 900000 1.6200 10.0173 14.7971 0.0000 -10954.9617 1584.1637 0.0000 0.0000 1791.4537 -7552.9101 301.0018 -9344.3637 -7559.9403 297.8617 983.5455 1045.5815 30377.3886 -85.7894 -32.2730
ENERGY: 1200000 2.3761 8.5884 14.7952 0.0000 -10761.6031 1472.1971 0.0000 0.0000 1840.4603 -7423.1859 309.2360 -9263.6463 -7539.8658 298.8893 204.0863 206.8567 31096.1690 109.1094 153.7752
ENERGY: 1500000 5.4503 9.4466 14.3822 0.0000 -10891.4878 1543.0158 0.0000 0.0000 1817.9321 -7501.2608 305.4508 -9319.1929 -7528.1428 300.0220 810.9197 928.4253 30348.6989 90.5153 136.8342
TCL: Running FEP window   7: Lambda1 0.3    Lambda2 0.35   [dLambda 0.04999999999999999]
TCL: Setting parameter firsttimestep to 0
TCL: Setting parameter alchLambda to 0.3
Info: NONBONDED TABLE R-SQUARED SPACING: 0.0625
Info: NONBONDED TABLE SIZE: 705 POINTS
TCL: Setting parameter alchLambda2 to 0.35
Info: NONBONDED TABLE R-SQUARED SPACING: 0.0625
Info: NONBONDED TABLE SIZE: 705 POINTS
TCL: Running for 1500000 steps
ETITLE: TS BOND ANGLE DIHED IMPRP ELECT VDW BOUNDARY MISC KINETIC TOTAL TEMP POTENTIAL TOTALAVG TEMPAVG PRESSURE GPRESSURE VOLUME PRESSAVG GPRESSAVG
ENERGY: 0 5.4503 9.4466 14.3822 0.0000 -10891.4872 1543.6821 0.0000 0.0000 1817.0716 -7501.4544 305.3062 -9318.5260 -7501.4544 305.3062 843.0924 935.6301 30348.6989 843.0924 935.6301
ENERGY: 300000 3.5343 11.4036 14.6222 0.0000 -10869.0005 1530.4433 0.0000 0.0000 1697.6703 -7611.3268 285.2443 -9308.9971 -7562.4162 295.6706 597.5141 657.7409 30488.8745 355.8184 423.6990
ENERGY: 600000 5.0904 11.2017 13.4139 0.0000 -10845.5018 1459.9206 0.0000 0.0000 1797.7013 -7558.1739 302.0516 -9355.8752 -7533.4782 299.9187 -53.1863 40.6206 30541.0531 303.6556 378.3490
ENERGY: 900000 3.2950 11.6049 13.3500 0.0000 -10777.3897 1386.0379 0.0000 0.0000 1766.7592 -7596.3428 296.8526 -9363.1020 -7552.6475 299.8805 -583.7705 -554.4086 30636.3781 104.5892 168.3657
ENERGY: 1200000 1.8628 8.5134 15.0308 0.0000 -10743.5698 1404.6175 0.0000 0.0000 1785.4639 -7528.0814 299.9954 -9313.5453 -7544.6562 300.2520 -408.8526 -403.7477 30840.8705 63.4960 122.7383
ENERGY: 1500000 2.2126 7.1277 14.2409 0.0000 -10901.1284 1496.2777 0.0000 0.0000 1725.3987 -7655.8708 289.9032 -9381.2695 -7551.2651 299.7441 323.1458 331.8721 30362.1826 36.3429 90.0357
TCL: Running FEP window   8: Lambda1 0.35   Lambda2 0.39999999999999997 [dLambda 0.04999999999999999]
TCL: Setting parameter firsttimestep to 0
TCL: Setting parameter alchLambda to 0.35
Info: NONBONDED TABLE R-SQUARED SPACING: 0.0625
Info: NONBONDED TABLE SIZE: 705 POINTS
TCL: Setting parameter alchLambda2 to 0.39999999999999997
Info: NONBONDED TABLE R-SQUARED SPACING: 0.0625
Info: NONBONDED TABLE SIZE: 705 POINTS
TCL: Running for 1500000 steps
ETITLE: TS BOND ANGLE DIHED IMPRP ELECT VDW BOUNDARY MISC KINETIC TOTAL TEMP POTENTIAL TOTALAVG TEMPAVG PRESSURE GPRESSURE VOLUME PRESSAVG GPRESSAVG
ENERGY: 0 2.2126 7.1277 14.2409 0.0000 -10901.1298 1496.7990 0.0000 0.0000 1724.5172 -7656.2324 289.7551 -9380.7496 -7656.2324 289.7551 246.6194 338.8005 30362.1826 246.6194 338.8005
ENERGY: 300000 3.5094 11.0819 12.7978 0.0000 -10807.3023 1474.6441 0.0000 0.0000 1745.4938 -7559.7754 293.2796 -9305.2692 -7557.3264 293.7090 8.0446 47.5239 30972.1019 -150.9392 -70.1916
ENERGY: 600000 6.2325 11.9245 13.7657 0.0000 -10809.6732 1493.9821 0.0000 0.0000 1864.4731 -7419.2953 313.2706 -9283.7684 -7521.7824 298.3669 391.0667 485.4723 30741.8119 -60.7763 11.4244
ENERGY: 900000 2.5810 8.4113 14.6362 0.0000 -10728.8114 1363.8264 0.0000 0.0000 1767.7769 -7571.5797 297.0236 -9339.3566 -7525.5498 299.7520 -917.5540 -822.4304 31215.6663 -211.0453 -143.0244
ENERGY: 1200000 1.3268 11.8837 14.1210 0.0000 -10936.6270 1523.1510 0.0000 0.0000 1783.3170 -7602.8275 299.6347 -9386.1445 -7532.2861 299.2177 453.3240 452.0610 30553.1640 -140.2773 -84.4987
ENERGY: 1500000 5.3488 7.4396 14.2946 0.0000 -10783.4990 1445.8240 0.0000 0.0000 1763.4873 -7547.1047 296.3029 -9310.5921 -7533.1977 299.1918 -454.3317 -389.5622 31384.6135 -235.2888 -177.2758
TCL: Running FEP window   9: Lambda1 0.39999999999999997 Lambda2 0.44999999999999996 [dLambda 0.04999999999999999]
TCL: Setting parameter firsttimestep to 0
TCL: Setting parameter alchLambda to 0.39999999999999997
Info: NONBONDED TABLE R-SQUARED SPACING: 0.0625
Info: NONBONDED TABLE SIZE: 705 POINTS
TCL: Setting parameter alchLambda2 to 0.44999999999999996
Info: NONBONDED TABLE R-SQUARED SPACING: 0.0625
Info: NONBONDED TABLE SIZE: 705 POINTS
TCL: Running for 1500000 steps
ETITLE: TS BOND ANGLE DIHED IMPRP ELECT VDW BOUNDARY MISC KINETIC TOTAL TEMP POTENTIAL TOTALAVG TEMPAVG PRESSURE GPRESSURE VOLUME PRESSAVG GPRESSAVG
ENERGY: 0 5.3488 7.4396 14.2946 0.0000 -10783.5005 1445.6369 0.0000 0.0000 1762.6621 -7548.1186 296.1642 -9310.7806 -7548.1186 296.1642 -461.4337 -384.2763 31384.6135 -461.4337 -384.2763
ENERGY: 300000 1.3663 9.6148 13.4430 0.0000 -10835.4549 1432.1918 0.0000 0.0000 1802.3631 -7576.4759 302.8348 -9378.8390 -7540.0046 302.0041 -364.6302 -329.2352 30688.4740 -184.5235 -105.1821
ENERGY: 600000 1.3941 7.4273 14.4189 0.0000 -10799.8287 1478.8677 0.0000 0.0000 1763.3265 -7534.3941 296.2759 -9297.7206 -7517.7165 301.2887 433.2194 512.0988 30680.9759 -194.5406 -128.3524
ENERGY: 900000 4.7435 13.2054 13.2679 0.0000 -10912.1042 1552.5490 0.0000 0.0000 1795.0342 -7533.3043 301.6034 -9328.3385 -7541.0367 300.8713 645.7072 716.3230 30553.8740 15.3373 75.4089
ENERGY: 1200000 2.1531 5.3818 13.0210 0.0000 -10697.1312 1414.5807 0.0000 0.0000 1788.7604 -7473.2343 300.5493 -9261.9947 -7524.8539 301.2791 -549.4727 -440.0051 31361.7552 -120.1820 -58.7546
ENERGY: 1500000 2.0017 14.5130 13.7664 0.0000 -10754.2946 1400.7193 0.0000 0.0000 1798.6238 -7524.6702 302.2066 -9323.2940 -7521.6462 300.9701 -608.9008 -567.8642 30925.5057 -181.3917 -124.6362
TCL: Running FEP window  10: Lambda1 0.44999999999999996 Lambda2 0.49999999999999994 [dLambda 0.04999999999999999]
TCL: Setting parameter firsttimestep to 0
TCL: Setting parameter alchLambda to 0.44999999999999996
Info: NONBONDED TABLE R-SQUARED SPACING: 0.0625
Info: NONBONDED TABLE SIZE: 705 POINTS
TCL: Setting parameter alchLambda2 to 0.49999999999999994
Info: NONBONDED TABLE R-SQUARED SPACING: 0.0625
Info: NONBONDED TABLE SIZE: 705 POINTS
TCL: Running for 1500000 steps
ETITLE: TS BOND ANGLE DIHED IMPRP ELECT VDW BOUNDARY MISC KINETIC TOTAL TEMP POTENTIAL TOTALAVG TEMPAVG PRESSURE GPRESSURE VOLUME PRESSAVG GPRESSAVG
ENERGY: 0 2.0017 14.5130 13.7664 0.0000 -10754.2952 1400.8845 0.0000 0.0000 1797.7862 -7525.3433 302.0658 -9323.1296 -7525.3433 302.0658 -631.4405 -559.7082 30925.5057 -631.4405 -559.7082
ENERGY: 300000 5.4728 9.5441 13.8445 0.0000 -10792.4847 1459.8685 0.0000 0.0000 1808.0192 -7495.7355 303.7852 -9303.7547 -7546.5432 301.4282 151.8435 154.4392 30861.1632 -270.3911 -224.5192
ENERGY: 600000 3.1586 8.0500 13.9911 0.0000 -10843.9415 1404.7334 0.0000 0.0000 1785.6178 -7628.3906 300.0213 -9414.0085 -7554.8166 301.1710 -557.1210 -457.2743 30555.9254 -388.8902 -325.6165
ENERGY: 900000 5.6054 9.8807 15.8452 0.0000 -10794.1767 1450.7506 0.0000 0.0000 1776.6522 -7535.4426 298.5149 -9312.0948 -7557.3892 300.4787 -34.2160 -44.6675 30666.4335 -281.1479 -223.9319
ENERGY: 1200000 1.7025 10.0461 14.7372 0.0000 -10646.3527 1346.2880 0.0000 0.0000 1702.7264 -7570.8526 286.0938 -9273.5789 -7547.7942 299.3601 -780.1053 -685.9407 30680.4664 -281.2089 -219.8154
ENERGY: 1500000 1.8372 7.9825 13.0689 0.0000 -10669.6353 1345.5713 0.0000 0.0000 1801.8616 -7499.3137 302.7506 -9301.1754 -7547.6689 299.9676 -625.8271 -546.1719 30536.0403 -325.2059 -267.7242
TCL: Running FEP window  11: Lambda1 0.49999999999999994 Lambda2 0.5499999999999999 [dLambda 0.04999999999999999]
TCL: Setting parameter firsttimestep to 0
TCL: Setting parameter alchLambda to 0.49999999999999994
Info: NONBONDED TABLE R-SQUARED SPACING: 0.0625
Info: NONBONDED TABLE SIZE: 705 POINTS
TCL: Setting parameter alchLambda2 to 0.5499999999999999
Info: NONBONDED TABLE R-SQUARED SPACING: 0.0625
Info: NONBONDED TABLE SIZE: 705 POINTS
TCL: Running for 1500000 steps
ETITLE: TS BOND ANGLE DIHED IMPRP ELECT VDW BOUNDARY MISC KINETIC TOTAL TEMP POTENTIAL TOTALAVG TEMPAVG PRESSURE GPRESSURE VOLUME PRESSAVG GPRESSAVG
ENERGY: 0 1.8372 7.9825 13.0689 0.0000 -10669.6363 1346.7176 0.0000 0.0000 1800.9844 -7499.0456 302.6032 -9300.0301 -7499.0456 302.6032 -618.1129 -526.3217 30536.0403 -618.1129 -526.3217
ENERGY: 300000 3.9250 9.3973 15.9470 0.0000 -10787.0531 1416.2046 0.0000 0.0000 1759.5965 -7581.9826 295.6492 -9341.5791 -7519.3657 300.2842 -463.7660 -357.0947 30262.5310 -7.7807 78.8075
ENERGY: 600000 3.8043 5.8147 13.4112 0.0000 -10771.6203 1394.3799 0.0000 0.0000 1820.8592 -7533.3510 305.9426 -9354.2102 -7532.0589 301.7419 -758.9203 -651.7253 30693.0945 -240.3270 -155.5751
ENERGY: 900000 3.7041 6.4836 13.8497 0.0000 -10862.7313 1478.9100 0.0000 0.0000 1803.2619 -7556.5220 302.9859 -9359.7839 -7544.0774 300.9460 365.2067 387.5661 29888.0632 -133.6247 -55.8080
ENERGY: 1200000 1.3200 11.9223 14.2163 0.0000 -10803.4120 1450.7978 0.0000 0.0000 1795.8190 -7529.3365 301.7353 -9325.1555 -7537.8633 300.9438 131.5351 142.2642 30686.1806 -134.7705 -58.7775
ENERGY: 1500000 0.9782 8.8164 14.0235 0.0000 -10606.4496 1362.5250 0.0000 0.0000 1821.2396 -7398.8668 306.0065 -9220.1064 -7527.9237 301.5072 -623.6587 -549.8409 31326.9056 -194.9759 -122.2285
TCL: Running FEP window  12: Lambda1 0.5499999999999999 Lambda2 0.6    [dLambda 0.050000000000000044]
TCL: Setting parameter firsttimestep to 0
TCL: Setting parameter alchLambda to 0.5499999999999999
Info: NONBONDED TABLE R-SQUARED SPACING: 0.0625
Info: NONBONDED TABLE SIZE: 705 POINTS
TCL: Setting parameter alchLambda2 to 0.6
Info: NONBONDED TABLE R-SQUARED SPACING: 0.0625
Info: NONBONDED TABLE SIZE: 705 POINTS
TCL: Running for 1500000 steps
ETITLE: TS BOND ANGLE DIHED IMPRP ELECT VDW BOUNDARY MISC KINETIC TOTAL TEMP POTENTIAL TOTALAVG TEMPAVG PRESSURE GPRESSURE VOLUME PRESSAVG GPRESSAVG
ENERGY: 0 0.9782 8.8164 14.0235 0.0000 -10605.5526 1362.3821 0.0000 0.0000 1820.3189 -7399.0335 305.8518 -9219.3523 -7399.0335 305.8518 -612.0293 -540.4514 31326.9056 -612.0293 -540.4514
ENERGY: 300000 3.2711 11.1991 14.7923 0.0000 -10833.8968 1471.1838 0.0000 0.0000 1813.4450 -7520.0056 304.6968 -9333.4506 -7503.1543 303.0643 148.9539 125.9006 30761.9957 -274.0970 -228.4478
ENERGY: 600000 1.0396 8.5162 14.0435 0.0000 -10852.7407 1536.7622 0.0000 0.0000 1815.2776 -7477.1016 305.0047 -9292.3792 -7497.7114 302.4477 743.4684 859.4952 30532.6326 -251.9287 -189.1006
ENERGY: 900000 2.3340 10.2550 13.1855 0.0000 -10716.0138 1377.5149 0.0000 0.0000 1761.1670 -7551.5574 295.9130 -9312.7244 -7517.0051 300.3058 -532.5201 -410.4382 30947.9049 -278.1480 -212.3837
ENERGY: 1200000 3.7246 6.5199 13.8059 0.0000 -10783.3455 1489.7976 0.0000 0.0000 1783.5110 -7485.9865 299.6673 -9269.4975 -7524.1197 299.8504 203.8024 276.8384 30829.9062 -225.5835 -160.2039
ENERGY: 1500000 1.1257 11.7825 15.4870 0.0000 -10818.8215 1437.2569 0.0000 0.0000 1827.0559 -7526.1135 306.9838 -9353.1694 -7519.1619 300.0691 -489.9086 -380.0656 30955.7472 -180.5469 -113.1582
TCL: Running FEP window  13: Lambda1 0.6    Lambda2 0.65   [dLambda 0.050000000000000044]
TCL: Setting parameter firsttimestep to 0
TCL: Setting parameter alchLambda to 0.6
Info: NONBONDED TABLE R-SQUARED SPACING: 0.0625
Info: NONBONDED TABLE SIZE: 705 POINTS
TCL: Setting parameter alchLambda2 to 0.65
Info: NONBONDED TABLE R-SQUARED SPACING: 0.0625
Info: NONBONDED TABLE SIZE: 705 POINTS
TCL: Running for 1500000 steps
ETITLE: TS BOND ANGLE DIHED IMPRP ELECT VDW BOUNDARY MISC KINETIC TOTAL TEMP POTENTIAL TOTALAVG TEMPAVG PRESSURE GPRESSURE VOLUME PRESSAVG GPRESSAVG
ENERGY: 0 1.1257 11.7825 15.4870 0.0000 -10818.9174 1437.3029 0.0000 0.0000 1826.1703 -7527.0489 306.8350 -9353.2192 -7527.0489 306.8350 -446.6055 -371.1290 30955.7472 -446.6055 -371.1290
ENERGY: 300000 4.0915 6.7724 13.2709 0.0000 -10816.9985 1467.1631 0.0000 0.0000 1791.0551 -7534.6455 300.9349 -9325.7006 -7525.6312 304.6904 58.0654 112.2504 30498.0529 -480.7326 -416.3718
ENERGY: 600000 1.9962 8.6074 14.5592 0.0000 -10813.9844 1497.2900 0.0000 0.0000 1816.5556 -7474.9759 305.2195 -9291.5314 -7510.9934 302.8169 275.2492 456.5757 30849.2401 -310.0080 -251.7038
ENERGY: 900000 6.1718 11.1237 12.7693 0.0000 -10725.1515 1431.2534 0.0000 0.0000 1790.5781 -7473.2553 300.8547 -9263.8333 -7508.3221 302.0913 -154.7006 -49.5328 30800.8465 -167.3427 -104.6836
ENERGY: 1200000 4.3964 8.4808 13.9832 0.0000 -10814.5190 1464.4143 0.0000 0.0000 1768.9146 -7554.3296 297.2148 -9323.2443 -7505.9494 301.6655 7.1097 103.6839 30886.8882 -91.9660 -27.6962
ENERGY: 1500000 5.4256 9.6292 15.2231 0.0000 -10844.7037 1447.4876 0.0000 0.0000 1775.3576 -7591.5806 298.2974 -9366.9382 -7517.9436 301.4672 -553.0673 -439.6127 30898.7061 -164.1939 -98.9729
TCL: Running FEP window  14: Lambda1 0.65   Lambda2 0.7000000000000001 [dLambda 0.050000000000000044]
TCL: Setting parameter firsttimestep to 0
TCL: Setting parameter alchLambda to 0.65
Info: NONBONDED TABLE R-SQUARED SPACING: 0.0625
Info: NONBONDED TABLE SIZE: 705 POINTS
TCL: Setting parameter alchLambda2 to 0.7000000000000001
Info: NONBONDED TABLE R-SQUARED SPACING: 0.0625
Info: NONBONDED TABLE SIZE: 705 POINTS
TCL: Running for 1500000 steps
ETITLE: TS BOND ANGLE DIHED IMPRP ELECT VDW BOUNDARY MISC KINETIC TOTAL TEMP POTENTIAL TOTALAVG TEMPAVG PRESSURE GPRESSURE VOLUME PRESSAVG GPRESSAVG
ENERGY: 0 5.4256 9.6292 15.2231 0.0000 -10845.7362 1446.9870 0.0000 0.0000 1774.4819 -7593.9894 298.1502 -9368.4713 -7593.9894 298.1502 -523.7826 -439.7201 30898.7061 -523.7826 -439.7201
ENERGY: 300000 3.1852 12.6648 13.2593 0.0000 -10756.2478 1453.8863 0.0000 0.0000 1864.9761 -7408.2763 313.3552 -9273.2524 -7514.5772 303.1327 438.8553 524.4013 30381.6694 -144.0293 -67.3986
ENERGY: 600000 2.3107 12.0015 13.7074 0.0000 -10902.8842 1522.5840 0.0000 0.0000 1855.0633 -7497.2172 311.6896 -9352.2805 -7489.7158 304.4451 364.8799 457.2895 30832.0951 185.9968 272.1078
ENERGY: 900000 5.7346 10.7759 14.7163 0.0000 -10830.5032 1502.5156 0.0000 0.0000 1796.4200 -7500.3409 301.8363 -9296.7609 -7501.6898 303.4855 330.2070 442.8746 30727.9521 84.3824 167.3829
ENERGY: 1200000 1.9198 7.9279 14.0018 0.0000 -10803.2795 1414.4611 0.0000 0.0000 1797.1442 -7567.8248 301.9580 -9364.9690 -7510.2564 301.4252 -651.2205 -538.2871 31233.2653 63.5428 145.1032
ENERGY: 1500000 4.0174 5.6493 12.7364 0.0000 -10815.3283 1476.7432 0.0000 0.0000 1781.8748 -7534.3071 299.3924 -9316.1819 -7506.4804 301.5230 104.3054 188.6651 31015.5481 70.5653 148.8929
TCL: Running FEP window  15: Lambda1 0.7000000000000001 Lambda2 0.7500000000000001 [dLambda 0.050000000000000044]
TCL: Setting parameter firsttimestep to 0
TCL: Setting parameter alchLambda to 0.7000000000000001
Info: NONBONDED TABLE R-SQUARED SPACING: 0.0625
Info: NONBONDED TABLE SIZE: 705 POINTS
TCL: Setting parameter alchLambda2 to 0.7500000000000001
Info: NONBONDED TABLE R-SQUARED SPACING: 0.0625
Info: NONBONDED TABLE SIZE: 705 POINTS
TCL: Running for 1500000 steps
ETITLE: TS BOND ANGLE DIHED IMPRP ELECT VDW BOUNDARY MISC KINETIC TOTAL TEMP POTENTIAL TOTALAVG TEMPAVG PRESSURE GPRESSURE VOLUME PRESSAVG GPRESSAVG
ENERGY: 0 4.0174 5.6493 12.7364 0.0000 -10818.9950 1478.4381 0.0000 0.0000 1780.9489 -7537.2048 299.2368 -9318.1537 -7537.2048 299.2368 116.4357 204.8913 31015.5481 116.4357 204.8913
ENERGY: 300000 5.6304 13.6134 13.0495 0.0000 -10654.5839 1442.3370 0.0000 0.0000 1783.2329 -7396.7208 299.6206 -9179.9537 -7479.9642 302.1820 243.0463 281.9877 30790.4174 62.5688 124.2014
ENERGY: 600000 4.1123 7.7082 12.9557 0.0000 -10770.8361 1404.3898 0.0000 0.0000 1759.2442 -7582.4259 295.5900 -9341.6701 -7519.9346 300.1359 -393.2787 -337.1438 30566.4772 47.9905 128.3936
ENERGY: 900000 2.6281 6.5541 14.0492 0.0000 -10725.0203 1404.8660 0.0000 0.0000 1813.4162 -7483.5069 304.6920 -9296.9231 -7517.3684 300.1690 -196.2547 -162.4208 30507.1489 -96.1753 -27.7680
ENERGY: 1200000 3.2584 11.4257 13.3585 0.0000 -10916.6816 1549.6524 0.0000 0.0000 1748.7290 -7590.2576 293.8232 -9338.9866 -7529.8975 299.4920 677.2177 696.4998 30627.7189 -97.7052 -31.5497
ENERGY: 1500000 6.4924 14.2475 15.0848 0.0000 -10759.3987 1430.5144 0.0000 0.0000 1730.2307 -7562.8288 290.7151 -9293.0596 -7536.1949 298.6127 -111.7714 23.3469 30496.1004 -108.7453 -38.6938
TCL: Running FEP window  16: Lambda1 0.7500000000000001 Lambda2 0.8000000000000002 [dLambda 0.050000000000000044]
TCL: Setting parameter firsttimestep to 0
TCL: Setting parameter alchLambda to 0.7500000000000001
Info: NONBONDED TABLE R-SQUARED SPACING: 0.0625
Info: NONBONDED TABLE SIZE: 705 POINTS
TCL: Setting parameter alchLambda2 to 0.8000000000000002
Info: NONBONDED TABLE R-SQUARED SPACING: 0.0625
Info: NONBONDED TABLE SIZE: 705 POINTS
TCL: Running for 1500000 steps
ETITLE: TS BOND ANGLE DIHED IMPRP ELECT VDW BOUNDARY MISC KINETIC TOTAL TEMP POTENTIAL TOTALAVG TEMPAVG PRESSURE GPRESSURE VOLUME PRESSAVG GPRESSAVG
ENERGY: 0 6.4924 14.2475 15.0848 0.0000 -10761.9305 1431.1794 0.0000 0.0000 1729.3523 -7565.5741 290.5675 -9294.9264 -7565.5741 290.5675 -58.7333 26.6383 30496.1004 -58.7333 26.6383
ENERGY: 300000 5.2152 7.6075 13.3781 0.0000 -10748.5559 1492.3710 0.0000 0.0000 1743.6213 -7486.3629 292.9650 -9229.9841 -7519.6315 297.2547 342.2406 391.9966 31046.2499 -74.3781 3.5443
ENERGY: 600000 3.6889 6.9935 12.9676 0.0000 -10767.2452 1412.7838 0.0000 0.0000 1815.5008 -7515.3106 305.0423 -9330.8114 -7524.5455 298.9796 -542.4386 -491.9179 31143.1943 -177.6065 -93.6026
ENERGY: 900000 4.1330 7.1063 13.3619 0.0000 -10712.6419 1381.5752 0.0000 0.0000 1755.8542 -7550.6113 295.0204 -9306.4655 -7532.0356 298.4234 -690.7263 -597.2129 30867.8391 -169.3131 -98.5655
ENERGY: 1200000 1.5530 7.1211 12.5413 0.0000 -10708.8017 1395.7954 0.0000 0.0000 1717.6335 -7574.1574 288.5985 -9291.7909 -7535.7065 298.4611 -494.4004 -467.8290 31037.6281 -174.0681 -114.0863
ENERGY: 1500000 4.0426 6.1687 13.5695 0.0000 -10841.0804 1482.7316 0.0000 0.0000 1754.0453 -7580.5228 294.7164 -9334.5680 -7536.9963 298.8610 147.4818 205.2121 30786.9962 -219.1296 -152.3002
TCL: Running FEP window  17: Lambda1 0.8000000000000002 Lambda2 0.8500000000000002 [dLambda 0.050000000000000044]
TCL: Setting parameter firsttimestep to 0
TCL: Setting parameter alchLambda to 0.8000000000000002
Info: NONBONDED TABLE R-SQUARED SPACING: 0.0625
Info: NONBONDED TABLE SIZE: 705 POINTS
TCL: Setting parameter alchLambda2 to 0.8500000000000002
Info: NONBONDED TABLE R-SQUARED SPACING: 0.0625
Info: NONBONDED TABLE SIZE: 705 POINTS
TCL: Running for 1500000 steps
ETITLE: TS BOND ANGLE DIHED IMPRP ELECT VDW BOUNDARY MISC KINETIC TOTAL TEMP POTENTIAL TOTALAVG TEMPAVG PRESSURE GPRESSURE VOLUME PRESSAVG GPRESSAVG
ENERGY: 0 4.0426 6.1687 13.5695 0.0000 -10844.5883 1484.3433 0.0000 0.0000 1753.1470 -7583.3172 294.5655 -9336.4642 -7583.3172 294.5655 145.1545 223.0480 30786.9962 145.1545 223.0480
ENERGY: 300000 4.1925 9.5489 12.7975 0.0000 -10773.7575 1474.8518 0.0000 0.0000 1796.5375 -7475.8293 301.8560 -9272.3668 -7532.5695 297.6931 227.2802 266.8966 30825.8405 -203.1648 -130.9264
ENERGY: 600000 4.6187 17.4206 16.0925 0.0000 -10815.4410 1504.3341 0.0000 0.0000 1803.4096 -7469.5656 303.0107 -9272.9752 -7545.4187 297.9509 477.0793 565.7785 30956.5711 -62.8556 -3.6330
ENERGY: 900000 3.9249 9.3258 13.5861 0.0000 -10898.5588 1556.6813 0.0000 0.0000 1757.9565 -7557.0841 295.3736 -9315.0407 -7531.3606 299.5941 852.0142 938.9990 30364.4064 -6.2486 63.4653
ENERGY: 1200000 1.3532 7.8700 14.1023 0.0000 -10852.9265 1533.4900 0.0000 0.0000 1828.4030 -7467.7080 307.2101 -9296.1110 -7530.8196 300.4195 865.2385 945.7290 30571.4508 33.9979 105.0660
ENERGY: 1500000 5.7457 7.5444 12.8957 0.0000 -10759.1585 1447.8219 0.0000 0.0000 1825.2617 -7459.8892 306.6823 -9285.1509 -7526.7683 300.4684 -151.2851 -148.4763 31000.4737 -37.0775 31.1176
TCL: Running FEP window  18: Lambda1 0.8500000000000002 Lambda2 0.9000000000000002 [dLambda 0.050000000000000044]
TCL: Setting parameter firsttimestep to 0
TCL: Setting parameter alchLambda to 0.8500000000000002
Info: NONBONDED TABLE R-SQUARED SPACING: 0.0625
Info: NONBONDED TABLE SIZE: 705 POINTS
TCL: Setting parameter alchLambda2 to 0.9000000000000002
Info: NONBONDED TABLE R-SQUARED SPACING: 0.0625
Info: NONBONDED TABLE SIZE: 705 POINTS
TCL: Running for 1500000 steps
ETITLE: TS BOND ANGLE DIHED IMPRP ELECT VDW BOUNDARY MISC KINETIC TOTAL TEMP POTENTIAL TOTALAVG TEMPAVG PRESSURE GPRESSURE VOLUME PRESSAVG GPRESSAVG
ENERGY: 0 5.7457 7.5444 12.8957 0.0000 -10763.9321 1450.5427 0.0000 0.0000 1824.3692 -7462.8344 306.5323 -9287.2036 -7462.8344 306.5323 -210.1987 -123.1717 31000.4737 -210.1987 -123.1717
ENERGY: 300000 3.0564 11.2798 14.4469 0.0000 -10794.1136 1443.8914 0.0000 0.0000 1820.4287 -7501.0104 305.8702 -9321.4391 -7490.8062 306.8366 17.5360 55.3050 30593.4155 -48.2011 26.0361
ENERGY: 600000 2.4595 8.4320 13.0456 0.0000 -10958.1525 1557.1649 0.0000 0.0000 1808.6346 -7568.4158 303.8886 -9377.0504 -7534.1505 304.9255 598.6988 658.8552 30771.1163 195.4470 269.2230
ENERGY: 900000 5.6558 7.7769 12.4259 0.0000 -10780.5995 1441.6211 0.0000 0.0000 1762.6901 -7550.4296 296.1690 -9313.1197 -7528.6134 304.0095 -113.8034 -87.3462 30707.8822 146.7552 215.9917
ENERGY: 1200000 6.0396 9.6397 13.0261 0.0000 -10888.6765 1461.6284 0.0000 0.0000 1761.1889 -7637.1538 295.9167 -9398.3426 -7534.8008 302.2983 -238.8164 -207.1687 30505.3536 79.0608 137.8588
ENERGY: 1500000 5.8838 5.8046 12.7258 0.0000 -10673.7050 1347.7830 0.0000 0.0000 1819.9889 -7481.5189 305.7964 -9301.5078 -7536.1653 302.5426 -457.5539 -442.4154 30462.0996 52.7508 112.8827
TCL: Running FEP window  19: Lambda1 0.9000000000000002 Lambda2 0.9500000000000003 [dLambda 0.050000000000000044]
TCL: Setting parameter firsttimestep to 0
TCL: Setting parameter alchLambda to 0.9000000000000002
Info: NONBONDED TABLE R-SQUARED SPACING: 0.0625
Info: NONBONDED TABLE SIZE: 705 POINTS
TCL: Setting parameter alchLambda2 to 0.9500000000000003
Info: NONBONDED TABLE R-SQUARED SPACING: 0.0625
Info: NONBONDED TABLE SIZE: 705 POINTS
TCL: Running for 1500000 steps
ETITLE: TS BOND ANGLE DIHED IMPRP ELECT VDW BOUNDARY MISC KINETIC TOTAL TEMP POTENTIAL TOTALAVG TEMPAVG PRESSURE GPRESSURE VOLUME PRESSAVG GPRESSAVG
ENERGY: 0 5.8838 5.8046 12.7258 0.0000 -10676.6050 1349.7815 0.0000 0.0000 1819.0757 -7483.3337 305.6429 -9302.4094 -7483.3337 305.6429 -493.8155 -412.4077 30462.0996 -493.8155 -412.4077
ENERGY: 300000 2.6950 8.7537 13.7761 0.0000 -10786.8177 1423.5009 0.0000 0.0000 1795.2055 -7542.8865 301.6322 -9338.0921 -7498.8852 303.2438 -283.0242 -198.2959 30781.2994 -306.3523 -213.1882
ENERGY: 600000 4.6509 10.3056 13.3493 0.0000 -10928.3637 1548.0740 0.0000 0.0000 1819.2948 -7532.6892 305.6797 -9351.9840 -7494.6093 303.3797 516.3109 544.5532 30802.8977 -52.9063 27.0185
ENERGY: 900000 2.2018 8.5349 12.7859 0.0000 -10820.3826 1408.6112 0.0000 0.0000 1802.5297 -7585.7190 302.8628 -9388.2488 -7522.2756 302.2825 -533.7644 -478.9080 30874.0694 -115.7880 -43.5051
ENERGY: 1200000 2.7335 9.3822 13.0514 0.0000 -10861.7390 1451.2808 0.0000 0.0000 1770.7208 -7614.5702 297.5183 -9385.2910 -7535.8489 301.4739 -153.3925 -70.8844 30729.1044 -95.2905 -25.7847
ENERGY: 1500000 1.9961 10.9864 13.3584 0.0000 -10722.9734 1413.3649 0.0000 0.0000 1781.3872 -7501.8803 299.3105 -9283.2676 -7539.9890 300.5521 21.4165 55.5255 30497.8120 -10.1702 57.9955
TCL: Running FEP window  20: Lambda1 0.9500000000000003 Lambda2 1.0    [dLambda 0.04999999999999971]
TCL: Setting parameter firsttimestep to 0
TCL: Setting parameter alchLambda to 0.9500000000000003
Info: NONBONDED TABLE R-SQUARED SPACING: 0.0625
Info: NONBONDED TABLE SIZE: 705 POINTS
TCL: Setting parameter alchLambda2 to 1.0
Info: NONBONDED TABLE R-SQUARED SPACING: 0.0625
Info: NONBONDED TABLE SIZE: 705 POINTS
TCL: Running for 1500000 steps
ETITLE: TS BOND ANGLE DIHED IMPRP ELECT VDW BOUNDARY MISC KINETIC TOTAL TEMP POTENTIAL TOTALAVG TEMPAVG PRESSURE GPRESSURE VOLUME PRESSAVG GPRESSAVG
ENERGY: 0 1.9961 10.9864 13.3584 0.0000 -10728.2081 1416.8837 0.0000 0.0000 1780.4967 -7504.4868 299.1608 -9284.9835 -7504.4868 299.1608 19.7653 97.4838 30497.8120 19.7653 97.4838
ENERGY: 300000 5.2248 9.0838 12.6369 0.0000 -10745.9894 1425.1742 0.0000 0.0000 1734.5034 -7559.3664 291.4330 -9293.8698 -7559.0979 296.1722 77.6469 119.6431 30508.2080 -144.3807 -78.2645
ENERGY: 600000 3.1417 9.9127 13.8555 0.0000 -10745.3738 1400.6347 0.0000 0.0000 1791.9922 -7525.8369 301.0923 -9317.8291 -7560.4936 298.1760 -309.9377 -282.8647 30672.5323 -96.9264 -41.4094
ENERGY: 900000 2.0335 12.5238 13.8016 0.0000 -10879.7520 1502.9295 0.0000 0.0000 1785.3440 -7563.1197 299.9753 -9348.4637 -7559.9849 297.9731 491.0374 611.4428 30528.5315 -82.9073 -35.8217
ENERGY: 1200000 2.4799 9.5251 12.9510 0.0000 -10917.5935 1466.9247 0.0000 0.0000 1778.0864 -7647.6264 298.7558 -9425.7128 -7572.1396 297.5765 -147.1922 -68.3643 30582.3332 -80.2865 -29.4352
ENERGY: 1500000 4.5704 7.4586 14.8059 0.0000 -10689.2530 1363.2218 0.0000 0.0000 1807.9182 -7491.2781 303.7682 -9299.1964 -7571.0638 298.0429 -712.5353 -691.3384 31149.2120 -77.7446 -31.2001
TCL: Exiting due to exit command.
