Info: SIMULATION PARAMETERS:
Info: TIMESTEP               2
Info: NUMBER OF STEPS        0
Info: STEPS PER CYCLE        10
Info: PERIODIC CELL BASIS 1  30.8615 0 0
Info: PERIODIC CELL BASIS 2  0 31.2364 0
Info: PERIODIC CELL BASIS 3  0 0 31.5116
Info: PERIODIC CELL CENTER   0 0 0
Info: WRAPPING WATERS AROUND PERIODIC BOUNDARIES ON OUTPUT.
Info: WRAPPING ALL CLUSTERS AROUND PERIODIC BOUNDARIES ON OUTPUT.
Info: FIRST LDB TIMESTEP     50
Info: LAST LDB TIMESTEP     -1
Info: HOM BACKGROUND SCALING 1
Info: PME BACKGROUND SCALING 1
Info: MIN ATOMS PER PATCH    40
Info: EMPTY PATCH LOAD       40 ATOMS
Info: VELOCITY FILE          mobley_8578590_equil.vel
Info: CENTER OF MASS MOVING INITIALLY? NO
Info: DIELECTRIC             1
Info: EXCLUDE                SCALED ONE-FOUR
Info: 1-4 ELECTROSTATICS SCALED BY 0.833333
Info: MODIFIED 1-4 VDW PARAMETERS WILL BE USED
Info: DCD FILENAME           mobley_8578590_prod.dcd
Info: DCD FREQUENCY          100000
Info: DCD FIRST STEP         100000
Info: DCD FILE WILL CONTAIN UNIT CELL DATA
Info: XST FILENAME           mobley_8578590_prod.xst
Info: XST FREQUENCY          100000
Info: NO VELOCITY DCD OUTPUT
Info: NO FORCE DCD OUTPUT
Info: OUTPUT FILENAME        mobley_8578590_prod
Info: BINARY OUTPUT FILES WILL BE USED
Info: RESTART FILENAME       mobley_8578590_prod.restart
Info: RESTART FREQUENCY      100000
Info: BINARY RESTART FILES WILL BE USED
Info: CUTOFF                 9
Info: PAIRLIST DISTANCE      11
Info: PAIRLIST SHRINK RATE   0.01
Info: PAIRLIST GROW RATE     0.01
Info: PAIRLIST TRIGGER       0.3
Info: PAIRLISTS PER CYCLE    2
Info: PAIRLISTS ENABLED
Info: MARGIN                 2
Info: HYDROGEN GROUP CUTOFF  2.5
Info: PATCH DIMENSION        15.5
Info: ENERGY OUTPUT STEPS    100000
Info: ENERGY EVALUATION STEPS    100000
Info: OUTPUT ENERGY PRECISION 4
Info: CROSSTERM ENERGY INCLUDED IN DIHEDRAL
Info: TIMING OUTPUT STEPS    1000000
Info: PRESSURE OUTPUT STEPS  100000
Info: ALCHEMICAL FEP ON
Info: FEP CURRENT LAMBDA VALUE     0
Info: FEP COMPARISON LAMBDA VALUE  0.05
Info: FEP INTRA-ALCHEMICAL NON-BONDED INTERACTIONS WILL BE RETAINED
Info: FEP INTRA-ALCHEMICAL BONDED INTERACTIONS WILL BE RETAINED
Info: FEP VDW SHIFTING COEFFICIENT 5
Info: FEP ELEC. ACTIVE FOR ANNIHILATED PARTICLES BETWEEN LAMBDA = 0 AND LAMBDA = 0.5
Info: FEP ELEC. ACTIVE FOR EXNIHILATED PARTICLES BETWEEN LAMBDA = 0.5 AND LAMBDA = 1
Info: FEP VDW ACTIVE FOR ANNIHILATED PARTICLES BETWEEN LAMBDA = 0 AND LAMBDA = 1
Info: FEP VDW ACTIVE FOR EXNIHILATED PARTICLES BETWEEN LAMBDA = 0 AND LAMBDA = 1
Info: FEP BOND ACTIVE FOR ANNIHILATED PARTICLES BETWEEN LAMBDA = 1 AND LAMBDA = 1
Info: FEP BOND ACTIVE FOR EXNIHILATED PARTICLES BETWEEN LAMBDA = 0 AND LAMBDA = 0
Info: LANGEVIN DYNAMICS ACTIVE
Info: LANGEVIN TEMPERATURE   300
Info: LANGEVIN USING BBK INTEGRATOR
Info: LANGEVIN DAMPING COEFFICIENT IS 1 INVERSE PS
Info: LANGEVIN DYNAMICS APPLIED TO HYDROGENS
Info: LANGEVIN PISTON PRESSURE CONTROL ACTIVE
Info:        TARGET PRESSURE IS 1.01325 BAR
Info:     OSCILLATION PERIOD IS 50 FS
Info:             DECAY TIME IS 25 FS
Info:     PISTON TEMPERATURE IS 300 K
Info:       PRESSURE CONTROL IS GROUP-BASED
Info:    INITIAL STRAIN RATE IS -0.000318926 -0.000318926 -0.000318926
Info:       CELL FLUCTUATION IS ISOTROPIC
Info: PARTICLE MESH EWALD (PME) ACTIVE
Info: PME TOLERANCE               1e-06
Info: PME EWALD COEFFICIENT       0.348832
Info: PME INTERPOLATION ORDER     4
Info: PME GRID DIMENSIONS         32 32 32
Info: PME MAXIMUM GRID SPACING    1
Info: PME CALCULATION WILL BE PERFORMED ON GPU
Info: FULL ELECTROSTATIC EVALUATION FREQUENCY      2
Info: USING VERLET I (r-RESPA) MTS SCHEME.
Info: C1 SPLITTING OF LONG RANGE ELECTROSTATICS
Info: PLACING ATOMS IN PATCHES BY HYDROGEN GROUPS
Info: RIGID BONDS TO HYDROGEN : ALL
Info:         ERROR TOLERANCE : 1e-08
Info:          MAX ITERATIONS : 100
Info: RIGID WATER USING SETTLE ALGORITHM
Info: RANDOM NUMBER SEED     1743507563
Info: USE HYDROGEN BONDS?    NO
Info: Using AMBER format force field!
Info: AMBER PARM FILE        mobley_8578590.prmtop
Info: COORDINATE PDB         mobley_8578590.pdb
Info: Exclusions will be read from PARM file!
Info: SCNB (VDW SCALING)     2
Info: USING ARITHMETIC MEAN TO COMBINE L-J SIGMA PARAMETERS
Info: BINARY COORDINATES     mobley_8578590_equil.coor
Info: SUMMARY OF PARAMETERS:
Info: 5 BONDS
Info: 4 ANGLES
Info:   4 HARMONIC
Info:   0 COSINE-BASED
Info: 1 DIHEDRAL
Info: 0 IMPROPER
Info: 0 CROSSTERM
Info: 0 VDW
Info: 21 VDW_PAIRS
Info: 0 NBTHOLE_PAIRS
Info: To read alchdata from file: mobley_8578590.pdb
Info: To read alchflag data from column: 5
Info: STRUCTURE SUMMARY:
Info: 2962 ATOMS
Info: 2961 BONDS
Info: 15 ANGLES
Info: 12 DIHEDRALS
Info: 0 IMPROPERS
Info: 0 CROSSTERMS
Info: 2988 EXCLUSIONS
Info: 2958 RIGID BONDS
Info: ALCH: 0 ATOMS TO DISAPPEAR IN FINAL STATE
Info: ALCH: 10 ATOMS TO APPEAR IN FINAL STATE
Info: 5928 DEGREES OF FREEDOM
Info: 988 HYDROGEN GROUPS
Info: 4 ATOMS IN LARGEST HYDROGEN GROUP
Info: 988 MIGRATION GROUPS
Info: 4 ATOMS IN LARGEST MIGRATION GROUP
Info: TOTAL MASS = 17805.9 amu
Info: TOTAL CHARGE = 0.00030005 e
Info: MASS DENSITY = 0.973363 g/cm^3
Info: ATOM DENSITY = 0.0975073 atoms/A^3
Info: ADDED 0 IMPLICIT EXCLUSIONS
Info: NONBONDED TABLE R-SQUARED SPACING: 0.0625
Info: NONBONDED TABLE SIZE: 705 POINTS
Info: REMOVING COM VELOCITY 0.0982548 0.118699 -0.130851
Info: Use 3D box decompostion in PME FFT.
Info: Updated CUDA force table with 4096 elements.
Info: Updated CUDA LJ table with 6 x 6 elements.
Info: Found 13 unique exclusion lists needing 20 bytes
TCL: Running for 1500000 steps
ETITLE: TS BOND ANGLE DIHED IMPRP ELECT VDW BOUNDARY MISC KINETIC TOTAL TEMP POTENTIAL TOTALAVG TEMPAVG PRESSURE GPRESSURE VOLUME PRESSAVG GPRESSAVG
ENERGY: 0 1.6102 3.7428 0.8918 0.0000 -10752.0914 1484.1801 0.0000 0.0000 1792.9301 -7468.7364 304.4006 -9261.6665 -7468.7364 304.4006 568.4033 648.3328 30377.2048 568.4033 648.3328
ENERGY: 300000 0.7973 2.5508 0.5601 0.0000 -10846.4586 1494.2003 0.0000 0.0000 1792.9357 -7555.4143 304.4016 -9348.3501 -7465.0128 306.1474 365.8266 367.7004 30417.0066 309.5588 365.3892
ENERGY: 600000 1.3945 2.1296 0.3941 0.0000 -10855.0734 1492.8510 0.0000 0.0000 1748.3301 -7609.9741 296.8285 -9358.3042 -7503.9021 303.2119 197.9139 253.0426 30339.4354 142.1275 194.7176
ENERGY: 900000 1.4247 4.0959 0.4048 0.0000 -10822.9034 1486.7540 0.0000 0.0000 1738.7187 -7591.5051 295.1967 -9330.2238 -7520.3362 302.0773 439.7421 432.3221 30196.5566 220.8307 273.8445
ENERGY: 1200000 0.1933 4.2665 1.6486 0.0000 -10742.6075 1419.0707 0.0000 0.0000 1736.1901 -7581.2383 294.7674 -9317.4284 -7521.9873 301.0259 -280.5891 -178.8026 30487.0261 137.6437 204.3442
ENERGY: 1500000 1.7009 2.4032 0.7281 0.0000 -10761.5095 1467.4130 0.0000 0.0000 1803.4975 -7485.7668 306.1947 -9289.2643 -7522.6976 301.4557 326.7386 275.2997 30495.3565 123.3091 183.8661
TCL: Running FEP window   2: Lambda1 0.05   Lambda2 0.1    [dLambda 0.05  ]
TCL: Setting parameter firsttimestep to 0
TCL: Setting parameter alchLambda to 0.05
Info: NONBONDED TABLE R-SQUARED SPACING: 0.0625
Info: NONBONDED TABLE SIZE: 705 POINTS
TCL: Setting parameter alchLambda2 to 0.1
Info: NONBONDED TABLE R-SQUARED SPACING: 0.0625
Info: NONBONDED TABLE SIZE: 705 POINTS
TCL: Running for 1500000 steps
ETITLE: TS BOND ANGLE DIHED IMPRP ELECT VDW BOUNDARY MISC KINETIC TOTAL TEMP POTENTIAL TOTALAVG TEMPAVG PRESSURE GPRESSURE VOLUME PRESSAVG GPRESSAVG
ENERGY: 0 1.7009 2.4032 0.7281 0.0000 -10761.5085 1468.5536 0.0000 0.0000 1802.6229 -7485.4998 306.0463 -9288.1227 -7485.4998 306.0463 197.3847 276.8669 30495.3565 197.3847 276.8669
ENERGY: 300000 0.2710 4.8638 0.5640 0.0000 -10768.3265 1511.0516 0.0000 0.0000 1830.5242 -7421.0519 310.7833 -9251.5760 -7481.7089 304.9340 728.3136 759.7891 30383.0437 35.4454 82.7405
ENERGY: 600000 0.0910 6.8138 0.6340 0.0000 -10778.3149 1487.7318 0.0000 0.0000 1789.1925 -7493.8519 303.7661 -9283.0444 -7513.2286 302.2896 115.3941 275.8703 30524.7578 -73.9745 6.8335
ENERGY: 900000 1.1097 2.3580 1.5361 0.0000 -10771.5116 1498.2297 0.0000 0.0000 1782.2011 -7486.0770 302.5791 -9268.2781 -7521.7406 301.7035 533.1218 685.7892 30123.1135 -90.5178 -8.4023
ENERGY: 1200000 1.4530 5.0865 0.6894 0.0000 -10853.1840 1472.5618 0.0000 0.0000 1828.7947 -7544.5987 310.4897 -9373.3934 -7526.5802 302.1665 -79.4403 3.0161 30613.5487 -87.1686 -4.4665
ENERGY: 1500000 0.9257 6.9658 0.5272 0.0000 -10838.5151 1493.5447 0.0000 0.0000 1749.4171 -7587.1347 297.0131 -9336.5517 -7529.9328 301.6952 497.6297 528.1537 29983.5991 -8.7580 65.1958
TCL: Running FEP window   3: Lambda1 0.1    Lambda2 0.15000000000000002 [dLambda 0.05000000000000002]
TCL: Setting parameter firsttimestep to 0
TCL: Setting parameter alchLambda to 0.1
Info: NONBONDED TABLE R-SQUARED SPACING: 0.0625
Info: NONBONDED TABLE SIZE: 705 POINTS
TCL: Setting parameter alchLambda2 to 0.15000000000000002
Info: NONBONDED TABLE R-SQUARED SPACING: 0.0625
Info: NONBONDED TABLE SIZE: 705 POINTS
TCL: Running for 1500000 steps
ETITLE: TS BOND ANGLE DIHED IMPRP ELECT VDW BOUNDARY MISC KINETIC TOTAL TEMP POTENTIAL TOTALAVG TEMPAVG PRESSURE GPRESSURE VOLUME PRESSAVG GPRESSAVG
ENERGY: 0 0.9257 6.9658 0.5272 0.0000 -10838.5151 1493.4521 0.0000 0.0000 1748.5267 -7588.1175 296.8619 -9336.6443 -7588.1175 296.8619 448.5752 530.0630 29983.5991 448.5752 530.0630
ENERGY: 300000 0.8417 4.1720 0.9180 0.0000 -10917.3351 1579.7389 0.0000 0.0000 1789.4871 -7542.1774 303.8161 -9331.6645 -7556.2283 300.0544 1032.5981 1117.6155 30201.6537 306.2187 376.2814
ENERGY: 600000 2.9640 4.4169 0.7748 0.0000 -10846.3353 1487.6472 0.0000 0.0000 1786.4836 -7564.0488 303.3062 -9350.5324 -7551.7276 301.4478 210.5917 225.1033 30420.0619 219.3358 278.1304
ENERGY: 900000 0.8142 3.7856 0.6839 0.0000 -10911.8109 1499.8764 0.0000 0.0000 1741.3555 -7665.2952 295.6444 -9406.6508 -7560.5490 301.2602 270.4829 315.7630 29936.4224 128.8280 184.7737
ENERGY: 1200000 0.1129 2.4675 2.0566 0.0000 -10655.4067 1374.4419 0.0000 0.0000 1741.4538 -7534.8740 295.6611 -9276.3278 -7557.6204 300.1487 -643.1669 -616.7639 30836.7013 64.4575 113.7043
ENERGY: 1500000 0.4975 4.1518 0.9057 0.0000 -10840.1487 1493.4228 0.0000 0.0000 1748.5152 -7592.6556 296.8599 -9341.1708 -7559.3948 299.9844 383.0093 430.0893 30201.2243 99.1959 157.7028
TCL: Running FEP window   4: Lambda1 0.15000000000000002 Lambda2 0.2    [dLambda 0.04999999999999999]
TCL: Setting parameter firsttimestep to 0
TCL: Setting parameter alchLambda to 0.15000000000000002
Info: NONBONDED TABLE R-SQUARED SPACING: 0.0625
Info: NONBONDED TABLE SIZE: 705 POINTS
TCL: Setting parameter alchLambda2 to 0.2
Info: NONBONDED TABLE R-SQUARED SPACING: 0.0625
Info: NONBONDED TABLE SIZE: 705 POINTS
TCL: Running for 1500000 steps
ETITLE: TS BOND ANGLE DIHED IMPRP ELECT VDW BOUNDARY MISC KINETIC TOTAL TEMP POTENTIAL TOTALAVG TEMPAVG PRESSURE GPRESSURE VOLUME PRESSAVG GPRESSAVG
ENERGY: 0 0.4975 4.1518 0.9057 0.0000 -10840.1483 1493.2121 0.0000 0.0000 1747.6188 -7593.7623 296.7077 -9341.3811 -7593.7623 296.7077 352.7497 428.1725 30201.2243 352.7497 428.1725
ENERGY: 300000 0.2323 5.6834 2.0763 0.0000 -10786.0681 1467.9391 0.0000 0.0000 1707.5858 -7602.5514 289.9110 -9310.1371 -7573.3325 296.6836 -57.7075 56.3866 30299.6485 132.6249 193.7859
ENERGY: 600000 0.6035 3.6500 0.7266 0.0000 -10838.5207 1441.0114 0.0000 0.0000 1763.2672 -7629.2620 299.3645 -9392.5292 -7559.2997 297.1545 -24.9605 30.0316 30037.0133 78.2275 143.4368
ENERGY: 900000 0.9322 5.7077 1.7433 0.0000 -10777.4877 1465.2470 0.0000 0.0000 1777.5042 -7526.3532 301.7816 -9303.8574 -7552.3720 298.8801 51.2181 148.0676 30423.3808 -34.3504 26.3099
ENERGY: 1200000 3.3564 4.1512 1.2037 0.0000 -10727.3509 1425.2773 0.0000 0.0000 1779.3907 -7513.9716 302.1019 -9293.3624 -7543.6151 299.0729 -259.3419 -179.4982 30701.6936 -125.6153 -62.6270
ENERGY: 1500000 0.3611 4.1718 0.6745 0.0000 -10718.2014 1375.8091 0.0000 0.0000 1786.7452 -7550.4397 303.3506 -9337.1849 -7548.4737 299.0230 -635.7524 -601.6197 30382.4565 -170.0008 -110.3308
TCL: Running FEP window   5: Lambda1 0.2    Lambda2 0.25   [dLambda 0.04999999999999999]
TCL: Setting parameter firsttimestep to 0
TCL: Setting parameter alchLambda to 0.2
Info: NONBONDED TABLE R-SQUARED SPACING: 0.0625
Info: NONBONDED TABLE SIZE: 705 POINTS
TCL: Setting parameter alchLambda2 to 0.25
Info: NONBONDED TABLE R-SQUARED SPACING: 0.0625
Info: NONBONDED TABLE SIZE: 705 POINTS
TCL: Running for 1500000 steps
ETITLE: TS BOND ANGLE DIHED IMPRP ELECT VDW BOUNDARY MISC KINETIC TOTAL TEMP POTENTIAL TOTALAVG TEMPAVG PRESSURE GPRESSURE VOLUME PRESSAVG GPRESSAVG
ENERGY: 0 0.3611 4.1718 0.6745 0.0000 -10718.2014 1377.5726 0.0000 0.0000 1785.8641 -7549.5573 303.2010 -9335.4214 -7549.5573 303.2010 -673.6083 -588.3004 30382.4565 -673.6083 -588.3004
ENERGY: 300000 0.9853 5.0937 0.3152 0.0000 -10768.8482 1427.7158 0.0000 0.0000 1758.8703 -7575.8679 298.6180 -9334.7382 -7575.9322 298.3785 1.1873 82.7978 30021.9635 -405.2643 -328.4685
ENERGY: 600000 1.6198 4.7475 0.1402 0.0000 -10849.9955 1516.6704 0.0000 0.0000 1829.6409 -7497.1767 310.6333 -9326.8177 -7566.7648 300.3790 450.4075 542.6703 30364.2028 -13.9608 60.0357
ENERGY: 900000 1.3015 6.6020 2.5334 0.0000 -10761.3023 1467.4677 0.0000 0.0000 1788.8869 -7494.5108 303.7142 -9283.3977 -7547.4828 301.4340 360.4230 412.6180 29967.6186 145.8314 203.0250
ENERGY: 1200000 1.1738 3.5680 0.3778 0.0000 -10753.0174 1416.6370 0.0000 0.0000 1696.5948 -7634.6659 288.0450 -9331.2607 -7561.6926 299.8543 -265.5468 -137.9967 30218.3168 26.0086 95.4462
ENERGY: 1500000 0.8278 3.6428 1.7970 0.0000 -10627.8824 1387.8328 0.0000 0.0000 1719.4666 -7514.3153 291.9281 -9233.7820 -7555.6323 299.0255 -273.8751 -235.9564 30682.4623 -20.5577 48.6533
TCL: Running FEP window   6: Lambda1 0.25   Lambda2 0.3    [dLambda 0.04999999999999999]
TCL: Setting parameter firsttimestep to 0
TCL: Setting parameter alchLambda to 0.25
Info: NONBONDED TABLE R-SQUARED SPACING: 0.0625
Info: NONBONDED TABLE SIZE: 705 POINTS
TCL: Setting parameter alchLambda2 to 0.3
Info: NONBONDED TABLE R-SQUARED SPACING: 0.0625
Info: NONBONDED TABLE SIZE: 705 POINTS
TCL: Running for 1500000 steps
ETITLE: TS BOND ANGLE DIHED IMPRP ELECT VDW BOUNDARY MISC KINETIC TOTAL TEMP POTENTIAL TOTALAVG TEMPAVG PRESSURE GPRESSURE VOLUME PRESSAVG GPRESSAVG
ENERGY: 0 0.8278 3.6428 1.7970 0.0000 -10627.8810 1388.2253 0.0000 0.0000 1718.5586 -7514.8294 291.7740 -9233.3881 -7514.8294 291.7740 -294.9875 -231.4050 30682.4623 -294.9875 -231.4050
ENERGY: 300000 0.8114 3.8392 0.3699 0.0000 -10691.5883 1400.2268 0.0000 0.0000 1793.3788 -7492.9622 304.4768 -9286.3409 -7528.8137 301.1840 -303.5750 -216.6292 30401.6285 -337.2157 -260.8000
ENERGY: 600000 0.9616 2.7235 0.3960 0.0000 -10681.7051 1415.2227 0.0000 0.0000 1749.6215 -7512.7797 297.0478 -9262.4012 -7537.2200 300.5333 -137.0340 -22.5375 30409.1334 -184.9355 -103.5083
ENERGY: 900000 0.9571 3.2812 0.1847 0.0000 -10634.3312 1351.2915 0.0000 0.0000 1774.1440 -7504.4726 301.2112 -9278.6166 -7542.9613 299.7564 -859.3128 -681.3990 30902.0398 -295.3578 -205.8231
ENERGY: 1200000 0.5368 3.3526 1.3446 0.0000 -10842.6889 1404.9190 0.0000 0.0000 1779.2896 -7653.2462 302.0848 -9432.5359 -7538.3545 301.7491 -691.0637 -637.0311 30343.3811 -251.5366 -160.6131
ENERGY: 1500000 0.7549 5.2348 0.7323 0.0000 -10775.8828 1444.1443 0.0000 0.0000 1749.0482 -7575.9683 296.9504 -9325.0166 -7538.9160 301.3557 -114.9656 -131.2411 30610.8062 -166.7745 -90.7805
TCL: Running FEP window   7: Lambda1 0.3    Lambda2 0.35   [dLambda 0.04999999999999999]
TCL: Setting parameter firsttimestep to 0
TCL: Setting parameter alchLambda to 0.3
Info: NONBONDED TABLE R-SQUARED SPACING: 0.0625
Info: NONBONDED TABLE SIZE: 705 POINTS
TCL: Setting parameter alchLambda2 to 0.35
Info: NONBONDED TABLE R-SQUARED SPACING: 0.0625
Info: NONBONDED TABLE SIZE: 705 POINTS
TCL: Running for 1500000 steps
ETITLE: TS BOND ANGLE DIHED IMPRP ELECT VDW BOUNDARY MISC KINETIC TOTAL TEMP POTENTIAL TOTALAVG TEMPAVG PRESSURE GPRESSURE VOLUME PRESSAVG GPRESSAVG
ENERGY: 0 0.7549 5.2348 0.7323 0.0000 -10775.8813 1444.9498 0.0000 0.0000 1748.1461 -7576.0635 296.7973 -9324.2096 -7576.0635 296.7973 -199.1064 -121.2011 30610.8062 -199.1064 -121.2011
ENERGY: 300000 0.8117 3.1931 0.1812 0.0000 -10796.4086 1467.6112 0.0000 0.0000 1716.5780 -7608.0334 291.4377 -9324.6114 -7558.0791 296.0225 336.0033 419.0123 29958.3435 71.1520 141.4316
ENERGY: 600000 1.7903 4.4559 0.4510 0.0000 -10807.6669 1504.8413 0.0000 0.0000 1764.0435 -7532.0849 299.4963 -9296.1284 -7529.7518 299.6950 381.5221 520.3007 30597.4967 100.2130 164.8932
ENERGY: 900000 1.5758 4.6504 2.3100 0.0000 -10820.8943 1489.6546 0.0000 0.0000 1745.2156 -7577.4879 296.2997 -9322.7034 -7532.4650 299.4216 244.8174 284.6812 30566.5384 226.0464 288.6063
ENERGY: 1200000 0.9295 5.0967 1.5856 0.0000 -10613.6321 1339.7163 0.0000 0.0000 1765.4987 -7500.8052 299.7434 -9266.3040 -7534.3016 298.8698 -753.6835 -704.0611 30716.5708 114.2052 177.9407
ENERGY: 1500000 1.0267 8.3944 0.1165 0.0000 -10863.5258 1491.1596 0.0000 0.0000 1758.1160 -7604.7126 298.4899 -9362.8286 -7549.3242 298.5940 372.3628 403.2979 30128.9855 142.0544 200.7952
TCL: Running FEP window   8: Lambda1 0.35   Lambda2 0.39999999999999997 [dLambda 0.04999999999999999]
TCL: Setting parameter firsttimestep to 0
TCL: Setting parameter alchLambda to 0.35
Info: NONBONDED TABLE R-SQUARED SPACING: 0.0625
Info: NONBONDED TABLE SIZE: 705 POINTS
TCL: Setting parameter alchLambda2 to 0.39999999999999997
Info: NONBONDED TABLE R-SQUARED SPACING: 0.0625
Info: NONBONDED TABLE SIZE: 705 POINTS
TCL: Running for 1500000 steps
ETITLE: TS BOND ANGLE DIHED IMPRP ELECT VDW BOUNDARY MISC KINETIC TOTAL TEMP POTENTIAL TOTALAVG TEMPAVG PRESSURE GPRESSURE VOLUME PRESSAVG GPRESSAVG
ENERGY: 0 1.0267 8.3944 0.1165 0.0000 -10863.5263 1490.9450 0.0000 0.0000 1757.2384 -7605.8053 298.3410 -9363.0437 -7605.8053 298.3410 330.5468 406.3315 30128.9855 330.5468 406.3315
ENERGY: 300000 0.2385 2.7733 0.5146 0.0000 -10864.3831 1498.7388 0.0000 0.0000 1758.7069 -7603.4110 298.5903 -9362.1179 -7553.6507 301.3466 155.9443 192.3329 30467.1381 71.2438 122.3797
ENERGY: 600000 0.7738 4.5764 0.2107 0.0000 -10808.8573 1472.4984 0.0000 0.0000 1749.0992 -7581.6987 296.9591 -9330.7979 -7558.4147 299.1600 -56.5172 37.2830 30652.2885 102.7601 164.4853
ENERGY: 900000 2.6154 5.1238 0.4434 0.0000 -10762.5044 1450.3707 0.0000 0.0000 1752.9772 -7550.9740 297.6175 -9303.9512 -7558.4974 298.8313 290.3932 365.8226 30152.9796 93.4420 153.3001
ENERGY: 1200000 1.8326 5.1041 1.4432 0.0000 -10766.9326 1451.0341 0.0000 0.0000 1813.3887 -7494.1300 307.8741 -9307.5187 -7538.2220 300.1687 345.4214 403.7011 30078.1733 96.2555 159.3384
ENERGY: 1500000 0.0526 4.9668 0.3591 0.0000 -10696.1477 1385.6841 0.0000 0.0000 1794.4341 -7510.6510 304.6560 -9305.0851 -7535.6896 299.7774 -491.9742 -436.3963 30681.7951 55.4093 120.5091
TCL: Running FEP window   9: Lambda1 0.39999999999999997 Lambda2 0.44999999999999996 [dLambda 0.04999999999999999]
TCL: Setting parameter firsttimestep to 0
TCL: Setting parameter alchLambda to 0.39999999999999997
Info: NONBONDED TABLE R-SQUARED SPACING: 0.0625
Info: NONBONDED TABLE SIZE: 705 POINTS
TCL: Setting parameter alchLambda2 to 0.44999999999999996
Info: NONBONDED TABLE R-SQUARED SPACING: 0.0625
Info: NONBONDED TABLE SIZE: 705 POINTS
TCL: Running for 1500000 steps
ETITLE: TS BOND ANGLE DIHED IMPRP ELECT VDW BOUNDARY MISC KINETIC TOTAL TEMP POTENTIAL TOTALAVG TEMPAVG PRESSURE GPRESSURE VOLUME PRESSAVG GPRESSAVG
ENERGY: 0 0.0526 4.9668 0.3591 0.0000 -10696.1463 1386.2175 0.0000 0.0000 1793.5766 -7510.9738 304.5104 -9304.5504 -7510.9738 304.5104 -503.9420 -430.5478 30681.7951 -503.9420 -430.5478
ENERGY: 300000 1.0381 5.5217 0.2025 0.0000 -10705.9258 1383.0731 0.0000 0.0000 1733.0439 -7583.0465 294.2332 -9316.0904 -7526.5360 298.2383 -412.6812 -358.0592 30400.6644 -315.5127 -249.2763
ENERGY: 600000 0.9556 2.3475 0.8489 0.0000 -10799.3498 1472.5499 0.0000 0.0000 1805.7992 -7516.8487 306.5855 -9322.6479 -7551.3859 298.9885 225.2475 319.1662 30278.7913 -52.7563 14.2471
ENERGY: 900000 0.2087 3.2766 0.5100 0.0000 -10798.0500 1427.4919 0.0000 0.0000 1750.1248 -7616.4381 297.1332 -9366.5628 -7558.5409 299.5676 -238.8116 -168.5433 30348.4627 -148.6739 -81.9097
ENERGY: 1200000 2.1742 4.8926 0.3251 0.0000 -10778.7938 1434.7399 0.0000 0.0000 1783.7449 -7552.9171 302.8412 -9336.6620 -7560.3709 300.4297 -513.5051 -450.4562 30799.4877 -147.5978 -75.3166
ENERGY: 1500000 0.1655 2.5373 1.0662 0.0000 -10761.6745 1476.8636 0.0000 0.0000 1865.8292 -7415.2127 316.7773 -9281.0419 -7539.6405 301.8014 394.1799 503.2994 30544.5988 -101.4341 -31.4110
TCL: Running FEP window  10: Lambda1 0.44999999999999996 Lambda2 0.49999999999999994 [dLambda 0.04999999999999999]
TCL: Setting parameter firsttimestep to 0
TCL: Setting parameter alchLambda to 0.44999999999999996
Info: NONBONDED TABLE R-SQUARED SPACING: 0.0625
Info: NONBONDED TABLE SIZE: 705 POINTS
TCL: Setting parameter alchLambda2 to 0.49999999999999994
Info: NONBONDED TABLE R-SQUARED SPACING: 0.0625
Info: NONBONDED TABLE SIZE: 705 POINTS
TCL: Running for 1500000 steps
ETITLE: TS BOND ANGLE DIHED IMPRP ELECT VDW BOUNDARY MISC KINETIC TOTAL TEMP POTENTIAL TOTALAVG TEMPAVG PRESSURE GPRESSURE VOLUME PRESSAVG GPRESSAVG
ENERGY: 0 0.1655 2.5373 1.0662 0.0000 -10761.6743 1476.5276 0.0000 0.0000 1864.9344 -7416.4433 316.6254 -9281.3778 -7416.4433 316.6254 419.6060 499.4270 30544.5988 419.6060 499.4270
ENERGY: 300000 0.3488 4.1999 0.8002 0.0000 -10753.8850 1510.4405 0.0000 0.0000 1773.7935 -7464.3022 301.1517 -9238.0957 -7486.5936 305.7294 647.4280 679.8715 30504.9049 75.6586 134.5093
ENERGY: 600000 0.2509 4.7866 0.7250 0.0000 -10750.1890 1461.5835 0.0000 0.0000 1749.8330 -7533.0100 297.0837 -9282.8430 -7535.5893 303.0720 84.4829 161.2273 30275.3596 -130.9275 -61.2283
ENERGY: 900000 1.4933 7.0631 0.3181 0.0000 -10742.8665 1415.2862 0.0000 0.0000 1717.0828 -7601.6230 291.5234 -9318.7058 -7545.4483 301.7708 -311.4212 -245.7828 30284.7244 -49.2525 16.9945
ENERGY: 1200000 0.1562 4.1741 0.9333 0.0000 -10648.4007 1358.6041 0.0000 0.0000 1788.5416 -7495.9913 303.6556 -9284.5329 -7537.2149 301.3528 -851.5252 -762.5339 30838.4687 -205.0299 -137.9007
ENERGY: 1500000 0.3485 4.2689 0.7717 0.0000 -10919.3615 1501.1163 0.0000 0.0000 1768.9737 -7643.8823 300.3334 -9412.8561 -7543.7486 300.8630 152.5525 276.2521 30315.4230 -174.2282 -99.7625
TCL: Running FEP window  11: Lambda1 0.49999999999999994 Lambda2 0.5499999999999999 [dLambda 0.04999999999999999]
TCL: Setting parameter firsttimestep to 0
TCL: Setting parameter alchLambda to 0.49999999999999994
Info: NONBONDED TABLE R-SQUARED SPACING: 0.0625
Info: NONBONDED TABLE SIZE: 705 POINTS
TCL: Setting parameter alchLambda2 to 0.5499999999999999
Info: NONBONDED TABLE R-SQUARED SPACING: 0.0625
Info: NONBONDED TABLE SIZE: 705 POINTS
TCL: Running for 1500000 steps
ETITLE: TS BOND ANGLE DIHED IMPRP ELECT VDW BOUNDARY MISC KINETIC TOTAL TEMP POTENTIAL TOTALAVG TEMPAVG PRESSURE GPRESSURE VOLUME PRESSAVG GPRESSAVG
ENERGY: 0 0.3485 4.2689 0.7717 0.0000 -10919.3604 1501.7154 0.0000 0.0000 1768.1317 -7644.1242 300.1904 -9412.2559 -7644.1242 300.1904 195.7523 288.1928 30315.4230 195.7523 288.1928
ENERGY: 300000 0.3233 3.6535 0.1773 0.0000 -10737.7337 1413.5651 0.0000 0.0000 1718.0003 -7602.0141 291.6792 -9320.0144 -7535.9911 303.0529 -173.3730 -148.8452 30404.7487 -98.4962 -33.8992
ENERGY: 600000 0.9910 4.7153 2.8711 0.0000 -10676.5381 1378.2978 0.0000 0.0000 1806.5623 -7483.1006 306.7151 -9289.6628 -7523.8867 304.3040 -816.4808 -749.1200 31122.6872 -24.7456 22.2173
ENERGY: 900000 0.1022 7.2378 0.3588 0.0000 -10906.6505 1584.9824 0.0000 0.0000 1717.3977 -7596.5715 291.5769 -9313.9692 -7536.1147 302.4493 1101.7570 1140.7964 30307.4053 153.0737 208.2528
ENERGY: 1200000 1.7266 2.7306 1.3790 0.0000 -10793.7862 1463.7305 0.0000 0.0000 1767.5602 -7556.6593 300.0934 -9324.2195 -7541.3268 301.8707 141.9565 217.7238 30394.6770 93.7073 150.5117
ENERGY: 1500000 0.1695 4.6445 0.7255 0.0000 -10712.2132 1455.6277 0.0000 0.0000 1800.7959 -7450.2501 305.7361 -9251.0460 -7538.3250 301.7883 278.7062 353.4641 30507.6194 67.7907 129.2018
TCL: Running FEP window  12: Lambda1 0.5499999999999999 Lambda2 0.6    [dLambda 0.050000000000000044]
TCL: Setting parameter firsttimestep to 0
TCL: Setting parameter alchLambda to 0.5499999999999999
Info: NONBONDED TABLE R-SQUARED SPACING: 0.0625
Info: NONBONDED TABLE SIZE: 705 POINTS
TCL: Setting parameter alchLambda2 to 0.6
Info: NONBONDED TABLE R-SQUARED SPACING: 0.0625
Info: NONBONDED TABLE SIZE: 705 POINTS
TCL: Running for 1500000 steps
ETITLE: TS BOND ANGLE DIHED IMPRP ELECT VDW BOUNDARY MISC KINETIC TOTAL TEMP POTENTIAL TOTALAVG TEMPAVG PRESSURE GPRESSURE VOLUME PRESSAVG GPRESSAVG
ENERGY: 0 0.1695 4.6445 0.7255 0.0000 -10712.0022 1456.1963 0.0000 0.0000 1799.8944 -7450.3721 305.5830 -9250.2664 -7450.3721 305.5830 285.1300 364.3917 30507.6194 285.1300 364.3917
ENERGY: 300000 1.7282 5.7028 1.1711 0.0000 -10824.1598 1502.3835 0.0000 0.0000 1770.1424 -7543.0318 300.5318 -9313.1742 -7541.6302 302.7680 598.2404 684.5978 30216.5900 328.0151 412.4838
ENERGY: 600000 1.3462 4.1157 1.1200 0.0000 -10757.3918 1434.3631 0.0000 0.0000 1783.4160 -7533.0308 302.7853 -9316.4468 -7541.0002 302.3473 -175.1541 -78.2923 30598.2264 136.6604 216.5758
ENERGY: 900000 2.2539 5.8550 1.5459 0.0000 -10801.1787 1496.8810 0.0000 0.0000 1754.3389 -7540.3040 297.8487 -9294.6429 -7548.2445 300.9219 120.6582 218.3616 30822.1393 97.0521 180.2052
ENERGY: 1200000 0.1708 5.2886 0.4608 0.0000 -10855.3923 1404.0842 0.0000 0.0000 1796.1831 -7649.2049 304.9529 -9445.3879 -7563.1481 300.5094 -468.5914 -474.6513 30096.1356 18.6009 93.2890
ENERGY: 1500000 3.2818 4.3646 1.9416 0.0000 -10751.6028 1377.0138 0.0000 0.0000 1801.9982 -7563.0027 305.9402 -9365.0009 -7560.2024 300.4775 -604.0053 -575.3832 30026.2564 11.0323 82.0637
TCL: Running FEP window  13: Lambda1 0.6    Lambda2 0.65   [dLambda 0.050000000000000044]
TCL: Setting parameter firsttimestep to 0
TCL: Setting parameter alchLambda to 0.6
Info: NONBONDED TABLE R-SQUARED SPACING: 0.0625
Info: NONBONDED TABLE SIZE: 705 POINTS
TCL: Setting parameter alchLambda2 to 0.65
Info: NONBONDED TABLE R-SQUARED SPACING: 0.0625
Info: NONBONDED TABLE SIZE: 705 POINTS
TCL: Running for 1500000 steps
ETITLE: TS BOND ANGLE DIHED IMPRP ELECT VDW BOUNDARY MISC KINETIC TOTAL TEMP POTENTIAL TOTALAVG TEMPAVG PRESSURE GPRESSURE VOLUME PRESSAVG GPRESSAVG
ENERGY: 0 3.2818 4.3646 1.9416 0.0000 -10751.0539 1377.3527 0.0000 0.0000 1801.1330 -7562.9801 305.7933 -9364.1131 -7562.9801 305.7933 -643.0079 -565.7258 30026.2564 -643.0079 -565.7258
ENERGY: 300000 0.4249 4.7845 2.4280 0.0000 -10855.8021 1462.1134 0.0000 0.0000 1775.9960 -7610.0553 301.5256 -9386.0513 -7572.7194 303.7252 -151.3939 -51.5561 30600.6537 -20.9038 57.0870
ENERGY: 600000 1.2587 3.6158 1.0187 0.0000 -10798.3399 1463.7638 0.0000 0.0000 1756.7553 -7571.9277 298.2589 -9328.6830 -7573.3988 302.1600 299.4376 475.2361 30073.8938 -119.5291 -34.1237
ENERGY: 900000 0.4353 8.6569 0.4207 0.0000 -10624.5434 1327.1337 0.0000 0.0000 1744.9929 -7542.9038 296.2619 -9287.8967 -7563.5994 300.7855 -972.4630 -940.8147 30824.4796 -270.5942 -202.8681
ENERGY: 1200000 1.0807 4.3683 1.8036 0.0000 -10781.4564 1385.8331 0.0000 0.0000 1765.2731 -7623.0977 299.7051 -9388.3708 -7572.8811 300.6570 -577.7795 -481.0091 30145.9463 -226.4634 -161.8654
ENERGY: 1500000 0.8793 7.5292 0.7903 0.0000 -10694.9572 1407.5137 0.0000 0.0000 1758.4106 -7519.8340 298.5400 -9278.2446 -7570.9009 301.3945 -519.7597 -446.2337 31326.2663 -211.4880 -143.1802
TCL: Running FEP window  14: Lambda1 0.65   Lambda2 0.7000000000000001 [dLambda 0.050000000000000044]
TCL: Setting parameter firsttimestep to 0
TCL: Setting parameter alchLambda to 0.65
Info: NONBONDED TABLE R-SQUARED SPACING: 0.0625
Info: NONBONDED TABLE SIZE: 705 POINTS
TCL: Setting parameter alchLambda2 to 0.7000000000000001
Info: NONBONDED TABLE R-SQUARED SPACING: 0.0625
Info: NONBONDED TABLE SIZE: 705 POINTS
TCL: Running for 1500000 steps
ETITLE: TS BOND ANGLE DIHED IMPRP ELECT VDW BOUNDARY MISC KINETIC TOTAL TEMP POTENTIAL TOTALAVG TEMPAVG PRESSURE GPRESSURE VOLUME PRESSAVG GPRESSAVG
ENERGY: 0 0.8793 7.5292 0.7903 0.0000 -10695.1390 1407.5853 0.0000 0.0000 1757.5398 -7520.8151 298.3921 -9278.3549 -7520.8151 298.3921 -529.1886 -439.6128 31326.2663 -529.1886 -439.6128
ENERGY: 300000 3.6471 4.4542 0.3180 0.0000 -10766.3416 1441.8344 0.0000 0.0000 1761.0523 -7555.0357 298.9885 -9316.0880 -7549.3040 301.9199 -47.3746 -51.5439 30729.6859 -201.7285 -148.2791
ENERGY: 600000 0.5178 1.6671 0.3115 0.0000 -10700.0720 1421.7422 0.0000 0.0000 1786.5890 -7489.2443 303.3241 -9275.8333 -7561.3956 300.0713 -109.3679 0.4175 30124.6085 -183.0083 -121.8648
ENERGY: 900000 0.2095 4.3469 0.9632 0.0000 -10843.9675 1506.7062 0.0000 0.0000 1732.1541 -7599.5876 294.0822 -9331.7417 -7561.9683 299.9734 643.2037 679.4664 30104.9810 -41.2863 13.2504
ENERGY: 1200000 0.3403 4.2479 0.5273 0.0000 -10813.1280 1396.9937 0.0000 0.0000 1765.3812 -7645.6376 299.7234 -9411.0188 -7561.2866 300.6626 -920.4693 -866.0381 31023.8572 -69.0668 -8.9851
ENERGY: 1500000 0.5506 3.9277 2.1878 0.0000 -10663.2154 1415.6437 0.0000 0.0000 1791.5486 -7449.3570 304.1661 -9240.9056 -7553.5718 300.9326 -259.5194 -234.9667 31081.9974 -98.5430 -42.0890
TCL: Running FEP window  15: Lambda1 0.7000000000000001 Lambda2 0.7500000000000001 [dLambda 0.050000000000000044]
TCL: Setting parameter firsttimestep to 0
TCL: Setting parameter alchLambda to 0.7000000000000001
Info: NONBONDED TABLE R-SQUARED SPACING: 0.0625
Info: NONBONDED TABLE SIZE: 705 POINTS
TCL: Setting parameter alchLambda2 to 0.7500000000000001
Info: NONBONDED TABLE R-SQUARED SPACING: 0.0625
Info: NONBONDED TABLE SIZE: 705 POINTS
TCL: Running for 1500000 steps
ETITLE: TS BOND ANGLE DIHED IMPRP ELECT VDW BOUNDARY MISC KINETIC TOTAL TEMP POTENTIAL TOTALAVG TEMPAVG PRESSURE GPRESSURE VOLUME PRESSAVG GPRESSAVG
ENERGY: 0 0.5506 3.9277 2.1878 0.0000 -10663.7832 1416.1103 0.0000 0.0000 1790.6762 -7450.3306 304.0180 -9241.0068 -7450.3306 304.0180 -292.4174 -221.6059 31081.9974 -292.4174 -221.6059
ENERGY: 300000 1.0432 3.1592 0.3923 0.0000 -10879.4564 1543.2842 0.0000 0.0000 1770.4160 -7561.1615 300.5782 -9331.5775 -7556.4869 300.4671 646.1264 740.1329 30543.4090 -7.6758 81.4277
ENERGY: 600000 0.4520 4.7837 0.6803 0.0000 -10940.6087 1581.0421 0.0000 0.0000 1842.4103 -7511.2403 312.8013 -9353.6506 -7550.5750 301.5454 1284.8487 1380.5115 29849.3158 17.9156 110.8604
ENERGY: 900000 0.1804 1.9208 2.7663 0.0000 -10679.6309 1419.5862 0.0000 0.0000 1788.8606 -7466.3167 303.7097 -9255.1772 -7548.9305 302.2679 119.0314 143.6855 30352.3465 -9.3542 68.2064
ENERGY: 1200000 0.9694 4.0668 1.1444 0.0000 -10865.8646 1487.5515 0.0000 0.0000 1763.2741 -7608.8584 299.3657 -9372.1326 -7553.3641 302.2969 182.0706 269.2403 30287.3121 -75.6076 6.5745
ENERGY: 1500000 0.7896 4.8974 0.7585 0.0000 -10644.6230 1373.9159 0.0000 0.0000 1754.8807 -7509.3809 297.9407 -9264.2616 -7545.2995 302.3649 -630.9437 -534.5995 30780.2580 -114.1011 -32.8601
TCL: Running FEP window  16: Lambda1 0.7500000000000001 Lambda2 0.8000000000000002 [dLambda 0.050000000000000044]
TCL: Setting parameter firsttimestep to 0
TCL: Setting parameter alchLambda to 0.7500000000000001
Info: NONBONDED TABLE R-SQUARED SPACING: 0.0625
Info: NONBONDED TABLE SIZE: 705 POINTS
TCL: Setting parameter alchLambda2 to 0.8000000000000002
Info: NONBONDED TABLE R-SQUARED SPACING: 0.0625
Info: NONBONDED TABLE SIZE: 705 POINTS
TCL: Running for 1500000 steps
ETITLE: TS BOND ANGLE DIHED IMPRP ELECT VDW BOUNDARY MISC KINETIC TOTAL TEMP POTENTIAL TOTALAVG TEMPAVG PRESSURE GPRESSURE VOLUME PRESSAVG GPRESSAVG
ENERGY: 0 0.7896 4.8974 0.7585 0.0000 -10645.4287 1375.8194 0.0000 0.0000 1753.9949 -7509.1689 297.7903 -9263.1638 -7509.1689 297.7903 -591.9793 -509.3510 30780.2580 -591.9793 -509.3510
ENERGY: 300000 1.1233 6.3403 0.1707 0.0000 -10625.7592 1344.6871 0.0000 0.0000 1784.8583 -7488.5796 303.0302 -9273.4378 -7520.1182 304.4367 -642.6355 -654.9998 30518.3762 27.6983 85.6670
ENERGY: 600000 0.5727 5.2936 0.1947 0.0000 -10811.0664 1438.5039 0.0000 0.0000 1754.4920 -7612.0095 297.8747 -9366.5015 -7540.6630 304.0367 -207.5624 -188.6493 30584.7801 -12.9543 39.6237
ENERGY: 900000 0.1964 4.2056 0.7105 0.0000 -10731.5510 1431.5994 0.0000 0.0000 1740.3054 -7554.5337 295.4661 -9294.8391 -7531.5124 303.7334 -15.7598 41.0745 30363.2307 49.7186 96.6976
ENERGY: 1200000 0.2661 7.3213 0.9904 0.0000 -10722.5611 1442.5149 0.0000 0.0000 1809.0528 -7462.4155 307.1379 -9271.4684 -7524.0266 304.0866 146.2041 131.7402 30703.8355 -33.2014 14.9541
ENERGY: 1500000 1.2004 3.0625 0.3458 0.0000 -10728.2646 1460.6255 0.0000 0.0000 1822.3511 -7440.6792 309.3957 -9263.0303 -7521.8213 304.8077 271.5966 364.2612 30512.4670 -43.1496 13.6927
TCL: Running FEP window  17: Lambda1 0.8000000000000002 Lambda2 0.8500000000000002 [dLambda 0.050000000000000044]
TCL: Setting parameter firsttimestep to 0
TCL: Setting parameter alchLambda to 0.8000000000000002
Info: NONBONDED TABLE R-SQUARED SPACING: 0.0625
Info: NONBONDED TABLE SIZE: 705 POINTS
TCL: Setting parameter alchLambda2 to 0.8500000000000002
Info: NONBONDED TABLE R-SQUARED SPACING: 0.0625
Info: NONBONDED TABLE SIZE: 705 POINTS
TCL: Running for 1500000 steps
ETITLE: TS BOND ANGLE DIHED IMPRP ELECT VDW BOUNDARY MISC KINETIC TOTAL TEMP POTENTIAL TOTALAVG TEMPAVG PRESSURE GPRESSURE VOLUME PRESSAVG GPRESSAVG
ENERGY: 0 1.2004 3.0625 0.3458 0.0000 -10729.4414 1460.6382 0.0000 0.0000 1821.4652 -7442.7293 309.2453 -9264.1945 -7442.7293 309.2453 281.5310 369.0026 30512.4670 281.5310 369.0026
ENERGY: 300000 0.2080 4.3276 0.3515 0.0000 -10714.5957 1412.1474 0.0000 0.0000 1741.6934 -7555.8680 295.7017 -9297.5613 -7504.5703 306.0636 -241.5165 -183.5424 30569.6721 371.2954 441.8863
ENERGY: 600000 0.8560 6.4783 0.2167 0.0000 -10812.1229 1490.6960 0.0000 0.0000 1773.0197 -7540.8561 301.0203 -9313.8759 -7530.1798 303.8868 493.2122 578.9983 30077.6279 332.2487 397.1211
ENERGY: 900000 1.8304 3.3423 0.5894 0.0000 -10859.8699 1497.8767 0.0000 0.0000 1731.3053 -7624.9256 293.9381 -9356.2309 -7546.7751 301.8944 372.2254 519.1650 30132.3374 184.8051 256.1569
ENERGY: 1200000 1.4675 9.5921 1.1166 0.0000 -10731.7868 1375.2298 0.0000 0.0000 1777.7510 -7566.6297 301.8236 -9344.3808 -7551.4600 301.7416 -373.7272 -336.3638 30559.2079 181.6235 249.0580
ENERGY: 1500000 1.0520 5.7643 1.0321 0.0000 -10811.1332 1500.4665 0.0000 0.0000 1791.2936 -7511.5248 304.1228 -9302.8183 -7545.7927 301.2806 163.3397 246.9086 31042.2092 247.5151 312.7446
TCL: Running FEP window  18: Lambda1 0.8500000000000002 Lambda2 0.9000000000000002 [dLambda 0.050000000000000044]
TCL: Setting parameter firsttimestep to 0
TCL: Setting parameter alchLambda to 0.8500000000000002
Info: NONBONDED TABLE R-SQUARED SPACING: 0.0625
Info: NONBONDED TABLE SIZE: 705 POINTS
TCL: Setting parameter alchLambda2 to 0.9000000000000002
Info: NONBONDED TABLE R-SQUARED SPACING: 0.0625
Info: NONBONDED TABLE SIZE: 705 POINTS
TCL: Running for 1500000 steps
ETITLE: TS BOND ANGLE DIHED IMPRP ELECT VDW BOUNDARY MISC KINETIC TOTAL TEMP POTENTIAL TOTALAVG TEMPAVG PRESSURE GPRESSURE VOLUME PRESSAVG GPRESSAVG
ENERGY: 0 1.0520 5.7643 1.0321 0.0000 -10812.9996 1501.2981 0.0000 0.0000 1790.3898 -7513.4634 303.9693 -9303.8532 -7513.4634 303.9693 167.6051 259.7220 31042.2092 167.6051 259.7220
ENERGY: 300000 0.8227 3.2231 0.1498 0.0000 -10726.1426 1384.4096 0.0000 0.0000 1846.9947 -7490.5427 313.5796 -9337.5374 -7534.7893 302.0450 -309.8893 -238.8849 30390.0921 462.1832 517.5987
ENERGY: 600000 0.1562 4.9239 0.7048 0.0000 -10811.9082 1497.7369 0.0000 0.0000 1786.8435 -7521.5430 303.3672 -9308.3864 -7534.0811 301.9931 550.6480 644.1125 30109.3162 307.1186 380.0907
ENERGY: 900000 0.5121 5.1062 0.4431 0.0000 -10668.8386 1347.5456 0.0000 0.0000 1751.6107 -7563.6211 297.3855 -9315.2318 -7540.9959 300.1749 -910.9737 -836.8960 30649.7146 179.2042 243.0046
ENERGY: 1200000 0.8946 8.1287 1.1327 0.0000 -10652.7877 1365.2351 0.0000 0.0000 1819.3716 -7458.0249 308.8898 -9277.3966 -7536.5622 301.0008 -630.9232 -555.5006 31038.7117 32.1091 96.4129
ENERGY: 1500000 0.1772 3.5899 0.3995 0.0000 -10897.7766 1492.7008 0.0000 0.0000 1861.2265 -7539.6826 315.9959 -9400.9091 -7534.6121 301.5817 81.1149 172.4054 30601.5020 6.9780 73.2956
TCL: Running FEP window  19: Lambda1 0.9000000000000002 Lambda2 0.9500000000000003 [dLambda 0.050000000000000044]
TCL: Setting parameter firsttimestep to 0
TCL: Setting parameter alchLambda to 0.9000000000000002
Info: NONBONDED TABLE R-SQUARED SPACING: 0.0625
Info: NONBONDED TABLE SIZE: 705 POINTS
TCL: Setting parameter alchLambda2 to 0.9500000000000003
Info: NONBONDED TABLE R-SQUARED SPACING: 0.0625
Info: NONBONDED TABLE SIZE: 705 POINTS
TCL: Running for 1500000 steps
ETITLE: TS BOND ANGLE DIHED IMPRP ELECT VDW BOUNDARY MISC KINETIC TOTAL TEMP POTENTIAL TOTALAVG TEMPAVG PRESSURE GPRESSURE VOLUME PRESSAVG GPRESSAVG
ENERGY: 0 0.1772 3.5899 0.3995 0.0000 -10899.9318 1493.7595 0.0000 0.0000 1860.3250 -7541.6806 315.8428 -9402.0055 -7541.6806 315.8428 89.9411 183.4300 30601.5020 89.9411 183.4300
ENERGY: 300000 2.0803 5.6787 0.9498 0.0000 -10841.0460 1476.2997 0.0000 0.0000 1759.5953 -7596.4423 298.7411 -9356.0376 -7565.7414 302.5214 371.8863 362.3793 30352.9901 74.9921 109.6114
ENERGY: 600000 0.1636 5.2958 1.7277 0.0000 -10768.2422 1455.1427 0.0000 0.0000 1734.7886 -7571.1237 294.5295 -9305.9124 -7578.1995 301.2495 -207.7916 -146.8204 31228.8231 -27.3831 18.5264
ENERGY: 900000 0.1293 4.8716 0.2068 0.0000 -10770.0685 1387.2083 0.0000 0.0000 1742.4934 -7635.1591 295.8376 -9377.6525 -7580.1523 302.1344 -747.2099 -578.6953 30575.7615 -162.2357 -94.0237
ENERGY: 1200000 0.3073 3.3280 1.6188 0.0000 -10967.1698 1506.0659 0.0000 0.0000 1767.6988 -7688.1511 300.1169 -9455.8499 -7584.0500 301.5113 133.2375 204.6549 30255.3616 -163.0970 -99.0550
ENERGY: 1500000 0.5976 5.0093 0.5115 0.0000 -10761.9758 1407.8463 0.0000 0.0000 1730.9263 -7617.0848 293.8737 -9348.0111 -7573.7806 301.3318 -285.4082 -235.4560 30201.8462 -146.0229 -83.3058
TCL: Running FEP window  20: Lambda1 0.9500000000000003 Lambda2 1.0    [dLambda 0.04999999999999971]
TCL: Setting parameter firsttimestep to 0
TCL: Setting parameter alchLambda to 0.9500000000000003
Info: NONBONDED TABLE R-SQUARED SPACING: 0.0625
Info: NONBONDED TABLE SIZE: 705 POINTS
TCL: Setting parameter alchLambda2 to 1.0
Info: NONBONDED TABLE R-SQUARED SPACING: 0.0625
Info: NONBONDED TABLE SIZE: 705 POINTS
TCL: Running for 1500000 steps
ETITLE: TS BOND ANGLE DIHED IMPRP ELECT VDW BOUNDARY MISC KINETIC TOTAL TEMP POTENTIAL TOTALAVG TEMPAVG PRESSURE GPRESSURE VOLUME PRESSAVG GPRESSAVG
ENERGY: 0 0.5976 5.0093 0.5115 0.0000 -10764.1808 1409.5488 0.0000 0.0000 1730.0351 -7618.4785 293.7224 -9348.5136 -7618.4785 293.7224 -297.1425 -210.6625 30201.8462 -297.1425 -210.6625
ENERGY: 300000 0.3198 5.0716 2.9598 0.0000 -10757.4050 1475.7487 0.0000 0.0000 1776.1045 -7497.2005 301.5440 -9273.3050 -7571.2126 298.8309 465.9615 478.2573 30397.3944 -67.0525 -27.9143
ENERGY: 600000 1.7614 4.3050 0.3999 0.0000 -10729.7636 1421.0154 0.0000 0.0000 1765.4198 -7536.8621 299.7300 -9302.2819 -7568.0672 299.3909 -199.0831 -134.0310 30736.8569 -196.2873 -165.0633
ENERGY: 900000 0.3646 2.7100 0.4448 0.0000 -10737.5285 1435.3660 0.0000 0.0000 1776.6225 -7522.0207 301.6319 -9298.6431 -7572.0454 299.9530 -123.5861 -54.4014 30659.4324 -120.6973 -73.0998
ENERGY: 1200000 1.5466 6.6002 0.6503 0.0000 -10859.5824 1490.1298 0.0000 0.0000 1752.1122 -7608.5433 297.4706 -9360.6555 -7572.0668 299.8230 382.2028 399.8725 30299.0331 -110.7221 -67.9612
ENERGY: 1500000 1.5991 3.4598 0.4700 0.0000 -10807.5050 1428.6675 0.0000 0.0000 1777.3012 -7596.0074 301.7472 -9373.3086 -7581.5509 299.4286 -119.9003 -23.8363 30260.5910 -137.7319 -84.8555
TCL: Exiting due to exit command.
