Info: SIMULATION PARAMETERS:
Info: TIMESTEP               2
Info: NUMBER OF STEPS        0
Info: STEPS PER CYCLE        10
Info: PERIODIC CELL BASIS 1  33.1463 0 0
Info: PERIODIC CELL BASIS 2  0 31.3542 0
Info: PERIODIC CELL BASIS 3  0 0 29.2973
Info: PERIODIC CELL CENTER   0 0 0
Info: WRAPPING WATERS AROUND PERIODIC BOUNDARIES ON OUTPUT.
Info: WRAPPING ALL CLUSTERS AROUND PERIODIC BOUNDARIES ON OUTPUT.
Info: FIRST LDB TIMESTEP     50
Info: LAST LDB TIMESTEP     -1
Info: HOM BACKGROUND SCALING 1
Info: PME BACKGROUND SCALING 1
Info: MIN ATOMS PER PATCH    40
Info: EMPTY PATCH LOAD       40 ATOMS
Info: VELOCITY FILE          mobley_5110043_equil.vel
Info: CENTER OF MASS MOVING INITIALLY? NO
Info: DIELECTRIC             1
Info: EXCLUDE                SCALED ONE-FOUR
Info: 1-4 ELECTROSTATICS SCALED BY 0.833333
Info: MODIFIED 1-4 VDW PARAMETERS WILL BE USED
Info: DCD FILENAME           mobley_5110043_prod.dcd
Info: DCD FREQUENCY          100000
Info: DCD FIRST STEP         100000
Info: DCD FILE WILL CONTAIN UNIT CELL DATA
Info: XST FILENAME           mobley_5110043_prod.xst
Info: XST FREQUENCY          100000
Info: NO VELOCITY DCD OUTPUT
Info: NO FORCE DCD OUTPUT
Info: OUTPUT FILENAME        mobley_5110043_prod
Info: BINARY OUTPUT FILES WILL BE USED
Info: RESTART FILENAME       mobley_5110043_prod.restart
Info: RESTART FREQUENCY      100000
Info: BINARY RESTART FILES WILL BE USED
Info: CUTOFF                 9
Info: PAIRLIST DISTANCE      11
Info: PAIRLIST SHRINK RATE   0.01
Info: PAIRLIST GROW RATE     0.01
Info: PAIRLIST TRIGGER       0.3
Info: PAIRLISTS PER CYCLE    2
Info: PAIRLISTS ENABLED
Info: MARGIN                 2
Info: HYDROGEN GROUP CUTOFF  2.5
Info: PATCH DIMENSION        15.5
Info: ENERGY OUTPUT STEPS    100000
Info: ENERGY EVALUATION STEPS    100000
Info: OUTPUT ENERGY PRECISION 4
Info: CROSSTERM ENERGY INCLUDED IN DIHEDRAL
Info: TIMING OUTPUT STEPS    1000000
Info: PRESSURE OUTPUT STEPS  100000
Info: ALCHEMICAL FEP ON
Info: FEP CURRENT LAMBDA VALUE     0
Info: FEP COMPARISON LAMBDA VALUE  0.05
Info: FEP INTRA-ALCHEMICAL NON-BONDED INTERACTIONS WILL BE RETAINED
Info: FEP INTRA-ALCHEMICAL BONDED INTERACTIONS WILL BE RETAINED
Info: FEP VDW SHIFTING COEFFICIENT 5
Info: FEP ELEC. ACTIVE FOR ANNIHILATED PARTICLES BETWEEN LAMBDA = 0 AND LAMBDA = 0.5
Info: FEP ELEC. ACTIVE FOR EXNIHILATED PARTICLES BETWEEN LAMBDA = 0.5 AND LAMBDA = 1
Info: FEP VDW ACTIVE FOR ANNIHILATED PARTICLES BETWEEN LAMBDA = 0 AND LAMBDA = 1
Info: FEP VDW ACTIVE FOR EXNIHILATED PARTICLES BETWEEN LAMBDA = 0 AND LAMBDA = 1
Info: FEP BOND ACTIVE FOR ANNIHILATED PARTICLES BETWEEN LAMBDA = 1 AND LAMBDA = 1
Info: FEP BOND ACTIVE FOR EXNIHILATED PARTICLES BETWEEN LAMBDA = 0 AND LAMBDA = 0
Info: LANGEVIN DYNAMICS ACTIVE
Info: LANGEVIN TEMPERATURE   300
Info: LANGEVIN USING BBK INTEGRATOR
Info: LANGEVIN DAMPING COEFFICIENT IS 1 INVERSE PS
Info: LANGEVIN DYNAMICS APPLIED TO HYDROGENS
Info: LANGEVIN PISTON PRESSURE CONTROL ACTIVE
Info:        TARGET PRESSURE IS 1.01325 BAR
Info:     OSCILLATION PERIOD IS 50 FS
Info:             DECAY TIME IS 25 FS
Info:     PISTON TEMPERATURE IS 300 K
Info:       PRESSURE CONTROL IS GROUP-BASED
Info:    INITIAL STRAIN RATE IS -0.000172438 -0.000172438 -0.000172438
Info:       CELL FLUCTUATION IS ISOTROPIC
Info: PARTICLE MESH EWALD (PME) ACTIVE
Info: PME TOLERANCE               1e-06
Info: PME EWALD COEFFICIENT       0.348832
Info: PME INTERPOLATION ORDER     4
Info: PME GRID DIMENSIONS         36 32 32
Info: PME MAXIMUM GRID SPACING    1
Info: PME CALCULATION WILL BE PERFORMED ON GPU
Info: FULL ELECTROSTATIC EVALUATION FREQUENCY      2
Info: USING VERLET I (r-RESPA) MTS SCHEME.
Info: C1 SPLITTING OF LONG RANGE ELECTROSTATICS
Info: PLACING ATOMS IN PATCHES BY HYDROGEN GROUPS
Info: RIGID BONDS TO HYDROGEN : ALL
Info:         ERROR TOLERANCE : 1e-08
Info:          MAX ITERATIONS : 100
Info: RIGID WATER USING SETTLE ALGORITHM
Info: RANDOM NUMBER SEED     1743642096
Info: USE HYDROGEN BONDS?    NO
Info: Using AMBER format force field!
Info: AMBER PARM FILE        mobley_5110043.prmtop
Info: COORDINATE PDB         mobley_5110043.pdb
Info: Exclusions will be read from PARM file!
Info: SCNB (VDW SCALING)     2
Info: USING ARITHMETIC MEAN TO COMBINE L-J SIGMA PARAMETERS
Info: BINARY COORDINATES     mobley_5110043_equil.coor
Info: SUMMARY OF PARAMETERS:
Info: 6 BONDS
Info: 5 ANGLES
Info:   5 HARMONIC
Info:   0 COSINE-BASED
Info: 3 DIHEDRAL
Info: 0 IMPROPER
Info: 0 CROSSTERM
Info: 0 VDW
Info: 21 VDW_PAIRS
Info: 0 NBTHOLE_PAIRS
Info: To read alchdata from file: mobley_5110043.pdb
Info: To read alchflag data from column: 5
Info: STRUCTURE SUMMARY:
Info: 2955 ATOMS
Info: 2956 BONDS
Info: 42 ANGLES
Info: 66 DIHEDRALS
Info: 0 IMPROPERS
Info: 0 CROSSTERMS
Info: 3048 EXCLUSIONS
Info: 2943 RIGID BONDS
Info: ALCH: 0 ATOMS TO DISAPPEAR IN FINAL STATE
Info: ALCH: 24 ATOMS TO APPEAR IN FINAL STATE
Info: 5922 DEGREES OF FREEDOM
Info: 989 HYDROGEN GROUPS
Info: 4 ATOMS IN LARGEST HYDROGEN GROUP
Info: 989 MIGRATION GROUPS
Info: 4 ATOMS IN LARGEST MIGRATION GROUP
Info: TOTAL MASS = 17757.8 amu
Info: TOTAL CHARGE = -9.99793e-05 e
Info: MASS DENSITY = 0.968481 g/cm^3
Info: ATOM DENSITY = 0.0970508 atoms/A^3
Info: ADDED 0 IMPLICIT EXCLUSIONS
Info: NONBONDED TABLE R-SQUARED SPACING: 0.0625
Info: NONBONDED TABLE SIZE: 705 POINTS
Info: REDUCING NUMBER OF PATCHES TO IMPROVE LOAD BALANCE
Info: REMOVING COM VELOCITY 0.0112208 -0.215571 0.12847
Info: Use 3D box decompostion in PME FFT.
Info: Updated CUDA force table with 4096 elements.
Info: Updated CUDA LJ table with 6 x 6 elements.
Info: Found 25 unique exclusion lists needing 84 bytes
TCL: Running for 1500000 steps
ETITLE: TS BOND ANGLE DIHED IMPRP ELECT VDW BOUNDARY MISC KINETIC TOTAL TEMP POTENTIAL TOTALAVG TEMPAVG PRESSURE GPRESSURE VOLUME PRESSAVG GPRESSAVG
ENERGY: 0 6.2887 4.6190 2.4742 0.0000 -10636.3883 1441.2428 0.0000 0.0000 1791.7004 -7390.0633 304.5001 -9181.7637 -7390.0633 304.5001 -99.7994 -9.6718 30447.9666 -99.7994 -9.6718
ENERGY: 300000 4.1083 7.4590 2.4030 0.0000 -10577.7817 1410.1042 0.0000 0.0000 1786.4104 -7367.2968 303.6010 -9153.7072 -7410.9442 303.1034 -218.4385 -123.3890 30313.9848 340.1694 406.3265
ENERGY: 600000 2.2863 9.9373 3.1217 0.0000 -10716.7428 1461.5374 0.0000 0.0000 1762.0768 -7477.7833 299.4655 -9239.8601 -7431.9705 301.4267 74.4391 85.9948 30452.4099 134.5155 191.8396
ENERGY: 900000 3.1673 10.8863 4.1990 0.0000 -10656.8845 1471.4125 0.0000 0.0000 1768.8417 -7398.3777 300.6152 -9167.2193 -7440.0052 302.1563 383.2485 435.7551 29814.2067 90.8532 142.2452
ENERGY: 1200000 3.8630 11.5288 7.2541 0.0000 -10798.8689 1493.0268 0.0000 0.0000 1769.8905 -7513.3058 300.7934 -9283.1963 -7447.0981 300.8419 118.0198 210.3072 30000.4646 142.5733 198.0244
ENERGY: 1500000 4.4545 10.6008 3.5837 0.0000 -10836.4741 1566.5730 0.0000 0.0000 1794.2297 -7457.0324 304.9299 -9251.2621 -7447.9968 301.4223 1005.2908 1103.8304 29542.4916 201.7174 264.9852
TCL: Running FEP window   2: Lambda1 0.05   Lambda2 0.1    [dLambda 0.05  ]
TCL: Setting parameter firsttimestep to 0
TCL: Setting parameter alchLambda to 0.05
Info: NONBONDED TABLE R-SQUARED SPACING: 0.0625
Info: NONBONDED TABLE SIZE: 705 POINTS
TCL: Setting parameter alchLambda2 to 0.1
Info: NONBONDED TABLE R-SQUARED SPACING: 0.0625
Info: NONBONDED TABLE SIZE: 705 POINTS
TCL: Running for 1500000 steps
ETITLE: TS BOND ANGLE DIHED IMPRP ELECT VDW BOUNDARY MISC KINETIC TOTAL TEMP POTENTIAL TOTALAVG TEMPAVG PRESSURE GPRESSURE VOLUME PRESSAVG GPRESSAVG
ENERGY: 0 4.4545 10.6008 3.5837 0.0000 -10836.4746 1571.5254 0.0000 0.0000 1793.3634 -7452.9468 304.7827 -9246.3102 -7452.9468 304.7827 1022.2297 1112.2253 29542.4916 1022.2297 1112.2253
ENERGY: 300000 5.3309 9.9165 3.6921 0.0000 -10666.0853 1408.5244 0.0000 0.0000 1749.6229 -7488.9984 297.3490 -9238.6213 -7465.0537 299.8288 -482.3648 -418.5168 30604.6158 -270.8362 -220.7818
ENERGY: 600000 5.0217 11.8924 3.6173 0.0000 -10650.7360 1442.4660 0.0000 0.0000 1816.3614 -7371.3773 308.6912 -9187.7386 -7444.6664 301.7510 -206.5095 -170.1356 30383.6401 -121.3493 -65.9906
ENERGY: 900000 3.2167 13.0188 4.7062 0.0000 -10619.1348 1382.0598 0.0000 0.0000 1790.6116 -7425.5217 304.3150 -9216.1333 -7443.8072 301.2426 -771.2688 -727.7796 30580.8263 -147.9299 -102.3265
ENERGY: 1200000 7.0395 7.7624 6.0531 0.0000 -10625.2152 1389.8079 0.0000 0.0000 1734.5271 -7480.0253 294.7834 -9214.5524 -7443.0081 300.8235 -346.1648 -331.2648 30179.6588 -174.5601 -130.8283
ENERGY: 1500000 2.6215 8.1962 5.3244 0.0000 -10669.0933 1409.8543 0.0000 0.0000 1815.5978 -7427.4992 308.5614 -9243.0970 -7441.2073 302.2228 -406.3930 -278.3725 30157.0707 -193.1706 -138.3002
TCL: Running FEP window   3: Lambda1 0.1    Lambda2 0.15000000000000002 [dLambda 0.05000000000000002]
TCL: Setting parameter firsttimestep to 0
TCL: Setting parameter alchLambda to 0.1
Info: NONBONDED TABLE R-SQUARED SPACING: 0.0625
Info: NONBONDED TABLE SIZE: 705 POINTS
TCL: Setting parameter alchLambda2 to 0.15000000000000002
Info: NONBONDED TABLE R-SQUARED SPACING: 0.0625
Info: NONBONDED TABLE SIZE: 705 POINTS
TCL: Running for 1500000 steps
ETITLE: TS BOND ANGLE DIHED IMPRP ELECT VDW BOUNDARY MISC KINETIC TOTAL TEMP POTENTIAL TOTALAVG TEMPAVG PRESSURE GPRESSURE VOLUME PRESSAVG GPRESSAVG
ENERGY: 0 2.6215 8.1962 5.3244 0.0000 -10669.0939 1414.4209 0.0000 0.0000 1814.6800 -7423.8510 308.4054 -9238.5310 -7423.8510 308.4054 -356.4668 -261.1910 30157.0707 -356.4668 -261.1910
ENERGY: 300000 4.1809 5.3534 3.9424 0.0000 -10656.7780 1455.4046 0.0000 0.0000 1808.3156 -7379.5809 307.3238 -9187.8966 -7433.1440 303.4993 359.9608 388.6873 30238.4180 -146.2341 -83.7314
ENERGY: 600000 4.4165 6.6546 6.0046 0.0000 -10597.0080 1351.8186 0.0000 0.0000 1722.5644 -7505.5493 292.7504 -9228.1137 -7451.0356 301.6056 -930.6850 -859.1167 30730.2856 -102.2518 -40.8980
ENERGY: 900000 3.1504 9.5908 4.5458 0.0000 -10673.0911 1439.2761 0.0000 0.0000 1776.7967 -7439.7312 301.9672 -9216.5280 -7441.7836 302.4666 74.2873 146.3618 29759.6213 -117.0722 -50.5498
ENERGY: 1200000 2.1037 9.0963 6.5576 0.0000 -10657.9642 1434.6456 0.0000 0.0000 1733.5914 -7471.9696 294.6244 -9205.5610 -7445.2401 301.2777 86.8778 149.3771 30002.3196 -207.3488 -142.2478
ENERGY: 1500000 4.3932 6.0198 7.1332 0.0000 -10635.1765 1440.0833 0.0000 0.0000 1757.1756 -7420.3715 298.6325 -9177.5470 -7436.0306 301.0613 13.4837 56.8450 30216.7959 -232.4425 -170.6532
TCL: Running FEP window   4: Lambda1 0.15000000000000002 Lambda2 0.2    [dLambda 0.04999999999999999]
TCL: Setting parameter firsttimestep to 0
TCL: Setting parameter alchLambda to 0.15000000000000002
Info: NONBONDED TABLE R-SQUARED SPACING: 0.0625
Info: NONBONDED TABLE SIZE: 705 POINTS
TCL: Setting parameter alchLambda2 to 0.2
Info: NONBONDED TABLE R-SQUARED SPACING: 0.0625
Info: NONBONDED TABLE SIZE: 705 POINTS
TCL: Running for 1500000 steps
ETITLE: TS BOND ANGLE DIHED IMPRP ELECT VDW BOUNDARY MISC KINETIC TOTAL TEMP POTENTIAL TOTALAVG TEMPAVG PRESSURE GPRESSURE VOLUME PRESSAVG GPRESSAVG
ENERGY: 0 4.3932 6.0198 7.1332 0.0000 -10635.1763 1439.7618 0.0000 0.0000 1756.3302 -7421.5382 298.4889 -9177.8684 -7421.5382 298.4889 -22.0397 61.6676 30216.7959 -22.0397 61.6676
ENERGY: 300000 5.3083 6.8437 5.6445 0.0000 -10613.9700 1394.9931 0.0000 0.0000 1826.7553 -7374.4251 310.4576 -9201.1805 -7416.8075 302.6530 -192.4225 -100.4989 30209.7327 78.4310 158.1150
ENERGY: 600000 6.8668 5.5413 5.7540 0.0000 -10700.6689 1460.2203 0.0000 0.0000 1860.4291 -7361.8574 316.1805 -9222.2865 -7435.1084 302.2028 -21.1409 123.6867 30236.3713 88.5214 176.3517
ENERGY: 900000 2.7471 8.2089 5.1669 0.0000 -10657.9512 1440.3043 0.0000 0.0000 1770.9652 -7430.5586 300.9761 -9201.5239 -7429.6928 301.2870 -97.4250 -35.9465 30506.5112 154.4146 232.4453
ENERGY: 1200000 7.2869 3.9526 8.1663 0.0000 -10717.3668 1490.5644 0.0000 0.0000 1770.5294 -7436.8671 300.9020 -9207.3965 -7424.7221 301.6585 205.1291 320.3045 30437.1330 125.9395 204.0466
ENERGY: 1500000 3.7690 7.3313 3.1129 0.0000 -10457.9654 1364.6779 0.0000 0.0000 1751.2713 -7327.8031 297.6291 -9079.0743 -7428.9356 301.3500 -343.1638 -268.2178 30461.6133 36.8563 114.2773
TCL: Running FEP window   5: Lambda1 0.2    Lambda2 0.25   [dLambda 0.04999999999999999]
TCL: Setting parameter firsttimestep to 0
TCL: Setting parameter alchLambda to 0.2
Info: NONBONDED TABLE R-SQUARED SPACING: 0.0625
Info: NONBONDED TABLE SIZE: 705 POINTS
TCL: Setting parameter alchLambda2 to 0.25
Info: NONBONDED TABLE R-SQUARED SPACING: 0.0625
Info: NONBONDED TABLE SIZE: 705 POINTS
TCL: Running for 1500000 steps
ETITLE: TS BOND ANGLE DIHED IMPRP ELECT VDW BOUNDARY MISC KINETIC TOTAL TEMP POTENTIAL TOTALAVG TEMPAVG PRESSURE GPRESSURE VOLUME PRESSAVG GPRESSAVG
ENERGY: 0 3.7690 7.3313 3.1129 0.0000 -10457.9670 1364.5393 0.0000 0.0000 1750.4046 -7328.8099 297.4818 -9079.2145 -7328.8099 297.4818 -351.6767 -263.6556 30461.6133 -351.6767 -263.6556
ENERGY: 300000 2.5813 6.9195 5.8506 0.0000 -10727.4411 1430.7526 0.0000 0.0000 1756.5969 -7524.7401 298.5342 -9281.3370 -7442.5632 298.4032 -147.7061 -10.2264 29762.0965 -268.3278 -192.3749
ENERGY: 600000 7.5968 5.7350 5.2743 0.0000 -10848.8736 1457.9891 0.0000 0.0000 1778.4420 -7593.8365 302.2468 -9372.2784 -7464.1339 299.8347 -303.8173 -206.3406 29886.0821 -169.0507 -92.4330
ENERGY: 900000 2.4532 6.7918 3.6138 0.0000 -10599.2699 1387.4060 0.0000 0.0000 1787.8840 -7411.1211 303.8515 -9199.0052 -7465.9302 299.8242 -377.8834 -320.8595 30337.3585 -226.8781 -154.1268
ENERGY: 1200000 3.8251 6.7257 7.2633 0.0000 -10651.2539 1451.9116 0.0000 0.0000 1777.0780 -7404.4501 302.0150 -9181.5282 -7466.3458 299.4470 172.8265 222.0815 30164.4922 -166.2503 -94.4598
ENERGY: 1500000 3.0854 10.0243 7.6607 0.0000 -10726.7487 1428.7465 0.0000 0.0000 1743.5343 -7533.6975 296.3142 -9277.2319 -7467.0707 298.8074 -232.6938 -201.1236 30120.1942 -270.2197 -200.6585
TCL: Running FEP window   6: Lambda1 0.25   Lambda2 0.3    [dLambda 0.04999999999999999]
TCL: Setting parameter firsttimestep to 0
TCL: Setting parameter alchLambda to 0.25
Info: NONBONDED TABLE R-SQUARED SPACING: 0.0625
Info: NONBONDED TABLE SIZE: 705 POINTS
TCL: Setting parameter alchLambda2 to 0.3
Info: NONBONDED TABLE R-SQUARED SPACING: 0.0625
Info: NONBONDED TABLE SIZE: 705 POINTS
TCL: Running for 1500000 steps
ETITLE: TS BOND ANGLE DIHED IMPRP ELECT VDW BOUNDARY MISC KINETIC TOTAL TEMP POTENTIAL TOTALAVG TEMPAVG PRESSURE GPRESSURE VOLUME PRESSAVG GPRESSAVG
ENERGY: 0 3.0854 10.0243 7.6607 0.0000 -10726.7482 1430.5213 0.0000 0.0000 1742.6236 -7532.8330 296.1594 -9275.4566 -7532.8330 296.1594 -259.1314 -189.4490 30120.1942 -259.1314 -189.4490
ENERGY: 300000 5.0963 6.9229 4.5501 0.0000 -10648.6949 1445.0900 0.0000 0.0000 1828.6765 -7358.3591 310.7842 -9187.0356 -7437.4002 302.0297 175.7987 319.7406 29994.4917 -66.0111 13.2022
ENERGY: 600000 8.4589 7.4699 4.6424 0.0000 -10494.7655 1337.1394 0.0000 0.0000 1767.7043 -7369.3506 300.4219 -9137.0549 -7425.1975 300.5131 -733.2664 -687.1673 30216.3067 -74.2191 -0.6190
ENERGY: 900000 2.5006 4.5865 4.0001 0.0000 -10797.3605 1579.9361 0.0000 0.0000 1786.7003 -7419.6370 303.6503 -9206.3373 -7424.1995 301.9847 965.6835 1081.9738 30175.4976 88.3757 171.4850
ENERGY: 1200000 2.8622 7.5246 5.5634 0.0000 -10747.4696 1528.4957 0.0000 0.0000 1717.7164 -7485.3073 291.9264 -9203.0237 -7426.6924 301.1068 849.5776 949.0182 30035.6484 212.5695 292.7073
ENERGY: 1500000 6.1307 7.6413 2.8868 0.0000 -10729.3246 1524.9444 0.0000 0.0000 1756.8657 -7430.8556 298.5799 -9187.7213 -7444.1790 299.7036 604.8177 649.4115 30536.9093 132.5610 204.7978
TCL: Running FEP window   7: Lambda1 0.3    Lambda2 0.35   [dLambda 0.04999999999999999]
TCL: Setting parameter firsttimestep to 0
TCL: Setting parameter alchLambda to 0.3
Info: NONBONDED TABLE R-SQUARED SPACING: 0.0625
Info: NONBONDED TABLE SIZE: 705 POINTS
TCL: Setting parameter alchLambda2 to 0.35
Info: NONBONDED TABLE R-SQUARED SPACING: 0.0625
Info: NONBONDED TABLE SIZE: 705 POINTS
TCL: Running for 1500000 steps
ETITLE: TS BOND ANGLE DIHED IMPRP ELECT VDW BOUNDARY MISC KINETIC TOTAL TEMP POTENTIAL TOTALAVG TEMPAVG PRESSURE GPRESSURE VOLUME PRESSAVG GPRESSAVG
ENERGY: 0 6.1307 7.6413 2.8868 0.0000 -10729.3241 1525.1316 0.0000 0.0000 1756.0031 -7431.5306 298.4333 -9187.5337 -7431.5306 298.4333 579.0561 653.8584 30536.9093 579.0561 653.8584
ENERGY: 300000 2.6437 8.9485 2.9318 0.0000 -10484.2479 1355.4453 0.0000 0.0000 1697.6570 -7416.6217 288.5173 -9114.2787 -7373.6015 298.0375 -409.1619 -355.3090 30289.4657 128.4327 188.6637
ENERGY: 600000 7.9407 7.3025 2.0777 0.0000 -10648.4480 1428.9070 0.0000 0.0000 1740.9260 -7461.2941 295.8709 -9202.2201 -7397.0419 299.4877 17.5198 31.7204 30185.1686 -43.1187 20.2366
ENERGY: 900000 4.8880 9.2230 4.4371 0.0000 -10544.4117 1409.4448 0.0000 0.0000 1748.8702 -7367.5487 297.2210 -9116.4188 -7400.1201 299.3156 -63.1005 6.6549 30163.4508 -116.2887 -58.7338
ENERGY: 1200000 2.6453 6.4849 5.0740 0.0000 -10610.1961 1432.9835 0.0000 0.0000 1835.3408 -7327.6676 311.9168 -9163.0084 -7395.1383 301.3084 132.0342 222.6361 30434.0243 -37.4231 23.9157
ENERGY: 1500000 4.0831 5.6865 4.2358 0.0000 -10570.9081 1362.9965 0.0000 0.0000 1769.7809 -7424.1253 300.7748 -9193.9062 -7406.1812 300.7530 -666.1385 -599.3598 30517.2612 -75.2230 -18.7188
TCL: Running FEP window   8: Lambda1 0.35   Lambda2 0.39999999999999997 [dLambda 0.04999999999999999]
TCL: Setting parameter firsttimestep to 0
TCL: Setting parameter alchLambda to 0.35
Info: NONBONDED TABLE R-SQUARED SPACING: 0.0625
Info: NONBONDED TABLE SIZE: 705 POINTS
TCL: Setting parameter alchLambda2 to 0.39999999999999997
Info: NONBONDED TABLE R-SQUARED SPACING: 0.0625
Info: NONBONDED TABLE SIZE: 705 POINTS
TCL: Running for 1500000 steps
ETITLE: TS BOND ANGLE DIHED IMPRP ELECT VDW BOUNDARY MISC KINETIC TOTAL TEMP POTENTIAL TOTALAVG TEMPAVG PRESSURE GPRESSURE VOLUME PRESSAVG GPRESSAVG
ENERGY: 0 4.0831 5.6865 4.2358 0.0000 -10570.9086 1362.3881 0.0000 0.0000 1768.9148 -7425.6003 300.6276 -9194.5151 -7425.6003 300.6276 -672.0113 -597.1985 30517.2612 -672.0113 -597.1985
ENERGY: 300000 4.1860 7.5796 2.9549 0.0000 -10548.4795 1382.5585 0.0000 0.0000 1827.7993 -7323.4012 310.6351 -9151.2005 -7419.0981 303.0763 -506.5823 -453.1840 30648.0696 -157.3094 -95.9317
ENERGY: 600000 9.1993 5.3971 2.6774 0.0000 -10716.7724 1484.0493 0.0000 0.0000 1772.0016 -7443.4477 301.1522 -9215.4493 -7408.5820 302.7801 235.7941 268.9518 30049.2238 -101.8845 -44.8612
ENERGY: 900000 3.6562 7.7449 3.4853 0.0000 -10725.7060 1444.7509 0.0000 0.0000 1759.1372 -7506.9315 298.9659 -9266.0687 -7445.7865 300.8550 70.7007 149.5720 30127.9681 14.2041 74.1071
ENERGY: 1200000 2.8362 7.9323 3.2625 0.0000 -10481.2316 1304.9743 0.0000 0.0000 1839.8765 -7322.3497 312.6876 -9162.2262 -7439.9518 301.5558 -826.7416 -795.4855 30366.4766 -126.1676 -59.2673
ENERGY: 1500000 3.6614 10.1079 6.5992 0.0000 -10804.0215 1520.1021 0.0000 0.0000 1798.0057 -7465.5452 305.5716 -9263.5509 -7443.5508 301.6490 781.2151 812.2586 29924.6858 -139.2003 -70.2175
TCL: Running FEP window   9: Lambda1 0.39999999999999997 Lambda2 0.44999999999999996 [dLambda 0.04999999999999999]
TCL: Setting parameter firsttimestep to 0
TCL: Setting parameter alchLambda to 0.39999999999999997
Info: NONBONDED TABLE R-SQUARED SPACING: 0.0625
Info: NONBONDED TABLE SIZE: 705 POINTS
TCL: Setting parameter alchLambda2 to 0.44999999999999996
Info: NONBONDED TABLE R-SQUARED SPACING: 0.0625
Info: NONBONDED TABLE SIZE: 705 POINTS
TCL: Running for 1500000 steps
ETITLE: TS BOND ANGLE DIHED IMPRP ELECT VDW BOUNDARY MISC KINETIC TOTAL TEMP POTENTIAL TOTALAVG TEMPAVG PRESSURE GPRESSURE VOLUME PRESSAVG GPRESSAVG
ENERGY: 0 3.6614 10.1079 6.5992 0.0000 -10804.0221 1520.3651 0.0000 0.0000 1797.1495 -7466.1390 305.4261 -9263.2884 -7466.1390 305.4261 723.7215 821.8657 29924.6858 723.7215 821.8657
ENERGY: 300000 3.8405 4.7486 1.6852 0.0000 -10581.4290 1437.7171 0.0000 0.0000 1814.0398 -7319.3979 308.2966 -9133.4377 -7413.2511 306.3415 545.3950 625.7619 29931.2344 84.2822 170.2151
ENERGY: 600000 4.1261 4.9237 4.1953 0.0000 -10638.7402 1485.4143 0.0000 0.0000 1776.6733 -7363.4075 301.9462 -9140.0808 -7434.7884 303.2504 282.3868 308.0119 30887.3736 -21.1092 64.1846
ENERGY: 900000 4.1148 6.4220 3.4104 0.0000 -10703.1610 1443.0815 0.0000 0.0000 1796.4501 -7449.6821 305.3073 -9246.1322 -7446.6465 302.8609 -233.9150 -198.0573 30659.4502 13.5716 88.8842
ENERGY: 1200000 3.4674 5.5934 4.4729 0.0000 -10666.4792 1445.8405 0.0000 0.0000 1786.3387 -7420.7663 303.5888 -9207.1049 -7452.2691 302.4462 46.4902 158.5367 30635.8416 61.7850 136.6988
ENERGY: 1500000 5.3872 7.4240 5.4380 0.0000 -10639.2579 1412.1000 0.0000 0.0000 1750.6360 -7458.2726 297.5212 -9208.9087 -7456.2670 301.5097 -111.2309 -143.8806 30176.6209 25.7675 93.7817
TCL: Running FEP window  10: Lambda1 0.44999999999999996 Lambda2 0.49999999999999994 [dLambda 0.04999999999999999]
TCL: Setting parameter firsttimestep to 0
TCL: Setting parameter alchLambda to 0.44999999999999996
Info: NONBONDED TABLE R-SQUARED SPACING: 0.0625
Info: NONBONDED TABLE SIZE: 705 POINTS
TCL: Setting parameter alchLambda2 to 0.49999999999999994
Info: NONBONDED TABLE R-SQUARED SPACING: 0.0625
Info: NONBONDED TABLE SIZE: 705 POINTS
TCL: Running for 1500000 steps
ETITLE: TS BOND ANGLE DIHED IMPRP ELECT VDW BOUNDARY MISC KINETIC TOTAL TEMP POTENTIAL TOTALAVG TEMPAVG PRESSURE GPRESSURE VOLUME PRESSAVG GPRESSAVG
ENERGY: 0 5.3872 7.4240 5.4380 0.0000 -10639.2579 1412.1331 0.0000 0.0000 1749.7496 -7459.1260 297.3705 -9208.8756 -7459.1260 297.3705 -207.6771 -131.5213 30176.6209 -207.6771 -131.5213
ENERGY: 300000 1.8312 7.7653 5.6951 0.0000 -10628.2601 1399.5144 0.0000 0.0000 1796.6707 -7416.7834 305.3448 -9213.4541 -7434.9354 302.1224 61.4491 85.1219 29973.1272 28.6258 87.0978
ENERGY: 600000 5.9906 5.1681 3.6384 0.0000 -10482.8094 1298.2898 0.0000 0.0000 1755.3442 -7414.3783 298.3213 -9169.7226 -7442.8989 300.3171 -1022.1853 -1021.4558 30098.6969 -208.0404 -157.2867
ENERGY: 900000 3.5013 8.0573 4.8644 0.0000 -10649.7228 1346.6203 0.0000 0.0000 1750.1459 -7536.5336 297.4378 -9286.6795 -7446.6371 301.2678 -1129.0017 -1016.6302 30237.3782 -181.5642 -115.8778
ENERGY: 1200000 5.0642 7.5316 7.0572 0.0000 -10631.2401 1429.6529 0.0000 0.0000 1692.8279 -7489.1063 287.6966 -9181.9343 -7444.0831 300.4287 -260.6377 -195.7811 30659.5133 -168.8769 -104.8042
ENERGY: 1500000 7.2971 5.8910 6.6317 0.0000 -10623.5942 1366.9291 0.0000 0.0000 1755.2794 -7481.5659 298.3103 -9236.8453 -7442.3611 300.1781 -766.8482 -645.2231 30740.5085 -219.4989 -149.9180
TCL: Running FEP window  11: Lambda1 0.49999999999999994 Lambda2 0.5499999999999999 [dLambda 0.04999999999999999]
TCL: Setting parameter firsttimestep to 0
TCL: Setting parameter alchLambda to 0.49999999999999994
Info: NONBONDED TABLE R-SQUARED SPACING: 0.0625
Info: NONBONDED TABLE SIZE: 705 POINTS
TCL: Setting parameter alchLambda2 to 0.5499999999999999
Info: NONBONDED TABLE R-SQUARED SPACING: 0.0625
Info: NONBONDED TABLE SIZE: 705 POINTS
TCL: Running for 1500000 steps
ETITLE: TS BOND ANGLE DIHED IMPRP ELECT VDW BOUNDARY MISC KINETIC TOTAL TEMP POTENTIAL TOTALAVG TEMPAVG PRESSURE GPRESSURE VOLUME PRESSAVG GPRESSAVG
ENERGY: 0 7.2971 5.8910 6.6317 0.0000 -10623.5942 1366.5585 0.0000 0.0000 1754.4002 -7482.8157 298.1609 -9237.2158 -7482.8157 298.1609 -729.5967 -641.9229 30740.5085 -729.5967 -641.9229
ENERGY: 300000 4.4339 7.3401 2.8569 0.0000 -10566.4871 1417.2275 0.0000 0.0000 1760.4622 -7374.1665 299.1911 -9134.6287 -7447.3103 300.1894 169.0553 225.6744 30455.8716 -331.5880 -259.8543
ENERGY: 600000 1.9516 6.1044 2.7996 0.0000 -10577.8878 1329.9585 0.0000 0.0000 1745.8636 -7491.2101 296.7101 -9237.0737 -7453.6589 301.2123 -677.5977 -629.2435 30233.0727 -308.3922 -261.9339
ENERGY: 900000 4.6206 10.3261 5.9593 0.0000 -10638.1655 1455.0507 0.0000 0.0000 1765.2630 -7396.9458 300.0070 -9162.2088 -7426.4568 301.3650 114.3092 112.1503 30693.7697 -266.0704 -214.8638
ENERGY: 1200000 3.6375 9.9695 3.4293 0.0000 -10690.9428 1439.9429 0.0000 0.0000 1834.8907 -7399.0728 311.8403 -9233.9635 -7424.2422 302.2282 -243.2247 -174.1034 30824.4009 -291.8430 -232.8250
ENERGY: 1500000 3.7042 9.0760 5.6163 0.0000 -10645.7929 1435.2009 0.0000 0.0000 1746.7177 -7445.4779 296.8552 -9192.1956 -7425.6320 301.7452 176.1675 233.4411 30287.6342 -271.9824 -215.6714
TCL: Running FEP window  12: Lambda1 0.5499999999999999 Lambda2 0.6    [dLambda 0.050000000000000044]
TCL: Setting parameter firsttimestep to 0
TCL: Setting parameter alchLambda to 0.5499999999999999
Info: NONBONDED TABLE R-SQUARED SPACING: 0.0625
Info: NONBONDED TABLE SIZE: 705 POINTS
TCL: Setting parameter alchLambda2 to 0.6
Info: NONBONDED TABLE R-SQUARED SPACING: 0.0625
Info: NONBONDED TABLE SIZE: 705 POINTS
TCL: Running for 1500000 steps
ETITLE: TS BOND ANGLE DIHED IMPRP ELECT VDW BOUNDARY MISC KINETIC TOTAL TEMP POTENTIAL TOTALAVG TEMPAVG PRESSURE GPRESSURE VOLUME PRESSAVG GPRESSAVG
ENERGY: 0 3.7042 9.0760 5.6163 0.0000 -10645.6610 1434.3393 0.0000 0.0000 1745.8298 -7447.0954 296.7043 -9192.9252 -7447.0954 296.7043 151.2513 234.8594 30287.6342 151.2513 234.8594
ENERGY: 300000 1.7611 7.1827 3.6657 0.0000 -10612.5654 1430.0212 0.0000 0.0000 1752.1574 -7417.7773 297.7797 -9169.9347 -7430.2738 302.8011 -13.9264 94.3031 30521.7153 417.9906 465.5276
ENERGY: 600000 3.8878 9.6993 8.3740 0.0000 -10709.7732 1455.8391 0.0000 0.0000 1747.9842 -7483.9889 297.0705 -9231.9730 -7456.3074 300.0441 59.3058 160.3891 30272.0695 186.7649 256.9747
ENERGY: 900000 4.1682 8.0700 3.6216 0.0000 -10731.6367 1484.9556 0.0000 0.0000 1725.7570 -7505.0643 293.2930 -9230.8213 -7443.0893 299.5815 399.8820 412.7887 30360.8397 33.2956 92.6029
ENERGY: 1200000 4.3475 10.7902 7.3391 0.0000 -10774.7199 1600.5246 0.0000 0.0000 1750.5804 -7401.1381 297.5117 -9151.7185 -7439.7911 300.4293 1162.4989 1245.9985 30890.8983 7.6044 68.2208
ENERGY: 1500000 5.1531 5.6707 5.8789 0.0000 -10791.6462 1525.2648 0.0000 0.0000 1737.0880 -7512.5908 295.2187 -9249.6788 -7446.4624 299.5105 662.7286 683.2965 30132.1015 -19.1938 42.4268
TCL: Running FEP window  13: Lambda1 0.6    Lambda2 0.65   [dLambda 0.050000000000000044]
TCL: Setting parameter firsttimestep to 0
TCL: Setting parameter alchLambda to 0.6
Info: NONBONDED TABLE R-SQUARED SPACING: 0.0625
Info: NONBONDED TABLE SIZE: 705 POINTS
TCL: Setting parameter alchLambda2 to 0.65
Info: NONBONDED TABLE R-SQUARED SPACING: 0.0625
Info: NONBONDED TABLE SIZE: 705 POINTS
TCL: Running for 1500000 steps
ETITLE: TS BOND ANGLE DIHED IMPRP ELECT VDW BOUNDARY MISC KINETIC TOTAL TEMP POTENTIAL TOTALAVG TEMPAVG PRESSURE GPRESSURE VOLUME PRESSAVG GPRESSAVG
ENERGY: 0 5.1531 5.6707 5.8789 0.0000 -10791.6440 1525.2146 0.0000 0.0000 1736.1718 -7513.5549 295.0629 -9249.7267 -7513.5549 295.0629 627.5360 698.5378 30132.1015 627.5360 698.5378
ENERGY: 300000 3.5532 10.1961 3.5161 0.0000 -10711.4401 1514.5741 0.0000 0.0000 1724.8515 -7454.7491 293.1391 -9179.6007 -7438.4690 298.6122 525.7285 566.6268 30506.9926 466.9031 519.0595
ENERGY: 600000 2.3238 12.3474 2.7567 0.0000 -10831.4858 1515.5900 0.0000 0.0000 1718.6052 -7579.8628 292.0775 -9298.4680 -7459.1433 297.7161 405.6585 502.7461 29891.2715 178.7125 230.5703
ENERGY: 900000 5.8095 5.4288 2.4103 0.0000 -10747.6660 1560.4651 0.0000 0.0000 1793.2929 -7380.2595 304.7707 -9173.5524 -7458.5194 299.1607 1196.1744 1211.9385 30455.0777 203.8144 261.3925
ENERGY: 1200000 4.4192 5.4250 6.4360 0.0000 -10574.5654 1382.3133 0.0000 0.0000 1719.3032 -7456.6687 292.1961 -9175.9719 -7452.3444 298.8120 -585.1328 -546.7754 30820.9833 85.7961 148.9026
ENERGY: 1500000 3.2503 8.0346 3.0116 0.0000 -10732.7956 1517.2385 0.0000 0.0000 1759.5244 -7441.7362 299.0317 -9201.2606 -7445.4861 299.2706 829.0652 917.3019 30086.6278 117.2454 177.6618
TCL: Running FEP window  14: Lambda1 0.65   Lambda2 0.7000000000000001 [dLambda 0.050000000000000044]
TCL: Setting parameter firsttimestep to 0
TCL: Setting parameter alchLambda to 0.65
Info: NONBONDED TABLE R-SQUARED SPACING: 0.0625
Info: NONBONDED TABLE SIZE: 705 POINTS
TCL: Setting parameter alchLambda2 to 0.7000000000000001
Info: NONBONDED TABLE R-SQUARED SPACING: 0.0625
Info: NONBONDED TABLE SIZE: 705 POINTS
TCL: Running for 1500000 steps
ETITLE: TS BOND ANGLE DIHED IMPRP ELECT VDW BOUNDARY MISC KINETIC TOTAL TEMP POTENTIAL TOTALAVG TEMPAVG PRESSURE GPRESSURE VOLUME PRESSAVG GPRESSAVG
ENERGY: 0 3.2503 8.0346 3.0116 0.0000 -10732.9926 1518.1103 0.0000 0.0000 1758.6633 -7441.9225 298.8854 -9200.5858 -7441.9225 298.8854 856.0008 937.8733 30086.6278 856.0008 937.8733
ENERGY: 300000 3.6571 5.8889 5.6186 0.0000 -10635.4036 1376.6466 0.0000 0.0000 1819.9639 -7423.6284 309.3034 -9243.5923 -7452.1687 301.3516 -616.1977 -557.3347 30426.0683 39.5994 99.1167
ENERGY: 600000 3.3866 4.5052 4.3210 0.0000 -10635.9334 1462.9620 0.0000 0.0000 1801.6406 -7359.1180 306.1894 -9160.7585 -7403.4978 303.5103 356.3645 428.1861 30234.7682 -64.2503 1.9521
ENERGY: 900000 3.1976 4.7739 2.8552 0.0000 -10671.1867 1422.6486 0.0000 0.0000 1796.8893 -7440.8221 305.3819 -9237.7114 -7414.7033 302.6873 -73.7035 -37.3362 30334.1547 -136.4105 -82.9637
ENERGY: 1200000 6.6147 6.1566 8.9978 0.0000 -10873.2246 1522.0832 0.0000 0.0000 1731.7005 -7597.6717 294.3030 -9329.3722 -7437.2037 301.6007 357.1708 402.4278 30262.7351 -253.3297 -198.9799
ENERGY: 1500000 2.5191 9.3052 5.1180 0.0000 -10768.0664 1545.6459 0.0000 0.0000 1736.4683 -7469.0099 295.1133 -9205.4782 -7441.5612 300.8236 712.7848 799.1572 30709.4588 -211.3263 -154.9461
TCL: Running FEP window  15: Lambda1 0.7000000000000001 Lambda2 0.7500000000000001 [dLambda 0.050000000000000044]
TCL: Setting parameter firsttimestep to 0
TCL: Setting parameter alchLambda to 0.7000000000000001
Info: NONBONDED TABLE R-SQUARED SPACING: 0.0625
Info: NONBONDED TABLE SIZE: 705 POINTS
TCL: Setting parameter alchLambda2 to 0.7500000000000001
Info: NONBONDED TABLE R-SQUARED SPACING: 0.0625
Info: NONBONDED TABLE SIZE: 705 POINTS
TCL: Running for 1500000 steps
ETITLE: TS BOND ANGLE DIHED IMPRP ELECT VDW BOUNDARY MISC KINETIC TOTAL TEMP POTENTIAL TOTALAVG TEMPAVG PRESSURE GPRESSURE VOLUME PRESSAVG GPRESSAVG
ENERGY: 0 2.5191 9.3052 5.1180 0.0000 -10768.3990 1544.9692 0.0000 0.0000 1735.6377 -7470.8499 294.9722 -9206.4876 -7470.8499 294.9722 719.5510 803.1020 30709.4588 719.5510 803.1020
ENERGY: 300000 4.9851 5.0701 2.0650 0.0000 -10540.9358 1389.5363 0.0000 0.0000 1727.2763 -7412.0030 293.5512 -9139.2793 -7479.4898 294.3659 23.6097 49.2011 30352.3621 221.4750 244.6243
ENERGY: 600000 6.5230 7.4625 3.6577 0.0000 -10485.2186 1278.9087 0.0000 0.0000 1776.2536 -7412.4131 301.8749 -9188.6667 -7460.1652 297.8808 -1162.4534 -1141.5755 30570.4074 -21.6429 3.9606
ENERGY: 900000 2.0678 11.1777 6.6495 0.0000 -10716.4116 1466.7238 0.0000 0.0000 1751.8303 -7477.9626 297.7241 -9229.7929 -7467.7213 298.1293 91.4421 153.8471 30568.9554 -68.9017 -36.6512
ENERGY: 1200000 6.9074 4.1525 3.5347 0.0000 -10595.7074 1366.3833 0.0000 0.0000 1753.2844 -7461.4452 297.9712 -9214.7296 -7461.5542 298.1290 -225.5664 -153.3263 29684.7807 -84.0181 -37.1644
ENERGY: 1500000 4.0117 7.1808 3.6208 0.0000 -10577.0750 1349.2466 0.0000 0.0000 1756.0357 -7456.9794 298.4388 -9213.0152 -7455.0894 298.3671 -637.5384 -593.0435 30362.2673 -102.6785 -50.7873
TCL: Running FEP window  16: Lambda1 0.7500000000000001 Lambda2 0.8000000000000002 [dLambda 0.050000000000000044]
TCL: Setting parameter firsttimestep to 0
TCL: Setting parameter alchLambda to 0.7500000000000001
Info: NONBONDED TABLE R-SQUARED SPACING: 0.0625
Info: NONBONDED TABLE SIZE: 705 POINTS
TCL: Setting parameter alchLambda2 to 0.8000000000000002
Info: NONBONDED TABLE R-SQUARED SPACING: 0.0625
Info: NONBONDED TABLE SIZE: 705 POINTS
TCL: Running for 1500000 steps
ETITLE: TS BOND ANGLE DIHED IMPRP ELECT VDW BOUNDARY MISC KINETIC TOTAL TEMP POTENTIAL TOTALAVG TEMPAVG PRESSURE GPRESSURE VOLUME PRESSAVG GPRESSAVG
ENERGY: 0 4.0117 7.1808 3.6208 0.0000 -10577.8967 1348.8910 0.0000 0.0000 1755.1608 -7459.0316 298.2901 -9214.1924 -7459.0316 298.2901 -680.5020 -584.9922 30362.2673 -680.5020 -584.9922
ENERGY: 300000 4.0365 6.7007 6.3883 0.0000 -10541.1295 1330.6264 0.0000 0.0000 1776.8237 -7416.5541 301.9717 -9193.3777 -7427.8324 301.6962 -815.2380 -771.5608 30484.9183 -650.8070 -586.2781
ENERGY: 600000 8.8493 5.9457 7.0712 0.0000 -10730.0809 1481.8705 0.0000 0.0000 1780.6470 -7445.6971 302.6215 -9226.3442 -7473.8247 301.8299 107.3627 133.4865 30738.6620 -212.7531 -163.8090
ENERGY: 900000 2.9148 5.4341 2.2362 0.0000 -10796.5984 1478.7346 0.0000 0.0000 1762.7405 -7544.5383 299.5783 -9307.2788 -7487.4220 300.0153 129.5964 208.9658 30121.9720 18.6461 83.1089
ENERGY: 1200000 5.4490 6.8023 3.8409 0.0000 -10817.5444 1520.8663 0.0000 0.0000 1769.2685 -7511.3175 300.6877 -9280.5860 -7473.8915 300.2037 400.3320 461.6211 30261.1056 96.2846 165.2190
ENERGY: 1500000 5.0147 3.4236 4.4155 0.0000 -10498.1763 1407.2753 0.0000 0.0000 1846.2492 -7231.7980 313.7706 -9078.0472 -7460.3725 301.4259 304.3129 331.3152 30158.5778 15.5811 78.9451
TCL: Running FEP window  17: Lambda1 0.8000000000000002 Lambda2 0.8500000000000002 [dLambda 0.050000000000000044]
TCL: Setting parameter firsttimestep to 0
TCL: Setting parameter alchLambda to 0.8000000000000002
Info: NONBONDED TABLE R-SQUARED SPACING: 0.0625
Info: NONBONDED TABLE SIZE: 705 POINTS
TCL: Setting parameter alchLambda2 to 0.8500000000000002
Info: NONBONDED TABLE R-SQUARED SPACING: 0.0625
Info: NONBONDED TABLE SIZE: 705 POINTS
TCL: Running for 1500000 steps
ETITLE: TS BOND ANGLE DIHED IMPRP ELECT VDW BOUNDARY MISC KINETIC TOTAL TEMP POTENTIAL TOTALAVG TEMPAVG PRESSURE GPRESSURE VOLUME PRESSAVG GPRESSAVG
ENERGY: 0 5.0147 3.4236 4.4155 0.0000 -10498.2280 1406.8100 0.0000 0.0000 1845.3558 -7233.2084 313.6188 -9078.5642 -7233.2084 313.6188 252.6893 341.9893 30158.5778 252.6893 341.9893
ENERGY: 300000 1.2450 6.9352 3.0823 0.0000 -10621.9310 1382.0701 0.0000 0.0000 1759.1643 -7469.4341 298.9705 -9228.5984 -7366.9699 306.9425 -430.1537 -385.8909 30521.0016 146.9697 188.7975
ENERGY: 600000 3.5993 5.6768 7.8887 0.0000 -10727.6252 1457.2918 0.0000 0.0000 1759.7758 -7493.3928 299.0745 -9253.1687 -7427.6526 303.1715 351.5896 396.6854 30038.9146 350.3465 406.8332
ENERGY: 900000 2.9095 7.5087 7.6815 0.0000 -10633.3184 1414.6382 0.0000 0.0000 1724.1075 -7476.4730 293.0126 -9200.5805 -7424.2445 302.2581 -13.8477 110.5081 30159.8247 233.6461 299.7761
ENERGY: 1200000 3.9569 7.1564 5.7645 0.0000 -10537.7037 1374.9539 0.0000 0.0000 1752.7868 -7393.0853 297.8867 -9145.8721 -7418.9299 302.0278 -438.2750 -376.8937 30977.8818 142.2207 202.1142
ENERGY: 1500000 5.1126 7.3421 6.5003 0.0000 -10617.3280 1375.6359 0.0000 0.0000 1742.1135 -7480.6234 296.0727 -9222.7370 -7419.2953 301.6985 -141.8717 -77.5454 29764.7161 60.3340 121.3847
TCL: Running FEP window  18: Lambda1 0.8500000000000002 Lambda2 0.9000000000000002 [dLambda 0.050000000000000044]
TCL: Setting parameter firsttimestep to 0
TCL: Setting parameter alchLambda to 0.8500000000000002
Info: NONBONDED TABLE R-SQUARED SPACING: 0.0625
Info: NONBONDED TABLE SIZE: 705 POINTS
TCL: Setting parameter alchLambda2 to 0.9000000000000002
Info: NONBONDED TABLE R-SQUARED SPACING: 0.0625
Info: NONBONDED TABLE SIZE: 705 POINTS
TCL: Running for 1500000 steps
ETITLE: TS BOND ANGLE DIHED IMPRP ELECT VDW BOUNDARY MISC KINETIC TOTAL TEMP POTENTIAL TOTALAVG TEMPAVG PRESSURE GPRESSURE VOLUME PRESSAVG GPRESSAVG
ENERGY: 0 5.1126 7.3421 6.5003 0.0000 -10618.4575 1377.1536 0.0000 0.0000 1741.2268 -7481.1221 295.9220 -9222.3489 -7481.1221 295.9220 -126.0215 -44.0950 29764.7161 -126.0215 -44.0950
ENERGY: 300000 2.7747 8.5964 2.0564 0.0000 -10663.3490 1421.8926 0.0000 0.0000 1794.4213 -7433.6076 304.9625 -9228.0289 -7439.3327 301.1840 93.9562 48.6563 30327.6940 17.0265 74.7771
ENERGY: 600000 5.0877 8.0170 7.2024 0.0000 -10513.0777 1359.8333 0.0000 0.0000 1816.2836 -7316.6536 308.6780 -9132.9372 -7413.0676 302.0064 -499.1975 -446.9939 30877.2526 -175.2031 -119.5795
ENERGY: 900000 2.7532 7.3664 4.5097 0.0000 -10663.4391 1412.9235 0.0000 0.0000 1735.3082 -7500.5781 294.9162 -9235.8863 -7425.9125 300.7014 -83.2390 -35.0551 30129.2809 -148.8177 -95.6016
ENERGY: 1200000 4.1805 8.8548 5.4006 0.0000 -10620.0798 1419.8389 0.0000 0.0000 1760.8333 -7420.9718 299.2542 -9181.8051 -7443.0417 300.4579 -11.0995 42.4815 30622.7963 -239.1604 -183.2495
ENERGY: 1500000 3.6582 8.2114 7.3366 0.0000 -10695.7834 1471.1627 0.0000 0.0000 1761.4034 -7444.0111 299.3511 -9205.4145 -7454.4656 300.1611 265.9350 365.2891 30832.7929 -224.3437 -160.8423
TCL: Running FEP window  19: Lambda1 0.9000000000000002 Lambda2 0.9500000000000003 [dLambda 0.050000000000000044]
TCL: Setting parameter firsttimestep to 0
TCL: Setting parameter alchLambda to 0.9000000000000002
Info: NONBONDED TABLE R-SQUARED SPACING: 0.0625
Info: NONBONDED TABLE SIZE: 705 POINTS
TCL: Setting parameter alchLambda2 to 0.9500000000000003
Info: NONBONDED TABLE R-SQUARED SPACING: 0.0625
Info: NONBONDED TABLE SIZE: 705 POINTS
TCL: Running for 1500000 steps
ETITLE: TS BOND ANGLE DIHED IMPRP ELECT VDW BOUNDARY MISC KINETIC TOTAL TEMP POTENTIAL TOTALAVG TEMPAVG PRESSURE GPRESSURE VOLUME PRESSAVG GPRESSAVG
ENERGY: 0 3.6582 8.2114 7.3366 0.0000 -10696.7798 1472.3003 0.0000 0.0000 1760.5516 -7444.7217 299.2063 -9205.2733 -7444.7217 299.2063 301.9388 393.4112 30832.7929 301.9388 393.4112
ENERGY: 300000 7.3803 11.2230 4.3727 0.0000 -10727.7485 1407.4955 0.0000 0.0000 1812.9922 -7484.2849 308.1186 -9297.2770 -7469.3786 300.3817 -235.1406 -188.0085 30065.6748 51.3225 118.3049
ENERGY: 600000 4.5886 5.2901 5.3486 0.0000 -10731.7782 1471.0822 0.0000 0.0000 1730.5108 -7514.9578 294.1009 -9245.4686 -7482.1988 298.8699 140.7211 216.1323 30431.1184 83.2453 145.2802
ENERGY: 900000 4.2350 6.2260 3.2149 0.0000 -10762.6705 1459.1200 0.0000 0.0000 1763.2284 -7526.6462 299.6612 -9289.8745 -7484.0039 299.3158 -256.3861 -169.5389 30495.2144 15.4989 77.2101
ENERGY: 1200000 5.5617 8.5779 5.3606 0.0000 -10749.3993 1464.8015 0.0000 0.0000 1760.4936 -7504.6039 299.1964 -9265.0975 -7474.7986 299.3376 -96.6098 12.2519 30343.7615 2.7470 75.0650
ENERGY: 1500000 1.8296 9.5016 7.6688 0.0000 -10839.6873 1553.3442 0.0000 0.0000 1747.5979 -7519.7451 297.0048 -9267.3430 -7475.6906 299.0800 1090.2599 1129.5796 29819.4303 57.9676 126.6241
TCL: Running FEP window  20: Lambda1 0.9500000000000003 Lambda2 1.0    [dLambda 0.04999999999999971]
TCL: Setting parameter firsttimestep to 0
TCL: Setting parameter alchLambda to 0.9500000000000003
Info: NONBONDED TABLE R-SQUARED SPACING: 0.0625
Info: NONBONDED TABLE SIZE: 705 POINTS
TCL: Setting parameter alchLambda2 to 1.0
Info: NONBONDED TABLE R-SQUARED SPACING: 0.0625
Info: NONBONDED TABLE SIZE: 705 POINTS
TCL: Running for 1500000 steps
ETITLE: TS BOND ANGLE DIHED IMPRP ELECT VDW BOUNDARY MISC KINETIC TOTAL TEMP POTENTIAL TOTALAVG TEMPAVG PRESSURE GPRESSURE VOLUME PRESSAVG GPRESSAVG
ENERGY: 0 1.8296 9.5016 7.6688 0.0000 -10840.7305 1554.0648 0.0000 0.0000 1746.7478 -7520.9179 296.8603 -9267.6657 -7520.9179 296.8603 1062.6712 1158.4889 29819.4303 1062.6712 1158.4889
ENERGY: 300000 1.9289 7.8936 3.1592 0.0000 -10734.9452 1418.6262 0.0000 0.0000 1737.8620 -7565.4753 295.3502 -9303.3373 -7515.5393 295.6013 -114.4594 -83.9824 29969.2571 169.2790 262.9629
ENERGY: 600000 5.1542 7.8236 4.4575 0.0000 -10637.9088 1429.0634 0.0000 0.0000 1786.8571 -7404.5529 303.6769 -9191.4100 -7487.5458 297.6442 83.6038 138.6701 30301.8619 84.3230 159.0408
ENERGY: 900000 5.1517 8.6640 2.7351 0.0000 -10700.5359 1443.7635 0.0000 0.0000 1803.4716 -7436.7500 306.5006 -9240.2216 -7479.7701 299.4724 33.9222 165.5041 30166.4140 -9.2332 65.8982
ENERGY: 1200000 4.3587 3.1025 4.9217 0.0000 -10598.8671 1416.3387 0.0000 0.0000 1714.6381 -7455.5075 291.4033 -9170.1455 -7483.5632 298.0129 -149.4455 -133.0229 30697.1856 -65.6286 7.0935
ENERGY: 1500000 2.4007 5.1064 4.0999 0.0000 -10749.1070 1448.6362 0.0000 0.0000 1819.2801 -7469.5838 309.1872 -9288.8638 -7468.9488 299.5309 5.7732 36.0010 30423.5445 -63.5594 4.3750
TCL: Exiting due to exit command.
