Info: SIMULATION PARAMETERS:
Info: TIMESTEP               2
Info: NUMBER OF STEPS        0
Info: STEPS PER CYCLE        10
Info: PERIODIC CELL BASIS 1  30.0634 0 0
Info: PERIODIC CELL BASIS 2  0 31.5047 0
Info: PERIODIC CELL BASIS 3  0 0 31.5126
Info: PERIODIC CELL CENTER   0 0 0
Info: WRAPPING WATERS AROUND PERIODIC BOUNDARIES ON OUTPUT.
Info: WRAPPING ALL CLUSTERS AROUND PERIODIC BOUNDARIES ON OUTPUT.
Info: FIRST LDB TIMESTEP     50
Info: LAST LDB TIMESTEP     -1
Info: HOM BACKGROUND SCALING 1
Info: PME BACKGROUND SCALING 1
Info: MIN ATOMS PER PATCH    40
Info: EMPTY PATCH LOAD       40 ATOMS
Info: VELOCITY FILE          mobley_5467162_equil.vel
Info: CENTER OF MASS MOVING INITIALLY? NO
Info: DIELECTRIC             1
Info: EXCLUDE                SCALED ONE-FOUR
Info: 1-4 ELECTROSTATICS SCALED BY 0.833333
Info: MODIFIED 1-4 VDW PARAMETERS WILL BE USED
Info: DCD FILENAME           mobley_5467162_prod.dcd
Info: DCD FREQUENCY          100000
Info: DCD FIRST STEP         100000
Info: DCD FILE WILL CONTAIN UNIT CELL DATA
Info: XST FILENAME           mobley_5467162_prod.xst
Info: XST FREQUENCY          100000
Info: NO VELOCITY DCD OUTPUT
Info: NO FORCE DCD OUTPUT
Info: OUTPUT FILENAME        mobley_5467162_prod
Info: BINARY OUTPUT FILES WILL BE USED
Info: RESTART FILENAME       mobley_5467162_prod.restart
Info: RESTART FREQUENCY      100000
Info: BINARY RESTART FILES WILL BE USED
Info: CUTOFF                 9
Info: PAIRLIST DISTANCE      11
Info: PAIRLIST SHRINK RATE   0.01
Info: PAIRLIST GROW RATE     0.01
Info: PAIRLIST TRIGGER       0.3
Info: PAIRLISTS PER CYCLE    2
Info: PAIRLISTS ENABLED
Info: MARGIN                 2
Info: HYDROGEN GROUP CUTOFF  2.5
Info: PATCH DIMENSION        15.5
Info: ENERGY OUTPUT STEPS    100000
Info: ENERGY EVALUATION STEPS    100000
Info: OUTPUT ENERGY PRECISION 4
Info: CROSSTERM ENERGY INCLUDED IN DIHEDRAL
Info: TIMING OUTPUT STEPS    1000000
Info: PRESSURE OUTPUT STEPS  100000
Info: ALCHEMICAL FEP ON
Info: FEP CURRENT LAMBDA VALUE     1
Info: FEP COMPARISON LAMBDA VALUE  0.95
Info: FEP INTRA-ALCHEMICAL NON-BONDED INTERACTIONS WILL BE RETAINED
Info: FEP INTRA-ALCHEMICAL BONDED INTERACTIONS WILL BE RETAINED
Info: FEP VDW SHIFTING COEFFICIENT 5
Info: FEP ELEC. ACTIVE FOR ANNIHILATED PARTICLES BETWEEN LAMBDA = 0 AND LAMBDA = 0.5
Info: FEP ELEC. ACTIVE FOR EXNIHILATED PARTICLES BETWEEN LAMBDA = 0.5 AND LAMBDA = 1
Info: FEP VDW ACTIVE FOR ANNIHILATED PARTICLES BETWEEN LAMBDA = 0 AND LAMBDA = 1
Info: FEP VDW ACTIVE FOR EXNIHILATED PARTICLES BETWEEN LAMBDA = 0 AND LAMBDA = 1
Info: FEP BOND ACTIVE FOR ANNIHILATED PARTICLES BETWEEN LAMBDA = 1 AND LAMBDA = 1
Info: FEP BOND ACTIVE FOR EXNIHILATED PARTICLES BETWEEN LAMBDA = 0 AND LAMBDA = 0
Info: LANGEVIN DYNAMICS ACTIVE
Info: LANGEVIN TEMPERATURE   300
Info: LANGEVIN USING BBK INTEGRATOR
Info: LANGEVIN DAMPING COEFFICIENT IS 1 INVERSE PS
Info: LANGEVIN DYNAMICS APPLIED TO HYDROGENS
Info: LANGEVIN PISTON PRESSURE CONTROL ACTIVE
Info:        TARGET PRESSURE IS 1.01325 BAR
Info:     OSCILLATION PERIOD IS 50 FS
Info:             DECAY TIME IS 25 FS
Info:     PISTON TEMPERATURE IS 300 K
Info:       PRESSURE CONTROL IS GROUP-BASED
Info:    INITIAL STRAIN RATE IS -0.000288421 -0.000288421 -0.000288421
Info:       CELL FLUCTUATION IS ISOTROPIC
Info: PARTICLE MESH EWALD (PME) ACTIVE
Info: PME TOLERANCE               1e-06
Info: PME EWALD COEFFICIENT       0.348832
Info: PME INTERPOLATION ORDER     4
Info: PME GRID DIMENSIONS         32 32 32
Info: PME MAXIMUM GRID SPACING    1
Info: PME CALCULATION WILL BE PERFORMED ON GPU
Info: FULL ELECTROSTATIC EVALUATION FREQUENCY      2
Info: USING VERLET I (r-RESPA) MTS SCHEME.
Info: C1 SPLITTING OF LONG RANGE ELECTROSTATICS
Info: PLACING ATOMS IN PATCHES BY HYDROGEN GROUPS
Info: RIGID BONDS TO HYDROGEN : ALL
Info:         ERROR TOLERANCE : 1e-08
Info:          MAX ITERATIONS : 100
Info: RIGID WATER USING SETTLE ALGORITHM
Info: RANDOM NUMBER SEED     1743662711
Info: USE HYDROGEN BONDS?    NO
Info: Using AMBER format force field!
Info: AMBER PARM FILE        mobley_5467162.prmtop
Info: COORDINATE PDB         mobley_5467162.pdb
Info: Exclusions will be read from PARM file!
Info: SCNB (VDW SCALING)     2
Info: USING ARITHMETIC MEAN TO COMBINE L-J SIGMA PARAMETERS
Info: BINARY COORDINATES     mobley_5467162_equil.coor
Info: SUMMARY OF PARAMETERS:
Info: 9 BONDS
Info: 9 ANGLES
Info:   9 HARMONIC
Info:   0 COSINE-BASED
Info: 6 DIHEDRAL
Info: 0 IMPROPER
Info: 0 CROSSTERM
Info: 0 VDW
Info: 28 VDW_PAIRS
Info: 0 NBTHOLE_PAIRS
Info: To read alchdata from file: mobley_5467162.pdb
Info: To read alchflag data from column: 5
Info: STRUCTURE SUMMARY:
Info: 2914 ATOMS
Info: 2914 BONDS
Info: 43 ANGLES
Info: 65 DIHEDRALS
Info: 0 IMPROPERS
Info: 0 CROSSTERMS
Info: 3013 EXCLUSIONS
Info: 2903 RIGID BONDS
Info: ALCH: 0 ATOMS TO DISAPPEAR IN FINAL STATE
Info: ALCH: 25 ATOMS TO APPEAR IN FINAL STATE
Info: 5839 DEGREES OF FREEDOM
Info: 974 HYDROGEN GROUPS
Info: 4 ATOMS IN LARGEST HYDROGEN GROUP
Info: 974 MIGRATION GROUPS
Info: 4 ATOMS IN LARGEST MIGRATION GROUP
Info: TOTAL MASS = 17499.6 amu
Info: TOTAL CHARGE = -0.000499953 e
Info: MASS DENSITY = 0.973622 g/cm^3
Info: ATOM DENSITY = 0.097632 atoms/A^3
Info: ADDED 0 IMPLICIT EXCLUSIONS
Info: NONBONDED TABLE R-SQUARED SPACING: 0.0625
Info: NONBONDED TABLE SIZE: 705 POINTS
Info: REMOVING COM VELOCITY 0.0967094 0.0229376 0.0915577
Info: Use 3D box decompostion in PME FFT.
Info: Updated CUDA force table with 4096 elements.
Info: Updated CUDA LJ table with 7 x 7 elements.
Info: Found 27 unique exclusion lists needing 100 bytes
TCL: Running for 1500000 steps
ETITLE: TS BOND ANGLE DIHED IMPRP ELECT VDW BOUNDARY MISC KINETIC TOTAL TEMP POTENTIAL TOTALAVG TEMPAVG PRESSURE GPRESSURE VOLUME PRESSAVG GPRESSAVG
ENERGY: 0 7.2942 8.2650 5.5663 0.0000 -10557.3586 1419.1257 0.0000 0.0000 1770.8809 -7346.2264 305.2399 -9117.1073 -7346.2264 305.2399 -16.7106 61.4311 29846.7765 -16.7106 61.4311
ENERGY: 300000 3.1441 10.3491 1.9042 0.0000 -10620.5060 1463.7359 0.0000 0.0000 1787.5028 -7353.8699 308.1049 -9141.3727 -7360.5933 303.6377 431.2929 447.0683 29876.8530 88.9634 154.4792
ENERGY: 600000 4.0288 9.3939 2.2809 0.0000 -10557.0996 1378.7464 0.0000 0.0000 1738.6695 -7423.9802 299.6877 -9162.6496 -7372.3385 300.0077 -178.7219 -82.5789 29759.3561 132.6571 193.8959
ENERGY: 900000 5.1862 15.1125 5.4707 0.0000 -10563.5102 1432.4428 0.0000 0.0000 1722.7886 -7382.5094 296.9504 -9105.2980 -7370.8774 299.1917 -115.7579 -73.1587 30264.5108 65.5070 129.5511
ENERGY: 1200000 1.4482 13.3407 2.0861 0.0000 -10651.6644 1466.3046 0.0000 0.0000 1732.7314 -7435.7534 298.6642 -9168.4847 -7387.0911 298.0996 356.1666 385.3007 30017.4329 161.6460 215.3556
ENERGY: 1500000 5.5105 8.8066 3.1158 0.0000 -10354.0629 1300.3528 0.0000 0.0000 1704.1453 -7332.1318 293.7369 -9036.2771 -7385.7182 298.2876 -564.8954 -426.0666 29888.0987 180.3651 240.6083
TCL: Running FEP window   2: Lambda1 0.95   Lambda2 0.8999999999999999 [dLambda -0.050000000000000044]
TCL: Setting parameter firsttimestep to 0
TCL: Setting parameter alchLambda to 0.95
Info: NONBONDED TABLE R-SQUARED SPACING: 0.0625
Info: NONBONDED TABLE SIZE: 705 POINTS
TCL: Setting parameter alchLambda2 to 0.8999999999999999
Info: NONBONDED TABLE R-SQUARED SPACING: 0.0625
Info: NONBONDED TABLE SIZE: 705 POINTS
TCL: Running for 1500000 steps
ETITLE: TS BOND ANGLE DIHED IMPRP ELECT VDW BOUNDARY MISC KINETIC TOTAL TEMP POTENTIAL TOTALAVG TEMPAVG PRESSURE GPRESSURE VOLUME PRESSAVG GPRESSAVG
ENERGY: 0 5.5105 8.8066 3.1158 0.0000 -10353.1434 1299.8016 0.0000 0.0000 1703.2625 -7332.6463 293.5848 -9035.9089 -7332.6463 293.5848 -540.8702 -449.3632 29888.0987 -540.8702 -449.3632
ENERGY: 300000 2.5426 8.3231 2.8005 0.0000 -10502.2499 1345.3709 0.0000 0.0000 1762.4032 -7380.8096 303.7786 -9143.2128 -7352.5358 301.4495 -678.3657 -577.7153 30047.7587 -2.4890 85.5242
ENERGY: 600000 0.8715 9.3435 4.7597 0.0000 -10601.4633 1427.9283 0.0000 0.0000 1774.8765 -7383.6838 305.9286 -9158.5603 -7373.3440 301.8082 124.4966 200.2636 29763.4211 -18.3320 52.5802
ENERGY: 900000 5.9678 11.0221 3.4411 0.0000 -10559.8195 1412.5024 0.0000 0.0000 1720.3436 -7406.5424 296.5290 -9126.8860 -7379.3803 300.6867 -268.9719 -164.7119 30134.5250 5.9138 64.0899
ENERGY: 1200000 2.0602 6.5063 1.9083 0.0000 -10581.6287 1449.8387 0.0000 0.0000 1738.3257 -7382.9895 299.6285 -9121.3151 -7377.8418 300.4426 402.8187 520.4087 29681.0774 18.7696 81.1669
ENERGY: 1500000 3.3089 10.9716 2.5728 0.0000 -10578.4091 1422.8228 0.0000 0.0000 1738.3403 -7400.3927 299.6310 -9138.7330 -7382.5595 299.5990 -217.6994 -184.9999 30364.0177 -25.0909 34.7019
TCL: Running FEP window   3: Lambda1 0.8999999999999999 Lambda2 0.8499999999999999 [dLambda -0.050000000000000044]
TCL: Setting parameter firsttimestep to 0
TCL: Setting parameter alchLambda to 0.8999999999999999
Info: NONBONDED TABLE R-SQUARED SPACING: 0.0625
Info: NONBONDED TABLE SIZE: 705 POINTS
TCL: Setting parameter alchLambda2 to 0.8499999999999999
Info: NONBONDED TABLE R-SQUARED SPACING: 0.0625
Info: NONBONDED TABLE SIZE: 705 POINTS
TCL: Running for 1500000 steps
ETITLE: TS BOND ANGLE DIHED IMPRP ELECT VDW BOUNDARY MISC KINETIC TOTAL TEMP POTENTIAL TOTALAVG TEMPAVG PRESSURE GPRESSURE VOLUME PRESSAVG GPRESSAVG
ENERGY: 0 3.3089 10.9716 2.5728 0.0000 -10576.5396 1422.5403 0.0000 0.0000 1737.5076 -7399.6384 299.4875 -9137.1460 -7399.6384 299.4875 -280.1777 -200.9071 30364.0177 -280.1777 -200.9071
ENERGY: 300000 4.3051 11.7430 4.7386 0.0000 -10565.3015 1436.7336 0.0000 0.0000 1720.5597 -7387.2214 296.5662 -9107.7811 -7354.6756 303.4364 268.8540 339.6134 29546.8416 -168.4451 -110.6151
ENERGY: 600000 4.2244 9.0658 2.6831 0.0000 -10655.5528 1482.6689 0.0000 0.0000 1707.4735 -7449.4371 294.3106 -9156.9106 -7370.3437 302.1586 323.2039 349.5469 30048.1303 -126.8661 -67.5755
ENERGY: 900000 4.3501 5.7065 2.3071 0.0000 -10458.4974 1369.6017 0.0000 0.0000 1758.8712 -7317.6608 303.1698 -9076.5321 -7371.2636 301.9808 -268.5991 -165.1321 29935.7776 -9.1866 55.8181
ENERGY: 1200000 2.6300 13.3200 2.7017 0.0000 -10860.0869 1625.3178 0.0000 0.0000 1718.3339 -7497.7835 296.1825 -9216.1174 -7386.6310 300.1100 1241.5345 1330.2832 29836.0835 108.3776 173.4752
ENERGY: 1500000 5.4379 7.5984 3.2132 0.0000 -10570.9077 1433.2036 0.0000 0.0000 1773.4991 -7347.9555 305.6912 -9121.4546 -7379.3304 301.5422 335.1821 385.6781 29639.1794 123.1999 187.4122
TCL: Running FEP window   4: Lambda1 0.8499999999999999 Lambda2 0.7999999999999998 [dLambda -0.050000000000000044]
TCL: Setting parameter firsttimestep to 0
TCL: Setting parameter alchLambda to 0.8499999999999999
Info: NONBONDED TABLE R-SQUARED SPACING: 0.0625
Info: NONBONDED TABLE SIZE: 705 POINTS
TCL: Setting parameter alchLambda2 to 0.7999999999999998
Info: NONBONDED TABLE R-SQUARED SPACING: 0.0625
Info: NONBONDED TABLE SIZE: 705 POINTS
TCL: Running for 1500000 steps
ETITLE: TS BOND ANGLE DIHED IMPRP ELECT VDW BOUNDARY MISC KINETIC TOTAL TEMP POTENTIAL TOTALAVG TEMPAVG PRESSURE GPRESSURE VOLUME PRESSAVG GPRESSAVG
ENERGY: 0 5.4379 7.5984 3.2132 0.0000 -10569.2195 1431.7705 0.0000 0.0000 1772.6130 -7348.5865 305.5384 -9121.1995 -7348.5865 305.5384 281.2991 354.2460 29639.1794 281.2991 354.2460
ENERGY: 300000 5.0949 10.5706 4.6301 0.0000 -10440.6652 1388.4305 0.0000 0.0000 1688.5746 -7343.3645 291.0531 -9031.9391 -7344.7484 301.2160 -170.5902 -158.7996 30173.8305 64.9885 100.1976
ENERGY: 600000 2.0893 9.3750 3.7081 0.0000 -10453.6074 1357.3429 0.0000 0.0000 1710.6948 -7370.3973 294.8658 -9081.0922 -7367.9581 298.4035 -508.4241 -413.5461 30120.2263 -31.3076 19.2636
ENERGY: 900000 3.1532 9.2181 2.8964 0.0000 -10500.4053 1400.5947 0.0000 0.0000 1724.3295 -7360.2135 297.2160 -9084.5430 -7360.9129 299.5476 -82.9827 -36.2442 30208.2066 39.2971 89.4966
ENERGY: 1200000 4.4516 12.2230 3.8774 0.0000 -10464.5216 1363.1037 0.0000 0.0000 1733.3191 -7347.5468 298.7655 -9080.8659 -7368.5045 299.0168 -520.3293 -462.7729 30223.7945 -45.5852 12.7224
ENERGY: 1500000 3.3814 10.0308 4.0890 0.0000 -10549.3590 1366.7489 0.0000 0.0000 1728.7604 -7436.3485 297.9797 -9165.1089 -7372.6007 298.5401 -744.6773 -720.9726 30031.8455 -103.8622 -52.3798
TCL: Running FEP window   5: Lambda1 0.7999999999999998 Lambda2 0.7499999999999998 [dLambda -0.050000000000000044]
TCL: Setting parameter firsttimestep to 0
TCL: Setting parameter alchLambda to 0.7999999999999998
Info: NONBONDED TABLE R-SQUARED SPACING: 0.0625
Info: NONBONDED TABLE SIZE: 705 POINTS
TCL: Setting parameter alchLambda2 to 0.7499999999999998
Info: NONBONDED TABLE R-SQUARED SPACING: 0.0625
Info: NONBONDED TABLE SIZE: 705 POINTS
TCL: Running for 1500000 steps
ETITLE: TS BOND ANGLE DIHED IMPRP ELECT VDW BOUNDARY MISC KINETIC TOTAL TEMP POTENTIAL TOTALAVG TEMPAVG PRESSURE GPRESSURE VOLUME PRESSAVG GPRESSAVG
ENERGY: 0 3.3814 10.0308 4.0890 0.0000 -10547.6275 1367.2305 0.0000 0.0000 1727.8894 -7435.0064 297.8296 -9162.8958 -7435.0064 297.8296 -782.2139 -723.2906 30031.8455 -782.2139 -723.2906
ENERGY: 300000 3.1973 11.6478 2.2837 0.0000 -10502.6300 1403.7517 0.0000 0.0000 1730.6385 -7351.1110 298.3034 -9081.7495 -7404.0309 298.9195 -341.5426 -291.4683 30488.8807 -397.9306 -325.1418
ENERGY: 600000 4.3284 6.3872 2.3930 0.0000 -10630.6569 1414.3372 0.0000 0.0000 1751.7907 -7451.4204 301.9494 -9203.2111 -7388.0712 302.2094 -194.4233 -149.3275 30048.0449 -213.7295 -150.0915
ENERGY: 900000 2.0650 8.5609 4.1984 0.0000 -10568.4144 1473.8350 0.0000 0.0000 1701.9280 -7377.8271 293.3547 -9079.7552 -7383.5783 299.5728 383.6536 471.6718 29953.7191 -252.3935 -188.7849
ENERGY: 1200000 2.8735 10.2285 4.4237 0.0000 -10544.1621 1419.7078 0.0000 0.0000 1762.7416 -7344.1869 303.8369 -9106.9285 -7369.1174 299.9525 -21.5048 23.5492 30328.2627 -189.8473 -127.7651
ENERGY: 1500000 4.5835 11.3110 2.6280 0.0000 -10604.5087 1427.3332 0.0000 0.0000 1775.4367 -7383.2163 306.0251 -9158.6530 -7375.2690 300.9200 -9.1780 95.5176 29934.4636 -82.4001 -15.2163
TCL: Running FEP window   6: Lambda1 0.7499999999999998 Lambda2 0.6999999999999997 [dLambda -0.050000000000000044]
TCL: Setting parameter firsttimestep to 0
TCL: Setting parameter alchLambda to 0.7499999999999998
Info: NONBONDED TABLE R-SQUARED SPACING: 0.0625
Info: NONBONDED TABLE SIZE: 705 POINTS
TCL: Setting parameter alchLambda2 to 0.6999999999999997
Info: NONBONDED TABLE R-SQUARED SPACING: 0.0625
Info: NONBONDED TABLE SIZE: 705 POINTS
TCL: Running for 1500000 steps
ETITLE: TS BOND ANGLE DIHED IMPRP ELECT VDW BOUNDARY MISC KINETIC TOTAL TEMP POTENTIAL TOTALAVG TEMPAVG PRESSURE GPRESSURE VOLUME PRESSAVG GPRESSAVG
ENERGY: 0 4.5835 11.3110 2.6280 0.0000 -10603.1298 1427.0342 0.0000 0.0000 1774.5691 -7383.0039 305.8756 -9157.5730 -7383.0039 305.8756 1.6773 81.6674 29934.4636 1.6773 81.6674
ENERGY: 300000 5.4978 8.4310 3.9898 0.0000 -10550.4951 1468.9158 0.0000 0.0000 1747.4136 -7316.2471 301.1949 -9063.6607 -7342.3273 304.7051 692.4927 702.9740 29773.0671 234.9508 288.3315
ENERGY: 600000 6.5914 9.8480 4.6646 0.0000 -10714.5623 1509.5988 0.0000 0.0000 1749.0857 -7434.7737 301.4831 -9183.8594 -7359.4417 303.4027 961.7346 994.3721 29160.0326 400.2356 457.6409
ENERGY: 900000 2.4270 9.9627 4.9178 0.0000 -10544.8150 1444.9915 0.0000 0.0000 1750.5135 -7332.0025 301.7292 -9082.5160 -7369.2487 302.4686 433.7608 444.2767 29977.6775 232.8943 287.6154
ENERGY: 1200000 4.0843 9.2571 3.0760 0.0000 -10543.1610 1434.9992 0.0000 0.0000 1707.1402 -7384.6042 294.2531 -9091.7444 -7363.6716 301.6084 503.5801 615.5637 29085.1121 67.3296 127.6719
ENERGY: 1500000 3.4275 11.8339 6.0568 0.0000 -10454.8242 1378.7831 0.0000 0.0000 1725.1046 -7329.6184 297.3496 -9054.7229 -7360.3521 301.3344 -304.1186 -249.3013 30233.4952 0.0917 61.2289
TCL: Running FEP window   7: Lambda1 0.6999999999999997 Lambda2 0.6499999999999997 [dLambda -0.050000000000000044]
TCL: Setting parameter firsttimestep to 0
TCL: Setting parameter alchLambda to 0.6999999999999997
Info: NONBONDED TABLE R-SQUARED SPACING: 0.0625
Info: NONBONDED TABLE SIZE: 705 POINTS
TCL: Setting parameter alchLambda2 to 0.6499999999999997
Info: NONBONDED TABLE R-SQUARED SPACING: 0.0625
Info: NONBONDED TABLE SIZE: 705 POINTS
TCL: Running for 1500000 steps
ETITLE: TS BOND ANGLE DIHED IMPRP ELECT VDW BOUNDARY MISC KINETIC TOTAL TEMP POTENTIAL TOTALAVG TEMPAVG PRESSURE GPRESSURE VOLUME PRESSAVG GPRESSAVG
ENERGY: 0 3.4275 11.8339 6.0568 0.0000 -10453.1374 1378.3724 0.0000 0.0000 1724.3185 -7329.1283 297.2141 -9053.4468 -7329.1283 297.2141 -344.0363 -259.5223 30233.4952 -344.0363 -259.5223
ENERGY: 300000 6.0625 13.9086 2.5395 0.0000 -10510.0227 1372.2005 0.0000 0.0000 1760.4374 -7354.8741 303.4398 -9115.3115 -7320.6567 299.7198 -273.6404 -227.1648 29664.9640 -498.0495 -431.4703
ENERGY: 600000 2.6403 12.3671 3.2188 0.0000 -10401.8758 1362.6166 0.0000 0.0000 1760.6409 -7260.3921 303.4748 -9021.0330 -7352.5435 298.9027 -155.5373 -48.7547 29762.0770 -279.1908 -205.0794
ENERGY: 900000 5.7548 11.0796 4.1675 0.0000 -10565.2222 1470.7760 0.0000 0.0000 1767.1980 -7306.2464 304.6051 -9073.4444 -7332.3246 301.6930 524.3949 630.1413 29718.2617 -158.1811 -92.1923
ENERGY: 1200000 5.1015 5.4322 4.2182 0.0000 -10563.9093 1419.4529 0.0000 0.0000 1726.4857 -7403.2188 297.5876 -9129.7045 -7348.3903 301.2489 -277.2192 -175.1464 29936.3943 -147.2927 -75.9119
ENERGY: 1500000 4.0719 6.3343 4.3462 0.0000 -10581.1506 1415.4657 0.0000 0.0000 1744.2391 -7406.6933 300.6477 -9150.9324 -7357.8298 300.8177 -377.8126 -286.4874 30327.1334 -163.5356 -95.1010
TCL: Running FEP window   8: Lambda1 0.6499999999999997 Lambda2 0.5999999999999996 [dLambda -0.050000000000000044]
TCL: Setting parameter firsttimestep to 0
TCL: Setting parameter alchLambda to 0.6499999999999997
Info: NONBONDED TABLE R-SQUARED SPACING: 0.0625
Info: NONBONDED TABLE SIZE: 705 POINTS
TCL: Setting parameter alchLambda2 to 0.5999999999999996
Info: NONBONDED TABLE R-SQUARED SPACING: 0.0625
Info: NONBONDED TABLE SIZE: 705 POINTS
TCL: Running for 1500000 steps
ETITLE: TS BOND ANGLE DIHED IMPRP ELECT VDW BOUNDARY MISC KINETIC TOTAL TEMP POTENTIAL TOTALAVG TEMPAVG PRESSURE GPRESSURE VOLUME PRESSAVG GPRESSAVG
ENERGY: 0 4.0719 6.3343 4.3462 0.0000 -10579.5409 1414.9834 0.0000 0.0000 1743.3772 -7406.4280 300.4992 -9149.8051 -7406.4280 300.4992 -388.8422 -299.4658 30327.1334 -388.8422 -299.4658
ENERGY: 300000 2.3485 13.7415 6.5134 0.0000 -10553.4289 1373.4150 0.0000 0.0000 1794.8594 -7362.5511 309.3729 -9157.4105 -7347.4545 301.9771 -449.5114 -434.3303 29958.1281 -91.3733 -39.2117
ENERGY: 600000 2.6218 12.8989 3.4023 0.0000 -10472.1241 1418.3315 0.0000 0.0000 1748.3397 -7286.5300 301.3545 -9034.8697 -7308.1979 302.9390 142.3554 153.9665 29961.4092 -81.8914 -37.3292
ENERGY: 900000 2.7982 6.4280 2.7006 0.0000 -10449.0355 1363.2234 0.0000 0.0000 1747.5206 -7326.3646 301.2133 -9073.8852 -7320.7402 303.0568 -247.1349 -231.5432 29798.7930 -37.8385 -3.3988
ENERGY: 1200000 5.2532 11.3379 4.6961 0.0000 -10610.9193 1446.7452 0.0000 0.0000 1754.7464 -7388.1405 302.4588 -9142.8870 -7329.7549 302.7525 92.6505 145.0538 29748.4720 12.9937 53.7295
ENERGY: 1500000 3.1519 12.9449 4.8813 0.0000 -10678.9144 1509.4025 0.0000 0.0000 1761.7312 -7386.8027 303.6628 -9148.5339 -7333.5096 303.3233 474.0240 561.9270 29881.7709 58.6920 107.4386
TCL: Running FEP window   9: Lambda1 0.5999999999999996 Lambda2 0.5499999999999996 [dLambda -0.050000000000000044]
TCL: Setting parameter firsttimestep to 0
TCL: Setting parameter alchLambda to 0.5999999999999996
Info: NONBONDED TABLE R-SQUARED SPACING: 0.0625
Info: NONBONDED TABLE SIZE: 705 POINTS
TCL: Setting parameter alchLambda2 to 0.5499999999999996
Info: NONBONDED TABLE R-SQUARED SPACING: 0.0625
Info: NONBONDED TABLE SIZE: 705 POINTS
TCL: Running for 1500000 steps
ETITLE: TS BOND ANGLE DIHED IMPRP ELECT VDW BOUNDARY MISC KINETIC TOTAL TEMP POTENTIAL TOTALAVG TEMPAVG PRESSURE GPRESSURE VOLUME PRESSAVG GPRESSAVG
ENERGY: 0 3.1519 12.9449 4.8813 0.0000 -10678.1995 1509.9111 0.0000 0.0000 1760.8576 -7386.4528 303.5122 -9147.3104 -7386.4528 303.5122 490.5307 558.7493 29881.7709 490.5307 558.7493
ENERGY: 300000 6.0207 9.5414 2.4186 0.0000 -10426.4620 1403.9168 0.0000 0.0000 1720.5100 -7284.0545 296.5576 -9004.5645 -7347.2946 297.0307 65.7269 108.8181 30073.9822 129.1355 185.2691
ENERGY: 600000 3.0215 12.7174 2.0303 0.0000 -10556.8321 1420.6931 0.0000 0.0000 1688.5371 -7429.8328 291.0466 -9118.3699 -7367.9283 296.6948 32.1837 89.0703 29800.8631 35.1968 91.0445
ENERGY: 900000 3.0729 10.0187 3.6581 0.0000 -10581.3788 1482.1402 0.0000 0.0000 1786.4202 -7296.0687 307.9183 -9082.4889 -7358.0528 298.3777 648.1128 676.1399 30129.0152 -1.4637 52.2179
ENERGY: 1200000 4.6698 11.0148 5.0244 0.0000 -10527.7276 1445.8558 0.0000 0.0000 1702.0771 -7359.0857 293.3804 -9061.1628 -7359.3273 297.5147 32.1826 207.7777 30192.9430 -54.3161 14.8860
ENERGY: 1500000 5.9155 9.6399 5.9796 0.0000 -10499.3572 1400.5448 0.0000 0.0000 1749.1614 -7328.1160 301.4962 -9077.2773 -7353.9115 298.4557 74.9517 219.1374 29701.9531 29.5264 100.3643
TCL: Running FEP window  10: Lambda1 0.5499999999999996 Lambda2 0.4999999999999996 [dLambda -0.04999999999999999]
TCL: Setting parameter firsttimestep to 0
TCL: Setting parameter alchLambda to 0.5499999999999996
Info: NONBONDED TABLE R-SQUARED SPACING: 0.0625
Info: NONBONDED TABLE SIZE: 705 POINTS
TCL: Setting parameter alchLambda2 to 0.4999999999999996
Info: NONBONDED TABLE R-SQUARED SPACING: 0.0625
Info: NONBONDED TABLE SIZE: 705 POINTS
TCL: Running for 1500000 steps
ETITLE: TS BOND ANGLE DIHED IMPRP ELECT VDW BOUNDARY MISC KINETIC TOTAL TEMP POTENTIAL TOTALAVG TEMPAVG PRESSURE GPRESSURE VOLUME PRESSAVG GPRESSAVG
ENERGY: 0 5.9155 9.6399 5.9796 0.0000 -10498.7430 1400.8762 0.0000 0.0000 1748.3063 -7328.0253 301.3488 -9076.3317 -7328.0253 301.3488 128.3098 214.0424 29701.9531 128.3098 214.0424
ENERGY: 300000 3.3268 7.3725 1.4307 0.0000 -10482.3999 1409.6108 0.0000 0.0000 1736.9440 -7323.7153 299.3903 -9060.6592 -7326.9560 299.7322 -2.2303 -12.6251 30174.9889 -131.6022 -79.4878
ENERGY: 600000 5.3595 8.5384 5.0278 0.0000 -10560.9048 1450.0850 0.0000 0.0000 1742.0333 -7349.8608 300.2675 -9091.8941 -7328.1089 300.5822 -54.5744 93.6459 30280.0302 42.4472 106.4362
ENERGY: 900000 3.1481 11.6238 3.8788 0.0000 -10511.3271 1383.2671 0.0000 0.0000 1730.3891 -7379.0201 298.2605 -9109.4093 -7322.1392 302.0705 -319.1341 -246.5766 29822.4135 -64.3875 2.5808
ENERGY: 1200000 2.9188 12.7767 1.7008 0.0000 -10473.9557 1385.9447 0.0000 0.0000 1669.8030 -7400.8117 287.8175 -9070.6147 -7318.8229 301.8499 -546.7596 -501.9614 30599.9328 -51.9317 16.4145
ENERGY: 1500000 2.7611 13.1761 1.3598 0.0000 -10406.5402 1377.4927 0.0000 0.0000 1821.8874 -7189.8632 314.0317 -9011.7506 -7327.7436 300.7400 -237.7456 -164.1125 30140.1172 -19.7224 48.4066
TCL: Running FEP window  11: Lambda1 0.4999999999999996 Lambda2 0.4499999999999996 [dLambda -0.04999999999999999]
TCL: Setting parameter firsttimestep to 0
TCL: Setting parameter alchLambda to 0.4999999999999996
Info: NONBONDED TABLE R-SQUARED SPACING: 0.0625
Info: NONBONDED TABLE SIZE: 705 POINTS
TCL: Setting parameter alchLambda2 to 0.4499999999999996
Info: NONBONDED TABLE R-SQUARED SPACING: 0.0625
Info: NONBONDED TABLE SIZE: 705 POINTS
TCL: Running for 1500000 steps
ETITLE: TS BOND ANGLE DIHED IMPRP ELECT VDW BOUNDARY MISC KINETIC TOTAL TEMP POTENTIAL TOTALAVG TEMPAVG PRESSURE GPRESSURE VOLUME PRESSAVG GPRESSAVG
ENERGY: 0 2.7611 13.1761 1.3598 0.0000 -10406.2057 1376.9911 0.0000 0.0000 1821.0479 -7190.8697 313.8870 -9011.9176 -7190.8697 313.8870 -250.8149 -175.3329 30140.1172 -250.8149 -175.3329
ENERGY: 300000 4.3998 9.4219 4.7572 0.0000 -10508.7370 1366.6772 0.0000 0.0000 1685.4378 -7438.0432 290.5124 -9123.4809 -7335.4426 302.8398 -707.3117 -698.4159 30331.4857 -339.8411 -296.5795
ENERGY: 600000 4.3675 13.0129 6.1598 0.0000 -10555.6145 1396.4410 0.0000 0.0000 1728.8073 -7406.8260 297.9878 -9135.6333 -7357.0768 301.9382 -246.9412 -200.1782 29628.1440 -153.2035 -95.2455
ENERGY: 900000 2.6851 6.5237 4.6862 0.0000 -10559.6119 1417.0948 0.0000 0.0000 1751.7967 -7376.8254 301.9504 -9128.6221 -7349.8058 302.6794 -217.4191 -196.3025 30307.8375 -205.2932 -160.9967
ENERGY: 1200000 3.4067 8.6298 5.1261 0.0000 -10648.7730 1504.0761 0.0000 0.0000 1740.6519 -7386.8823 300.0294 -9127.5342 -7354.5486 300.6982 658.1697 766.3571 29645.6940 -169.6966 -115.1207
ENERGY: 1500000 1.7147 11.6609 3.5841 0.0000 -10540.2631 1411.8444 0.0000 0.0000 1775.1462 -7336.3127 305.9751 -9111.4590 -7354.7980 300.7959 111.8935 256.2521 29615.4935 -86.8899 -25.0266
TCL: Running FEP window  12: Lambda1 0.4499999999999996 Lambda2 0.39999999999999963 [dLambda -0.04999999999999999]
TCL: Setting parameter firsttimestep to 0
TCL: Setting parameter alchLambda to 0.4499999999999996
Info: NONBONDED TABLE R-SQUARED SPACING: 0.0625
Info: NONBONDED TABLE SIZE: 705 POINTS
TCL: Setting parameter alchLambda2 to 0.39999999999999963
Info: NONBONDED TABLE R-SQUARED SPACING: 0.0625
Info: NONBONDED TABLE SIZE: 705 POINTS
TCL: Running for 1500000 steps
ETITLE: TS BOND ANGLE DIHED IMPRP ELECT VDW BOUNDARY MISC KINETIC TOTAL TEMP POTENTIAL TOTALAVG TEMPAVG PRESSURE GPRESSURE VOLUME PRESSAVG GPRESSAVG
ENERGY: 0 1.7147 11.6609 3.5841 0.0000 -10540.2634 1411.8295 0.0000 0.0000 1774.2533 -7337.2208 305.8212 -9111.4741 -7337.2208 305.8212 165.4158 246.1292 29615.4935 165.4158 246.1292
ENERGY: 300000 6.4904 12.9734 2.8125 0.0000 -10627.2843 1478.7911 0.0000 0.0000 1735.1193 -7391.0976 299.0758 -9126.2169 -7365.5904 302.6552 107.5453 205.6089 30115.9927 202.5901 281.7421
ENERGY: 600000 6.3609 12.2093 3.8821 0.0000 -10600.1906 1482.3170 0.0000 0.0000 1775.1779 -7320.2434 305.9805 -9095.4214 -7354.9094 303.3943 546.1643 599.0566 29879.6996 212.6726 278.1507
ENERGY: 900000 10.5485 9.6455 3.4937 0.0000 -10648.3069 1439.1385 0.0000 0.0000 1786.6330 -7398.8475 307.9550 -9185.4805 -7355.4045 302.6811 -114.7482 -56.8173 29828.2236 235.4577 305.1297
ENERGY: 1200000 3.4878 9.5690 2.6043 0.0000 -10395.9528 1377.5097 0.0000 0.0000 1815.3780 -7187.4040 312.9097 -9002.7820 -7341.1371 303.7401 -290.3827 -215.6546 30488.6698 127.0099 200.8987
ENERGY: 1500000 6.0263 13.1806 4.4895 0.0000 -10594.5873 1480.9920 0.0000 0.0000 1768.9783 -7320.9206 304.9119 -9089.8989 -7344.5645 302.7676 619.0542 660.3821 29786.1724 129.9070 200.9159
TCL: Running FEP window  13: Lambda1 0.39999999999999963 Lambda2 0.34999999999999964 [dLambda -0.04999999999999999]
TCL: Setting parameter firsttimestep to 0
TCL: Setting parameter alchLambda to 0.39999999999999963
Info: NONBONDED TABLE R-SQUARED SPACING: 0.0625
Info: NONBONDED TABLE SIZE: 705 POINTS
TCL: Setting parameter alchLambda2 to 0.34999999999999964
Info: NONBONDED TABLE R-SQUARED SPACING: 0.0625
Info: NONBONDED TABLE SIZE: 705 POINTS
TCL: Running for 1500000 steps
ETITLE: TS BOND ANGLE DIHED IMPRP ELECT VDW BOUNDARY MISC KINETIC TOTAL TEMP POTENTIAL TOTALAVG TEMPAVG PRESSURE GPRESSURE VOLUME PRESSAVG GPRESSAVG
ENERGY: 0 6.0263 13.1806 4.4895 0.0000 -10594.5872 1481.6510 0.0000 0.0000 1768.0986 -7321.1414 304.7603 -9089.2400 -7321.1414 304.7603 585.2061 658.6274 29786.1724 585.2061 658.6274
ENERGY: 300000 0.7640 9.9284 4.2634 0.0000 -10521.4911 1429.7875 0.0000 0.0000 1721.2826 -7355.4653 296.6908 -9076.7479 -7305.4613 303.4827 205.2215 218.1691 30319.1972 51.2126 106.8272
ENERGY: 600000 1.3324 10.3773 4.7164 0.0000 -10407.9095 1369.3678 0.0000 0.0000 1792.3442 -7229.7714 308.9394 -9022.1156 -7288.9706 303.9560 -302.9406 -153.2670 30226.6885 -60.0535 10.4901
ENERGY: 900000 5.3162 10.5870 2.7518 0.0000 -10529.3561 1367.0531 0.0000 0.0000 1711.3176 -7432.3304 294.9732 -9143.6480 -7313.6138 302.4504 -806.4441 -719.8483 29899.9882 -214.1535 -131.2748
ENERGY: 1200000 4.0480 9.6764 2.3037 0.0000 -10626.2233 1492.6349 0.0000 0.0000 1754.9150 -7362.6453 302.4879 -9117.5603 -7331.4826 300.9136 427.9065 423.1208 29925.4431 -229.6493 -162.9073
ENERGY: 1500000 4.0522 11.8048 4.7106 0.0000 -10520.0781 1411.3363 0.0000 0.0000 1790.1023 -7298.0719 308.5530 -9088.1743 -7336.2356 301.0410 -248.2653 -140.7351 30196.3236 -161.4591 -92.4908
TCL: Running FEP window  14: Lambda1 0.34999999999999964 Lambda2 0.29999999999999966 [dLambda -0.04999999999999999]
TCL: Setting parameter firsttimestep to 0
TCL: Setting parameter alchLambda to 0.34999999999999964
Info: NONBONDED TABLE R-SQUARED SPACING: 0.0625
Info: NONBONDED TABLE SIZE: 705 POINTS
TCL: Setting parameter alchLambda2 to 0.29999999999999966
Info: NONBONDED TABLE R-SQUARED SPACING: 0.0625
Info: NONBONDED TABLE SIZE: 705 POINTS
TCL: Running for 1500000 steps
ETITLE: TS BOND ANGLE DIHED IMPRP ELECT VDW BOUNDARY MISC KINETIC TOTAL TEMP POTENTIAL TOTALAVG TEMPAVG PRESSURE GPRESSURE VOLUME PRESSAVG GPRESSAVG
ENERGY: 0 4.0522 11.8049 4.7106 0.0000 -10520.0778 1411.3196 0.0000 0.0000 1789.2141 -7298.9765 308.3999 -9088.1906 -7298.9765 308.3999 -230.4826 -150.4821 30196.3236 -230.4826 -150.4821
ENERGY: 300000 3.2662 5.0509 4.0378 0.0000 -10531.3653 1438.4707 0.0000 0.0000 1721.8847 -7358.6548 296.7946 -9080.5395 -7357.5147 299.7029 251.0693 303.1881 29841.4432 -86.4599 -29.4168
ENERGY: 600000 5.7988 17.6897 6.6454 0.0000 -10457.9723 1413.7420 0.0000 0.0000 1713.5228 -7300.5736 295.3533 -9014.0964 -7351.3615 300.5046 291.2193 381.6248 29695.5373 -165.5158 -109.3529
ENERGY: 900000 5.1279 15.7890 3.0354 0.0000 -10437.7020 1444.7771 0.0000 0.0000 1739.5967 -7229.3760 299.8475 -8968.9726 -7341.8787 300.9128 421.0051 482.8023 30027.2454 -140.1590 -69.6055
ENERGY: 1200000 3.5873 6.1084 5.6638 0.0000 -10622.4955 1474.5380 0.0000 0.0000 1749.1406 -7383.4574 301.4926 -9132.5980 -7340.9204 300.7461 195.7964 256.6701 30031.3083 -42.9648 24.0514
ENERGY: 1500000 6.4391 10.0816 2.7203 0.0000 -10653.7724 1527.8384 0.0000 0.0000 1711.1777 -7395.5154 294.9491 -9106.6930 -7346.1408 300.7014 555.1744 644.4051 30027.1630 62.2084 126.7161
TCL: Running FEP window  15: Lambda1 0.29999999999999966 Lambda2 0.24999999999999967 [dLambda -0.04999999999999999]
TCL: Setting parameter firsttimestep to 0
TCL: Setting parameter alchLambda to 0.29999999999999966
Info: NONBONDED TABLE R-SQUARED SPACING: 0.0625
Info: NONBONDED TABLE SIZE: 705 POINTS
TCL: Setting parameter alchLambda2 to 0.24999999999999967
Info: NONBONDED TABLE R-SQUARED SPACING: 0.0625
Info: NONBONDED TABLE SIZE: 705 POINTS
TCL: Running for 1500000 steps
ETITLE: TS BOND ANGLE DIHED IMPRP ELECT VDW BOUNDARY MISC KINETIC TOTAL TEMP POTENTIAL TOTALAVG TEMPAVG PRESSURE GPRESSURE VOLUME PRESSAVG GPRESSAVG
ENERGY: 0 6.4391 10.0816 2.7203 0.0000 -10653.7719 1528.2565 0.0000 0.0000 1710.2867 -7395.9876 294.7955 -9106.2744 -7395.9876 294.7955 560.1527 642.2013 30027.1630 560.1527 642.2013
ENERGY: 300000 3.4375 5.6497 2.0809 0.0000 -10562.1427 1428.2685 0.0000 0.0000 1691.2548 -7431.4513 291.5150 -9122.7061 -7372.6622 298.1585 -46.3940 -15.2744 29749.1213 74.1437 134.7130
ENERGY: 600000 5.0148 12.6146 6.4936 0.0000 -10397.2367 1296.7304 0.0000 0.0000 1734.2599 -7342.1233 298.9277 -9076.3832 -7361.0827 298.1245 -1128.9780 -1085.1101 30178.2968 -195.2301 -132.6570
ENERGY: 900000 4.0134 12.4804 3.4006 0.0000 -10687.0640 1506.8110 0.0000 0.0000 1724.0890 -7436.2697 297.1745 -9160.3586 -7363.3771 297.5512 350.3811 429.2996 29554.9598 -119.8951 -53.6578
ENERGY: 1200000 4.8515 13.2175 4.7244 0.0000 -10598.5341 1466.4382 0.0000 0.0000 1706.1184 -7403.1842 294.0770 -9109.3026 -7372.6088 298.4246 294.9484 438.3558 29708.6720 -107.9679 -36.6757
ENERGY: 1500000 5.3439 12.2578 2.6835 0.0000 -10737.5731 1498.4285 0.0000 0.0000 1733.0137 -7485.8457 298.7128 -9218.8594 -7375.7974 298.0209 149.3197 152.3945 29497.5972 -76.4502 -11.2936
TCL: Running FEP window  16: Lambda1 0.24999999999999967 Lambda2 0.19999999999999968 [dLambda -0.04999999999999999]
TCL: Setting parameter firsttimestep to 0
TCL: Setting parameter alchLambda to 0.24999999999999967
Info: NONBONDED TABLE R-SQUARED SPACING: 0.0625
Info: NONBONDED TABLE SIZE: 705 POINTS
TCL: Setting parameter alchLambda2 to 0.19999999999999968
Info: NONBONDED TABLE R-SQUARED SPACING: 0.0625
Info: NONBONDED TABLE SIZE: 705 POINTS
TCL: Running for 1500000 steps
ETITLE: TS BOND ANGLE DIHED IMPRP ELECT VDW BOUNDARY MISC KINETIC TOTAL TEMP POTENTIAL TOTALAVG TEMPAVG PRESSURE GPRESSURE VOLUME PRESSAVG GPRESSAVG
ENERGY: 0 5.3439 12.2577 2.6835 0.0000 -10737.5725 1498.4292 0.0000 0.0000 1732.1539 -7486.7042 298.5647 -9218.8581 -7486.7042 298.5647 80.2877 149.3276 29497.5972 80.2877 149.3276
ENERGY: 300000 3.6311 9.4823 4.7964 0.0000 -10478.1820 1406.2638 0.0000 0.0000 1698.4442 -7355.5642 292.7542 -9054.0083 -7367.6734 300.6767 200.3177 247.1240 29557.1382 -110.3152 -80.3292
ENERGY: 600000 4.7592 11.8058 3.5609 0.0000 -10609.7904 1488.5550 0.0000 0.0000 1725.7016 -7375.4079 297.4525 -9101.1095 -7357.2399 301.1837 320.4461 363.1096 30042.2476 -143.0392 -121.6198
ENERGY: 900000 2.5637 10.6224 3.1146 0.0000 -10423.3906 1331.6104 0.0000 0.0000 1713.0832 -7362.3964 295.2775 -9075.4796 -7359.8062 299.8462 -675.7147 -621.3675 29930.4641 -90.6232 -63.2989
ENERGY: 1200000 4.3158 14.1245 4.6821 0.0000 -10516.9717 1380.8566 0.0000 0.0000 1751.5631 -7361.4298 301.9101 -9112.9929 -7348.6674 299.8494 -587.9068 -537.5874 30232.1378 -131.4949 -103.6551
ENERGY: 1500000 5.2042 8.3001 2.4961 0.0000 -10502.7187 1399.1622 0.0000 0.0000 1729.4013 -7358.1547 298.0902 -9087.5561 -7351.7025 300.4551 -406.5001 -322.9208 30000.8969 -179.0428 -135.7771
TCL: Running FEP window  17: Lambda1 0.19999999999999968 Lambda2 0.1499999999999997 [dLambda -0.04999999999999999]
TCL: Setting parameter firsttimestep to 0
TCL: Setting parameter alchLambda to 0.19999999999999968
Info: NONBONDED TABLE R-SQUARED SPACING: 0.0625
Info: NONBONDED TABLE SIZE: 705 POINTS
TCL: Setting parameter alchLambda2 to 0.1499999999999997
Info: NONBONDED TABLE R-SQUARED SPACING: 0.0625
Info: NONBONDED TABLE SIZE: 705 POINTS
TCL: Running for 1500000 steps
ETITLE: TS BOND ANGLE DIHED IMPRP ELECT VDW BOUNDARY MISC KINETIC TOTAL TEMP POTENTIAL TOTALAVG TEMPAVG PRESSURE GPRESSURE VOLUME PRESSAVG GPRESSAVG
ENERGY: 0 5.2042 8.3001 2.4961 0.0000 -10502.7188 1399.4794 0.0000 0.0000 1728.5170 -7358.7219 297.9378 -9087.2389 -7358.7219 297.9378 -412.2091 -324.3025 30000.8969 -412.2091 -324.3025
ENERGY: 300000 2.7550 14.2080 4.4568 0.0000 -10487.5987 1468.0438 0.0000 0.0000 1734.2425 -7263.8926 298.9247 -8998.1351 -7310.3582 297.0194 370.6324 435.4149 30298.8624 -83.6210 -17.0750
ENERGY: 600000 6.7265 11.7636 3.8578 0.0000 -10620.4007 1429.4231 0.0000 0.0000 1795.2245 -7373.4053 309.4359 -9168.6298 -7346.3679 299.2704 -112.9549 -88.5975 29701.2306 -206.4671 -158.7675
ENERGY: 900000 6.6773 9.6824 5.8082 0.0000 -10548.6766 1443.2585 0.0000 0.0000 1765.8072 -7317.4431 304.3653 -9083.2503 -7337.0108 301.6350 125.7204 192.2562 29560.4878 47.6893 101.7970
ENERGY: 1200000 2.7294 7.2076 4.2750 0.0000 -10660.1857 1540.9980 0.0000 0.0000 1699.8337 -7405.1420 292.9937 -9104.9756 -7343.1486 300.3543 790.9809 855.9900 29864.0794 111.6342 163.1390
ENERGY: 1500000 3.8959 10.5526 2.9320 0.0000 -10545.6458 1384.9500 0.0000 0.0000 1693.1623 -7450.1530 291.8438 -9143.3153 -7352.7551 298.7767 -525.8558 -486.9046 29977.8966 26.4641 73.6410
TCL: Running FEP window  18: Lambda1 0.1499999999999997 Lambda2 0.09999999999999969 [dLambda -0.05 ]
TCL: Setting parameter firsttimestep to 0
TCL: Setting parameter alchLambda to 0.1499999999999997
Info: NONBONDED TABLE R-SQUARED SPACING: 0.0625
Info: NONBONDED TABLE SIZE: 705 POINTS
TCL: Setting parameter alchLambda2 to 0.09999999999999969
Info: NONBONDED TABLE R-SQUARED SPACING: 0.0625
Info: NONBONDED TABLE SIZE: 705 POINTS
TCL: Running for 1500000 steps
ETITLE: TS BOND ANGLE DIHED IMPRP ELECT VDW BOUNDARY MISC KINETIC TOTAL TEMP POTENTIAL TOTALAVG TEMPAVG PRESSURE GPRESSURE VOLUME PRESSAVG GPRESSAVG
ENERGY: 0 3.8959 10.5526 2.9320 0.0000 -10545.6457 1384.6171 0.0000 0.0000 1692.3079 -7451.3402 291.6966 -9143.6481 -7451.3402 291.6966 -568.9597 -492.9673 29977.8966 -568.9597 -492.9673
ENERGY: 300000 5.0099 7.0090 3.8322 0.0000 -10536.9950 1399.8435 0.0000 0.0000 1725.3328 -7395.9676 297.3889 -9121.3004 -7389.9966 297.7757 -238.3492 -194.2147 29694.5478 157.6804 185.8358
ENERGY: 600000 4.1362 10.1707 2.7471 0.0000 -10621.9952 1430.9561 0.0000 0.0000 1778.0084 -7395.9767 306.4684 -9173.9852 -7380.4913 298.5482 -162.3239 -125.2693 29677.7304 4.8916 38.9720
ENERGY: 900000 3.6256 8.5607 4.4146 0.0000 -10487.5262 1369.5665 0.0000 0.0000 1668.8313 -7432.5275 287.6500 -9101.3588 -7384.3124 298.2666 -525.5522 -474.3554 29826.6150 -119.1629 -84.0116
ENERGY: 1200000 5.3482 9.5664 4.6206 0.0000 -10472.6068 1396.7751 0.0000 0.0000 1694.7910 -7361.5054 292.1245 -9056.2964 -7366.4468 298.7177 -210.2969 -85.4239 29980.9931 -86.0070 -56.1177
ENERGY: 1500000 3.7731 9.5630 2.5032 0.0000 -10600.2202 1466.1844 0.0000 0.0000 1752.3117 -7365.8847 302.0392 -9118.1964 -7366.4579 298.9639 421.5128 524.6847 29519.7928 -73.6570 -30.8388
TCL: Running FEP window  19: Lambda1 0.09999999999999969 Lambda2 0.049999999999999684 [dLambda -0.05 ]
TCL: Setting parameter firsttimestep to 0
TCL: Setting parameter alchLambda to 0.09999999999999969
Info: NONBONDED TABLE R-SQUARED SPACING: 0.0625
Info: NONBONDED TABLE SIZE: 705 POINTS
TCL: Setting parameter alchLambda2 to 0.049999999999999684
Info: NONBONDED TABLE R-SQUARED SPACING: 0.0625
Info: NONBONDED TABLE SIZE: 705 POINTS
TCL: Running for 1500000 steps
ETITLE: TS BOND ANGLE DIHED IMPRP ELECT VDW BOUNDARY MISC KINETIC TOTAL TEMP POTENTIAL TOTALAVG TEMPAVG PRESSURE GPRESSURE VOLUME PRESSAVG GPRESSAVG
ENERGY: 0 3.7731 9.5630 2.5032 0.0000 -10600.2208 1465.5342 0.0000 0.0000 1751.4477 -7367.3997 301.8902 -9118.8474 -7367.3997 301.8902 427.8958 517.1328 29519.7928 427.8958 517.1328
ENERGY: 300000 4.0481 9.3180 4.3632 0.0000 -10621.2559 1437.5604 0.0000 0.0000 1760.6600 -7405.3063 303.4781 -9165.9663 -7327.4600 303.4254 140.2807 191.7526 29261.5058 -81.6977 -31.3737
ENERGY: 600000 3.6981 7.6270 3.0131 0.0000 -10399.5050 1332.8597 0.0000 0.0000 1761.3052 -7291.0019 303.5893 -9052.3071 -7321.1481 303.2373 -706.3794 -572.9054 30063.5395 -82.3333 -25.8214
ENERGY: 900000 3.4432 11.8068 3.4606 0.0000 -10677.2159 1533.4856 0.0000 0.0000 1709.1939 -7415.8258 294.6071 -9125.0197 -7347.7842 301.6683 782.9528 845.4467 29593.2528 -53.9283 8.0160
ENERGY: 1200000 5.2225 14.3329 3.5512 0.0000 -10418.1319 1345.5948 0.0000 0.0000 1738.6836 -7310.7469 299.6901 -9049.4304 -7345.0406 301.7599 -639.0411 -567.9915 29938.2042 36.0905 105.9384
ENERGY: 1500000 2.7578 11.2099 4.7735 0.0000 -10499.6000 1358.9387 0.0000 0.0000 1768.5313 -7353.3887 304.8349 -9121.9200 -7343.6693 302.0021 -470.6233 -457.6252 29799.6163 -43.5854 21.5054
TCL: Running FEP window  20: Lambda1 0.049999999999999684 Lambda2 0.0    [dLambda -0.049999999999999684]
TCL: Setting parameter firsttimestep to 0
TCL: Setting parameter alchLambda to 0.049999999999999684
Info: NONBONDED TABLE R-SQUARED SPACING: 0.0625
Info: NONBONDED TABLE SIZE: 705 POINTS
TCL: Setting parameter alchLambda2 to 0.0
Info: NONBONDED TABLE R-SQUARED SPACING: 0.0625
Info: NONBONDED TABLE SIZE: 705 POINTS
TCL: Running for 1500000 steps
ETITLE: TS BOND ANGLE DIHED IMPRP ELECT VDW BOUNDARY MISC KINETIC TOTAL TEMP POTENTIAL TOTALAVG TEMPAVG PRESSURE GPRESSURE VOLUME PRESSAVG GPRESSAVG
ENERGY: 0 2.7578 11.2099 4.7735 0.0000 -10499.6008 1359.0219 0.0000 0.0000 1767.6688 -7354.1689 304.6862 -9121.8377 -7354.1689 304.6862 -526.0647 -459.4609 29799.6163 -526.0647 -459.4609
ENERGY: 300000 5.5018 7.5094 3.8783 0.0000 -10524.2862 1507.6924 0.0000 0.0000 1748.0944 -7251.6099 301.3123 -8999.7043 -7328.0796 301.1409 1203.2600 1198.3212 29287.6244 -161.6371 -117.0849
ENERGY: 600000 6.5507 12.4484 4.0993 0.0000 -10562.4354 1412.2037 0.0000 0.0000 1710.7518 -7416.3814 294.8757 -9127.1333 -7336.1498 302.5155 -144.2220 -130.6928 29579.0964 -191.7771 -154.2598
ENERGY: 900000 4.7596 8.8118 7.5849 0.0000 -10606.8459 1510.1269 0.0000 0.0000 1726.5635 -7348.9992 297.6011 -9075.5627 -7339.9799 302.3709 792.2603 900.2947 29509.3024 -122.3049 -67.8286
ENERGY: 1200000 2.7883 8.8673 3.1635 0.0000 -10609.5295 1433.4766 0.0000 0.0000 1694.9367 -7466.2972 292.1497 -9161.2339 -7340.6260 302.3837 -227.7055 -158.4484 29714.1914 -87.2044 -36.3656
ENERGY: 1500000 3.9727 6.9202 4.4278 0.0000 -10451.2972 1382.8186 0.0000 0.0000 1737.5659 -7315.5921 299.4975 -9053.1579 -7336.4788 302.2283 -207.8647 -92.0057 29973.8867 -86.3079 -32.9244
TCL: Exiting due to exit command.
