Info: SIMULATION PARAMETERS:
Info: TIMESTEP               2
Info: NUMBER OF STEPS        0
Info: STEPS PER CYCLE        10
Info: PERIODIC CELL BASIS 1  31.8947 0 0
Info: PERIODIC CELL BASIS 2  0 30.3489 0
Info: PERIODIC CELL BASIS 3  0 0 32.3225
Info: PERIODIC CELL CENTER   0 0 0
Info: WRAPPING WATERS AROUND PERIODIC BOUNDARIES ON OUTPUT.
Info: WRAPPING ALL CLUSTERS AROUND PERIODIC BOUNDARIES ON OUTPUT.
Info: FIRST LDB TIMESTEP     50
Info: LAST LDB TIMESTEP     -1
Info: HOM BACKGROUND SCALING 1
Info: PME BACKGROUND SCALING 1
Info: MIN ATOMS PER PATCH    40
Info: EMPTY PATCH LOAD       40 ATOMS
Info: VELOCITY FILE          mobley_9478823_equil.vel
Info: CENTER OF MASS MOVING INITIALLY? NO
Info: DIELECTRIC             1
Info: EXCLUDE                SCALED ONE-FOUR
Info: 1-4 ELECTROSTATICS SCALED BY 0.833333
Info: MODIFIED 1-4 VDW PARAMETERS WILL BE USED
Info: DCD FILENAME           mobley_9478823_prod.dcd
Info: DCD FREQUENCY          100000
Info: DCD FIRST STEP         100000
Info: DCD FILE WILL CONTAIN UNIT CELL DATA
Info: XST FILENAME           mobley_9478823_prod.xst
Info: XST FREQUENCY          100000
Info: NO VELOCITY DCD OUTPUT
Info: NO FORCE DCD OUTPUT
Info: OUTPUT FILENAME        mobley_9478823_prod
Info: BINARY OUTPUT FILES WILL BE USED
Info: RESTART FILENAME       mobley_9478823_prod.restart
Info: RESTART FREQUENCY      100000
Info: BINARY RESTART FILES WILL BE USED
Info: CUTOFF                 9
Info: PAIRLIST DISTANCE      11
Info: PAIRLIST SHRINK RATE   0.01
Info: PAIRLIST GROW RATE     0.01
Info: PAIRLIST TRIGGER       0.3
Info: PAIRLISTS PER CYCLE    2
Info: PAIRLISTS ENABLED
Info: MARGIN                 2
Info: HYDROGEN GROUP CUTOFF  2.5
Info: PATCH DIMENSION        15.5
Info: ENERGY OUTPUT STEPS    100000
Info: ENERGY EVALUATION STEPS    100000
Info: OUTPUT ENERGY PRECISION 4
Info: CROSSTERM ENERGY INCLUDED IN DIHEDRAL
Info: TIMING OUTPUT STEPS    1000000
Info: PRESSURE OUTPUT STEPS  100000
Info: ALCHEMICAL FEP ON
Info: FEP CURRENT LAMBDA VALUE     1
Info: FEP COMPARISON LAMBDA VALUE  0.95
Info: FEP INTRA-ALCHEMICAL NON-BONDED INTERACTIONS WILL BE RETAINED
Info: FEP INTRA-ALCHEMICAL BONDED INTERACTIONS WILL BE RETAINED
Info: FEP VDW SHIFTING COEFFICIENT 5
Info: FEP ELEC. ACTIVE FOR ANNIHILATED PARTICLES BETWEEN LAMBDA = 0 AND LAMBDA = 0.5
Info: FEP ELEC. ACTIVE FOR EXNIHILATED PARTICLES BETWEEN LAMBDA = 0.5 AND LAMBDA = 1
Info: FEP VDW ACTIVE FOR ANNIHILATED PARTICLES BETWEEN LAMBDA = 0 AND LAMBDA = 1
Info: FEP VDW ACTIVE FOR EXNIHILATED PARTICLES BETWEEN LAMBDA = 0 AND LAMBDA = 1
Info: FEP BOND ACTIVE FOR ANNIHILATED PARTICLES BETWEEN LAMBDA = 1 AND LAMBDA = 1
Info: FEP BOND ACTIVE FOR EXNIHILATED PARTICLES BETWEEN LAMBDA = 0 AND LAMBDA = 0
Info: LANGEVIN DYNAMICS ACTIVE
Info: LANGEVIN TEMPERATURE   300
Info: LANGEVIN USING BBK INTEGRATOR
Info: LANGEVIN DAMPING COEFFICIENT IS 1 INVERSE PS
Info: LANGEVIN DYNAMICS APPLIED TO HYDROGENS
Info: LANGEVIN PISTON PRESSURE CONTROL ACTIVE
Info:        TARGET PRESSURE IS 1.01325 BAR
Info:     OSCILLATION PERIOD IS 50 FS
Info:             DECAY TIME IS 25 FS
Info:     PISTON TEMPERATURE IS 300 K
Info:       PRESSURE CONTROL IS GROUP-BASED
Info:    INITIAL STRAIN RATE IS -0.000809732 -0.000809732 -0.000809732
Info:       CELL FLUCTUATION IS ISOTROPIC
Info: PARTICLE MESH EWALD (PME) ACTIVE
Info: PME TOLERANCE               1e-06
Info: PME EWALD COEFFICIENT       0.348832
Info: PME INTERPOLATION ORDER     4
Info: PME GRID DIMENSIONS         32 32 36
Info: PME MAXIMUM GRID SPACING    1
Info: PME CALCULATION WILL BE PERFORMED ON GPU
Info: FULL ELECTROSTATIC EVALUATION FREQUENCY      2
Info: USING VERLET I (r-RESPA) MTS SCHEME.
Info: C1 SPLITTING OF LONG RANGE ELECTROSTATICS
Info: PLACING ATOMS IN PATCHES BY HYDROGEN GROUPS
Info: RIGID BONDS TO HYDROGEN : ALL
Info:         ERROR TOLERANCE : 1e-08
Info:          MAX ITERATIONS : 100
Info: RIGID WATER USING SETTLE ALGORITHM
Info: RANDOM NUMBER SEED     1743616079
Info: USE HYDROGEN BONDS?    NO
Info: Using AMBER format force field!
Info: AMBER PARM FILE        mobley_9478823.prmtop
Info: COORDINATE PDB         mobley_9478823.pdb
Info: Exclusions will be read from PARM file!
Info: SCNB (VDW SCALING)     2
Info: USING ARITHMETIC MEAN TO COMBINE L-J SIGMA PARAMETERS
Info: BINARY COORDINATES     mobley_9478823_equil.coor
Info: SUMMARY OF PARAMETERS:
Info: 6 BONDS
Info: 5 ANGLES
Info:   5 HARMONIC
Info:   0 COSINE-BASED
Info: 3 DIHEDRAL
Info: 0 IMPROPER
Info: 0 CROSSTERM
Info: 0 VDW
Info: 21 VDW_PAIRS
Info: 0 NBTHOLE_PAIRS
Info: To read alchdata from file: mobley_9478823.pdb
Info: To read alchflag data from column: 5
Info: STRUCTURE SUMMARY:
Info: 2991 ATOMS
Info: 2991 BONDS
Info: 30 ANGLES
Info: 42 DIHEDRALS
Info: 0 IMPROPERS
Info: 0 CROSSTERMS
Info: 3054 EXCLUSIONS
Info: 2983 RIGID BONDS
Info: ALCH: 0 ATOMS TO DISAPPEAR IN FINAL STATE
Info: ALCH: 18 ATOMS TO APPEAR IN FINAL STATE
Info: 5990 DEGREES OF FREEDOM
Info: 999 HYDROGEN GROUPS
Info: 4 ATOMS IN LARGEST HYDROGEN GROUP
Info: 999 MIGRATION GROUPS
Info: 4 ATOMS IN LARGEST MIGRATION GROUP
Info: TOTAL MASS = 17960 amu
Info: TOTAL CHARGE = -9.99719e-05 e
Info: MASS DENSITY = 0.953235 g/cm^3
Info: ATOM DENSITY = 0.0955984 atoms/A^3
Info: ADDED 0 IMPLICIT EXCLUSIONS
Info: NONBONDED TABLE R-SQUARED SPACING: 0.0625
Info: NONBONDED TABLE SIZE: 705 POINTS
Info: REMOVING COM VELOCITY 0.0865001 0.0324629 -0.0374699
Info: Use 3D box decompostion in PME FFT.
Info: Updated CUDA force table with 4096 elements.
Info: Updated CUDA LJ table with 6 x 6 elements.
Info: Found 17 unique exclusion lists needing 40 bytes
TCL: Running for 1500000 steps
ETITLE: TS BOND ANGLE DIHED IMPRP ELECT VDW BOUNDARY MISC KINETIC TOTAL TEMP POTENTIAL TOTALAVG TEMPAVG PRESSURE GPRESSURE VOLUME PRESSAVG GPRESSAVG
ENERGY: 0 2.2941 7.4090 0.5644 0.0000 -10873.7813 1507.1589 0.0000 0.0000 1851.8326 -7504.5223 311.1468 -9356.3549 -7504.5223 311.1468 158.8151 232.4821 31287.1366 158.8151 232.4821
ENERGY: 300000 2.1968 5.9587 2.5297 0.0000 -10748.2814 1396.9732 0.0000 0.0000 1765.8316 -7574.7915 296.6968 -9340.6230 -7574.6596 301.7294 -526.3540 -425.8310 30839.5846 -114.4730 -44.8582
ENERGY: 600000 0.6645 9.2437 2.6547 0.0000 -10806.7910 1427.1815 0.0000 0.0000 1738.3650 -7628.6815 292.0818 -9367.0465 -7578.4297 299.4053 -378.4148 -314.8167 30927.3184 -16.6774 38.1705
ENERGY: 900000 4.8588 9.5024 1.7937 0.0000 -10759.2668 1421.6283 0.0000 0.0000 1747.0405 -7574.4431 293.5395 -9321.4836 -7584.1680 297.9784 -311.2408 -214.7248 30676.4525 -104.6207 -41.2957
ENERGY: 1200000 1.4284 8.0312 1.9397 0.0000 -10800.9987 1419.5499 0.0000 0.0000 1798.2680 -7571.7814 302.1468 -9370.0494 -7590.1135 298.3636 -342.8837 -307.8426 31066.9038 -113.4547 -48.9491
ENERGY: 1500000 6.2136 6.4980 3.6009 0.0000 -10896.1395 1484.6239 0.0000 0.0000 1803.6044 -7591.5987 303.0434 -9395.2031 -7587.3608 299.6708 232.4715 250.8154 30901.7086 6.5930 71.5654
TCL: Running FEP window   2: Lambda1 0.95   Lambda2 0.8999999999999999 [dLambda -0.050000000000000044]
TCL: Setting parameter firsttimestep to 0
TCL: Setting parameter alchLambda to 0.95
Info: NONBONDED TABLE R-SQUARED SPACING: 0.0625
Info: NONBONDED TABLE SIZE: 705 POINTS
TCL: Setting parameter alchLambda2 to 0.8999999999999999
Info: NONBONDED TABLE R-SQUARED SPACING: 0.0625
Info: NONBONDED TABLE SIZE: 705 POINTS
TCL: Running for 1500000 steps
ETITLE: TS BOND ANGLE DIHED IMPRP ELECT VDW BOUNDARY MISC KINETIC TOTAL TEMP POTENTIAL TOTALAVG TEMPAVG PRESSURE GPRESSURE VOLUME PRESSAVG GPRESSAVG
ENERGY: 0 6.2136 6.4980 3.6009 0.0000 -10895.4227 1483.7884 0.0000 0.0000 1802.7056 -7592.6162 302.8924 -9395.3218 -7592.6162 302.8924 155.0707 228.2761 30901.7086 155.0707 228.2761
ENERGY: 300000 0.6950 4.5826 3.0265 0.0000 -10797.5827 1450.2241 0.0000 0.0000 1825.8106 -7513.2440 306.7745 -9339.0545 -7601.2298 297.6370 159.1648 250.9821 30505.9608 612.0141 669.0061
ENERGY: 600000 1.4700 3.9144 2.2842 0.0000 -10811.8032 1427.8581 0.0000 0.0000 1734.6982 -7641.5782 291.4657 -9376.2765 -7611.0950 296.7724 -80.1299 -42.9015 30537.4527 150.5563 214.2109
ENERGY: 900000 1.8599 6.5364 2.4168 0.0000 -10901.4193 1496.0673 0.0000 0.0000 1763.9851 -7630.5539 296.3865 -9394.5390 -7608.8813 296.9074 38.6088 84.5763 30835.4339 46.2704 101.2544
ENERGY: 1200000 2.5317 6.0002 1.4579 0.0000 -10918.7459 1490.3044 0.0000 0.0000 1825.6826 -7592.7692 306.7530 -9418.4518 -7592.7828 298.9175 -26.0154 64.3065 30892.4462 -17.5243 38.0445
ENERGY: 1500000 5.5548 11.5212 1.2079 0.0000 -10747.0282 1417.9269 0.0000 0.0000 1763.7244 -7547.0930 296.3427 -9310.8175 -7584.2134 299.3342 -406.6832 -337.3310 31147.3119 21.6855 73.2633
TCL: Running FEP window   3: Lambda1 0.8999999999999999 Lambda2 0.8499999999999999 [dLambda -0.050000000000000044]
TCL: Setting parameter firsttimestep to 0
TCL: Setting parameter alchLambda to 0.8999999999999999
Info: NONBONDED TABLE R-SQUARED SPACING: 0.0625
Info: NONBONDED TABLE SIZE: 705 POINTS
TCL: Setting parameter alchLambda2 to 0.8499999999999999
Info: NONBONDED TABLE R-SQUARED SPACING: 0.0625
Info: NONBONDED TABLE SIZE: 705 POINTS
TCL: Running for 1500000 steps
ETITLE: TS BOND ANGLE DIHED IMPRP ELECT VDW BOUNDARY MISC KINETIC TOTAL TEMP POTENTIAL TOTALAVG TEMPAVG PRESSURE GPRESSURE VOLUME PRESSAVG GPRESSAVG
ENERGY: 0 5.5548 11.5212 1.2079 0.0000 -10746.4868 1418.4145 0.0000 0.0000 1762.8404 -7546.9480 296.1942 -9309.7884 -7546.9480 296.1942 -404.1497 -342.4208 31147.3119 -404.1497 -342.4208
ENERGY: 300000 3.4935 9.0353 1.4579 0.0000 -10827.5076 1449.5049 0.0000 0.0000 1841.6606 -7522.3553 309.4377 -9364.0159 -7539.1090 303.2933 -223.5799 -156.7506 30830.3429 -96.0261 -35.0761
ENERGY: 600000 3.8434 5.2232 3.7873 0.0000 -10691.1652 1427.1814 0.0000 0.0000 1783.5237 -7467.6062 299.6694 -9251.1299 -7528.7767 302.7938 -448.4757 -395.7487 31618.9406 -116.9241 -57.5216
ENERGY: 900000 1.8379 4.0889 2.2695 0.0000 -10773.4592 1435.1657 0.0000 0.0000 1777.9020 -7552.1953 298.7249 -9330.0973 -7534.3032 302.9587 -274.6464 -218.1968 30985.2188 -130.6864 -75.3082
ENERGY: 1200000 5.0031 5.8396 1.9645 0.0000 -10859.9278 1434.1759 0.0000 0.0000 1764.3113 -7648.6333 296.4413 -9412.9446 -7549.2755 302.4029 -455.5015 -414.9417 30808.0172 -172.7175 -117.3837
ENERGY: 1500000 1.3673 7.0361 3.6297 0.0000 -10946.3515 1549.1983 0.0000 0.0000 1740.8720 -7644.2480 292.5030 -9385.1200 -7569.6838 300.8338 398.2509 544.0963 31031.0691 -136.0477 -74.7048
TCL: Running FEP window   4: Lambda1 0.8499999999999999 Lambda2 0.7999999999999998 [dLambda -0.050000000000000044]
TCL: Setting parameter firsttimestep to 0
TCL: Setting parameter alchLambda to 0.8499999999999999
Info: NONBONDED TABLE R-SQUARED SPACING: 0.0625
Info: NONBONDED TABLE SIZE: 705 POINTS
TCL: Setting parameter alchLambda2 to 0.7999999999999998
Info: NONBONDED TABLE R-SQUARED SPACING: 0.0625
Info: NONBONDED TABLE SIZE: 705 POINTS
TCL: Running for 1500000 steps
ETITLE: TS BOND ANGLE DIHED IMPRP ELECT VDW BOUNDARY MISC KINETIC TOTAL TEMP POTENTIAL TOTALAVG TEMPAVG PRESSURE GPRESSURE VOLUME PRESSAVG GPRESSAVG
ENERGY: 0 1.3673 7.0361 3.6297 0.0000 -10945.4562 1549.2780 0.0000 0.0000 1740.0143 -7644.1308 292.3589 -9384.1451 -7644.1308 292.3589 451.7148 536.9874 31031.0691 451.7148 536.9874
ENERGY: 300000 1.5327 7.6955 1.8862 0.0000 -10857.1767 1511.8928 0.0000 0.0000 1739.5166 -7594.6528 292.2753 -9334.1695 -7581.0302 296.5759 643.0496 681.7974 30442.4451 363.4709 401.7706
ENERGY: 600000 2.3677 3.7464 4.5772 0.0000 -10604.2419 1351.1800 0.0000 0.0000 1756.5494 -7485.8212 295.1372 -9242.3706 -7573.1760 297.6449 -612.7733 -591.2810 31080.5069 325.0866 371.1531
ENERGY: 900000 1.4088 6.3798 1.9662 0.0000 -10840.2363 1470.8476 0.0000 0.0000 1807.1944 -7552.4395 303.6466 -9359.6339 -7554.3472 300.5382 238.2644 280.2740 30737.6896 361.4113 414.0586
ENERGY: 1200000 3.6806 7.7725 2.6363 0.0000 -10820.2075 1409.5284 0.0000 0.0000 1770.2340 -7626.3556 297.4365 -9396.5896 -7553.7729 299.8894 -569.3976 -489.3777 30987.2443 176.3331 230.7715
ENERGY: 1500000 2.8289 4.2618 1.9017 0.0000 -10874.9685 1492.4619 0.0000 0.0000 1820.1035 -7553.4108 305.8156 -9373.5143 -7556.6113 299.9911 180.8199 182.9941 30841.3748 81.1808 133.7473
TCL: Running FEP window   5: Lambda1 0.7999999999999998 Lambda2 0.7499999999999998 [dLambda -0.050000000000000044]
TCL: Setting parameter firsttimestep to 0
TCL: Setting parameter alchLambda to 0.7999999999999998
Info: NONBONDED TABLE R-SQUARED SPACING: 0.0625
Info: NONBONDED TABLE SIZE: 705 POINTS
TCL: Setting parameter alchLambda2 to 0.7499999999999998
Info: NONBONDED TABLE R-SQUARED SPACING: 0.0625
Info: NONBONDED TABLE SIZE: 705 POINTS
TCL: Running for 1500000 steps
ETITLE: TS BOND ANGLE DIHED IMPRP ELECT VDW BOUNDARY MISC KINETIC TOTAL TEMP POTENTIAL TOTALAVG TEMPAVG PRESSURE GPRESSURE VOLUME PRESSAVG GPRESSAVG
ENERGY: 0 2.8289 4.2618 1.9017 0.0000 -10874.7365 1493.0194 0.0000 0.0000 1819.2068 -7553.5180 305.6649 -9372.7247 -7553.5180 305.6649 97.2359 180.8675 30841.3748 97.2359 180.8675
ENERGY: 300000 5.7717 4.5617 4.4633 0.0000 -10798.9156 1384.3183 0.0000 0.0000 1822.3536 -7577.4470 306.1937 -9399.8007 -7518.8755 304.4002 -1032.4045 -971.0051 31426.4595 -422.4199 -367.1109
ENERGY: 600000 3.8906 4.2987 4.9751 0.0000 -10887.8068 1501.6709 0.0000 0.0000 1801.5315 -7571.4400 302.6951 -9372.9715 -7549.4856 302.0852 472.6333 578.1553 30255.3501 -140.4998 -78.1958
ENERGY: 900000 3.4370 10.0272 4.1764 0.0000 -10830.5955 1445.4667 0.0000 0.0000 1808.8491 -7558.6390 303.9246 -9367.4881 -7554.3857 301.6378 -23.6819 0.1970 30585.7095 -201.7957 -146.1478
ENERGY: 1200000 0.5898 5.9793 3.5201 0.0000 -10809.7193 1477.3553 0.0000 0.0000 1780.9769 -7541.2980 299.2415 -9322.2749 -7548.5696 300.8714 429.3103 477.5818 30618.8536 -166.0557 -107.8955
ENERGY: 1500000 1.8257 5.6987 7.3946 0.0000 -10799.1233 1429.0301 0.0000 0.0000 1821.9123 -7533.2618 306.1195 -9355.1741 -7553.8756 300.3219 -20.8880 -1.0291 30590.3729 -154.4385 -98.6522
TCL: Running FEP window   6: Lambda1 0.7499999999999998 Lambda2 0.6999999999999997 [dLambda -0.050000000000000044]
TCL: Setting parameter firsttimestep to 0
TCL: Setting parameter alchLambda to 0.7499999999999998
Info: NONBONDED TABLE R-SQUARED SPACING: 0.0625
Info: NONBONDED TABLE SIZE: 705 POINTS
TCL: Setting parameter alchLambda2 to 0.6999999999999997
Info: NONBONDED TABLE R-SQUARED SPACING: 0.0625
Info: NONBONDED TABLE SIZE: 705 POINTS
TCL: Running for 1500000 steps
ETITLE: TS BOND ANGLE DIHED IMPRP ELECT VDW BOUNDARY MISC KINETIC TOTAL TEMP POTENTIAL TOTALAVG TEMPAVG PRESSURE GPRESSURE VOLUME PRESSAVG GPRESSAVG
ENERGY: 0 1.8257 5.6987 7.3946 0.0000 -10798.5054 1429.5697 0.0000 0.0000 1821.0291 -7532.9875 305.9711 -9354.0166 -7532.9875 305.9711 -75.5515 1.0469 30590.3729 -75.5515 1.0469
ENERGY: 300000 1.8436 5.8955 1.7680 0.0000 -10762.6336 1420.0493 0.0000 0.0000 1820.1544 -7512.9227 305.8242 -9333.0771 -7544.7474 300.0404 -54.1865 -0.8135 30890.5964 97.2580 154.4272
ENERGY: 600000 2.3914 6.6698 1.2748 0.0000 -10816.5151 1484.4815 0.0000 0.0000 1799.2830 -7522.4145 302.3173 -9321.6976 -7545.4981 301.2191 197.2532 186.7760 30997.4667 148.8724 184.9338
ENERGY: 900000 4.8868 6.1159 3.0665 0.0000 -10640.5343 1350.3335 0.0000 0.0000 1776.6755 -7499.4561 298.5188 -9276.1316 -7548.3380 301.7331 -663.4866 -555.6490 30785.9385 -39.6774 8.7596
ENERGY: 1200000 1.4970 7.6542 2.9205 0.0000 -10862.6766 1493.9248 0.0000 0.0000 1844.0472 -7512.6328 309.8387 -9356.6800 -7548.4982 302.0522 500.2323 520.1306 30531.4469 33.1046 77.0352
ENERGY: 1500000 0.9636 5.4827 0.7366 0.0000 -10797.5737 1483.9176 0.0000 0.0000 1833.8648 -7472.6084 308.1278 -9306.4731 -7539.8111 302.6936 435.1944 493.5987 30831.1260 93.2647 139.6680
TCL: Running FEP window   7: Lambda1 0.6999999999999997 Lambda2 0.6499999999999997 [dLambda -0.050000000000000044]
TCL: Setting parameter firsttimestep to 0
TCL: Setting parameter alchLambda to 0.6999999999999997
Info: NONBONDED TABLE R-SQUARED SPACING: 0.0625
Info: NONBONDED TABLE SIZE: 705 POINTS
TCL: Setting parameter alchLambda2 to 0.6499999999999997
Info: NONBONDED TABLE R-SQUARED SPACING: 0.0625
Info: NONBONDED TABLE SIZE: 705 POINTS
TCL: Running for 1500000 steps
ETITLE: TS BOND ANGLE DIHED IMPRP ELECT VDW BOUNDARY MISC KINETIC TOTAL TEMP POTENTIAL TOTALAVG TEMPAVG PRESSURE GPRESSURE VOLUME PRESSAVG GPRESSAVG
ENERGY: 0 0.9636 5.4827 0.7367 0.0000 -10796.9675 1484.3044 0.0000 0.0000 1832.9728 -7472.5073 307.9779 -9305.4802 -7472.5073 307.9779 417.1030 489.5129 30831.1260 417.1030 489.5129
ENERGY: 300000 1.9218 5.9719 2.0516 0.0000 -10810.1346 1410.6119 0.0000 0.0000 1863.4946 -7526.0828 313.1062 -9389.5774 -7514.0829 303.8451 -488.2269 -418.8507 30999.1475 -79.4889 -5.5363
ENERGY: 600000 1.7645 5.3490 2.3127 0.0000 -10836.0066 1494.3383 0.0000 0.0000 1787.9573 -7544.2847 300.4144 -9332.2421 -7529.6075 301.2043 177.1216 291.6127 30977.5158 27.9701 99.2824
ENERGY: 900000 4.3379 5.6724 3.4530 0.0000 -10874.7681 1438.3290 0.0000 0.0000 1867.3320 -7555.6437 313.7510 -9422.9758 -7534.2879 302.5763 -189.2583 -126.1112 30459.7674 79.3812 151.8200
ENERGY: 1200000 2.5161 6.6512 2.3120 0.0000 -10759.2394 1389.1725 0.0000 0.0000 1736.7670 -7621.8204 291.8133 -9358.5875 -7548.9481 301.0335 -207.3346 -143.4615 30464.6672 16.0228 91.1542
ENERGY: 1500000 2.4563 8.2308 3.7357 0.0000 -10744.9840 1371.2165 0.0000 0.0000 1810.6211 -7548.7236 304.2224 -9359.3447 -7549.5475 300.9013 -864.0009 -796.7655 30980.7127 -55.7592 13.7655
TCL: Running FEP window   8: Lambda1 0.6499999999999997 Lambda2 0.5999999999999996 [dLambda -0.050000000000000044]
TCL: Setting parameter firsttimestep to 0
TCL: Setting parameter alchLambda to 0.6499999999999997
Info: NONBONDED TABLE R-SQUARED SPACING: 0.0625
Info: NONBONDED TABLE SIZE: 705 POINTS
TCL: Setting parameter alchLambda2 to 0.5999999999999996
Info: NONBONDED TABLE R-SQUARED SPACING: 0.0625
Info: NONBONDED TABLE SIZE: 705 POINTS
TCL: Running for 1500000 steps
ETITLE: TS BOND ANGLE DIHED IMPRP ELECT VDW BOUNDARY MISC KINETIC TOTAL TEMP POTENTIAL TOTALAVG TEMPAVG PRESSURE GPRESSURE VOLUME PRESSAVG GPRESSAVG
ENERGY: 0 2.4563 8.2308 3.7357 0.0000 -10744.7856 1371.4521 0.0000 0.0000 1809.7356 -7549.1751 304.0736 -9358.9107 -7549.1751 304.0736 -889.3298 -801.5742 30980.7127 -889.3298 -801.5742
ENERGY: 300000 1.1659 9.6058 5.0111 0.0000 -10715.8078 1380.4805 0.0000 0.0000 1834.5033 -7485.0411 308.2351 -9319.5444 -7540.5734 301.6436 -525.4178 -429.3234 30920.5463 -429.2755 -356.9276
ENERGY: 600000 4.5419 10.3689 2.5517 0.0000 -10660.0895 1337.1439 0.0000 0.0000 1799.0012 -7506.4820 302.2700 -9305.4832 -7536.5697 302.5367 -856.2431 -811.9691 30964.0462 -277.1616 -201.6688
ENERGY: 900000 1.0785 3.6359 3.7880 0.0000 -10895.5606 1443.6406 0.0000 0.0000 1710.7302 -7732.6873 287.4386 -9443.4175 -7560.4230 300.5895 -183.2473 -150.4820 30398.8485 -239.0875 -155.9021
ENERGY: 1200000 2.9859 3.8204 2.8517 0.0000 -10639.2727 1418.4188 0.0000 0.0000 1788.7298 -7422.4661 300.5442 -9211.1959 -7552.7063 300.0350 -60.5571 45.9483 31195.4605 -207.9277 -123.0062
ENERGY: 1500000 1.4524 5.6608 4.7107 0.0000 -10865.4453 1468.8571 0.0000 0.0000 1805.3509 -7579.4134 303.3369 -9384.7643 -7560.6268 300.2160 -177.0816 -89.5020 31093.5980 -159.9622 -82.6650
TCL: Running FEP window   9: Lambda1 0.5999999999999996 Lambda2 0.5499999999999996 [dLambda -0.050000000000000044]
TCL: Setting parameter firsttimestep to 0
TCL: Setting parameter alchLambda to 0.5999999999999996
Info: NONBONDED TABLE R-SQUARED SPACING: 0.0625
Info: NONBONDED TABLE SIZE: 705 POINTS
TCL: Setting parameter alchLambda2 to 0.5499999999999996
Info: NONBONDED TABLE R-SQUARED SPACING: 0.0625
Info: NONBONDED TABLE SIZE: 705 POINTS
TCL: Running for 1500000 steps
ETITLE: TS BOND ANGLE DIHED IMPRP ELECT VDW BOUNDARY MISC KINETIC TOTAL TEMP POTENTIAL TOTALAVG TEMPAVG PRESSURE GPRESSURE VOLUME PRESSAVG GPRESSAVG
ENERGY: 0 1.4524 5.6608 4.7107 0.0000 -10865.0192 1468.3802 0.0000 0.0000 1804.4499 -7580.3652 303.1855 -9384.8151 -7580.3652 303.1855 -200.7145 -105.7895 31093.5980 -200.7145 -105.7895
ENERGY: 300000 2.0223 5.6491 2.7458 0.0000 -10812.0509 1490.7356 0.0000 0.0000 1809.4732 -7501.4250 304.0295 -9310.8982 -7563.5607 303.9143 178.9231 185.4468 31258.3072 296.1078 351.4223
ENERGY: 600000 3.0760 8.4636 0.9297 0.0000 -10641.0632 1400.7981 0.0000 0.0000 1760.0974 -7467.6984 295.7333 -9227.7958 -7533.5804 301.6545 -109.9398 -38.8873 31153.3797 195.6327 257.4078
ENERGY: 900000 1.5221 4.0364 3.6816 0.0000 -10878.0458 1503.6990 0.0000 0.0000 1766.7504 -7598.3563 296.8512 -9365.1067 -7547.7094 300.9094 380.0754 444.9416 30734.5741 153.7990 224.2800
ENERGY: 1200000 2.6628 4.5110 2.3688 0.0000 -10900.7072 1500.2098 0.0000 0.0000 1793.6897 -7597.2651 301.3775 -9390.9548 -7553.0032 300.5450 169.2680 242.4405 30681.8043 111.2441 180.5793
ENERGY: 1500000 2.5936 5.9065 5.0624 0.0000 -10906.0542 1466.9275 0.0000 0.0000 1793.3053 -7632.2589 301.3130 -9425.5642 -7553.9646 301.2658 64.8927 138.6525 29826.0007 151.9892 221.8877
TCL: Running FEP window  10: Lambda1 0.5499999999999996 Lambda2 0.4999999999999996 [dLambda -0.04999999999999999]
TCL: Setting parameter firsttimestep to 0
TCL: Setting parameter alchLambda to 0.5499999999999996
Info: NONBONDED TABLE R-SQUARED SPACING: 0.0625
Info: NONBONDED TABLE SIZE: 705 POINTS
TCL: Setting parameter alchLambda2 to 0.4999999999999996
Info: NONBONDED TABLE R-SQUARED SPACING: 0.0625
Info: NONBONDED TABLE SIZE: 705 POINTS
TCL: Running for 1500000 steps
ETITLE: TS BOND ANGLE DIHED IMPRP ELECT VDW BOUNDARY MISC KINETIC TOTAL TEMP POTENTIAL TOTALAVG TEMPAVG PRESSURE GPRESSURE VOLUME PRESSAVG GPRESSAVG
ENERGY: 0 2.5936 5.9065 5.0624 0.0000 -10906.0758 1467.3592 0.0000 0.0000 1792.4221 -7632.7319 301.1646 -9425.1540 -7632.7319 301.1646 51.7201 133.8389 29826.0007 51.7201 133.8389
ENERGY: 300000 2.4425 9.7230 3.0199 0.0000 -10850.9801 1471.1540 0.0000 0.0000 1801.1836 -7563.4572 302.6367 -9364.6407 -7621.9690 298.1348 -243.1909 -175.4507 30943.5998 -0.7143 58.4458
ENERGY: 600000 4.0607 5.4967 1.0207 0.0000 -10683.8693 1370.1443 0.0000 0.0000 1767.2503 -7535.8965 296.9352 -9303.1468 -7598.1489 299.4385 -741.8228 -640.7247 30961.5914 -76.1206 -9.3648
ENERGY: 900000 1.8803 4.5289 2.7389 0.0000 -10864.4602 1429.7753 0.0000 0.0000 1791.5063 -7634.0304 301.0107 -9425.5368 -7597.5594 298.8467 -413.0182 -324.1549 30694.1602 -78.1840 -9.5812
ENERGY: 1200000 1.3572 5.6200 3.3871 0.0000 -10887.9720 1490.2311 0.0000 0.0000 1832.7039 -7554.6728 307.9327 -9387.3767 -7591.9607 300.0604 -39.6810 36.0868 31059.1407 10.6750 78.0907
ENERGY: 1500000 1.9212 6.1738 2.2160 0.0000 -10772.2208 1413.3443 0.0000 0.0000 1770.1935 -7578.3720 297.4297 -9348.5656 -7579.7599 301.1386 -423.8711 -382.6189 30993.7266 -86.5009 -13.7074
TCL: Running FEP window  11: Lambda1 0.4999999999999996 Lambda2 0.4499999999999996 [dLambda -0.04999999999999999]
TCL: Setting parameter firsttimestep to 0
TCL: Setting parameter alchLambda to 0.4999999999999996
Info: NONBONDED TABLE R-SQUARED SPACING: 0.0625
Info: NONBONDED TABLE SIZE: 705 POINTS
TCL: Setting parameter alchLambda2 to 0.4499999999999996
Info: NONBONDED TABLE R-SQUARED SPACING: 0.0625
Info: NONBONDED TABLE SIZE: 705 POINTS
TCL: Running for 1500000 steps
ETITLE: TS BOND ANGLE DIHED IMPRP ELECT VDW BOUNDARY MISC KINETIC TOTAL TEMP POTENTIAL TOTALAVG TEMPAVG PRESSURE GPRESSURE VOLUME PRESSAVG GPRESSAVG
ENERGY: 0 1.9212 6.1737 2.2160 0.0000 -10772.1613 1413.4687 0.0000 0.0000 1769.3144 -7579.0672 297.2820 -9348.3816 -7579.0672 297.2820 -463.8312 -386.4962 30993.7266 -463.8312 -386.4962
ENERGY: 300000 3.3444 7.9228 2.1337 0.0000 -10766.3858 1411.7539 0.0000 0.0000 1753.6423 -7587.5887 294.6487 -9341.2310 -7543.1569 300.2489 -255.6197 -248.3824 30600.4761 22.4868 60.4154
ENERGY: 600000 2.5958 3.2992 2.0599 0.0000 -10835.9472 1422.1657 0.0000 0.0000 1851.8843 -7553.9423 311.1555 -9405.8266 -7547.5733 299.8005 0.5582 6.5997 30375.9043 -95.7126 -46.4061
ENERGY: 900000 2.3066 6.0348 4.3335 0.0000 -10684.4120 1380.6530 0.0000 0.0000 1775.9161 -7515.1680 298.3912 -9291.0841 -7538.3009 299.9391 -869.0875 -762.4631 31916.2346 -160.0155 -107.4075
ENERGY: 1200000 0.8447 6.2887 4.4743 0.0000 -10752.1796 1432.5037 0.0000 0.0000 1757.1139 -7550.9543 295.2320 -9308.0681 -7533.3205 299.3961 -60.0562 -74.8050 30999.9623 -186.2578 -136.0587
ENERGY: 1500000 7.8319 3.4297 1.5788 0.0000 -10709.3065 1352.0757 0.0000 0.0000 1812.7535 -7531.6369 304.5807 -9344.3904 -7533.3783 300.2261 -802.7415 -800.7951 30677.8937 -139.9353 -92.3973
TCL: Running FEP window  12: Lambda1 0.4499999999999996 Lambda2 0.39999999999999963 [dLambda -0.04999999999999999]
TCL: Setting parameter firsttimestep to 0
TCL: Setting parameter alchLambda to 0.4499999999999996
Info: NONBONDED TABLE R-SQUARED SPACING: 0.0625
Info: NONBONDED TABLE SIZE: 705 POINTS
TCL: Setting parameter alchLambda2 to 0.39999999999999963
Info: NONBONDED TABLE R-SQUARED SPACING: 0.0625
Info: NONBONDED TABLE SIZE: 705 POINTS
TCL: Running for 1500000 steps
ETITLE: TS BOND ANGLE DIHED IMPRP ELECT VDW BOUNDARY MISC KINETIC TOTAL TEMP POTENTIAL TOTALAVG TEMPAVG PRESSURE GPRESSURE VOLUME PRESSAVG GPRESSAVG
ENERGY: 0 7.8319 3.4297 1.5788 0.0000 -10709.3048 1352.5029 0.0000 0.0000 1811.8588 -7532.1028 304.4303 -9343.9616 -7532.1028 304.4303 -870.3662 -801.9755 30677.8937 -870.3662 -801.9755
ENERGY: 300000 4.9523 5.6701 4.6820 0.0000 -10807.4645 1482.6431 0.0000 0.0000 1764.2123 -7545.3048 296.4247 -9309.5171 -7539.9384 300.6188 623.4437 679.4593 30533.0857 -332.3771 -275.5954
ENERGY: 600000 5.7766 3.4810 2.2734 0.0000 -10794.7095 1414.8854 0.0000 0.0000 1824.5027 -7543.7904 306.5548 -9368.2930 -7534.0369 301.9093 -150.2283 -70.3116 30579.0437 -229.9814 -162.3954
ENERGY: 900000 2.6913 2.7169 1.9899 0.0000 -10712.6744 1338.7733 0.0000 0.0000 1826.2735 -7540.2294 306.8523 -9366.5030 -7562.5441 300.4494 -973.0315 -937.4426 30829.8891 -250.6210 -187.8463
ENERGY: 1200000 1.8425 4.6795 3.4750 0.0000 -10914.8421 1516.8482 0.0000 0.0000 1801.8106 -7586.1863 302.7420 -9387.9970 -7559.2767 300.9825 587.5972 621.5489 30597.1446 -232.8220 -175.8773
ENERGY: 1500000 1.9130 7.4229 5.7960 0.0000 -10807.0385 1443.4724 0.0000 0.0000 1847.2788 -7501.1555 310.3816 -9348.4343 -7560.6761 301.4965 -234.7675 -150.4272 30800.9410 -169.9982 -112.4798
TCL: Running FEP window  13: Lambda1 0.39999999999999963 Lambda2 0.34999999999999964 [dLambda -0.04999999999999999]
TCL: Setting parameter firsttimestep to 0
TCL: Setting parameter alchLambda to 0.39999999999999963
Info: NONBONDED TABLE R-SQUARED SPACING: 0.0625
Info: NONBONDED TABLE SIZE: 705 POINTS
TCL: Setting parameter alchLambda2 to 0.34999999999999964
Info: NONBONDED TABLE R-SQUARED SPACING: 0.0625
Info: NONBONDED TABLE SIZE: 705 POINTS
TCL: Running for 1500000 steps
ETITLE: TS BOND ANGLE DIHED IMPRP ELECT VDW BOUNDARY MISC KINETIC TOTAL TEMP POTENTIAL TOTALAVG TEMPAVG PRESSURE GPRESSURE VOLUME PRESSAVG GPRESSAVG
ENERGY: 0 1.9130 7.4229 5.7960 0.0000 -10807.0373 1444.0499 0.0000 0.0000 1846.3749 -7501.4807 310.2298 -9347.8556 -7501.4807 310.2298 -213.0870 -147.6982 30800.9410 -213.0870 -147.6982
ENERGY: 300000 0.9302 8.4251 2.6446 0.0000 -10829.3792 1460.9067 0.0000 0.0000 1773.9858 -7582.4868 298.0669 -9356.4727 -7549.5617 304.8568 -235.7725 -179.5374 31083.2030 14.5104 77.9363
ENERGY: 600000 4.0285 6.0594 2.1360 0.0000 -10849.0480 1501.7033 0.0000 0.0000 1756.7943 -7578.3266 295.1783 -9335.1208 -7563.7692 300.9576 344.8641 379.2775 30602.4426 97.8006 163.6221
ENERGY: 900000 1.6454 5.2185 2.2295 0.0000 -10894.7231 1533.2593 0.0000 0.0000 1798.8805 -7553.4899 302.2497 -9352.3704 -7564.4579 300.9874 612.3763 659.5067 30646.6376 169.9784 230.0481
ENERGY: 1200000 2.3634 9.2018 2.1152 0.0000 -10884.9898 1516.0897 0.0000 0.0000 1788.5633 -7566.6563 300.5162 -9355.2197 -7560.2388 301.2151 403.4567 459.6081 30752.2543 140.3657 202.8278
ENERGY: 1500000 5.5761 4.2754 4.6701 0.0000 -10870.3658 1461.3277 0.0000 0.0000 1758.7457 -7635.7709 295.5062 -9394.5166 -7567.6679 300.3529 -85.6926 -3.6122 30373.3428 99.3395 165.3457
TCL: Running FEP window  14: Lambda1 0.34999999999999964 Lambda2 0.29999999999999966 [dLambda -0.04999999999999999]
TCL: Setting parameter firsttimestep to 0
TCL: Setting parameter alchLambda to 0.34999999999999964
Info: NONBONDED TABLE R-SQUARED SPACING: 0.0625
Info: NONBONDED TABLE SIZE: 705 POINTS
TCL: Setting parameter alchLambda2 to 0.29999999999999966
Info: NONBONDED TABLE R-SQUARED SPACING: 0.0625
Info: NONBONDED TABLE SIZE: 705 POINTS
TCL: Running for 1500000 steps
ETITLE: TS BOND ANGLE DIHED IMPRP ELECT VDW BOUNDARY MISC KINETIC TOTAL TEMP POTENTIAL TOTALAVG TEMPAVG PRESSURE GPRESSURE VOLUME PRESSAVG GPRESSAVG
ENERGY: 0 5.5761 4.2754 4.6701 0.0000 -10870.3660 1460.8343 0.0000 0.0000 1757.8065 -7637.2037 295.3484 -9395.0101 -7637.2037 295.3484 -98.9494 -12.7573 30373.3428 -98.9494 -12.7573
ENERGY: 300000 1.3145 8.1122 2.4391 0.0000 -10786.8786 1397.9308 0.0000 0.0000 1786.7178 -7590.3643 300.2061 -9377.0821 -7583.3161 299.5228 -545.1586 -464.1880 30586.4624 -242.6236 -156.4494
ENERGY: 600000 2.2282 4.5470 3.4709 0.0000 -10906.1751 1495.5016 0.0000 0.0000 1795.3010 -7605.1264 301.6483 -9400.4273 -7571.7174 301.5510 367.0825 419.2542 30582.2475 -313.0859 -233.4271
ENERGY: 900000 1.6368 3.4583 2.1136 0.0000 -10867.9556 1447.8748 0.0000 0.0000 1766.5549 -7646.3172 296.8183 -9412.8721 -7580.7315 300.3203 -444.3608 -405.9518 30928.6461 -303.6537 -233.1775
ENERGY: 1200000 2.0011 5.2587 3.1717 0.0000 -10840.3350 1497.8781 0.0000 0.0000 1754.1262 -7577.8991 294.7300 -9332.0253 -7576.6204 299.4847 446.9305 542.7922 30492.2150 -255.4327 -184.9751
ENERGY: 1500000 2.3173 7.0777 1.3624 0.0000 -10687.7361 1397.1247 0.0000 0.0000 1734.3907 -7545.4632 291.4141 -9279.8540 -7570.4007 299.0055 -2.2186 61.4397 30146.3621 -176.5892 -107.9768
TCL: Running FEP window  15: Lambda1 0.29999999999999966 Lambda2 0.24999999999999967 [dLambda -0.04999999999999999]
TCL: Setting parameter firsttimestep to 0
TCL: Setting parameter alchLambda to 0.29999999999999966
Info: NONBONDED TABLE R-SQUARED SPACING: 0.0625
Info: NONBONDED TABLE SIZE: 705 POINTS
TCL: Setting parameter alchLambda2 to 0.24999999999999967
Info: NONBONDED TABLE R-SQUARED SPACING: 0.0625
Info: NONBONDED TABLE SIZE: 705 POINTS
TCL: Running for 1500000 steps
ETITLE: TS BOND ANGLE DIHED IMPRP ELECT VDW BOUNDARY MISC KINETIC TOTAL TEMP POTENTIAL TOTALAVG TEMPAVG PRESSURE GPRESSURE VOLUME PRESSAVG GPRESSAVG
ENERGY: 0 2.3173 7.0777 1.3624 0.0000 -10687.7362 1397.6239 0.0000 0.0000 1733.4897 -7545.8651 291.2627 -9279.3548 -7545.8651 291.2627 -23.4921 60.5383 30146.3621 -23.4921 60.5383
ENERGY: 300000 4.2911 4.5821 1.6885 0.0000 -10844.3950 1430.6572 0.0000 0.0000 1751.6648 -7651.5112 294.3165 -9403.1760 -7580.1024 299.4706 -587.6097 -484.5985 30914.2286 -271.1061 -202.5673
ENERGY: 600000 2.9662 5.3258 1.3093 0.0000 -10619.3858 1348.5094 0.0000 0.0000 1792.0195 -7469.2555 301.0969 -9261.2750 -7556.2817 302.5367 -571.6683 -530.0706 30737.3104 -245.1744 -186.8648
ENERGY: 900000 0.8007 8.5485 3.8096 0.0000 -10874.7036 1488.2576 0.0000 0.0000 1792.6047 -7580.6826 301.1952 -9373.2873 -7565.4956 302.0265 231.5581 343.2637 30496.1227 -102.8424 -40.3975
ENERGY: 1200000 2.7445 4.0907 0.9811 0.0000 -10945.4621 1464.5795 0.0000 0.0000 1786.8783 -7686.1880 300.2331 -9473.0663 -7581.9918 301.5231 -258.2588 -236.0275 30466.6232 21.7538 80.8498
ENERGY: 1500000 5.4111 7.1276 1.6904 0.0000 -10844.2979 1484.5391 0.0000 0.0000 1839.3640 -7506.1658 309.0518 -9345.5297 -7576.1495 301.5313 -116.7544 -3.4772 30937.9554 46.5400 109.6109
TCL: Running FEP window  16: Lambda1 0.24999999999999967 Lambda2 0.19999999999999968 [dLambda -0.04999999999999999]
TCL: Setting parameter firsttimestep to 0
TCL: Setting parameter alchLambda to 0.24999999999999967
Info: NONBONDED TABLE R-SQUARED SPACING: 0.0625
Info: NONBONDED TABLE SIZE: 705 POINTS
TCL: Setting parameter alchLambda2 to 0.19999999999999968
Info: NONBONDED TABLE R-SQUARED SPACING: 0.0625
Info: NONBONDED TABLE SIZE: 705 POINTS
TCL: Running for 1500000 steps
ETITLE: TS BOND ANGLE DIHED IMPRP ELECT VDW BOUNDARY MISC KINETIC TOTAL TEMP POTENTIAL TOTALAVG TEMPAVG PRESSURE GPRESSURE VOLUME PRESSAVG GPRESSAVG
ENERGY: 0 5.4111 7.1276 1.6904 0.0000 -10844.2977 1484.9508 0.0000 0.0000 1838.4997 -7506.6182 308.9065 -9345.1179 -7506.6182 308.9065 -83.1313 -3.3588 30937.9554 -83.1313 -3.3588
ENERGY: 300000 3.8124 4.7887 1.6381 0.0000 -10819.9964 1509.2592 0.0000 0.0000 1753.7654 -7546.7326 294.6694 -9300.4981 -7574.1669 299.4208 352.6049 377.9315 30983.2696 99.2111 138.4186
ENERGY: 600000 2.8658 9.9408 6.3542 0.0000 -10941.4645 1524.8249 0.0000 0.0000 1772.7067 -7624.7722 297.8520 -9397.4789 -7576.1322 298.4941 608.6428 629.4293 30639.9594 322.2353 373.5357
ENERGY: 900000 2.8707 9.2058 2.8747 0.0000 -10747.3137 1427.0867 0.0000 0.0000 1766.1744 -7539.1014 296.7544 -9305.2758 -7558.1424 299.1704 -182.2685 -135.5445 30771.1644 199.2138 240.0983
ENERGY: 1200000 0.9943 2.3786 2.3746 0.0000 -10953.3533 1546.2251 0.0000 0.0000 1817.4109 -7583.9699 305.3632 -9401.3808 -7560.1700 299.3137 567.8792 592.1449 30704.0264 203.7011 249.2739
ENERGY: 1500000 2.1658 7.3674 2.7380 0.0000 -10926.5583 1521.6570 0.0000 0.0000 1780.5283 -7612.1019 299.1661 -9392.6302 -7561.8850 299.9650 350.4205 445.1399 30552.1269 200.5690 246.1884
TCL: Running FEP window  17: Lambda1 0.19999999999999968 Lambda2 0.1499999999999997 [dLambda -0.04999999999999999]
TCL: Setting parameter firsttimestep to 0
TCL: Setting parameter alchLambda to 0.19999999999999968
Info: NONBONDED TABLE R-SQUARED SPACING: 0.0625
Info: NONBONDED TABLE SIZE: 705 POINTS
TCL: Setting parameter alchLambda2 to 0.1499999999999997
Info: NONBONDED TABLE R-SQUARED SPACING: 0.0625
Info: NONBONDED TABLE SIZE: 705 POINTS
TCL: Running for 1500000 steps
ETITLE: TS BOND ANGLE DIHED IMPRP ELECT VDW BOUNDARY MISC KINETIC TOTAL TEMP POTENTIAL TOTALAVG TEMPAVG PRESSURE GPRESSURE VOLUME PRESSAVG GPRESSAVG
ENERGY: 0 2.1658 7.3674 2.7380 0.0000 -10926.5577 1521.9575 0.0000 0.0000 1779.6387 -7612.6903 299.0167 -9392.3290 -7612.6903 299.0167 351.6744 442.4185 30552.1269 351.6744 442.4185
ENERGY: 300000 0.7745 5.8443 1.7661 0.0000 -10926.4975 1577.9301 0.0000 0.0000 1789.0979 -7551.0845 300.6060 -9340.1824 -7585.3072 300.4674 804.4077 912.9344 30750.0447 278.9728 383.0740
ENERGY: 600000 1.1489 4.7293 0.8950 0.0000 -10550.2342 1328.7384 0.0000 0.0000 1813.3215 -7401.4011 304.6761 -9214.7226 -7532.1356 303.6243 -980.0725 -869.6895 31508.7821 -204.0977 -101.5848
ENERGY: 900000 2.3669 3.5848 1.5541 0.0000 -10835.4972 1476.6757 0.0000 0.0000 1818.1027 -7533.2130 305.4794 -9351.3156 -7549.4627 302.7700 146.8276 235.7016 30726.6660 -33.4568 55.4031
ENERGY: 1200000 3.8343 3.9669 1.0570 0.0000 -10733.8408 1365.2642 0.0000 0.0000 1788.5139 -7571.2045 300.5079 -9359.7184 -7545.5455 302.0427 -1035.7933 -998.0092 31186.0329 -134.6790 -56.3965
ENERGY: 1500000 4.0051 9.1028 4.6604 0.0000 -10735.2958 1375.5452 0.0000 0.0000 1712.9715 -7629.0108 287.8152 -9341.9823 -7559.1406 300.1153 -1124.5668 -1032.5866 31292.4791 -192.6509 -114.6073
TCL: Running FEP window  18: Lambda1 0.1499999999999997 Lambda2 0.09999999999999969 [dLambda -0.05 ]
TCL: Setting parameter firsttimestep to 0
TCL: Setting parameter alchLambda to 0.1499999999999997
Info: NONBONDED TABLE R-SQUARED SPACING: 0.0625
Info: NONBONDED TABLE SIZE: 705 POINTS
TCL: Setting parameter alchLambda2 to 0.09999999999999969
Info: NONBONDED TABLE R-SQUARED SPACING: 0.0625
Info: NONBONDED TABLE SIZE: 705 POINTS
TCL: Running for 1500000 steps
ETITLE: TS BOND ANGLE DIHED IMPRP ELECT VDW BOUNDARY MISC KINETIC TOTAL TEMP POTENTIAL TOTALAVG TEMPAVG PRESSURE GPRESSURE VOLUME PRESSAVG GPRESSAVG
ENERGY: 0 4.0051 9.1028 4.6604 0.0000 -10735.2958 1375.6499 0.0000 0.0000 1712.1256 -7629.7521 287.6730 -9341.8777 -7629.7521 287.6730 -1110.0380 -1033.5522 31292.4791 -1110.0380 -1033.5522
ENERGY: 300000 1.5858 5.4915 3.3487 0.0000 -10874.7573 1516.8434 0.0000 0.0000 1786.1814 -7561.3065 300.1160 -9347.4880 -7577.0781 296.8688 604.8892 628.0776 30449.4775 -228.5149 -171.8460
ENERGY: 600000 2.3996 8.4571 2.5126 0.0000 -10668.9235 1400.6878 0.0000 0.0000 1759.6082 -7495.2582 295.6511 -9254.8663 -7565.3631 296.7562 -335.0696 -298.4974 30992.6343 -180.1147 -132.5758
ENERGY: 900000 3.2503 7.4218 1.2902 0.0000 -11007.4607 1598.5114 0.0000 0.0000 1797.6757 -7599.3112 302.0473 -9396.9868 -7573.3769 297.6475 1085.7235 1103.9321 30243.9517 -63.3435 -15.6207
ENERGY: 1200000 2.2964 8.3314 2.5017 0.0000 -10948.0178 1498.5686 0.0000 0.0000 1717.6910 -7718.6287 288.6082 -9436.3197 -7583.2011 297.7717 -84.3759 10.0188 30376.0873 -57.8620 -5.5310
ENERGY: 1500000 5.0652 5.8642 2.8625 0.0000 -10614.8026 1365.8286 0.0000 0.0000 1758.4020 -7476.7802 295.4485 -9235.1822 -7570.7190 298.5090 -364.1468 -340.7428 30667.4260 -210.0064 -155.8800
TCL: Running FEP window  19: Lambda1 0.09999999999999969 Lambda2 0.049999999999999684 [dLambda -0.05 ]
TCL: Setting parameter firsttimestep to 0
TCL: Setting parameter alchLambda to 0.09999999999999969
Info: NONBONDED TABLE R-SQUARED SPACING: 0.0625
Info: NONBONDED TABLE SIZE: 705 POINTS
TCL: Setting parameter alchLambda2 to 0.049999999999999684
Info: NONBONDED TABLE R-SQUARED SPACING: 0.0625
Info: NONBONDED TABLE SIZE: 705 POINTS
TCL: Running for 1500000 steps
ETITLE: TS BOND ANGLE DIHED IMPRP ELECT VDW BOUNDARY MISC KINETIC TOTAL TEMP POTENTIAL TOTALAVG TEMPAVG PRESSURE GPRESSURE VOLUME PRESSAVG GPRESSAVG
ENERGY: 0 5.0652 5.8642 2.8625 0.0000 -10614.8032 1365.6734 0.0000 0.0000 1757.5056 -7477.8323 295.2978 -9235.3379 -7477.8323 295.2978 -416.6861 -345.2239 30667.4260 -416.6861 -345.2239
ENERGY: 300000 3.3317 6.4857 3.6094 0.0000 -10957.9988 1523.7347 0.0000 0.0000 1776.3281 -7644.5091 298.4604 -9420.8372 -7577.8389 295.5345 123.9834 258.3732 30555.0769 -214.0529 -138.1226
ENERGY: 600000 3.0181 9.1561 5.4349 0.0000 -10846.3257 1474.4530 0.0000 0.0000 1781.8329 -7572.4307 299.3853 -9354.2635 -7603.4097 296.7847 -17.7445 29.1472 30557.0025 -184.8897 -109.6182
ENERGY: 900000 4.3292 5.9692 3.0732 0.0000 -10966.3087 1554.3598 0.0000 0.0000 1824.0178 -7574.5595 306.4733 -9398.5773 -7603.7991 298.4570 711.0971 728.0565 30390.7000 -78.0979 -8.5820
ENERGY: 1200000 0.9419 4.8721 3.0402 0.0000 -11060.5995 1613.0703 0.0000 0.0000 1766.7100 -7671.9650 296.8444 -9438.6750 -7605.0994 298.4930 891.6557 938.9215 30681.8525 -64.4677 0.8224
ENERGY: 1500000 1.7921 6.6399 3.9819 0.0000 -10838.1343 1475.2742 0.0000 0.0000 1825.5474 -7524.8988 306.7303 -9350.4462 -7593.2146 299.2997 296.5488 388.4778 30378.7072 3.5368 66.3417
TCL: Running FEP window  20: Lambda1 0.049999999999999684 Lambda2 0.0    [dLambda -0.049999999999999684]
TCL: Setting parameter firsttimestep to 0
TCL: Setting parameter alchLambda to 0.049999999999999684
Info: NONBONDED TABLE R-SQUARED SPACING: 0.0625
Info: NONBONDED TABLE SIZE: 705 POINTS
TCL: Setting parameter alchLambda2 to 0.0
Info: NONBONDED TABLE R-SQUARED SPACING: 0.0625
Info: NONBONDED TABLE SIZE: 705 POINTS
TCL: Running for 1500000 steps
ETITLE: TS BOND ANGLE DIHED IMPRP ELECT VDW BOUNDARY MISC KINETIC TOTAL TEMP POTENTIAL TOTALAVG TEMPAVG PRESSURE GPRESSURE VOLUME PRESSAVG GPRESSAVG
ENERGY: 0 1.7921 6.6399 3.9819 0.0000 -10838.1346 1475.4819 0.0000 0.0000 1824.6833 -7525.5555 306.5851 -9350.2388 -7525.5555 306.5851 308.1963 390.7699 30378.7072 308.1963 390.7699
ENERGY: 300000 1.7448 5.9301 1.6983 0.0000 -10743.5352 1384.6553 0.0000 0.0000 1786.9446 -7562.5621 300.2442 -9349.5066 -7591.0629 301.9371 -495.3752 -460.9884 30383.9081 -56.0299 -15.8592
ENERGY: 600000 5.0978 7.9238 2.1796 0.0000 -10945.6740 1543.2274 0.0000 0.0000 1801.4292 -7585.8161 302.6779 -9387.2453 -7598.7718 300.1557 710.7990 787.5838 30032.0802 97.3084 154.7145
ENERGY: 900000 1.8544 6.1184 3.7149 0.0000 -10771.2009 1423.5444 0.0000 0.0000 1754.8968 -7581.0720 294.8595 -9335.9688 -7594.8443 298.0810 -140.1018 -38.9196 30484.6237 -2.3541 70.1099
ENERGY: 1200000 1.7469 5.5674 2.3909 0.0000 -10799.5346 1405.7870 0.0000 0.0000 1800.6390 -7583.4035 302.5452 -9384.0425 -7595.6288 299.1965 -558.1508 -470.7758 30480.1411 34.0941 100.3545
ENERGY: 1500000 3.6922 6.5838 3.6151 0.0000 -10723.7635 1415.2835 0.0000 0.0000 1756.6422 -7537.9467 295.1528 -9294.5889 -7585.2659 299.2883 -351.9233 -280.3814 30530.8454 -46.2336 26.4158
TCL: Exiting due to exit command.
