Info: SIMULATION PARAMETERS:
Info: TIMESTEP               2
Info: NUMBER OF STEPS        0
Info: STEPS PER CYCLE        10
Info: PERIODIC CELL BASIS 1  32.5444 0 0
Info: PERIODIC CELL BASIS 2  0 33.9432 0
Info: PERIODIC CELL BASIS 3  0 0 27.4752
Info: PERIODIC CELL CENTER   0 0 0
Info: WRAPPING WATERS AROUND PERIODIC BOUNDARIES ON OUTPUT.
Info: WRAPPING ALL CLUSTERS AROUND PERIODIC BOUNDARIES ON OUTPUT.
Info: FIRST LDB TIMESTEP     50
Info: LAST LDB TIMESTEP     -1
Info: HOM BACKGROUND SCALING 1
Info: PME BACKGROUND SCALING 1
Info: MIN ATOMS PER PATCH    40
Info: EMPTY PATCH LOAD       40 ATOMS
Info: VELOCITY FILE          mobley_3976574_equil.vel
Info: CENTER OF MASS MOVING INITIALLY? NO
Info: DIELECTRIC             1
Info: EXCLUDE                SCALED ONE-FOUR
Info: 1-4 ELECTROSTATICS SCALED BY 0.833333
Info: MODIFIED 1-4 VDW PARAMETERS WILL BE USED
Info: DCD FILENAME           mobley_3976574_prod.dcd
Info: DCD FREQUENCY          100000
Info: DCD FIRST STEP         100000
Info: DCD FILE WILL CONTAIN UNIT CELL DATA
Info: XST FILENAME           mobley_3976574_prod.xst
Info: XST FREQUENCY          100000
Info: NO VELOCITY DCD OUTPUT
Info: NO FORCE DCD OUTPUT
Info: OUTPUT FILENAME        mobley_3976574_prod
Info: BINARY OUTPUT FILES WILL BE USED
Info: RESTART FILENAME       mobley_3976574_prod.restart
Info: RESTART FREQUENCY      100000
Info: BINARY RESTART FILES WILL BE USED
Info: CUTOFF                 9
Info: PAIRLIST DISTANCE      11
Info: PAIRLIST SHRINK RATE   0.01
Info: PAIRLIST GROW RATE     0.01
Info: PAIRLIST TRIGGER       0.3
Info: PAIRLISTS PER CYCLE    2
Info: PAIRLISTS ENABLED
Info: MARGIN                 2
Info: HYDROGEN GROUP CUTOFF  2.5
Info: PATCH DIMENSION        15.5
Info: ENERGY OUTPUT STEPS    100000
Info: ENERGY EVALUATION STEPS    100000
Info: OUTPUT ENERGY PRECISION 4
Info: CROSSTERM ENERGY INCLUDED IN DIHEDRAL
Info: TIMING OUTPUT STEPS    1000000
Info: PRESSURE OUTPUT STEPS  100000
Info: ALCHEMICAL FEP ON
Info: FEP CURRENT LAMBDA VALUE     0
Info: FEP COMPARISON LAMBDA VALUE  0.05
Info: FEP INTRA-ALCHEMICAL NON-BONDED INTERACTIONS WILL BE RETAINED
Info: FEP INTRA-ALCHEMICAL BONDED INTERACTIONS WILL BE RETAINED
Info: FEP VDW SHIFTING COEFFICIENT 5
Info: FEP ELEC. ACTIVE FOR ANNIHILATED PARTICLES BETWEEN LAMBDA = 0 AND LAMBDA = 0.5
Info: FEP ELEC. ACTIVE FOR EXNIHILATED PARTICLES BETWEEN LAMBDA = 0.5 AND LAMBDA = 1
Info: FEP VDW ACTIVE FOR ANNIHILATED PARTICLES BETWEEN LAMBDA = 0 AND LAMBDA = 1
Info: FEP VDW ACTIVE FOR EXNIHILATED PARTICLES BETWEEN LAMBDA = 0 AND LAMBDA = 1
Info: FEP BOND ACTIVE FOR ANNIHILATED PARTICLES BETWEEN LAMBDA = 1 AND LAMBDA = 1
Info: FEP BOND ACTIVE FOR EXNIHILATED PARTICLES BETWEEN LAMBDA = 0 AND LAMBDA = 0
Info: LANGEVIN DYNAMICS ACTIVE
Info: LANGEVIN TEMPERATURE   300
Info: LANGEVIN USING BBK INTEGRATOR
Info: LANGEVIN DAMPING COEFFICIENT IS 1 INVERSE PS
Info: LANGEVIN DYNAMICS APPLIED TO HYDROGENS
Info: LANGEVIN PISTON PRESSURE CONTROL ACTIVE
Info:        TARGET PRESSURE IS 1.01325 BAR
Info:     OSCILLATION PERIOD IS 50 FS
Info:             DECAY TIME IS 25 FS
Info:     PISTON TEMPERATURE IS 300 K
Info:       PRESSURE CONTROL IS GROUP-BASED
Info:    INITIAL STRAIN RATE IS -0.000375353 -0.000375353 -0.000375353
Info:       CELL FLUCTUATION IS ISOTROPIC
Info: PARTICLE MESH EWALD (PME) ACTIVE
Info: PME TOLERANCE               1e-06
Info: PME EWALD COEFFICIENT       0.348832
Info: PME INTERPOLATION ORDER     4
Info: PME GRID DIMENSIONS         36 36 28
Info: PME MAXIMUM GRID SPACING    1
Info: PME CALCULATION WILL BE PERFORMED ON GPU
Info: FULL ELECTROSTATIC EVALUATION FREQUENCY      2
Info: USING VERLET I (r-RESPA) MTS SCHEME.
Info: C1 SPLITTING OF LONG RANGE ELECTROSTATICS
Info: PLACING ATOMS IN PATCHES BY HYDROGEN GROUPS
Info: RIGID BONDS TO HYDROGEN : ALL
Info:         ERROR TOLERANCE : 1e-08
Info:          MAX ITERATIONS : 100
Info: RIGID WATER USING SETTLE ALGORITHM
Info: RANDOM NUMBER SEED     1743632158
Info: USE HYDROGEN BONDS?    NO
Info: Using AMBER format force field!
Info: AMBER PARM FILE        mobley_3976574.prmtop
Info: COORDINATE PDB         mobley_3976574.pdb
Info: Exclusions will be read from PARM file!
Info: SCNB (VDW SCALING)     2
Info: USING ARITHMETIC MEAN TO COMBINE L-J SIGMA PARAMETERS
Info: BINARY COORDINATES     mobley_3976574_equil.coor
Info: SUMMARY OF PARAMETERS:
Info: 6 BONDS
Info: 5 ANGLES
Info:   5 HARMONIC
Info:   0 COSINE-BASED
Info: 3 DIHEDRAL
Info: 0 IMPROPER
Info: 0 CROSSTERM
Info: 0 VDW
Info: 21 VDW_PAIRS
Info: 0 NBTHOLE_PAIRS
Info: To read alchdata from file: mobley_3976574.pdb
Info: To read alchflag data from column: 5
Info: STRUCTURE SUMMARY:
Info: 2989 ATOMS
Info: 2991 BONDS
Info: 38 ANGLES
Info: 68 DIHEDRALS
Info: 0 IMPROPERS
Info: 0 CROSSTERMS
Info: 3076 EXCLUSIONS
Info: 2970 RIGID BONDS
Info: ALCH: 0 ATOMS TO DISAPPEAR IN FINAL STATE
Info: ALCH: 22 ATOMS TO APPEAR IN FINAL STATE
Info: 5997 DEGREES OF FREEDOM
Info: 1008 HYDROGEN GROUPS
Info: 3 ATOMS IN LARGEST HYDROGEN GROUP
Info: 1008 MIGRATION GROUPS
Info: 3 ATOMS IN LARGEST MIGRATION GROUP
Info: TOTAL MASS = 18174.2 amu
Info: TOTAL CHARGE = -9.99793e-05 e
Info: MASS DENSITY = 0.994365 g/cm^3
Info: ATOM DENSITY = 0.0984819 atoms/A^3
Info: ADDED 0 IMPLICIT EXCLUSIONS
Info: NONBONDED TABLE R-SQUARED SPACING: 0.0625
Info: NONBONDED TABLE SIZE: 705 POINTS
Info: REDUCING NUMBER OF PATCHES TO IMPROVE LOAD BALANCE
Info: REMOVING COM VELOCITY 0.00276086 -0.0609681 -0.0467724
Info: Use 3D box decompostion in PME FFT.
Info: Updated CUDA force table with 4096 elements.
Info: Updated CUDA LJ table with 6 x 6 elements.
Info: Found 24 unique exclusion lists needing 68 bytes
TCL: Running for 1500000 steps
ETITLE: TS BOND ANGLE DIHED IMPRP ELECT VDW BOUNDARY MISC KINETIC TOTAL TEMP POTENTIAL TOTALAVG TEMPAVG PRESSURE GPRESSURE VOLUME PRESSAVG GPRESSAVG
ENERGY: 0 4.5077 3.9261 3.3989 0.0000 -10863.5574 1547.4871 0.0000 0.0000 1793.2154 -7511.0222 300.9462 -9304.2377 -7511.0222 300.9462 837.3157 922.2062 30350.7448 837.3157 922.2062
ENERGY: 300000 8.5831 3.7595 7.0568 0.0000 -10728.5536 1391.8528 0.0000 0.0000 1747.0080 -7570.2935 293.1914 -9317.3016 -7555.1700 296.9511 -649.7586 -584.3953 30591.6367 -104.5042 -29.9707
ENERGY: 600000 7.4589 4.4077 5.8245 0.0000 -10646.9912 1416.2530 0.0000 0.0000 1797.5903 -7415.4568 301.6804 -9213.0472 -7497.5455 299.6244 -3.8945 2.2884 30768.8181 -78.5921 -19.2566
ENERGY: 900000 7.0088 2.7816 6.3425 0.0000 -10722.5738 1403.5050 0.0000 0.0000 1722.4583 -7580.4775 289.0714 -9302.9359 -7531.6586 297.6739 -305.9976 -201.9343 30376.1894 -81.7545 -28.5844
ENERGY: 1200000 6.4187 3.0686 5.2591 0.0000 -10771.6673 1425.2466 0.0000 0.0000 1823.6958 -7507.9784 306.0615 -9331.6742 -7533.4227 298.6912 -431.0154 -361.9903 30586.5877 -88.1529 -32.8703
ENERGY: 1500000 8.4212 3.8631 5.7081 0.0000 -10733.7662 1439.0529 0.0000 0.0000 1759.5568 -7517.1640 295.2974 -9276.7208 -7539.0019 298.6230 -306.3601 -284.1084 30672.8821 -87.4072 -29.8175
TCL: Running FEP window   2: Lambda1 0.05   Lambda2 0.1    [dLambda 0.05  ]
TCL: Setting parameter firsttimestep to 0
TCL: Setting parameter alchLambda to 0.05
Info: NONBONDED TABLE R-SQUARED SPACING: 0.0625
Info: NONBONDED TABLE SIZE: 705 POINTS
TCL: Setting parameter alchLambda2 to 0.1
Info: NONBONDED TABLE R-SQUARED SPACING: 0.0625
Info: NONBONDED TABLE SIZE: 705 POINTS
TCL: Running for 1500000 steps
ETITLE: TS BOND ANGLE DIHED IMPRP ELECT VDW BOUNDARY MISC KINETIC TOTAL TEMP POTENTIAL TOTALAVG TEMPAVG PRESSURE GPRESSURE VOLUME PRESSAVG GPRESSAVG
ENERGY: 0 8.4212 3.8631 5.7081 0.0000 -10733.7655 1449.6545 0.0000 0.0000 1758.6793 -7507.4392 295.1501 -9266.1185 -7507.4392 295.1501 -342.1115 -263.3459 30672.8821 -342.1115 -263.3459
ENERGY: 300000 8.4438 5.1305 7.7278 0.0000 -10864.5166 1467.8308 0.0000 0.0000 1785.4294 -7589.9543 299.6395 -9375.3837 -7505.7671 297.7602 277.9934 352.6906 30101.6098 -27.4552 31.7357
ENERGY: 600000 7.6704 6.3494 7.7652 0.0000 -10981.0768 1593.7738 0.0000 0.0000 1731.2689 -7634.2491 290.5500 -9365.5180 -7530.2651 296.8337 793.9429 902.5678 30310.0605 -43.8664 13.0062
ENERGY: 900000 8.4316 5.1905 6.8366 0.0000 -10860.7885 1498.6502 0.0000 0.0000 1777.1227 -7564.5568 298.2454 -9341.6795 -7533.4423 298.4594 -16.5828 157.5469 30489.7572 -9.1909 57.6345
ENERGY: 1200000 8.6292 6.3564 9.0339 0.0000 -10876.3136 1494.0645 0.0000 0.0000 1791.6811 -7566.5483 300.6887 -9358.2294 -7533.7476 299.4212 163.1959 276.9211 30227.5546 -64.4364 8.9136
ENERGY: 1500000 4.5231 6.2823 4.1707 0.0000 -10890.9887 1513.9132 0.0000 0.0000 1778.4164 -7583.6830 298.4625 -9362.0993 -7538.2714 299.5219 212.6126 269.3082 30650.5250 -95.0483 -21.4710
TCL: Running FEP window   3: Lambda1 0.1    Lambda2 0.15000000000000002 [dLambda 0.05000000000000002]
TCL: Setting parameter firsttimestep to 0
TCL: Setting parameter alchLambda to 0.1
Info: NONBONDED TABLE R-SQUARED SPACING: 0.0625
Info: NONBONDED TABLE SIZE: 705 POINTS
TCL: Setting parameter alchLambda2 to 0.15000000000000002
Info: NONBONDED TABLE R-SQUARED SPACING: 0.0625
Info: NONBONDED TABLE SIZE: 705 POINTS
TCL: Running for 1500000 steps
ETITLE: TS BOND ANGLE DIHED IMPRP ELECT VDW BOUNDARY MISC KINETIC TOTAL TEMP POTENTIAL TOTALAVG TEMPAVG PRESSURE GPRESSURE VOLUME PRESSAVG GPRESSAVG
ENERGY: 0 4.5231 6.2823 4.1707 0.0000 -10890.9879 1520.1845 0.0000 0.0000 1777.5538 -7578.2734 298.3178 -9355.8272 -7578.2734 298.3178 210.2296 293.3093 30650.5250 210.2296 293.3093
ENERGY: 300000 9.5982 2.6943 5.4724 0.0000 -10834.9431 1468.0355 0.0000 0.0000 1780.9429 -7568.1999 298.8865 -9349.1428 -7528.8798 298.8592 66.6139 122.3586 30308.4880 44.2959 108.1023
ENERGY: 600000 8.3199 8.2384 4.5132 0.0000 -10852.4545 1451.3487 0.0000 0.0000 1766.8751 -7613.1592 296.5256 -9380.0343 -7542.9572 297.6998 -125.0573 -36.4194 30229.7699 153.5651 215.6709
ENERGY: 900000 3.8728 4.9107 3.6645 0.0000 -10629.3660 1378.7454 0.0000 0.0000 1771.4454 -7466.7272 297.2926 -9238.1726 -7520.7931 299.2627 -452.6178 -385.1817 30614.4573 81.6565 147.3401
ENERGY: 1200000 3.4412 4.4465 7.1966 0.0000 -10805.1390 1493.0937 0.0000 0.0000 1807.6038 -7489.3572 303.3609 -9296.9610 -7525.2662 299.7262 218.6931 322.2880 30947.1752 53.7685 123.0098
ENERGY: 1500000 6.9193 6.8672 4.3110 0.0000 -10805.1752 1477.2684 0.0000 0.0000 1786.6407 -7523.1686 299.8427 -9309.8092 -7531.0770 299.8129 -30.0832 111.9588 30538.6339 41.6921 117.9651
TCL: Running FEP window   4: Lambda1 0.15000000000000002 Lambda2 0.2    [dLambda 0.04999999999999999]
TCL: Setting parameter firsttimestep to 0
TCL: Setting parameter alchLambda to 0.15000000000000002
Info: NONBONDED TABLE R-SQUARED SPACING: 0.0625
Info: NONBONDED TABLE SIZE: 705 POINTS
TCL: Setting parameter alchLambda2 to 0.2
Info: NONBONDED TABLE R-SQUARED SPACING: 0.0625
Info: NONBONDED TABLE SIZE: 705 POINTS
TCL: Running for 1500000 steps
ETITLE: TS BOND ANGLE DIHED IMPRP ELECT VDW BOUNDARY MISC KINETIC TOTAL TEMP POTENTIAL TOTALAVG TEMPAVG PRESSURE GPRESSURE VOLUME PRESSAVG GPRESSAVG
ENERGY: 0 6.9193 6.8672 4.3110 0.0000 -10805.1760 1480.7402 0.0000 0.0000 1785.7778 -7520.5604 299.6979 -9306.3382 -7520.5604 299.6979 50.1733 128.8383 30538.6339 50.1733 128.8383
ENERGY: 300000 9.0802 6.5142 5.6630 0.0000 -10731.9451 1415.4389 0.0000 0.0000 1745.1399 -7550.1090 292.8779 -9295.2489 -7548.8911 298.1391 -330.8375 -257.5179 30397.6020 -111.0064 -49.2478
ENERGY: 600000 8.3291 8.1502 5.0238 0.0000 -10733.4018 1448.4176 0.0000 0.0000 1793.7349 -7469.7462 301.0333 -9263.4811 -7545.6340 297.4375 -451.8222 -339.2279 31214.8431 -306.9509 -245.5931
ENERGY: 900000 8.3646 5.4521 11.8717 0.0000 -10765.5146 1450.9323 0.0000 0.0000 1804.6265 -7484.2674 302.8612 -9288.8939 -7540.8318 299.7651 75.2884 139.4404 30599.5296 -276.6451 -202.4715
ENERGY: 1200000 7.1585 9.2086 6.7001 0.0000 -10675.6349 1425.9587 0.0000 0.0000 1718.9312 -7507.6777 288.4794 -9226.6089 -7539.3043 298.3713 -269.6578 -181.8897 31087.9685 -249.3913 -180.7987
ENERGY: 1500000 6.1787 5.9856 5.2708 0.0000 -11032.2154 1582.8392 0.0000 0.0000 1838.3775 -7593.5636 308.5255 -9431.9411 -7547.0204 298.4239 661.5663 718.5982 30209.7697 -136.2349 -71.3078
TCL: Running FEP window   5: Lambda1 0.2    Lambda2 0.25   [dLambda 0.04999999999999999]
TCL: Setting parameter firsttimestep to 0
TCL: Setting parameter alchLambda to 0.2
Info: NONBONDED TABLE R-SQUARED SPACING: 0.0625
Info: NONBONDED TABLE SIZE: 705 POINTS
TCL: Setting parameter alchLambda2 to 0.25
Info: NONBONDED TABLE R-SQUARED SPACING: 0.0625
Info: NONBONDED TABLE SIZE: 705 POINTS
TCL: Running for 1500000 steps
ETITLE: TS BOND ANGLE DIHED IMPRP ELECT VDW BOUNDARY MISC KINETIC TOTAL TEMP POTENTIAL TOTALAVG TEMPAVG PRESSURE GPRESSURE VOLUME PRESSAVG GPRESSAVG
ENERGY: 0 6.1787 5.9856 5.2708 0.0000 -11032.2157 1586.0998 0.0000 0.0000 1837.5122 -7591.1687 308.3803 -9428.6809 -7591.1687 308.3803 662.5301 743.5522 30209.7697 662.5301 743.5522
ENERGY: 300000 4.0054 7.4918 7.7825 0.0000 -10820.9519 1487.7566 0.0000 0.0000 1737.8598 -7576.0559 291.6561 -9313.9157 -7536.7203 302.9352 -1.0757 -37.6891 31321.1441 284.2014 327.1602
ENERGY: 600000 5.3199 5.2293 9.4130 0.0000 -10824.4595 1513.7964 0.0000 0.0000 1743.5973 -7547.1036 292.6190 -9290.7009 -7544.7311 301.2893 629.9891 664.6961 30807.5044 277.1959 320.1212
ENERGY: 900000 8.8830 3.9979 6.3602 0.0000 -10792.1182 1406.8518 0.0000 0.0000 1740.6054 -7625.4199 292.1169 -9366.0253 -7545.2622 298.9598 -787.6840 -694.9803 30829.2337 109.6797 165.4217
ENERGY: 1200000 4.5105 5.3143 4.8539 0.0000 -10950.6263 1542.7093 0.0000 0.0000 1767.1541 -7626.0842 296.5724 -9393.2383 -7553.1348 298.7587 347.0519 404.8714 30638.3269 73.6921 124.7681
ENERGY: 1500000 7.7072 3.9035 4.1784 0.0000 -10873.1375 1498.3551 0.0000 0.0000 1747.5805 -7611.4128 293.2875 -9358.9933 -7566.9282 297.8598 195.5787 236.1466 30367.8347 103.6781 160.9684
TCL: Running FEP window   6: Lambda1 0.25   Lambda2 0.3    [dLambda 0.04999999999999999]
TCL: Setting parameter firsttimestep to 0
TCL: Setting parameter alchLambda to 0.25
Info: NONBONDED TABLE R-SQUARED SPACING: 0.0625
Info: NONBONDED TABLE SIZE: 705 POINTS
TCL: Setting parameter alchLambda2 to 0.3
Info: NONBONDED TABLE R-SQUARED SPACING: 0.0625
Info: NONBONDED TABLE SIZE: 705 POINTS
TCL: Running for 1500000 steps
ETITLE: TS BOND ANGLE DIHED IMPRP ELECT VDW BOUNDARY MISC KINETIC TOTAL TEMP POTENTIAL TOTALAVG TEMPAVG PRESSURE GPRESSURE VOLUME PRESSAVG GPRESSAVG
ENERGY: 0 7.7072 3.9035 4.1784 0.0000 -10873.1369 1499.3159 0.0000 0.0000 1746.7207 -7611.3112 293.1432 -9358.0319 -7611.3112 293.1432 167.9885 249.2896 30367.8347 167.9885 249.2896
ENERGY: 300000 6.1734 3.2219 2.9711 0.0000 -10719.6637 1429.6698 0.0000 0.0000 1753.7268 -7523.9007 294.3190 -9277.6275 -7561.2652 297.4806 -197.9316 -121.1264 30890.7831 -74.3024 -11.1588
ENERGY: 600000 6.2031 6.9194 4.7352 0.0000 -10625.2991 1353.6191 0.0000 0.0000 1837.8389 -7415.9835 308.4351 -9253.8224 -7544.7370 300.5048 -650.9447 -529.3074 30467.3194 -102.9295 -46.5479
ENERGY: 900000 8.2133 5.2963 7.1187 0.0000 -10943.7748 1525.3253 0.0000 0.0000 1737.2444 -7660.5769 291.5528 -9397.8213 -7554.6801 299.2109 434.9011 418.6174 30546.8581 -70.2020 -16.8049
ENERGY: 1200000 12.1923 3.6914 6.5412 0.0000 -10822.5855 1516.3957 0.0000 0.0000 1789.5441 -7494.2207 300.3300 -9283.7649 -7550.8764 299.0315 178.9525 221.6758 30772.9917 -108.9923 -55.8689
ENERGY: 1500000 5.5919 4.4985 4.1177 0.0000 -10656.3494 1351.3623 0.0000 0.0000 1776.5411 -7514.2381 298.1478 -9290.7791 -7543.9528 298.5616 -895.7223 -756.6984 30433.4656 -204.9347 -147.7386
TCL: Running FEP window   7: Lambda1 0.3    Lambda2 0.35   [dLambda 0.04999999999999999]
TCL: Setting parameter firsttimestep to 0
TCL: Setting parameter alchLambda to 0.3
Info: NONBONDED TABLE R-SQUARED SPACING: 0.0625
Info: NONBONDED TABLE SIZE: 705 POINTS
TCL: Setting parameter alchLambda2 to 0.35
Info: NONBONDED TABLE R-SQUARED SPACING: 0.0625
Info: NONBONDED TABLE SIZE: 705 POINTS
TCL: Running for 1500000 steps
ETITLE: TS BOND ANGLE DIHED IMPRP ELECT VDW BOUNDARY MISC KINETIC TOTAL TEMP POTENTIAL TOTALAVG TEMPAVG PRESSURE GPRESSURE VOLUME PRESSAVG GPRESSAVG
ENERGY: 0 5.5919 4.4985 4.1177 0.0000 -10656.3495 1351.4704 0.0000 0.0000 1775.6663 -7515.0048 298.0010 -9290.6711 -7515.0048 298.0010 -834.4353 -745.9692 30433.4656 -834.4353 -745.9692
ENERGY: 300000 5.1042 3.8035 7.9766 0.0000 -10786.2916 1446.8710 0.0000 0.0000 1853.0844 -7469.4520 310.9937 -9322.5364 -7552.4100 298.2526 385.0679 448.7386 29963.8535 103.4707 195.1291
ENERGY: 600000 5.3855 3.9735 4.2684 0.0000 -10715.8045 1410.2786 0.0000 0.0000 1790.4090 -7501.4895 300.4752 -9291.8985 -7521.8488 301.0099 -328.5383 -290.6892 30744.6077 -37.7407 42.6488
ENERGY: 900000 7.5393 4.6808 7.9245 0.0000 -10759.3285 1443.3848 0.0000 0.0000 1812.1931 -7483.6059 304.1311 -9295.7991 -7517.0389 301.9915 -276.9263 -225.2656 30641.5607 -49.2166 20.8505
ENERGY: 1200000 8.3619 6.6863 8.8899 0.0000 -10835.6128 1435.4375 0.0000 0.0000 1774.9475 -7601.2897 297.8803 -9376.2372 -7526.6736 301.2026 -468.0704 -367.1934 30623.5757 -59.5287 14.3953
ENERGY: 1500000 3.2984 5.9239 5.7525 0.0000 -10852.7071 1546.0793 0.0000 0.0000 1812.1585 -7479.4946 304.1253 -9291.6530 -7520.2050 301.5762 853.9637 995.5702 30586.0943 -52.0739 23.9936
TCL: Running FEP window   8: Lambda1 0.35   Lambda2 0.39999999999999997 [dLambda 0.04999999999999999]
TCL: Setting parameter firsttimestep to 0
TCL: Setting parameter alchLambda to 0.35
Info: NONBONDED TABLE R-SQUARED SPACING: 0.0625
Info: NONBONDED TABLE SIZE: 705 POINTS
TCL: Setting parameter alchLambda2 to 0.39999999999999997
Info: NONBONDED TABLE R-SQUARED SPACING: 0.0625
Info: NONBONDED TABLE SIZE: 705 POINTS
TCL: Running for 1500000 steps
ETITLE: TS BOND ANGLE DIHED IMPRP ELECT VDW BOUNDARY MISC KINETIC TOTAL TEMP POTENTIAL TOTALAVG TEMPAVG PRESSURE GPRESSURE VOLUME PRESSAVG GPRESSAVG
ENERGY: 0 3.2984 5.9239 5.7525 0.0000 -10852.7058 1546.1849 0.0000 0.0000 1811.3123 -7480.2338 303.9833 -9291.5461 -7480.2338 303.9833 923.6371 1007.9470 30586.0943 923.6371 1007.9470
ENERGY: 300000 6.1255 4.5412 3.3512 0.0000 -10819.3503 1450.9074 0.0000 0.0000 1806.9829 -7547.4421 303.2567 -9354.4250 -7518.1721 302.5130 -118.2930 -31.9476 30962.5979 286.5860 351.3073
ENERGY: 600000 10.4476 3.1981 6.3893 0.0000 -10769.8721 1425.3636 0.0000 0.0000 1782.8439 -7541.6296 299.2056 -9324.4735 -7537.3770 300.6891 -431.2673 -371.1786 31148.3643 80.0707 137.3092
ENERGY: 900000 8.5266 2.7399 5.9152 0.0000 -10806.8528 1468.6145 0.0000 0.0000 1828.3973 -7492.6594 306.8505 -9321.0567 -7552.9966 300.3672 7.9435 19.8101 31184.1539 39.3553 94.3570
ENERGY: 1200000 6.6050 7.0092 5.4560 0.0000 -10669.5859 1360.9690 0.0000 0.0000 1824.9210 -7464.6257 306.2671 -9289.5467 -7548.4694 300.8951 -954.5740 -859.1040 30986.8666 -1.8009 56.2172
ENERGY: 1500000 10.8100 4.8102 3.0110 0.0000 -10756.4619 1434.9033 0.0000 0.0000 1814.4051 -7488.5222 304.5023 -9302.9273 -7528.1329 301.7448 -389.9975 -339.5703 31084.4954 -71.4193 -15.5460
TCL: Running FEP window   9: Lambda1 0.39999999999999997 Lambda2 0.44999999999999996 [dLambda 0.04999999999999999]
TCL: Setting parameter firsttimestep to 0
TCL: Setting parameter alchLambda to 0.39999999999999997
Info: NONBONDED TABLE R-SQUARED SPACING: 0.0625
Info: NONBONDED TABLE SIZE: 705 POINTS
TCL: Setting parameter alchLambda2 to 0.44999999999999996
Info: NONBONDED TABLE R-SQUARED SPACING: 0.0625
Info: NONBONDED TABLE SIZE: 705 POINTS
TCL: Running for 1500000 steps
ETITLE: TS BOND ANGLE DIHED IMPRP ELECT VDW BOUNDARY MISC KINETIC TOTAL TEMP POTENTIAL TOTALAVG TEMPAVG PRESSURE GPRESSURE VOLUME PRESSAVG GPRESSAVG
ENERGY: 0 10.8100 4.8102 3.0110 0.0000 -10756.4628 1435.0030 0.0000 0.0000 1813.5572 -7489.2714 304.3600 -9302.8286 -7489.2714 304.3600 -424.8625 -330.2079 31084.4954 -424.8625 -330.2079
ENERGY: 300000 8.3888 6.2395 4.2633 0.0000 -10693.2527 1377.7906 0.0000 0.0000 1782.4216 -7514.1488 299.1347 -9296.5704 -7537.1943 299.3160 -877.7963 -829.8109 31679.4006 -403.0352 -323.2916
ENERGY: 600000 4.7644 4.1327 3.6241 0.0000 -10696.0801 1346.2932 0.0000 0.0000 1798.0530 -7539.2128 301.7580 -9337.2658 -7563.4827 298.7617 -878.0493 -796.5718 30510.5515 -303.9605 -215.1383
ENERGY: 900000 8.1813 4.4367 3.5078 0.0000 -10474.9208 1289.6206 0.0000 0.0000 1771.1300 -7398.0444 297.2397 -9169.1745 -7534.1541 299.8736 -1072.2473 -1001.9695 31303.5439 -254.3157 -176.8571
ENERGY: 1200000 7.6823 7.3305 4.3897 0.0000 -10882.6956 1483.8328 0.0000 0.0000 1730.4060 -7649.0542 290.4052 -9379.4602 -7547.7504 299.6182 191.7566 233.8179 30589.8219 -123.4783 -54.1164
ENERGY: 1500000 7.3623 5.5837 7.2546 0.0000 -10826.4048 1478.6788 0.0000 0.0000 1730.6684 -7596.8569 290.4492 -9327.5253 -7537.9821 299.4950 91.1124 152.2939 30454.2922 -163.3055 -86.3056
TCL: Running FEP window  10: Lambda1 0.44999999999999996 Lambda2 0.49999999999999994 [dLambda 0.04999999999999999]
TCL: Setting parameter firsttimestep to 0
TCL: Setting parameter alchLambda to 0.44999999999999996
Info: NONBONDED TABLE R-SQUARED SPACING: 0.0625
Info: NONBONDED TABLE SIZE: 705 POINTS
TCL: Setting parameter alchLambda2 to 0.49999999999999994
Info: NONBONDED TABLE R-SQUARED SPACING: 0.0625
Info: NONBONDED TABLE SIZE: 705 POINTS
TCL: Running for 1500000 steps
ETITLE: TS BOND ANGLE DIHED IMPRP ELECT VDW BOUNDARY MISC KINETIC TOTAL TEMP POTENTIAL TOTALAVG TEMPAVG PRESSURE GPRESSURE VOLUME PRESSAVG GPRESSAVG
ENERGY: 0 7.3623 5.5837 7.2546 0.0000 -10826.4036 1478.6646 0.0000 0.0000 1729.7716 -7597.7667 290.2987 -9327.5383 -7597.7667 290.2987 71.8279 167.7164 30454.2922 71.8279 167.7164
ENERGY: 300000 7.3002 6.7746 4.2596 0.0000 -10737.4417 1439.3047 0.0000 0.0000 1816.0638 -7463.7389 304.7807 -9279.8027 -7517.4709 298.5707 -162.7863 -43.7376 31101.5768 -79.5457 10.6516
ENERGY: 600000 5.1027 6.7945 6.7269 0.0000 -10753.3352 1488.5132 0.0000 0.0000 1751.6352 -7494.5627 293.9680 -9246.1979 -7512.5357 297.8795 78.2114 163.8252 31192.8125 -102.0382 -31.2107
ENERGY: 900000 7.9699 4.8565 4.0494 0.0000 -10692.5502 1377.2451 0.0000 0.0000 1790.4377 -7507.9916 300.4800 -9298.4293 -7507.7989 299.6231 -852.9147 -822.0740 31130.7629 -135.6457 -70.2644
ENERGY: 1200000 4.7075 5.8975 6.2911 0.0000 -10686.6915 1393.8162 0.0000 0.0000 1858.6963 -7417.2829 311.9355 -9275.9792 -7513.9003 300.0235 -437.1976 -330.2232 30899.4091 -154.1640 -76.4142
ENERGY: 1500000 7.8456 2.8587 7.0297 0.0000 -10975.6591 1576.7877 0.0000 0.0000 1798.1546 -7582.9828 301.7751 -9381.1373 -7525.5028 299.1147 593.3548 692.4995 30836.9065 -184.9039 -102.8769
TCL: Running FEP window  11: Lambda1 0.49999999999999994 Lambda2 0.5499999999999999 [dLambda 0.04999999999999999]
TCL: Setting parameter firsttimestep to 0
TCL: Setting parameter alchLambda to 0.49999999999999994
Info: NONBONDED TABLE R-SQUARED SPACING: 0.0625
Info: NONBONDED TABLE SIZE: 705 POINTS
TCL: Setting parameter alchLambda2 to 0.5499999999999999
Info: NONBONDED TABLE R-SQUARED SPACING: 0.0625
Info: NONBONDED TABLE SIZE: 705 POINTS
TCL: Running for 1500000 steps
ETITLE: TS BOND ANGLE DIHED IMPRP ELECT VDW BOUNDARY MISC KINETIC TOTAL TEMP POTENTIAL TOTALAVG TEMPAVG PRESSURE GPRESSURE VOLUME PRESSAVG GPRESSAVG
ENERGY: 0 7.8456 2.8587 7.0297 0.0000 -10975.6585 1576.9103 0.0000 0.0000 1797.2859 -7583.7282 301.6293 -9381.0141 -7583.7282 301.6293 621.4579 705.0635 30836.9065 621.4579 705.0635
ENERGY: 300000 11.2722 7.6649 9.3638 0.0000 -10817.4285 1503.5171 0.0000 0.0000 1789.4870 -7496.1234 300.3204 -9285.6104 -7524.4700 302.0433 -57.6467 65.8654 31281.7278 150.3008 239.8800
ENERGY: 600000 5.6728 5.6482 4.4660 0.0000 -10758.4918 1385.4731 0.0000 0.0000 1767.2290 -7590.0025 296.5850 -9357.2315 -7542.6485 300.7900 -610.9427 -521.2469 30713.9746 -4.7687 79.5832
ENERGY: 900000 6.0227 4.1137 8.6170 0.0000 -10857.2876 1486.8717 0.0000 0.0000 1818.9947 -7532.6676 305.2726 -9351.6623 -7532.0979 300.9287 113.8359 176.5071 30927.1625 -38.1313 36.6670
ENERGY: 1200000 4.0179 2.6975 3.3222 0.0000 -10601.2451 1372.3569 0.0000 0.0000 1808.8755 -7409.9749 303.5743 -9218.8505 -7526.3379 301.3779 -367.4497 -275.3069 30993.6284 -37.3047 40.2859
ENERGY: 1500000 5.4617 6.2743 5.2158 0.0000 -10905.6943 1523.0823 0.0000 0.0000 1809.7310 -7555.9292 303.7179 -9365.6602 -7523.6338 302.1919 683.3178 741.2968 30423.4635 58.9984 134.5619
TCL: Running FEP window  12: Lambda1 0.5499999999999999 Lambda2 0.6    [dLambda 0.050000000000000044]
TCL: Setting parameter firsttimestep to 0
TCL: Setting parameter alchLambda to 0.5499999999999999
Info: NONBONDED TABLE R-SQUARED SPACING: 0.0625
Info: NONBONDED TABLE SIZE: 705 POINTS
TCL: Setting parameter alchLambda2 to 0.6
Info: NONBONDED TABLE R-SQUARED SPACING: 0.0625
Info: NONBONDED TABLE SIZE: 705 POINTS
TCL: Running for 1500000 steps
ETITLE: TS BOND ANGLE DIHED IMPRP ELECT VDW BOUNDARY MISC KINETIC TOTAL TEMP POTENTIAL TOTALAVG TEMPAVG PRESSURE GPRESSURE VOLUME PRESSAVG GPRESSAVG
ENERGY: 0 5.4617 6.2743 5.2158 0.0000 -10905.8172 1523.3874 0.0000 0.0000 1808.8079 -7556.6700 303.5630 -9365.4779 -7556.6700 303.5630 666.2506 755.5304 30423.4635 666.2506 755.5304
ENERGY: 300000 8.2642 6.5303 6.0043 0.0000 -10725.4177 1408.5292 0.0000 0.0000 1802.6870 -7493.4026 302.5357 -9296.0896 -7540.9780 301.4716 -437.8138 -389.0263 30649.0404 253.3053 329.6348
ENERGY: 600000 8.2475 3.9337 3.5119 0.0000 -10760.6754 1460.5529 0.0000 0.0000 1762.2486 -7522.1810 295.7491 -9284.4296 -7529.7865 299.1418 -62.4537 -66.7040 31033.1873 203.4896 261.6362
ENERGY: 900000 4.4667 5.9338 5.0629 0.0000 -10796.1747 1440.9567 0.0000 0.0000 1786.5290 -7553.2256 299.8240 -9339.7546 -7538.0595 298.4003 -173.2152 -161.3175 30655.2312 160.8876 219.8920
ENERGY: 1200000 7.2090 5.3874 6.6457 0.0000 -10848.5757 1553.6953 0.0000 0.0000 1844.5771 -7431.0613 309.5659 -9275.6384 -7532.6903 299.8401 1003.4194 1050.5553 30827.9582 200.6582 261.4829
ENERGY: 1500000 5.9352 6.9646 5.2307 0.0000 -10728.8309 1331.8077 0.0000 0.0000 1731.3760 -7647.5167 290.5680 -9378.8927 -7544.8231 299.2263 -1130.4483 -1072.9831 31209.4099 85.8469 151.8927
TCL: Running FEP window  13: Lambda1 0.6    Lambda2 0.65   [dLambda 0.050000000000000044]
TCL: Setting parameter firsttimestep to 0
TCL: Setting parameter alchLambda to 0.6
Info: NONBONDED TABLE R-SQUARED SPACING: 0.0625
Info: NONBONDED TABLE SIZE: 705 POINTS
TCL: Setting parameter alchLambda2 to 0.65
Info: NONBONDED TABLE R-SQUARED SPACING: 0.0625
Info: NONBONDED TABLE SIZE: 705 POINTS
TCL: Running for 1500000 steps
ETITLE: TS BOND ANGLE DIHED IMPRP ELECT VDW BOUNDARY MISC KINETIC TOTAL TEMP POTENTIAL TOTALAVG TEMPAVG PRESSURE GPRESSURE VOLUME PRESSAVG GPRESSAVG
ENERGY: 0 5.9352 6.9646 5.2307 0.0000 -10728.6985 1331.3174 0.0000 0.0000 1730.5260 -7648.7246 290.4253 -9379.2506 -7648.7246 290.4253 -1149.9189 -1070.3794 31209.4099 -1149.9189 -1070.3794
ENERGY: 300000 10.0127 3.4820 8.0197 0.0000 -10772.3366 1385.1354 0.0000 0.0000 1774.7817 -7590.9052 297.8525 -9365.6868 -7611.3389 296.3533 -576.3795 -498.9425 30843.9747 -520.7735 -436.9406
ENERGY: 600000 4.1154 5.6811 8.1179 0.0000 -10836.2381 1463.4375 0.0000 0.0000 1809.8683 -7545.0178 303.7409 -9354.8861 -7558.8261 299.1929 7.5766 83.0725 30509.4162 -150.1577 -80.0794
ENERGY: 900000 6.5988 7.2567 7.7256 0.0000 -10838.6612 1495.6968 0.0000 0.0000 1756.8829 -7564.5006 294.8486 -9321.3834 -7558.8643 298.9968 248.2555 285.0725 31230.1366 -168.8541 -103.2103
ENERGY: 1200000 5.8034 7.9921 6.7242 0.0000 -10878.7118 1455.9731 0.0000 0.0000 1791.6003 -7610.6186 300.6751 -9402.2189 -7559.6859 299.3174 -228.7772 -107.0755 30801.7982 -176.8757 -100.4944
ENERGY: 1500000 4.7659 6.8256 5.2799 0.0000 -10763.7069 1417.5220 0.0000 0.0000 1791.6187 -7537.6947 300.6782 -9329.3135 -7556.6480 299.9702 -365.8905 -250.5519 30993.7368 -105.5962 -24.0685
TCL: Running FEP window  14: Lambda1 0.65   Lambda2 0.7000000000000001 [dLambda 0.050000000000000044]
TCL: Setting parameter firsttimestep to 0
TCL: Setting parameter alchLambda to 0.65
Info: NONBONDED TABLE R-SQUARED SPACING: 0.0625
Info: NONBONDED TABLE SIZE: 705 POINTS
TCL: Setting parameter alchLambda2 to 0.7000000000000001
Info: NONBONDED TABLE R-SQUARED SPACING: 0.0625
Info: NONBONDED TABLE SIZE: 705 POINTS
TCL: Running for 1500000 steps
ETITLE: TS BOND ANGLE DIHED IMPRP ELECT VDW BOUNDARY MISC KINETIC TOTAL TEMP POTENTIAL TOTALAVG TEMPAVG PRESSURE GPRESSURE VOLUME PRESSAVG GPRESSAVG
ENERGY: 0 4.7660 6.8256 5.2799 0.0000 -10764.2057 1416.3366 0.0000 0.0000 1790.7245 -7540.2732 300.5281 -9330.9977 -7540.2732 300.5281 -331.7190 -250.4823 30993.7368 -331.7190 -250.4823
ENERGY: 300000 5.5673 5.5803 4.5967 0.0000 -10760.8677 1412.9851 0.0000 0.0000 1815.1200 -7517.0183 304.6223 -9332.1384 -7526.0398 304.4806 -304.2591 -246.2555 30552.7961 -223.3639 -190.7261
ENERGY: 600000 8.0089 5.1344 4.9134 0.0000 -10780.6469 1472.9473 0.0000 0.0000 1811.7703 -7477.8727 304.0601 -9289.6429 -7503.3873 304.4241 120.5851 116.5976 30887.1647 -288.7641 -248.5037
ENERGY: 900000 3.6324 4.0294 4.2343 0.0000 -10748.0409 1460.3107 0.0000 0.0000 1798.8649 -7476.9691 301.8943 -9275.8340 -7509.5533 302.8838 -168.6109 -61.6398 31384.5001 -282.8536 -237.6212
ENERGY: 1200000 7.9168 5.1364 2.7395 0.0000 -10683.0920 1371.7722 0.0000 0.0000 1753.3904 -7542.1368 294.2625 -9295.5272 -7517.7346 302.0044 -740.9767 -718.2581 30921.6610 -285.8151 -238.4670
ENERGY: 1500000 10.0800 3.4733 5.0931 0.0000 -10727.8153 1447.9622 0.0000 0.0000 1806.7435 -7454.4633 303.2165 -9261.2068 -7516.2668 301.8523 103.5500 156.2310 30967.6223 -203.2667 -148.0155
TCL: Running FEP window  15: Lambda1 0.7000000000000001 Lambda2 0.7500000000000001 [dLambda 0.050000000000000044]
TCL: Setting parameter firsttimestep to 0
TCL: Setting parameter alchLambda to 0.7000000000000001
Info: NONBONDED TABLE R-SQUARED SPACING: 0.0625
Info: NONBONDED TABLE SIZE: 705 POINTS
TCL: Setting parameter alchLambda2 to 0.7500000000000001
Info: NONBONDED TABLE R-SQUARED SPACING: 0.0625
Info: NONBONDED TABLE SIZE: 705 POINTS
TCL: Running for 1500000 steps
ETITLE: TS BOND ANGLE DIHED IMPRP ELECT VDW BOUNDARY MISC KINETIC TOTAL TEMP POTENTIAL TOTALAVG TEMPAVG PRESSURE GPRESSURE VOLUME PRESSAVG GPRESSAVG
ENERGY: 0 10.0800 3.4733 5.0931 0.0000 -10727.7268 1447.3354 0.0000 0.0000 1805.8717 -7455.8733 303.0702 -9261.7450 -7455.8733 303.0702 92.3361 165.8095 30967.6223 92.3361 165.8095
ENERGY: 300000 4.8944 5.6010 3.5916 0.0000 -10748.7166 1427.7454 0.0000 0.0000 1727.2670 -7579.6172 289.8784 -9306.8842 -7525.4323 298.1404 -333.7147 -240.1685 31178.6687 -11.9835 53.9051
ENERGY: 600000 10.1591 6.0031 6.8313 0.0000 -10887.5607 1489.7515 0.0000 0.0000 1790.2607 -7584.5550 300.4503 -9374.8157 -7529.9919 300.2412 576.0697 591.3591 30109.0047 36.9302 110.0384
ENERGY: 900000 6.6800 4.3791 4.9530 0.0000 -10652.7757 1417.7396 0.0000 0.0000 1796.7000 -7422.3240 301.5310 -9219.0240 -7517.4366 300.1513 188.0335 193.6617 30750.6367 4.3498 69.9935
ENERGY: 1200000 4.2078 6.0748 7.2236 0.0000 -10897.6822 1522.1235 0.0000 0.0000 1811.6312 -7546.4214 304.0368 -9358.0526 -7529.6998 299.6310 585.7501 596.2103 30703.4491 140.3629 196.8530
ENERGY: 1500000 6.1968 5.3994 5.0636 0.0000 -10876.0512 1470.3844 0.0000 0.0000 1784.3208 -7604.6864 299.4534 -9389.0072 -7535.2301 299.8955 160.2271 248.4582 30755.8325 142.3722 203.4985
TCL: Running FEP window  16: Lambda1 0.7500000000000001 Lambda2 0.8000000000000002 [dLambda 0.050000000000000044]
TCL: Setting parameter firsttimestep to 0
TCL: Setting parameter alchLambda to 0.7500000000000001
Info: NONBONDED TABLE R-SQUARED SPACING: 0.0625
Info: NONBONDED TABLE SIZE: 705 POINTS
TCL: Setting parameter alchLambda2 to 0.8000000000000002
Info: NONBONDED TABLE R-SQUARED SPACING: 0.0625
Info: NONBONDED TABLE SIZE: 705 POINTS
TCL: Running for 1500000 steps
ETITLE: TS BOND ANGLE DIHED IMPRP ELECT VDW BOUNDARY MISC KINETIC TOTAL TEMP POTENTIAL TOTALAVG TEMPAVG PRESSURE GPRESSURE VOLUME PRESSAVG GPRESSAVG
ENERGY: 0 6.1968 5.3994 5.0636 0.0000 -10876.2553 1470.0606 0.0000 0.0000 1783.4132 -7606.1217 299.3011 -9389.5349 -7606.1217 299.3011 177.0451 261.0899 30755.8325 177.0451 261.0899
ENERGY: 300000 5.6995 5.5791 8.5241 0.0000 -10906.0782 1541.2159 0.0000 0.0000 1769.3635 -7575.6962 296.9432 -9345.0597 -7580.5057 298.1062 748.4026 859.8950 30676.4958 249.2119 346.5068
ENERGY: 600000 4.3774 4.9524 4.7007 0.0000 -10805.5407 1487.6411 0.0000 0.0000 1838.1475 -7465.7216 308.4869 -9303.8691 -7550.7560 299.0782 469.0231 518.6783 31014.7211 200.2672 274.9243
ENERGY: 900000 5.2286 6.3589 4.1709 0.0000 -10781.1900 1377.3658 0.0000 0.0000 1775.1483 -7612.9174 297.9140 -9388.0658 -7558.9218 298.7877 -560.5125 -544.6889 30796.0940 32.2490 94.1095
ENERGY: 1200000 6.2920 6.1958 5.7073 0.0000 -10917.4313 1563.4124 0.0000 0.0000 1848.5770 -7487.2468 310.2372 -9335.8238 -7547.8882 300.5270 878.4069 952.1583 30811.1292 86.6088 147.5549
ENERGY: 1500000 11.5294 5.2815 6.7169 0.0000 -10649.1990 1425.3290 0.0000 0.0000 1804.3821 -7395.9600 302.8202 -9200.3421 -7530.6488 300.9654 -307.6593 -271.5978 31193.5719 45.2531 105.1916
TCL: Running FEP window  17: Lambda1 0.8000000000000002 Lambda2 0.8500000000000002 [dLambda 0.050000000000000044]
TCL: Setting parameter firsttimestep to 0
TCL: Setting parameter alchLambda to 0.8000000000000002
Info: NONBONDED TABLE R-SQUARED SPACING: 0.0625
Info: NONBONDED TABLE SIZE: 705 POINTS
TCL: Setting parameter alchLambda2 to 0.8500000000000002
Info: NONBONDED TABLE R-SQUARED SPACING: 0.0625
Info: NONBONDED TABLE SIZE: 705 POINTS
TCL: Running for 1500000 steps
ETITLE: TS BOND ANGLE DIHED IMPRP ELECT VDW BOUNDARY MISC KINETIC TOTAL TEMP POTENTIAL TOTALAVG TEMPAVG PRESSURE GPRESSURE VOLUME PRESSAVG GPRESSAVG
ENERGY: 0 11.5294 5.2815 6.7169 0.0000 -10649.5545 1425.1330 0.0000 0.0000 1803.4986 -7397.3950 302.6719 -9200.8936 -7397.3950 302.6719 -359.0351 -258.3962 31193.5719 -359.0351 -258.3962
ENERGY: 300000 5.0211 4.4318 7.6622 0.0000 -10978.2007 1587.8648 0.0000 0.0000 1788.0203 -7585.2004 300.0743 -9373.2208 -7541.9626 299.7239 1116.4991 1167.6420 30529.3197 327.7658 385.5077
ENERGY: 600000 2.8467 2.9331 9.7728 0.0000 -10733.5803 1419.8546 0.0000 0.0000 1790.2853 -7507.8879 300.4544 -9298.1731 -7554.4825 300.4114 -27.6186 -49.7245 31127.1169 140.6177 193.7326
ENERGY: 900000 8.5801 4.0093 7.2811 0.0000 -10811.6447 1413.2123 0.0000 0.0000 1844.3073 -7534.2547 309.5206 -9378.5620 -7547.3170 301.4904 -272.9844 -225.0607 30966.5097 194.2100 252.6720
ENERGY: 1200000 2.0869 4.4904 7.3672 0.0000 -10933.8600 1517.8344 0.0000 0.0000 1806.4467 -7595.6345 303.1667 -9402.0811 -7549.9702 300.7524 634.4462 694.8625 30466.8930 219.3296 281.3836
ENERGY: 1500000 6.6630 4.5268 5.0572 0.0000 -10768.3651 1421.7510 0.0000 0.0000 1774.6957 -7555.6714 297.8381 -9330.3670 -7543.7648 301.0626 147.0859 136.8294 30469.2174 114.0304 168.7063
TCL: Running FEP window  18: Lambda1 0.8500000000000002 Lambda2 0.9000000000000002 [dLambda 0.050000000000000044]
TCL: Setting parameter firsttimestep to 0
TCL: Setting parameter alchLambda to 0.8500000000000002
Info: NONBONDED TABLE R-SQUARED SPACING: 0.0625
Info: NONBONDED TABLE SIZE: 705 POINTS
TCL: Setting parameter alchLambda2 to 0.9000000000000002
Info: NONBONDED TABLE R-SQUARED SPACING: 0.0625
Info: NONBONDED TABLE SIZE: 705 POINTS
TCL: Running for 1500000 steps
ETITLE: TS BOND ANGLE DIHED IMPRP ELECT VDW BOUNDARY MISC KINETIC TOTAL TEMP POTENTIAL TOTALAVG TEMPAVG PRESSURE GPRESSURE VOLUME PRESSAVG GPRESSAVG
ENERGY: 0 6.6630 4.5268 5.0572 0.0000 -10768.9413 1421.7194 0.0000 0.0000 1773.8456 -7557.1292 297.6954 -9330.9748 -7557.1292 297.6954 86.2776 160.0291 30469.2174 86.2776 160.0291
ENERGY: 300000 8.7060 6.4138 2.6978 0.0000 -10760.9537 1413.2954 0.0000 0.0000 1779.2814 -7550.5593 298.6077 -9329.8407 -7557.3376 296.3492 -74.1583 50.2162 30511.0211 -100.3847 -19.4777
ENERGY: 600000 4.0704 3.5181 4.1787 0.0000 -10706.5158 1395.0324 0.0000 0.0000 1831.6583 -7468.0579 307.3978 -9299.7161 -7539.6820 297.4821 -272.5822 -262.8712 31080.8981 -55.6854 7.4019
ENERGY: 900000 7.5290 4.6616 8.1228 0.0000 -10784.5918 1430.5354 0.0000 0.0000 1794.0827 -7539.6604 301.0917 -9333.7431 -7540.1713 298.1853 -85.8320 -2.0888 30878.6192 41.3783 97.1485
ENERGY: 1200000 6.3849 5.2064 5.1694 0.0000 -10733.3686 1390.0402 0.0000 0.0000 1811.0917 -7515.4760 303.9462 -9326.5677 -7541.7169 298.9293 -727.4127 -652.6599 30953.7409 -67.9021 -3.1027
ENERGY: 1500000 3.7450 3.5162 4.0496 0.0000 -10766.2659 1433.7030 0.0000 0.0000 1838.4848 -7482.7674 308.5435 -9321.2522 -7534.8268 299.5876 327.4736 353.6632 30630.5228 -73.0702 -7.4118
TCL: Running FEP window  19: Lambda1 0.9000000000000002 Lambda2 0.9500000000000003 [dLambda 0.050000000000000044]
TCL: Setting parameter firsttimestep to 0
TCL: Setting parameter alchLambda to 0.9000000000000002
Info: NONBONDED TABLE R-SQUARED SPACING: 0.0625
Info: NONBONDED TABLE SIZE: 705 POINTS
TCL: Setting parameter alchLambda2 to 0.9500000000000003
Info: NONBONDED TABLE R-SQUARED SPACING: 0.0625
Info: NONBONDED TABLE SIZE: 705 POINTS
TCL: Running for 1500000 steps
ETITLE: TS BOND ANGLE DIHED IMPRP ELECT VDW BOUNDARY MISC KINETIC TOTAL TEMP POTENTIAL TOTALAVG TEMPAVG PRESSURE GPRESSURE VOLUME PRESSAVG GPRESSAVG
ENERGY: 0 3.7450 3.5162 4.0496 0.0000 -10766.5589 1432.8715 0.0000 0.0000 1837.6233 -7484.7533 308.3989 -9322.3766 -7484.7533 308.3989 271.2308 363.4178 30630.5228 271.2308 363.4178
ENERGY: 300000 10.5509 5.4341 5.9518 0.0000 -10730.6588 1341.2586 0.0000 0.0000 1753.9052 -7613.5581 294.3489 -9367.4634 -7544.3416 298.1258 -1026.5250 -996.7336 30895.3637 -595.2085 -541.9720
ENERGY: 600000 10.6239 7.3716 7.7547 0.0000 -10772.1193 1384.7433 0.0000 0.0000 1794.0498 -7567.5759 301.0862 -9361.6258 -7537.1136 299.4570 -815.9109 -688.9060 30641.1951 -544.0246 -470.2192
ENERGY: 900000 5.3236 5.9715 6.6211 0.0000 -10817.0425 1405.4289 0.0000 0.0000 1788.6614 -7605.0359 300.1819 -9393.6973 -7541.2411 300.1502 -605.3691 -576.0363 31088.9390 -494.4880 -432.1095
ENERGY: 1200000 9.6605 4.1284 6.5231 0.0000 -10786.9789 1427.3751 0.0000 0.0000 1841.3888 -7497.9030 309.0308 -9339.2918 -7549.1596 299.8481 -545.9236 -464.1130 31341.8122 -352.5155 -287.5022
ENERGY: 1500000 10.8441 3.9139 3.8797 0.0000 -10785.5193 1447.7025 0.0000 0.0000 1703.6944 -7615.4847 285.9223 -9319.1791 -7554.6038 299.1341 -100.3460 -63.4270 30981.3718 -263.4347 -197.4041
TCL: Running FEP window  20: Lambda1 0.9500000000000003 Lambda2 1.0    [dLambda 0.04999999999999971]
TCL: Setting parameter firsttimestep to 0
TCL: Setting parameter alchLambda to 0.9500000000000003
Info: NONBONDED TABLE R-SQUARED SPACING: 0.0625
Info: NONBONDED TABLE SIZE: 705 POINTS
TCL: Setting parameter alchLambda2 to 1.0
Info: NONBONDED TABLE R-SQUARED SPACING: 0.0625
Info: NONBONDED TABLE SIZE: 705 POINTS
TCL: Running for 1500000 steps
ETITLE: TS BOND ANGLE DIHED IMPRP ELECT VDW BOUNDARY MISC KINETIC TOTAL TEMP POTENTIAL TOTALAVG TEMPAVG PRESSURE GPRESSURE VOLUME PRESSAVG GPRESSAVG
ENERGY: 0 10.8441 3.9139 3.8797 0.0000 -10785.5937 1447.5769 0.0000 0.0000 1702.8184 -7616.5606 285.7753 -9319.3791 -7616.5606 285.7753 -123.5727 -42.8827 30981.3718 -123.5727 -42.8827
ENERGY: 300000 4.9455 3.9491 6.2198 0.0000 -10784.1564 1425.1392 0.0000 0.0000 1806.6856 -7537.2171 303.2068 -9343.9027 -7555.4134 296.2585 -51.9523 48.0287 30897.7604 -50.6735 15.0486
ENERGY: 600000 8.5951 3.6845 4.8134 0.0000 -10624.5551 1359.0876 0.0000 0.0000 1728.7365 -7519.6380 290.1250 -9248.3744 -7556.1767 293.4554 -651.8632 -677.6086 31561.3801 -270.0770 -228.2144
ENERGY: 900000 4.6486 8.3257 4.5089 0.0000 -10872.7256 1485.4365 0.0000 0.0000 1828.0781 -7541.7277 306.7970 -9369.8058 -7564.6644 295.2862 385.7125 457.3339 30544.8705 -102.3652 -52.1362
ENERGY: 1200000 11.2884 4.7905 6.6586 0.0000 -10824.5974 1443.7474 0.0000 0.0000 1755.0865 -7603.0260 294.5472 -9358.1125 -7562.6938 296.9470 -315.6704 -329.1900 31548.5043 -144.6744 -97.9294
ENERGY: 1500000 11.8116 4.0334 3.8189 0.0000 -10813.7070 1562.4522 0.0000 0.0000 1837.0551 -7394.5358 308.3035 -9231.5909 -7548.9792 297.3565 1377.0786 1418.5100 30843.9622 24.1005 74.8459
TCL: Exiting due to exit command.
