Info: SIMULATION PARAMETERS:
Info: TIMESTEP               2
Info: NUMBER OF STEPS        0
Info: STEPS PER CYCLE        10
Info: PERIODIC CELL BASIS 1  32.1886 0 0
Info: PERIODIC CELL BASIS 2  0 31.0231 0
Info: PERIODIC CELL BASIS 3  0 0 30.7477
Info: PERIODIC CELL CENTER   0 0 0
Info: WRAPPING WATERS AROUND PERIODIC BOUNDARIES ON OUTPUT.
Info: WRAPPING ALL CLUSTERS AROUND PERIODIC BOUNDARIES ON OUTPUT.
Info: FIRST LDB TIMESTEP     50
Info: LAST LDB TIMESTEP     -1
Info: HOM BACKGROUND SCALING 1
Info: PME BACKGROUND SCALING 1
Info: MIN ATOMS PER PATCH    40
Info: EMPTY PATCH LOAD       40 ATOMS
Info: VELOCITY FILE          mobley_8117218_equil.vel
Info: CENTER OF MASS MOVING INITIALLY? NO
Info: DIELECTRIC             1
Info: EXCLUDE                SCALED ONE-FOUR
Info: 1-4 ELECTROSTATICS SCALED BY 0.833333
Info: MODIFIED 1-4 VDW PARAMETERS WILL BE USED
Info: DCD FILENAME           mobley_8117218_prod.dcd
Info: DCD FREQUENCY          100000
Info: DCD FIRST STEP         100000
Info: DCD FILE WILL CONTAIN UNIT CELL DATA
Info: XST FILENAME           mobley_8117218_prod.xst
Info: XST FREQUENCY          100000
Info: NO VELOCITY DCD OUTPUT
Info: NO FORCE DCD OUTPUT
Info: OUTPUT FILENAME        mobley_8117218_prod
Info: BINARY OUTPUT FILES WILL BE USED
Info: RESTART FILENAME       mobley_8117218_prod.restart
Info: RESTART FREQUENCY      100000
Info: BINARY RESTART FILES WILL BE USED
Info: CUTOFF                 9
Info: PAIRLIST DISTANCE      11
Info: PAIRLIST SHRINK RATE   0.01
Info: PAIRLIST GROW RATE     0.01
Info: PAIRLIST TRIGGER       0.3
Info: PAIRLISTS PER CYCLE    2
Info: PAIRLISTS ENABLED
Info: MARGIN                 2
Info: HYDROGEN GROUP CUTOFF  2.5
Info: PATCH DIMENSION        15.5
Info: ENERGY OUTPUT STEPS    100000
Info: ENERGY EVALUATION STEPS    100000
Info: OUTPUT ENERGY PRECISION 4
Info: CROSSTERM ENERGY INCLUDED IN DIHEDRAL
Info: TIMING OUTPUT STEPS    1000000
Info: PRESSURE OUTPUT STEPS  100000
Info: ALCHEMICAL FEP ON
Info: FEP CURRENT LAMBDA VALUE     0
Info: FEP COMPARISON LAMBDA VALUE  0.05
Info: FEP INTRA-ALCHEMICAL NON-BONDED INTERACTIONS WILL BE RETAINED
Info: FEP INTRA-ALCHEMICAL BONDED INTERACTIONS WILL BE RETAINED
Info: FEP VDW SHIFTING COEFFICIENT 5
Info: FEP ELEC. ACTIVE FOR ANNIHILATED PARTICLES BETWEEN LAMBDA = 0 AND LAMBDA = 0.5
Info: FEP ELEC. ACTIVE FOR EXNIHILATED PARTICLES BETWEEN LAMBDA = 0.5 AND LAMBDA = 1
Info: FEP VDW ACTIVE FOR ANNIHILATED PARTICLES BETWEEN LAMBDA = 0 AND LAMBDA = 1
Info: FEP VDW ACTIVE FOR EXNIHILATED PARTICLES BETWEEN LAMBDA = 0 AND LAMBDA = 1
Info: FEP BOND ACTIVE FOR ANNIHILATED PARTICLES BETWEEN LAMBDA = 1 AND LAMBDA = 1
Info: FEP BOND ACTIVE FOR EXNIHILATED PARTICLES BETWEEN LAMBDA = 0 AND LAMBDA = 0
Info: LANGEVIN DYNAMICS ACTIVE
Info: LANGEVIN TEMPERATURE   300
Info: LANGEVIN USING BBK INTEGRATOR
Info: LANGEVIN DAMPING COEFFICIENT IS 1 INVERSE PS
Info: LANGEVIN DYNAMICS APPLIED TO HYDROGENS
Info: LANGEVIN PISTON PRESSURE CONTROL ACTIVE
Info:        TARGET PRESSURE IS 1.01325 BAR
Info:     OSCILLATION PERIOD IS 50 FS
Info:             DECAY TIME IS 25 FS
Info:     PISTON TEMPERATURE IS 300 K
Info:       PRESSURE CONTROL IS GROUP-BASED
Info:    INITIAL STRAIN RATE IS 0.000364046 0.000364046 0.000364046
Info:       CELL FLUCTUATION IS ISOTROPIC
Info: PARTICLE MESH EWALD (PME) ACTIVE
Info: PME TOLERANCE               1e-06
Info: PME EWALD COEFFICIENT       0.348832
Info: PME INTERPOLATION ORDER     4
Info: PME GRID DIMENSIONS         36 32 32
Info: PME MAXIMUM GRID SPACING    1
Info: PME CALCULATION WILL BE PERFORMED ON GPU
Info: FULL ELECTROSTATIC EVALUATION FREQUENCY      2
Info: USING VERLET I (r-RESPA) MTS SCHEME.
Info: C1 SPLITTING OF LONG RANGE ELECTROSTATICS
Info: PLACING ATOMS IN PATCHES BY HYDROGEN GROUPS
Info: RIGID BONDS TO HYDROGEN : ALL
Info:         ERROR TOLERANCE : 1e-08
Info:          MAX ITERATIONS : 100
Info: RIGID WATER USING SETTLE ALGORITHM
Info: RANDOM NUMBER SEED     1743665816
Info: USE HYDROGEN BONDS?    NO
Info: Using AMBER format force field!
Info: AMBER PARM FILE        mobley_8117218.prmtop
Info: COORDINATE PDB         mobley_8117218.pdb
Info: Exclusions will be read from PARM file!
Info: SCNB (VDW SCALING)     2
Info: USING ARITHMETIC MEAN TO COMBINE L-J SIGMA PARAMETERS
Info: BINARY COORDINATES     mobley_8117218_equil.coor
Info: SUMMARY OF PARAMETERS:
Info: 12 BONDS
Info: 19 ANGLES
Info:   19 HARMONIC
Info:   0 COSINE-BASED
Info: 16 DIHEDRAL
Info: 0 IMPROPER
Info: 0 CROSSTERM
Info: 0 VDW
Info: 36 VDW_PAIRS
Info: 0 NBTHOLE_PAIRS
Info: To read alchdata from file: mobley_8117218.pdb
Info: To read alchflag data from column: 5
Info: STRUCTURE SUMMARY:
Info: 2976 ATOMS
Info: 2980 BONDS
Info: 67 ANGLES
Info: 180 DIHEDRALS
Info: 0 IMPROPERS
Info: 0 CROSSTERMS
Info: 3138 EXCLUSIONS
Info: 2957 RIGID BONDS
Info: ALCH: 0 ATOMS TO DISAPPEAR IN FINAL STATE
Info: ALCH: 27 ATOMS TO APPEAR IN FINAL STATE
Info: 5971 DEGREES OF FREEDOM
Info: 1002 HYDROGEN GROUPS
Info: 3 ATOMS IN LARGEST HYDROGEN GROUP
Info: 1002 MIGRATION GROUPS
Info: 3 ATOMS IN LARGEST MIGRATION GROUP
Info: TOTAL MASS = 18090.6 amu
Info: TOTAL CHARGE = 9.99887e-05 e
Info: MASS DENSITY = 0.978392 g/cm^3
Info: ATOM DENSITY = 0.0969244 atoms/A^3
Info: ADDED 0 IMPLICIT EXCLUSIONS
Info: NONBONDED TABLE R-SQUARED SPACING: 0.0625
Info: NONBONDED TABLE SIZE: 705 POINTS
Info: REDUCING NUMBER OF PATCHES TO IMPROVE LOAD BALANCE
Info: REMOVING COM VELOCITY -0.113094 -0.020576 0.00567624
Info: Use 3D box decompostion in PME FFT.
Info: Updated CUDA force table with 4096 elements.
Info: Updated CUDA LJ table with 8 x 8 elements.
Info: Found 30 unique exclusion lists needing 100 bytes
TCL: Running for 1500000 steps
ETITLE: TS BOND ANGLE DIHED IMPRP ELECT VDW BOUNDARY MISC KINETIC TOTAL TEMP POTENTIAL TOTALAVG TEMPAVG PRESSURE GPRESSURE VOLUME PRESSAVG GPRESSAVG
ENERGY: 0 19.0286 227.1923 21.5142 0.0000 -10817.4789 1453.8778 0.0000 0.0000 1847.3731 -7248.4929 311.3852 -9095.8659 -7248.4929 311.3852 -488.7922 -396.1176 30704.3304 -488.7922 -396.1176
ENERGY: 300000 16.5742 226.3830 22.1733 0.0000 -10724.2108 1476.1316 0.0000 0.0000 1844.8935 -7138.0552 310.9672 -8982.9487 -7218.0766 306.2896 227.7932 341.9706 30385.3365 -2.9640 66.1944
ENERGY: 600000 15.7741 222.2604 22.5369 0.0000 -10653.3747 1431.4124 0.0000 0.0000 1835.1556 -7126.2354 309.3258 -8961.3910 -7222.8705 304.3069 81.3433 123.6334 30217.0717 145.4262 209.1225
ENERGY: 900000 18.6110 228.8481 22.3501 0.0000 -10677.3581 1418.4464 0.0000 0.0000 1822.9542 -7166.1484 307.2692 -8989.1026 -7217.6515 303.7073 -340.5835 -262.0138 30675.7517 10.9331 82.4189
ENERGY: 1200000 16.3853 230.8508 22.6823 0.0000 -10697.8455 1466.3796 0.0000 0.0000 1788.2038 -7173.3437 301.4118 -8961.5475 -7210.7028 302.0525 51.1357 90.9002 30690.6919 -4.9278 64.4009
ENERGY: 1500000 11.3165 232.2677 23.5214 0.0000 -10691.4221 1430.6365 0.0000 0.0000 1735.8519 -7257.8282 292.5876 -8993.6800 -7225.9813 301.0533 -79.5990 -127.1076 30514.5364 4.3873 62.8654
TCL: Running FEP window   2: Lambda1 0.05   Lambda2 0.1    [dLambda 0.05  ]
TCL: Setting parameter firsttimestep to 0
TCL: Setting parameter alchLambda to 0.05
Info: NONBONDED TABLE R-SQUARED SPACING: 0.0625
Info: NONBONDED TABLE SIZE: 705 POINTS
TCL: Setting parameter alchLambda2 to 0.1
Info: NONBONDED TABLE R-SQUARED SPACING: 0.0625
Info: NONBONDED TABLE SIZE: 705 POINTS
TCL: Running for 1500000 steps
ETITLE: TS BOND ANGLE DIHED IMPRP ELECT VDW BOUNDARY MISC KINETIC TOTAL TEMP POTENTIAL TOTALAVG TEMPAVG PRESSURE GPRESSURE VOLUME PRESSAVG GPRESSAVG
ENERGY: 0 11.3164 232.2677 23.5214 0.0000 -10691.4217 1444.3630 0.0000 0.0000 1734.9396 -7245.0135 292.4339 -8979.9531 -7245.0135 292.4339 -172.7241 -102.2149 30514.5364 -172.7241 -102.2149
ENERGY: 300000 13.6979 227.0590 22.4625 0.0000 -10709.7204 1473.7265 0.0000 0.0000 1743.5811 -7229.1933 293.8904 -8972.7744 -7246.6347 291.9949 -13.5539 86.6396 30287.3287 -194.4251 -114.3614
ENERGY: 600000 14.1646 228.2195 25.0302 0.0000 -10650.1599 1459.4944 0.0000 0.0000 1776.2803 -7146.9708 299.4021 -8923.2511 -7223.4773 295.6464 -19.6452 36.7918 30878.0908 -158.4086 -83.8677
ENERGY: 900000 13.5884 225.1574 25.3559 0.0000 -10562.5586 1345.6645 0.0000 0.0000 1824.9995 -7127.7930 307.6140 -8952.7925 -7219.7123 297.6362 -431.3135 -380.8169 30227.8094 -199.4932 -122.3994
ENERGY: 1200000 15.7175 223.3962 22.1329 0.0000 -10805.9696 1424.0672 0.0000 0.0000 1795.0580 -7325.5978 302.5672 -9120.6558 -7228.4866 298.4079 -398.5015 -315.5197 29877.8424 -183.6045 -110.9855
ENERGY: 1500000 17.8561 231.1483 22.6507 0.0000 -10589.8750 1371.9429 0.0000 0.0000 1736.4814 -7209.7955 292.6938 -8946.2770 -7224.5892 298.0957 -321.8674 -296.3816 30183.8535 -219.5359 -154.5110
TCL: Running FEP window   3: Lambda1 0.1    Lambda2 0.15000000000000002 [dLambda 0.05000000000000002]
TCL: Setting parameter firsttimestep to 0
TCL: Setting parameter alchLambda to 0.1
Info: NONBONDED TABLE R-SQUARED SPACING: 0.0625
Info: NONBONDED TABLE SIZE: 705 POINTS
TCL: Setting parameter alchLambda2 to 0.15000000000000002
Info: NONBONDED TABLE R-SQUARED SPACING: 0.0625
Info: NONBONDED TABLE SIZE: 705 POINTS
TCL: Running for 1500000 steps
ETITLE: TS BOND ANGLE DIHED IMPRP ELECT VDW BOUNDARY MISC KINETIC TOTAL TEMP POTENTIAL TOTALAVG TEMPAVG PRESSURE GPRESSURE VOLUME PRESSAVG GPRESSAVG
ENERGY: 0 17.8561 231.1483 22.6507 0.0000 -10589.8765 1378.1463 0.0000 0.0000 1735.5816 -7204.4935 292.5421 -8940.0751 -7204.4935 292.5421 -358.2208 -277.8008 30183.8535 -358.2208 -277.8008
ENERGY: 300000 12.6554 225.7870 25.5675 0.0000 -10791.2215 1480.1325 0.0000 0.0000 1828.6623 -7218.4168 308.2314 -9047.0791 -7259.0392 295.4851 85.4037 192.5603 30375.6360 -175.4532 -105.1404
ENERGY: 600000 17.0314 225.1308 22.4448 0.0000 -10917.1034 1556.1650 0.0000 0.0000 1783.0095 -7313.3218 300.5363 -9096.3313 -7277.2460 295.7104 487.7826 567.9218 30256.5028 -77.3459 2.3884
ENERGY: 900000 15.8406 230.5314 22.7309 0.0000 -10730.9738 1467.4395 0.0000 0.0000 1767.0473 -7227.3841 297.8458 -8994.4313 -7267.5141 296.6566 100.0737 96.8304 30495.1871 68.5997 137.8073
ENERGY: 1200000 15.2181 222.8713 23.3871 0.0000 -10765.5954 1445.4980 0.0000 0.0000 1741.1899 -7317.4310 293.4874 -9058.6208 -7268.9521 296.3560 -73.6237 -33.0459 30251.4422 4.1845 71.3545
ENERGY: 1500000 25.4041 219.7670 22.5521 0.0000 -10825.7530 1508.3643 0.0000 0.0000 1768.0326 -7281.6329 298.0119 -9049.6655 -7256.4110 297.3499 236.9709 282.7696 30196.9464 47.5861 109.2041
TCL: Running FEP window   4: Lambda1 0.15000000000000002 Lambda2 0.2    [dLambda 0.04999999999999999]
TCL: Setting parameter firsttimestep to 0
TCL: Setting parameter alchLambda to 0.15000000000000002
Info: NONBONDED TABLE R-SQUARED SPACING: 0.0625
Info: NONBONDED TABLE SIZE: 705 POINTS
TCL: Setting parameter alchLambda2 to 0.2
Info: NONBONDED TABLE R-SQUARED SPACING: 0.0625
Info: NONBONDED TABLE SIZE: 705 POINTS
TCL: Running for 1500000 steps
ETITLE: TS BOND ANGLE DIHED IMPRP ELECT VDW BOUNDARY MISC KINETIC TOTAL TEMP POTENTIAL TOTALAVG TEMPAVG PRESSURE GPRESSURE VOLUME PRESSAVG GPRESSAVG
ENERGY: 0 25.4041 219.7670 22.5521 0.0000 -10825.7539 1511.1990 0.0000 0.0000 1767.1832 -7279.6485 297.8687 -9046.8317 -7279.6485 297.8687 209.1969 299.9866 30196.9464 209.1969 299.9866
ENERGY: 300000 13.9803 222.9837 23.8464 0.0000 -10520.7831 1351.5829 0.0000 0.0000 1742.9161 -7165.4737 293.7784 -8908.3898 -7232.5643 297.6572 -839.5491 -772.0307 31078.6617 -274.5955 -220.9131
ENERGY: 600000 18.7954 230.7741 22.4662 0.0000 -10657.3089 1367.4158 0.0000 0.0000 1770.0491 -7247.8083 298.3518 -9017.8575 -7248.1076 298.5301 -961.0115 -918.7967 30153.3850 -174.8185 -126.4232
ENERGY: 900000 11.9153 226.5411 22.4654 0.0000 -10715.7104 1482.3223 0.0000 0.0000 1750.7754 -7221.6909 295.1031 -8972.4663 -7227.3349 299.6608 349.7736 383.9478 30559.6666 -6.2960 32.2066
ENERGY: 1200000 16.0545 222.8213 22.5505 0.0000 -10496.3822 1364.0069 0.0000 0.0000 1754.5237 -7116.4253 295.7349 -8870.9490 -7230.0082 298.7333 -403.0384 -313.0258 30729.8474 -61.4945 -15.7377
ENERGY: 1500000 15.8792 226.6048 22.3282 0.0000 -10710.9010 1434.9990 0.0000 0.0000 1812.3064 -7198.7834 305.4745 -9011.0898 -7220.9318 299.5778 -580.7473 -418.0100 30601.9607 -191.7817 -132.6116
TCL: Running FEP window   5: Lambda1 0.2    Lambda2 0.25   [dLambda 0.04999999999999999]
TCL: Setting parameter firsttimestep to 0
TCL: Setting parameter alchLambda to 0.2
Info: NONBONDED TABLE R-SQUARED SPACING: 0.0625
Info: NONBONDED TABLE SIZE: 705 POINTS
TCL: Setting parameter alchLambda2 to 0.25
Info: NONBONDED TABLE R-SQUARED SPACING: 0.0625
Info: NONBONDED TABLE SIZE: 705 POINTS
TCL: Running for 1500000 steps
ETITLE: TS BOND ANGLE DIHED IMPRP ELECT VDW BOUNDARY MISC KINETIC TOTAL TEMP POTENTIAL TOTALAVG TEMPAVG PRESSURE GPRESSURE VOLUME PRESSAVG GPRESSAVG
ENERGY: 0 15.8792 226.6048 22.3282 0.0000 -10710.9003 1436.5063 0.0000 0.0000 1811.4343 -7198.1476 305.3275 -9009.5819 -7198.1476 305.3275 -503.3504 -401.0492 30601.9607 -503.3504 -401.0492
ENERGY: 300000 9.2438 228.5583 23.2824 0.0000 -10682.5243 1429.8962 0.0000 0.0000 1772.4630 -7219.0806 298.7586 -8991.5435 -7213.1505 299.6518 -26.0996 72.9464 30670.1118 52.8340 132.5725
ENERGY: 600000 15.5093 228.3266 22.5621 0.0000 -10719.1474 1438.9733 0.0000 0.0000 1799.2518 -7214.5241 303.2741 -9013.7760 -7226.6513 300.7844 -155.6374 -76.8527 30513.5927 -40.2425 32.8368
ENERGY: 900000 12.7387 224.2379 22.1215 0.0000 -10698.1348 1386.5844 0.0000 0.0000 1805.7680 -7246.6843 304.3724 -9052.4523 -7220.0322 302.3690 -713.1762 -631.3685 30794.3961 -62.1344 7.3083
ENERGY: 1200000 14.8542 227.9078 23.8043 0.0000 -10803.2589 1532.2017 0.0000 0.0000 1771.8597 -7232.6312 298.6570 -9004.4909 -7218.0011 300.9940 414.0376 385.0031 30581.6325 -97.9814 -39.0073
ENERGY: 1500000 17.1122 224.1648 22.9421 0.0000 -10584.1720 1423.1127 0.0000 0.0000 1796.3817 -7100.4585 302.7903 -8896.8402 -7204.4597 301.2722 -320.7235 -231.6677 31541.4769 -86.8851 -24.8914
TCL: Running FEP window   6: Lambda1 0.25   Lambda2 0.3    [dLambda 0.04999999999999999]
TCL: Setting parameter firsttimestep to 0
TCL: Setting parameter alchLambda to 0.25
Info: NONBONDED TABLE R-SQUARED SPACING: 0.0625
Info: NONBONDED TABLE SIZE: 705 POINTS
TCL: Setting parameter alchLambda2 to 0.3
Info: NONBONDED TABLE R-SQUARED SPACING: 0.0625
Info: NONBONDED TABLE SIZE: 705 POINTS
TCL: Running for 1500000 steps
ETITLE: TS BOND ANGLE DIHED IMPRP ELECT VDW BOUNDARY MISC KINETIC TOTAL TEMP POTENTIAL TOTALAVG TEMPAVG PRESSURE GPRESSURE VOLUME PRESSAVG GPRESSAVG
ENERGY: 0 17.1122 224.1649 22.9421 0.0000 -10584.1718 1422.7164 0.0000 0.0000 1795.4890 -7101.7473 302.6398 -8897.2364 -7101.7473 302.6398 -306.3440 -229.2847 31541.4769 -306.3440 -229.2847
ENERGY: 300000 12.5415 226.7228 23.3109 0.0000 -10839.7301 1509.9708 0.0000 0.0000 1726.5093 -7340.6747 291.0129 -9067.1840 -7227.8642 299.3818 141.4004 208.2100 30677.0748 -34.8116 49.2372
ENERGY: 600000 21.2738 223.9051 22.4967 0.0000 -10662.2053 1469.6322 0.0000 0.0000 1788.7190 -7136.1785 301.4987 -8924.8975 -7217.0976 298.0908 328.7536 377.7737 30481.6769 -150.3905 -62.1088
ENERGY: 900000 13.9854 230.5348 23.0943 0.0000 -10750.9638 1471.5014 0.0000 0.0000 1829.2835 -7182.5644 308.3361 -9011.8479 -7215.5231 299.7893 18.0030 92.4984 30630.1788 -145.4018 -63.9983
ENERGY: 1200000 12.4137 227.7673 23.0378 0.0000 -10790.9451 1469.0600 0.0000 0.0000 1761.3791 -7297.2872 296.8904 -9058.6663 -7213.5773 299.7434 -235.1122 -175.9309 30826.7249 -104.1567 -31.0524
ENERGY: 1500000 15.8327 224.8967 25.6704 0.0000 -10645.7937 1410.9341 0.0000 0.0000 1752.8785 -7215.5813 295.4576 -8968.4598 -7225.5952 299.1451 -450.1827 -358.0605 30710.8346 -84.4497 -6.3117
TCL: Running FEP window   7: Lambda1 0.3    Lambda2 0.35   [dLambda 0.04999999999999999]
TCL: Setting parameter firsttimestep to 0
TCL: Setting parameter alchLambda to 0.3
Info: NONBONDED TABLE R-SQUARED SPACING: 0.0625
Info: NONBONDED TABLE SIZE: 705 POINTS
TCL: Setting parameter alchLambda2 to 0.35
Info: NONBONDED TABLE R-SQUARED SPACING: 0.0625
Info: NONBONDED TABLE SIZE: 705 POINTS
TCL: Running for 1500000 steps
ETITLE: TS BOND ANGLE DIHED IMPRP ELECT VDW BOUNDARY MISC KINETIC TOTAL TEMP POTENTIAL TOTALAVG TEMPAVG PRESSURE GPRESSURE VOLUME PRESSAVG GPRESSAVG
ENERGY: 0 15.8327 224.8967 25.6704 0.0000 -10645.7931 1410.5078 0.0000 0.0000 1751.9868 -7216.8987 295.3073 -8968.8856 -7216.8987 295.3073 -434.5107 -352.8182 30710.8346 -434.5107 -352.8182
ENERGY: 300000 20.1224 220.4294 23.7480 0.0000 -10727.1565 1418.6561 0.0000 0.0000 1820.3314 -7223.8691 306.8271 -9044.2005 -7233.7983 299.5283 -125.1905 -121.4885 30277.7029 -174.4966 -104.4490
ENERGY: 600000 17.5270 225.6559 21.8214 0.0000 -10594.5179 1395.4036 0.0000 0.0000 1746.9790 -7187.1311 294.4632 -8934.1101 -7245.9640 299.5691 -406.5210 -364.9739 30970.5977 -67.9596 -5.2494
ENERGY: 900000 15.9292 226.0503 24.5231 0.0000 -10797.2578 1476.7429 0.0000 0.0000 1768.2459 -7285.7664 298.0478 -9054.0123 -7234.0647 299.6142 201.7880 236.9933 30299.6048 70.6963 141.5039
ENERGY: 1200000 23.0894 220.2665 22.7239 0.0000 -10717.7497 1439.5316 0.0000 0.0000 1738.4693 -7273.6690 293.0288 -9012.1383 -7243.9148 298.3610 -333.9481 -261.8847 30768.7932 29.0606 97.3809
ENERGY: 1500000 20.9691 224.8665 22.6220 0.0000 -10748.0572 1545.5391 0.0000 0.0000 1797.9050 -7136.1556 303.0470 -8934.0606 -7228.0588 298.8729 854.2693 868.6631 30802.5944 54.6758 114.8646
TCL: Running FEP window   8: Lambda1 0.35   Lambda2 0.39999999999999997 [dLambda 0.04999999999999999]
TCL: Setting parameter firsttimestep to 0
TCL: Setting parameter alchLambda to 0.35
Info: NONBONDED TABLE R-SQUARED SPACING: 0.0625
Info: NONBONDED TABLE SIZE: 705 POINTS
TCL: Setting parameter alchLambda2 to 0.39999999999999997
Info: NONBONDED TABLE R-SQUARED SPACING: 0.0625
Info: NONBONDED TABLE SIZE: 705 POINTS
TCL: Running for 1500000 steps
ETITLE: TS BOND ANGLE DIHED IMPRP ELECT VDW BOUNDARY MISC KINETIC TOTAL TEMP POTENTIAL TOTALAVG TEMPAVG PRESSURE GPRESSURE VOLUME PRESSAVG GPRESSAVG
ENERGY: 0 20.9691 224.8665 22.6220 0.0000 -10748.0571 1545.6078 0.0000 0.0000 1797.0188 -7136.9730 302.8977 -8933.9918 -7136.9730 302.8977 809.2551 877.8103 30802.5944 809.2551 877.8103
ENERGY: 300000 21.3419 219.0010 23.6047 0.0000 -10688.9152 1466.5342 0.0000 0.0000 1716.3960 -7242.0374 289.3082 -8958.4334 -7195.9306 299.2273 105.7052 180.2054 30611.7432 524.5446 619.6862
ENERGY: 600000 21.8424 224.7278 22.6295 0.0000 -10685.0992 1426.1597 0.0000 0.0000 1758.7341 -7231.0058 296.4446 -8989.7399 -7202.3318 299.8788 -142.0355 -97.0645 30415.0490 110.8785 201.2152
ENERGY: 900000 16.1156 231.7280 23.3547 0.0000 -10693.8921 1418.7073 0.0000 0.0000 1770.3182 -7233.6682 298.3971 -9003.9864 -7210.3819 299.1747 -406.2555 -412.2884 30939.4365 -64.0584 17.9434
ENERGY: 1200000 23.0356 225.4998 23.4414 0.0000 -10639.9327 1381.5904 0.0000 0.0000 1740.5695 -7245.7961 293.3828 -8986.3656 -7213.9026 298.6333 -807.4417 -719.8102 30999.8407 -126.7873 -50.5525
ENERGY: 1500000 10.3857 240.1557 22.3240 0.0000 -10700.0750 1406.3723 0.0000 0.0000 1771.7679 -7249.0694 298.6415 -9020.8373 -7212.1241 298.5267 -539.9207 -535.5754 30910.9441 -190.2472 -122.2373
TCL: Running FEP window   9: Lambda1 0.39999999999999997 Lambda2 0.44999999999999996 [dLambda 0.04999999999999999]
TCL: Setting parameter firsttimestep to 0
TCL: Setting parameter alchLambda to 0.39999999999999997
Info: NONBONDED TABLE R-SQUARED SPACING: 0.0625
Info: NONBONDED TABLE SIZE: 705 POINTS
TCL: Setting parameter alchLambda2 to 0.44999999999999996
Info: NONBONDED TABLE R-SQUARED SPACING: 0.0625
Info: NONBONDED TABLE SIZE: 705 POINTS
TCL: Running for 1500000 steps
ETITLE: TS BOND ANGLE DIHED IMPRP ELECT VDW BOUNDARY MISC KINETIC TOTAL TEMP POTENTIAL TOTALAVG TEMPAVG PRESSURE GPRESSURE VOLUME PRESSAVG GPRESSAVG
ENERGY: 0 10.3857 240.1557 22.3240 0.0000 -10700.0753 1405.9323 0.0000 0.0000 1770.8990 -7250.3786 298.4950 -9021.2776 -7250.3786 298.4950 -609.5519 -530.8332 30910.9441 -609.5519 -530.8332
ENERGY: 300000 19.2640 226.0039 23.0250 0.0000 -10676.2486 1456.7201 0.0000 0.0000 1814.4472 -7136.7884 305.8353 -8951.2355 -7194.8764 301.6275 436.2086 495.3080 30353.7789 -209.9953 -148.1453
ENERGY: 600000 22.2533 219.3569 23.1999 0.0000 -10713.3849 1427.8543 0.0000 0.0000 1782.3279 -7238.3926 300.4214 -9020.7206 -7208.6738 302.5633 -269.4751 -156.1171 30256.4391 -311.3035 -240.2370
ENERGY: 900000 10.7725 231.2814 22.7664 0.0000 -10707.1887 1471.3207 0.0000 0.0000 1838.7056 -7132.3420 309.9242 -8971.0476 -7206.9004 302.2788 509.2170 602.4126 30818.9612 -156.6583 -85.3688
ENERGY: 1200000 22.5686 224.0043 22.5133 0.0000 -10612.6258 1380.2854 0.0000 0.0000 1832.2688 -7130.9855 308.8393 -8963.2543 -7214.4563 302.0830 -527.3456 -534.4011 30625.0634 -150.1357 -95.2393
ENERGY: 1500000 13.1401 234.0670 23.2869 0.0000 -10600.9560 1357.0057 0.0000 0.0000 1754.6704 -7218.7859 295.7596 -8973.4563 -7216.9154 300.9929 -1038.6432 -935.0816 30807.1746 -154.0470 -101.1918
TCL: Running FEP window  10: Lambda1 0.44999999999999996 Lambda2 0.49999999999999994 [dLambda 0.04999999999999999]
TCL: Setting parameter firsttimestep to 0
TCL: Setting parameter alchLambda to 0.44999999999999996
Info: NONBONDED TABLE R-SQUARED SPACING: 0.0625
Info: NONBONDED TABLE SIZE: 705 POINTS
TCL: Setting parameter alchLambda2 to 0.49999999999999994
Info: NONBONDED TABLE R-SQUARED SPACING: 0.0625
Info: NONBONDED TABLE SIZE: 705 POINTS
TCL: Running for 1500000 steps
ETITLE: TS BOND ANGLE DIHED IMPRP ELECT VDW BOUNDARY MISC KINETIC TOTAL TEMP POTENTIAL TOTALAVG TEMPAVG PRESSURE GPRESSURE VOLUME PRESSAVG GPRESSAVG
ENERGY: 0 13.1401 234.0669 23.2869 0.0000 -10600.9559 1357.4683 0.0000 0.0000 1753.7742 -7219.2194 295.6086 -8972.9936 -7219.2194 295.6086 -998.1114 -917.3506 30807.1746 -998.1114 -917.3506
ENERGY: 300000 25.1908 229.2618 24.0423 0.0000 -10655.1138 1388.6065 0.0000 0.0000 1769.9661 -7218.0463 298.3378 -8988.0124 -7227.3195 296.6621 -835.2684 -789.1299 30933.7353 -157.9927 -104.2336
ENERGY: 600000 15.5208 235.8497 22.3128 0.0000 -10679.8448 1469.6623 0.0000 0.0000 1773.6633 -7162.8358 298.9610 -8936.4991 -7233.9245 297.2125 426.6821 508.7134 30194.8661 -236.2734 -177.9666
ENERGY: 900000 20.0878 226.2112 23.4306 0.0000 -10666.4206 1461.0523 0.0000 0.0000 1767.7051 -7167.9334 297.9567 -8935.6385 -7221.0033 298.6667 81.1512 134.8882 30954.4592 -85.4269 -16.4849
ENERGY: 1200000 12.1860 235.6003 22.3624 0.0000 -10664.5364 1484.8001 0.0000 0.0000 1747.2774 -7162.3102 294.5135 -8909.5876 -7221.7993 297.7128 73.8354 114.9500 31600.7977 -146.5782 -79.6960
ENERGY: 1500000 21.0408 225.5971 24.7264 0.0000 -10822.2384 1517.0902 0.0000 0.0000 1705.9646 -7327.8193 287.5500 -9033.7839 -7233.9635 297.2068 330.6229 399.7000 30473.8141 -160.6040 -92.7156
TCL: Running FEP window  11: Lambda1 0.49999999999999994 Lambda2 0.5499999999999999 [dLambda 0.04999999999999999]
TCL: Setting parameter firsttimestep to 0
TCL: Setting parameter alchLambda to 0.49999999999999994
Info: NONBONDED TABLE R-SQUARED SPACING: 0.0625
Info: NONBONDED TABLE SIZE: 705 POINTS
TCL: Setting parameter alchLambda2 to 0.5499999999999999
Info: NONBONDED TABLE R-SQUARED SPACING: 0.0625
Info: NONBONDED TABLE SIZE: 705 POINTS
TCL: Running for 1500000 steps
ETITLE: TS BOND ANGLE DIHED IMPRP ELECT VDW BOUNDARY MISC KINETIC TOTAL TEMP POTENTIAL TOTALAVG TEMPAVG PRESSURE GPRESSURE VOLUME PRESSAVG GPRESSAVG
ENERGY: 0 21.0408 225.5971 24.7264 0.0000 -10822.2377 1516.7295 0.0000 0.0000 1705.0802 -7329.0638 287.4009 -9034.1440 -7329.0638 287.4009 321.5617 408.2192 30473.8141 321.5617 408.2192
ENERGY: 300000 23.9815 219.2720 23.5687 0.0000 -10799.1987 1498.7805 0.0000 0.0000 1778.4468 -7255.1491 299.7673 -9033.5959 -7250.2146 297.6321 252.2420 309.0943 30487.9313 255.4687 309.3773
ENERGY: 600000 11.8341 230.6978 23.0818 0.0000 -10806.5119 1497.2126 0.0000 0.0000 1813.4445 -7230.2411 305.6663 -9043.6856 -7249.1930 299.3381 497.1836 510.3197 30331.3929 269.1142 313.4237
ENERGY: 900000 20.4996 224.4193 22.9894 0.0000 -10727.2361 1437.8364 0.0000 0.0000 1779.3609 -7242.1304 299.9213 -9021.4913 -7224.8066 298.9212 -264.9656 -272.1907 30753.8883 157.4411 192.1929
ENERGY: 1200000 13.0271 232.8331 22.6173 0.0000 -10743.3930 1462.6583 0.0000 0.0000 1764.9996 -7247.2576 297.5007 -9012.2572 -7226.7275 299.2228 36.6321 131.1968 30619.5956 120.4363 159.2318
ENERGY: 1500000 21.2390 218.8218 22.1990 0.0000 -10876.4229 1570.3103 0.0000 0.0000 1801.6452 -7242.2076 303.6775 -9043.8528 -7217.7869 299.9781 657.3485 702.1942 30804.5266 95.7604 137.2171
TCL: Running FEP window  12: Lambda1 0.5499999999999999 Lambda2 0.6    [dLambda 0.050000000000000044]
TCL: Setting parameter firsttimestep to 0
TCL: Setting parameter alchLambda to 0.5499999999999999
Info: NONBONDED TABLE R-SQUARED SPACING: 0.0625
Info: NONBONDED TABLE SIZE: 705 POINTS
TCL: Setting parameter alchLambda2 to 0.6
Info: NONBONDED TABLE R-SQUARED SPACING: 0.0625
Info: NONBONDED TABLE SIZE: 705 POINTS
TCL: Running for 1500000 steps
ETITLE: TS BOND ANGLE DIHED IMPRP ELECT VDW BOUNDARY MISC KINETIC TOTAL TEMP POTENTIAL TOTALAVG TEMPAVG PRESSURE GPRESSURE VOLUME PRESSAVG GPRESSAVG
ENERGY: 0 21.2390 218.8218 22.1990 0.0000 -10875.6072 1570.0708 0.0000 0.0000 1800.7313 -7242.5454 303.5234 -9043.2767 -7242.5454 303.5234 635.1199 714.4992 30804.5266 635.1199 714.4992
ENERGY: 300000 25.2758 225.7944 22.4050 0.0000 -10563.9515 1331.8755 0.0000 0.0000 1784.8352 -7173.7655 300.8441 -8958.6007 -7212.4094 302.5278 -1128.3523 -1063.5408 31031.0981 -29.1267 34.4455
ENERGY: 600000 10.1593 235.9443 23.2555 0.0000 -10618.4549 1386.7119 0.0000 0.0000 1763.1808 -7199.2031 297.1941 -8962.3839 -7217.6793 300.5722 -267.4444 -258.4633 30936.0180 8.9719 68.5622
ENERGY: 900000 13.8451 226.2555 22.8810 0.0000 -10813.4922 1524.0439 0.0000 0.0000 1809.4722 -7216.9943 304.9968 -9026.4666 -7232.1127 301.2247 642.9983 697.4839 30774.9491 175.2128 239.8246
ENERGY: 1200000 11.4180 232.3214 23.1070 0.0000 -10798.9282 1468.0442 0.0000 0.0000 1770.5079 -7293.5296 298.4291 -9064.0375 -7240.4197 300.6687 -98.4490 -25.6850 30923.6263 137.8402 205.0204
ENERGY: 1500000 17.6297 228.4014 24.3274 0.0000 -10633.9031 1387.5766 0.0000 0.0000 1780.3693 -7195.5986 300.0913 -8975.9679 -7239.9283 300.5439 -182.3501 -111.9900 30374.8805 55.1011 122.4166
TCL: Running FEP window  13: Lambda1 0.6    Lambda2 0.65   [dLambda 0.050000000000000044]
TCL: Setting parameter firsttimestep to 0
TCL: Setting parameter alchLambda to 0.6
Info: NONBONDED TABLE R-SQUARED SPACING: 0.0625
Info: NONBONDED TABLE SIZE: 705 POINTS
TCL: Setting parameter alchLambda2 to 0.65
Info: NONBONDED TABLE R-SQUARED SPACING: 0.0625
Info: NONBONDED TABLE SIZE: 705 POINTS
TCL: Running for 1500000 steps
ETITLE: TS BOND ANGLE DIHED IMPRP ELECT VDW BOUNDARY MISC KINETIC TOTAL TEMP POTENTIAL TOTALAVG TEMPAVG PRESSURE GPRESSURE VOLUME PRESSAVG GPRESSAVG
ENERGY: 0 17.6297 228.4014 24.3274 0.0000 -10634.7206 1386.7948 0.0000 0.0000 1779.4877 -7198.0796 299.9427 -8977.5673 -7198.0796 299.9427 -186.2022 -106.4068 30374.8805 -186.2022 -106.4068
ENERGY: 300000 12.4091 240.6068 23.4083 0.0000 -10602.5501 1450.7752 0.0000 0.0000 1788.4458 -7086.9050 301.4526 -8875.3507 -7196.5316 297.8185 328.2427 411.2323 30751.2323 258.3027 333.8882
ENERGY: 600000 24.7815 219.3573 22.7080 0.0000 -10768.8151 1468.5997 0.0000 0.0000 1775.4838 -7257.8848 299.2678 -9033.3686 -7205.9608 298.8890 -215.4599 -156.1814 30960.1033 115.1880 199.9507
ENERGY: 900000 20.2292 218.6543 22.4476 0.0000 -10762.7134 1470.0245 0.0000 0.0000 1753.6401 -7277.7176 295.5859 -9031.3577 -7206.3702 299.1806 68.4395 116.2625 30691.6381 21.9085 95.7141
ENERGY: 1200000 21.9405 220.3280 23.0368 0.0000 -10672.9148 1434.7771 0.0000 0.0000 1833.4813 -7139.3510 309.0436 -8972.8323 -7203.5213 299.9371 -200.5249 -139.2869 31115.8502 -20.8662 57.9774
ENERGY: 1500000 17.4466 220.5233 22.7367 0.0000 -10799.3127 1495.4385 0.0000 0.0000 1795.8503 -7247.3173 302.7007 -9043.1676 -7217.9681 299.7338 121.0255 184.5519 30893.6943 -19.8031 56.5289
TCL: Running FEP window  14: Lambda1 0.65   Lambda2 0.7000000000000001 [dLambda 0.050000000000000044]
TCL: Setting parameter firsttimestep to 0
TCL: Setting parameter alchLambda to 0.65
Info: NONBONDED TABLE R-SQUARED SPACING: 0.0625
Info: NONBONDED TABLE SIZE: 705 POINTS
TCL: Setting parameter alchLambda2 to 0.7000000000000001
Info: NONBONDED TABLE R-SQUARED SPACING: 0.0625
Info: NONBONDED TABLE SIZE: 705 POINTS
TCL: Running for 1500000 steps
ETITLE: TS BOND ANGLE DIHED IMPRP ELECT VDW BOUNDARY MISC KINETIC TOTAL TEMP POTENTIAL TOTALAVG TEMPAVG PRESSURE GPRESSURE VOLUME PRESSAVG GPRESSAVG
ENERGY: 0 17.4467 220.5233 22.7366 0.0000 -10799.2128 1495.8936 0.0000 0.0000 1794.9546 -7247.6580 302.5497 -9042.6126 -7247.6580 302.5497 129.5425 204.9833 30893.6943 129.5425 204.9833
ENERGY: 300000 17.9086 231.5580 24.7531 0.0000 -10725.2072 1362.8282 0.0000 0.0000 1787.1464 -7301.0130 301.2336 -9088.1594 -7252.6548 300.8737 -433.8551 -358.4497 29825.0001 -208.8376 -134.2645
ENERGY: 600000 21.8460 223.0514 22.1497 0.0000 -10790.7976 1523.3966 0.0000 0.0000 1799.4179 -7200.9360 303.3020 -9000.3539 -7239.1756 301.4925 862.9695 899.7517 30193.2892 20.5539 97.6116
ENERGY: 900000 12.1506 235.0933 22.3842 0.0000 -10691.9547 1449.4879 0.0000 0.0000 1728.1532 -7244.6855 291.2900 -8972.8387 -7230.5139 300.5185 -4.2408 114.5556 30818.3344 152.6329 230.7951
ENERGY: 1200000 17.7487 228.3809 22.6845 0.0000 -10742.6727 1440.9662 0.0000 0.0000 1805.3748 -7227.5175 304.3061 -9032.8923 -7236.0615 300.0772 13.5194 76.5393 30456.4318 147.5979 223.1996
ENERGY: 1500000 21.9030 225.5392 23.1176 0.0000 -10638.3013 1491.0648 0.0000 0.0000 1781.8388 -7094.8380 300.3390 -8876.6768 -7226.9823 299.8478 287.0204 358.9293 31154.0594 130.4868 205.4655
TCL: Running FEP window  15: Lambda1 0.7000000000000001 Lambda2 0.7500000000000001 [dLambda 0.050000000000000044]
TCL: Setting parameter firsttimestep to 0
TCL: Setting parameter alchLambda to 0.7000000000000001
Info: NONBONDED TABLE R-SQUARED SPACING: 0.0625
Info: NONBONDED TABLE SIZE: 705 POINTS
TCL: Setting parameter alchLambda2 to 0.7500000000000001
Info: NONBONDED TABLE R-SQUARED SPACING: 0.0625
Info: NONBONDED TABLE SIZE: 705 POINTS
TCL: Running for 1500000 steps
ETITLE: TS BOND ANGLE DIHED IMPRP ELECT VDW BOUNDARY MISC KINETIC TOTAL TEMP POTENTIAL TOTALAVG TEMPAVG PRESSURE GPRESSURE VOLUME PRESSAVG GPRESSAVG
ENERGY: 0 21.9030 225.5392 23.1176 0.0000 -10638.5792 1492.1196 0.0000 0.0000 1780.9437 -7094.9561 300.1881 -8875.8998 -7094.9561 300.1881 302.5439 388.8148 31154.0594 302.5439 388.8148
ENERGY: 300000 15.3505 225.8425 22.6516 0.0000 -10770.2351 1508.7401 0.0000 0.0000 1805.5372 -7192.1130 304.3335 -8997.6503 -7177.2105 303.2006 487.1567 532.1757 30709.5876 45.3422 117.7293
ENERGY: 600000 15.7305 234.2781 22.2121 0.0000 -10673.0121 1424.4959 0.0000 0.0000 1826.2323 -7150.0631 307.8218 -8976.2955 -7189.8699 302.2346 -458.7845 -423.2081 31210.0406 -171.4348 -110.4935
ENERGY: 900000 13.8453 230.0866 23.6881 0.0000 -10654.0393 1371.2108 0.0000 0.0000 1754.8694 -7260.3391 295.7932 -9015.2085 -7195.6252 301.0013 -796.8485 -730.8062 31348.7785 -174.6158 -115.8047
ENERGY: 1200000 17.6571 220.3342 23.0670 0.0000 -10797.6088 1478.1687 0.0000 0.0000 1745.9704 -7312.4114 294.2932 -9058.3818 -7214.8945 300.0011 149.5248 221.7986 30359.0203 -100.8147 -40.9730
ENERGY: 1500000 14.8735 231.2030 24.3951 0.0000 -10651.3269 1453.0540 0.0000 0.0000 1812.4563 -7115.3451 305.4998 -8927.8014 -7212.5065 300.4604 252.7290 297.3865 31129.3083 -153.2021 -105.4001
TCL: Running FEP window  16: Lambda1 0.7500000000000001 Lambda2 0.8000000000000002 [dLambda 0.050000000000000044]
TCL: Setting parameter firsttimestep to 0
TCL: Setting parameter alchLambda to 0.7500000000000001
Info: NONBONDED TABLE R-SQUARED SPACING: 0.0625
Info: NONBONDED TABLE SIZE: 705 POINTS
TCL: Setting parameter alchLambda2 to 0.8000000000000002
Info: NONBONDED TABLE R-SQUARED SPACING: 0.0625
Info: NONBONDED TABLE SIZE: 705 POINTS
TCL: Running for 1500000 steps
ETITLE: TS BOND ANGLE DIHED IMPRP ELECT VDW BOUNDARY MISC KINETIC TOTAL TEMP POTENTIAL TOTALAVG TEMPAVG PRESSURE GPRESSURE VOLUME PRESSAVG GPRESSAVG
ENERGY: 0 14.8735 231.2030 24.3951 0.0000 -10651.8958 1452.2542 0.0000 0.0000 1811.5470 -7117.6230 305.3465 -8929.1701 -7117.6230 305.3465 218.2152 305.5607 31129.3083 218.2152 305.5607
ENERGY: 300000 14.5258 228.4404 23.1867 0.0000 -10637.0703 1419.0959 0.0000 0.0000 1801.5520 -7150.2696 303.6618 -8951.8216 -7195.5038 302.3549 -574.1445 -454.5286 31307.0495 110.4743 190.1036
ENERGY: 600000 23.7088 224.1237 22.6218 0.0000 -10602.7321 1377.5224 0.0000 0.0000 1738.2967 -7216.4587 292.9997 -8954.7554 -7216.1970 300.9644 -867.1389 -773.2037 31216.8573 -165.1853 -77.2267
ENERGY: 900000 13.8331 224.1733 22.5028 0.0000 -10703.7862 1401.8906 0.0000 0.0000 1805.1081 -7236.2783 304.2612 -9041.3863 -7221.7722 301.1667 -487.5939 -502.1435 30846.2113 -127.2331 -56.3330
ENERGY: 1200000 13.7419 226.6608 27.1027 0.0000 -10706.1001 1415.4207 0.0000 0.0000 1738.4945 -7284.6795 293.0331 -9023.1740 -7214.1237 301.0825 -229.7039 -157.7549 30588.5502 -167.1882 -96.9106
ENERGY: 1500000 12.9029 228.7012 24.3160 0.0000 -10764.0341 1463.8854 0.0000 0.0000 1756.6787 -7277.5499 296.0981 -9034.2286 -7220.9106 300.4893 444.2961 464.3500 30386.3781 -110.7241 -46.8416
TCL: Running FEP window  17: Lambda1 0.8000000000000002 Lambda2 0.8500000000000002 [dLambda 0.050000000000000044]
TCL: Setting parameter firsttimestep to 0
TCL: Setting parameter alchLambda to 0.8000000000000002
Info: NONBONDED TABLE R-SQUARED SPACING: 0.0625
Info: NONBONDED TABLE SIZE: 705 POINTS
TCL: Setting parameter alchLambda2 to 0.8500000000000002
Info: NONBONDED TABLE R-SQUARED SPACING: 0.0625
Info: NONBONDED TABLE SIZE: 705 POINTS
TCL: Running for 1500000 steps
ETITLE: TS BOND ANGLE DIHED IMPRP ELECT VDW BOUNDARY MISC KINETIC TOTAL TEMP POTENTIAL TOTALAVG TEMPAVG PRESSURE GPRESSURE VOLUME PRESSAVG GPRESSAVG
ENERGY: 0 12.9029 228.7012 24.3160 0.0000 -10764.7546 1463.7034 0.0000 0.0000 1755.7962 -7279.3349 295.9494 -9035.1311 -7279.3349 295.9494 403.7150 480.1049 30386.3781 403.7150 480.1049
ENERGY: 300000 26.0401 222.4158 22.5420 0.0000 -10731.5978 1453.0061 0.0000 0.0000 1769.1055 -7238.4884 298.1927 -9007.5939 -7234.8406 300.0844 -165.4980 -100.8942 30922.9911 81.2206 132.6840
ENERGY: 600000 20.0629 220.7195 22.2851 0.0000 -10612.0306 1362.2827 0.0000 0.0000 1755.5698 -7231.1106 295.9112 -8986.6804 -7228.4822 298.0421 -613.1669 -549.0354 31080.9047 -147.0144 -90.0846
ENERGY: 900000 10.1357 229.9327 22.2618 0.0000 -10684.5349 1419.1398 0.0000 0.0000 1779.2198 -7223.8452 299.8975 -9003.0649 -7216.5227 299.7529 -117.5172 -20.8960 31078.9578 -168.2594 -102.9239
ENERGY: 1200000 16.4966 232.7734 22.5595 0.0000 -10736.8559 1472.0470 0.0000 0.0000 1798.1286 -7194.8507 303.0847 -8992.9793 -7225.6669 299.0369 285.7200 363.4275 30764.8379 -64.0173 5.8816
ENERGY: 1500000 15.3672 229.0421 22.6474 0.0000 -10618.5135 1409.1942 0.0000 0.0000 1791.8602 -7150.4024 302.0282 -8942.2626 -7223.2470 298.5878 70.6528 209.9491 30720.7971 -89.6187 -15.5037
TCL: Running FEP window  18: Lambda1 0.8500000000000002 Lambda2 0.9000000000000002 [dLambda 0.050000000000000044]
TCL: Setting parameter firsttimestep to 0
TCL: Setting parameter alchLambda to 0.8500000000000002
Info: NONBONDED TABLE R-SQUARED SPACING: 0.0625
Info: NONBONDED TABLE SIZE: 705 POINTS
TCL: Setting parameter alchLambda2 to 0.9000000000000002
Info: NONBONDED TABLE R-SQUARED SPACING: 0.0625
Info: NONBONDED TABLE SIZE: 705 POINTS
TCL: Running for 1500000 steps
ETITLE: TS BOND ANGLE DIHED IMPRP ELECT VDW BOUNDARY MISC KINETIC TOTAL TEMP POTENTIAL TOTALAVG TEMPAVG PRESSURE GPRESSURE VOLUME PRESSAVG GPRESSAVG
ENERGY: 0 15.3672 229.0421 22.6474 0.0000 -10619.6261 1409.1974 0.0000 0.0000 1790.9642 -7152.4079 301.8771 -8943.3720 -7152.4079 301.8771 138.2788 224.2638 30720.7971 138.2788 224.2638
ENERGY: 300000 13.6899 231.7391 22.5625 0.0000 -10548.7318 1331.6245 0.0000 0.0000 1768.7713 -7180.3446 298.1364 -8949.1159 -7175.7236 299.6921 -745.5379 -729.6666 31323.2981 -142.3407 -78.6401
ENERGY: 600000 17.8490 222.1963 22.8713 0.0000 -10701.9971 1476.3050 0.0000 0.0000 1774.7934 -7187.9821 299.1515 -8962.7755 -7220.4876 298.5059 376.7799 336.8053 30805.7529 -359.9925 -305.5108
ENERGY: 900000 14.8191 222.4695 22.2124 0.0000 -10716.2452 1423.7468 0.0000 0.0000 1795.5009 -7237.4964 302.6418 -9032.9974 -7235.5799 299.0713 -119.0341 -85.5407 30588.9921 -169.5872 -117.8505
ENERGY: 1200000 19.5050 231.6281 23.2692 0.0000 -10860.6565 1515.4145 0.0000 0.0000 1758.7153 -7312.1243 296.4414 -9070.8396 -7246.0112 299.2550 90.4894 141.3337 30991.7377 -194.1286 -135.1470
ENERGY: 1500000 18.4959 226.6028 22.4407 0.0000 -10786.7064 1470.1195 0.0000 0.0000 1726.0487 -7322.9988 290.9353 -9049.0475 -7241.2059 298.7565 57.8890 52.3251 30783.1598 -163.9882 -109.7871
TCL: Running FEP window  19: Lambda1 0.9000000000000002 Lambda2 0.9500000000000003 [dLambda 0.050000000000000044]
TCL: Setting parameter firsttimestep to 0
TCL: Setting parameter alchLambda to 0.9000000000000002
Info: NONBONDED TABLE R-SQUARED SPACING: 0.0625
Info: NONBONDED TABLE SIZE: 705 POINTS
TCL: Setting parameter alchLambda2 to 0.9500000000000003
Info: NONBONDED TABLE R-SQUARED SPACING: 0.0625
Info: NONBONDED TABLE SIZE: 705 POINTS
TCL: Running for 1500000 steps
ETITLE: TS BOND ANGLE DIHED IMPRP ELECT VDW BOUNDARY MISC KINETIC TOTAL TEMP POTENTIAL TOTALAVG TEMPAVG PRESSURE GPRESSURE VOLUME PRESSAVG GPRESSAVG
ENERGY: 0 18.4959 226.6028 22.4407 0.0000 -10787.8262 1470.9288 0.0000 0.0000 1725.1380 -7324.2200 290.7817 -9049.3580 -7324.2200 290.7817 -7.4221 76.6505 30783.1598 -7.4221 76.6505
ENERGY: 300000 19.8058 220.0356 22.6416 0.0000 -10746.0551 1449.8661 0.0000 0.0000 1739.5020 -7294.2039 293.2029 -9033.7060 -7278.5897 296.7766 -106.3561 -39.3802 30777.4997 -271.3404 -200.6764
ENERGY: 600000 14.8750 224.7264 22.1752 0.0000 -10741.5592 1434.9902 0.0000 0.0000 1782.6882 -7262.1042 300.4822 -9044.7924 -7267.7830 298.1789 -67.0432 -14.7201 30526.0050 -217.8535 -145.8393
ENERGY: 900000 20.6361 221.2816 22.8229 0.0000 -10792.9188 1501.3822 0.0000 0.0000 1806.7772 -7220.0187 304.5425 -9026.7959 -7258.0120 299.1707 147.5671 222.2606 30981.7449 -177.3058 -101.6467
ENERGY: 1200000 19.5058 223.5361 22.9056 0.0000 -10757.3663 1479.3517 0.0000 0.0000 1749.1618 -7262.9053 294.8311 -9012.0672 -7258.2330 298.1834 252.9906 300.9023 30519.2038 -194.3452 -118.6161
ENERGY: 1500000 18.3682 221.3793 22.3359 0.0000 -10809.7203 1455.1742 0.0000 0.0000 1763.5354 -7328.9272 297.2539 -9092.4626 -7257.7779 298.4815 208.3256 281.9519 30264.8759 -188.6249 -114.7039
TCL: Running FEP window  20: Lambda1 0.9500000000000003 Lambda2 1.0    [dLambda 0.04999999999999971]
TCL: Setting parameter firsttimestep to 0
TCL: Setting parameter alchLambda to 0.9500000000000003
Info: NONBONDED TABLE R-SQUARED SPACING: 0.0625
Info: NONBONDED TABLE SIZE: 705 POINTS
TCL: Setting parameter alchLambda2 to 1.0
Info: NONBONDED TABLE R-SQUARED SPACING: 0.0625
Info: NONBONDED TABLE SIZE: 705 POINTS
TCL: Running for 1500000 steps
ETITLE: TS BOND ANGLE DIHED IMPRP ELECT VDW BOUNDARY MISC KINETIC TOTAL TEMP POTENTIAL TOTALAVG TEMPAVG PRESSURE GPRESSURE VOLUME PRESSAVG GPRESSAVG
ENERGY: 0 18.3682 221.3793 22.3359 0.0000 -10810.2337 1454.6099 0.0000 0.0000 1762.6776 -7330.8627 297.1093 -9093.5403 -7330.8627 297.1093 209.6915 299.7077 30264.8759 209.6915 299.7077
ENERGY: 300000 22.5550 221.4729 22.0400 0.0000 -10721.5148 1428.9139 0.0000 0.0000 1789.0017 -7237.5313 301.5463 -9026.5329 -7265.0405 298.5643 -45.1394 38.6472 30567.9754 253.3213 329.6302
ENERGY: 600000 19.7959 225.6834 22.0476 0.0000 -10740.3940 1485.4132 0.0000 0.0000 1787.0767 -7200.3772 301.2219 -8987.4539 -7236.3267 300.7285 312.1351 351.2605 31011.5982 77.6157 155.5738
ENERGY: 900000 17.6395 225.7864 22.2929 0.0000 -10660.1336 1362.4918 0.0000 0.0000 1762.8324 -7269.0906 297.1354 -9031.9230 -7237.5373 300.4235 -1066.4297 -912.0702 30853.6459 -196.7895 -123.0372
ENERGY: 1200000 14.7789 231.0307 23.2351 0.0000 -10777.1864 1514.0565 0.0000 0.0000 1749.4018 -7244.6834 294.8715 -8994.0851 -7247.5482 298.5439 928.9721 945.3580 30699.4412 -91.9898 -22.4664
ENERGY: 1500000 20.9789 226.8779 22.3092 0.0000 -10743.6873 1425.7223 0.0000 0.0000 1770.2676 -7277.5315 298.3886 -9047.7990 -7247.0670 298.9064 -254.8730 -112.4816 30589.4112 -82.0315 -11.7207
TCL: Exiting due to exit command.
