Info: SIMULATION PARAMETERS:
Info: TIMESTEP               2
Info: NUMBER OF STEPS        0
Info: STEPS PER CYCLE        10
Info: PERIODIC CELL BASIS 1  30.8263 0 0
Info: PERIODIC CELL BASIS 2  0 31.5251 0
Info: PERIODIC CELL BASIS 3  0 0 31.4757
Info: PERIODIC CELL CENTER   0 0 0
Info: WRAPPING WATERS AROUND PERIODIC BOUNDARIES ON OUTPUT.
Info: WRAPPING ALL CLUSTERS AROUND PERIODIC BOUNDARIES ON OUTPUT.
Info: FIRST LDB TIMESTEP     50
Info: LAST LDB TIMESTEP     -1
Info: HOM BACKGROUND SCALING 1
Info: PME BACKGROUND SCALING 1
Info: MIN ATOMS PER PATCH    40
Info: EMPTY PATCH LOAD       40 ATOMS
Info: VELOCITY FILE          mobley_6309289_equil.vel
Info: CENTER OF MASS MOVING INITIALLY? NO
Info: DIELECTRIC             1
Info: EXCLUDE                SCALED ONE-FOUR
Info: 1-4 ELECTROSTATICS SCALED BY 0.833333
Info: MODIFIED 1-4 VDW PARAMETERS WILL BE USED
Info: DCD FILENAME           mobley_6309289_prod.dcd
Info: DCD FREQUENCY          100000
Info: DCD FIRST STEP         100000
Info: DCD FILE WILL CONTAIN UNIT CELL DATA
Info: XST FILENAME           mobley_6309289_prod.xst
Info: XST FREQUENCY          100000
Info: NO VELOCITY DCD OUTPUT
Info: NO FORCE DCD OUTPUT
Info: OUTPUT FILENAME        mobley_6309289_prod
Info: BINARY OUTPUT FILES WILL BE USED
Info: RESTART FILENAME       mobley_6309289_prod.restart
Info: RESTART FREQUENCY      100000
Info: BINARY RESTART FILES WILL BE USED
Info: CUTOFF                 9
Info: PAIRLIST DISTANCE      11
Info: PAIRLIST SHRINK RATE   0.01
Info: PAIRLIST GROW RATE     0.01
Info: PAIRLIST TRIGGER       0.3
Info: PAIRLISTS PER CYCLE    2
Info: PAIRLISTS ENABLED
Info: MARGIN                 2
Info: HYDROGEN GROUP CUTOFF  2.5
Info: PATCH DIMENSION        15.5
Info: ENERGY OUTPUT STEPS    100000
Info: ENERGY EVALUATION STEPS    100000
Info: OUTPUT ENERGY PRECISION 4
Info: CROSSTERM ENERGY INCLUDED IN DIHEDRAL
Info: TIMING OUTPUT STEPS    1000000
Info: PRESSURE OUTPUT STEPS  100000
Info: ALCHEMICAL FEP ON
Info: FEP CURRENT LAMBDA VALUE     1
Info: FEP COMPARISON LAMBDA VALUE  0.95
Info: FEP INTRA-ALCHEMICAL NON-BONDED INTERACTIONS WILL BE RETAINED
Info: FEP INTRA-ALCHEMICAL BONDED INTERACTIONS WILL BE RETAINED
Info: FEP VDW SHIFTING COEFFICIENT 5
Info: FEP ELEC. ACTIVE FOR ANNIHILATED PARTICLES BETWEEN LAMBDA = 0 AND LAMBDA = 0.5
Info: FEP ELEC. ACTIVE FOR EXNIHILATED PARTICLES BETWEEN LAMBDA = 0.5 AND LAMBDA = 1
Info: FEP VDW ACTIVE FOR ANNIHILATED PARTICLES BETWEEN LAMBDA = 0 AND LAMBDA = 1
Info: FEP VDW ACTIVE FOR EXNIHILATED PARTICLES BETWEEN LAMBDA = 0 AND LAMBDA = 1
Info: FEP BOND ACTIVE FOR ANNIHILATED PARTICLES BETWEEN LAMBDA = 1 AND LAMBDA = 1
Info: FEP BOND ACTIVE FOR EXNIHILATED PARTICLES BETWEEN LAMBDA = 0 AND LAMBDA = 0
Info: LANGEVIN DYNAMICS ACTIVE
Info: LANGEVIN TEMPERATURE   300
Info: LANGEVIN USING BBK INTEGRATOR
Info: LANGEVIN DAMPING COEFFICIENT IS 1 INVERSE PS
Info: LANGEVIN DYNAMICS APPLIED TO HYDROGENS
Info: LANGEVIN PISTON PRESSURE CONTROL ACTIVE
Info:        TARGET PRESSURE IS 1.01325 BAR
Info:     OSCILLATION PERIOD IS 50 FS
Info:             DECAY TIME IS 25 FS
Info:     PISTON TEMPERATURE IS 300 K
Info:       PRESSURE CONTROL IS GROUP-BASED
Info:    INITIAL STRAIN RATE IS -9.17049e-05 -9.17049e-05 -9.17049e-05
Info:       CELL FLUCTUATION IS ISOTROPIC
Info: PARTICLE MESH EWALD (PME) ACTIVE
Info: PME TOLERANCE               1e-06
Info: PME EWALD COEFFICIENT       0.348832
Info: PME INTERPOLATION ORDER     4
Info: PME GRID DIMENSIONS         32 32 32
Info: PME MAXIMUM GRID SPACING    1
Info: PME CALCULATION WILL BE PERFORMED ON GPU
Info: FULL ELECTROSTATIC EVALUATION FREQUENCY      2
Info: USING VERLET I (r-RESPA) MTS SCHEME.
Info: C1 SPLITTING OF LONG RANGE ELECTROSTATICS
Info: PLACING ATOMS IN PATCHES BY HYDROGEN GROUPS
Info: RIGID BONDS TO HYDROGEN : ALL
Info:         ERROR TOLERANCE : 1e-08
Info:          MAX ITERATIONS : 100
Info: RIGID WATER USING SETTLE ALGORITHM
Info: RANDOM NUMBER SEED     1743608051
Info: USE HYDROGEN BONDS?    NO
Info: Using AMBER format force field!
Info: AMBER PARM FILE        mobley_6309289.prmtop
Info: COORDINATE PDB         mobley_6309289.pdb
Info: Exclusions will be read from PARM file!
Info: SCNB (VDW SCALING)     2
Info: USING ARITHMETIC MEAN TO COMBINE L-J SIGMA PARAMETERS
Info: BINARY COORDINATES     mobley_6309289_equil.coor
Info: SUMMARY OF PARAMETERS:
Info: 7 BONDS
Info: 9 ANGLES
Info:   9 HARMONIC
Info:   0 COSINE-BASED
Info: 8 DIHEDRAL
Info: 0 IMPROPER
Info: 0 CROSSTERM
Info: 0 VDW
Info: 28 VDW_PAIRS
Info: 0 NBTHOLE_PAIRS
Info: To read alchdata from file: mobley_6309289.pdb
Info: To read alchflag data from column: 5
Info: STRUCTURE SUMMARY:
Info: 2957 ATOMS
Info: 2957 BONDS
Info: 33 ANGLES
Info: 54 DIHEDRALS
Info: 0 IMPROPERS
Info: 0 CROSSTERMS
Info: 3035 EXCLUSIONS
Info: 2951 RIGID BONDS
Info: ALCH: 0 ATOMS TO DISAPPEAR IN FINAL STATE
Info: ALCH: 17 ATOMS TO APPEAR IN FINAL STATE
Info: 5920 DEGREES OF FREEDOM
Info: 986 HYDROGEN GROUPS
Info: 3 ATOMS IN LARGEST HYDROGEN GROUP
Info: 986 MIGRATION GROUPS
Info: 3 ATOMS IN LARGEST MIGRATION GROUP
Info: TOTAL MASS = 17740.8 amu
Info: TOTAL CHARGE = 0.000299975 e
Info: MASS DENSITY = 0.963119 g/cm^3
Info: ATOM DENSITY = 0.0966714 atoms/A^3
Info: ADDED 0 IMPLICIT EXCLUSIONS
Info: NONBONDED TABLE R-SQUARED SPACING: 0.0625
Info: NONBONDED TABLE SIZE: 705 POINTS
Info: REMOVING COM VELOCITY 0.0861174 0.0973321 0.234061
Info: Use 3D box decompostion in PME FFT.
Info: Updated CUDA force table with 4096 elements.
Info: Updated CUDA LJ table with 7 x 7 elements.
Info: Found 20 unique exclusion lists needing 52 bytes
TCL: Running for 1500000 steps
ETITLE: TS BOND ANGLE DIHED IMPRP ELECT VDW BOUNDARY MISC KINETIC TOTAL TEMP POTENTIAL TOTALAVG TEMPAVG PRESSURE GPRESSURE VOLUME PRESSAVG GPRESSAVG
ENERGY: 0 1.6839 7.2741 3.4102 0.0000 -10675.3513 1414.8208 0.0000 0.0000 1786.6852 -7461.4771 303.7503 -9248.1623 -7461.4771 303.7503 -85.0374 -1.7536 30588.1580 -85.0374 -1.7536
ENERGY: 300000 2.4397 10.2587 3.2221 0.0000 -10660.3129 1416.6203 0.0000 0.0000 1783.7365 -7444.0355 303.2490 -9227.7721 -7469.2788 301.3958 -367.1785 -272.9218 30679.2803 -61.5929 0.2789
ENERGY: 600000 3.0040 5.1874 2.4857 0.0000 -10601.8248 1359.1430 0.0000 0.0000 1775.1966 -7456.8081 301.7972 -9232.0048 -7466.4368 302.4839 -369.4021 -231.1621 30122.2083 -252.8281 -178.0944
ENERGY: 900000 3.2050 5.1496 3.5877 0.0000 -10761.5947 1497.0548 0.0000 0.0000 1797.2142 -7455.3833 305.5403 -9252.5975 -7472.4270 303.1949 391.0080 492.4906 30214.8066 -122.5530 -54.3649
ENERGY: 1200000 1.0032 6.7008 3.6125 0.0000 -10717.3951 1432.1660 0.0000 0.0000 1745.2495 -7528.6631 296.7059 -9273.9126 -7483.3790 301.8303 -44.4997 36.1263 30400.4521 -199.7322 -133.2919
ENERGY: 1500000 2.5970 10.3768 3.4084 0.0000 -10641.8106 1422.0942 0.0000 0.0000 1783.3647 -7419.9695 303.1858 -9203.3343 -7481.6400 302.3118 -0.3251 100.5307 30581.2942 -214.7861 -146.1639
TCL: Running FEP window   2: Lambda1 0.95   Lambda2 0.8999999999999999 [dLambda -0.050000000000000044]
TCL: Setting parameter firsttimestep to 0
TCL: Setting parameter alchLambda to 0.95
Info: NONBONDED TABLE R-SQUARED SPACING: 0.0625
Info: NONBONDED TABLE SIZE: 705 POINTS
TCL: Setting parameter alchLambda2 to 0.8999999999999999
Info: NONBONDED TABLE R-SQUARED SPACING: 0.0625
Info: NONBONDED TABLE SIZE: 705 POINTS
TCL: Running for 1500000 steps
ETITLE: TS BOND ANGLE DIHED IMPRP ELECT VDW BOUNDARY MISC KINETIC TOTAL TEMP POTENTIAL TOTALAVG TEMPAVG PRESSURE GPRESSURE VOLUME PRESSAVG GPRESSAVG
ENERGY: 0 2.5970 10.3768 3.4084 0.0000 -10640.4810 1421.8486 0.0000 0.0000 1782.4714 -7419.7788 303.0339 -9202.2502 -7419.7788 303.0339 18.6285 90.9063 30581.2942 18.6285 90.9063
ENERGY: 300000 1.5435 6.8062 2.7864 0.0000 -10683.5894 1383.6789 0.0000 0.0000 1731.3516 -7557.4227 294.3432 -9288.7743 -7512.9467 299.3711 -535.8889 -494.8868 30436.7112 -234.2445 -184.5008
ENERGY: 600000 3.6080 8.8945 2.8737 0.0000 -10814.3759 1521.9326 0.0000 0.0000 1744.4549 -7532.6121 296.5708 -9277.0670 -7509.5097 298.7747 613.0301 680.2149 30359.8129 87.0145 140.5216
ENERGY: 900000 2.9263 9.7219 3.1481 0.0000 -10736.2791 1510.6935 0.0000 0.0000 1748.3860 -7461.4033 297.2391 -9209.7893 -7513.5214 297.8673 466.1368 545.9367 30491.1966 -6.1958 55.5573
ENERGY: 1200000 2.0914 8.7136 3.9162 0.0000 -10575.9658 1384.1560 0.0000 0.0000 1846.4580 -7330.6307 313.9121 -9177.0887 -7493.3233 299.9212 -443.7405 -340.0067 31029.3206 -2.8739 68.6575
ENERGY: 1500000 0.8238 7.9591 3.2180 0.0000 -10678.6537 1412.5523 0.0000 0.0000 1772.1916 -7481.9089 301.2863 -9254.1005 -7491.8868 299.5400 -225.0006 -159.2647 30512.0989 -26.9575 48.3918
TCL: Running FEP window   3: Lambda1 0.8999999999999999 Lambda2 0.8499999999999999 [dLambda -0.050000000000000044]
TCL: Setting parameter firsttimestep to 0
TCL: Setting parameter alchLambda to 0.8999999999999999
Info: NONBONDED TABLE R-SQUARED SPACING: 0.0625
Info: NONBONDED TABLE SIZE: 705 POINTS
TCL: Setting parameter alchLambda2 to 0.8499999999999999
Info: NONBONDED TABLE R-SQUARED SPACING: 0.0625
Info: NONBONDED TABLE SIZE: 705 POINTS
TCL: Running for 1500000 steps
ETITLE: TS BOND ANGLE DIHED IMPRP ELECT VDW BOUNDARY MISC KINETIC TOTAL TEMP POTENTIAL TOTALAVG TEMPAVG PRESSURE GPRESSURE VOLUME PRESSAVG GPRESSAVG
ENERGY: 0 0.8238 7.9591 3.2180 0.0000 -10677.0698 1411.0807 0.0000 0.0000 1771.3141 -7482.6739 301.1371 -9253.9881 -7482.6739 301.1371 -277.3731 -185.4806 30512.0989 -277.3731 -185.4806
ENERGY: 300000 1.8149 6.9371 2.8299 0.0000 -10542.8170 1314.4650 0.0000 0.0000 1772.0860 -7444.6841 301.2683 -9216.7701 -7505.5754 299.8444 -1079.3412 -969.2125 31166.0220 -139.2361 -65.7539
ENERGY: 600000 2.7506 11.3188 3.2312 0.0000 -10639.1544 1454.3157 0.0000 0.0000 1703.2878 -7464.2503 289.5721 -9167.5381 -7495.0837 299.0568 -1.2890 52.5711 30745.0627 -241.1797 -178.2415
ENERGY: 900000 1.6106 9.7013 2.6581 0.0000 -10621.6379 1391.4171 0.0000 0.0000 1754.2877 -7461.9631 298.2425 -9216.2508 -7489.7531 298.8331 -100.7985 -101.2388 30383.6466 -116.7010 -71.8050
ENERGY: 1200000 1.9214 8.0984 2.7972 0.0000 -10702.1269 1423.5484 0.0000 0.0000 1758.5749 -7507.1866 298.9713 -9265.7615 -7493.3178 299.4746 -200.2300 -211.9753 30529.0685 -167.3291 -126.0916
ENERGY: 1500000 2.0017 6.2283 5.0224 0.0000 -10717.2218 1447.2883 0.0000 0.0000 1810.5212 -7446.1599 307.8026 -9256.6811 -7488.6365 300.4899 118.5813 153.4980 30332.2518 -88.4347 -39.7889
TCL: Running FEP window   4: Lambda1 0.8499999999999999 Lambda2 0.7999999999999998 [dLambda -0.050000000000000044]
TCL: Setting parameter firsttimestep to 0
TCL: Setting parameter alchLambda to 0.8499999999999999
Info: NONBONDED TABLE R-SQUARED SPACING: 0.0625
Info: NONBONDED TABLE SIZE: 705 POINTS
TCL: Setting parameter alchLambda2 to 0.7999999999999998
Info: NONBONDED TABLE R-SQUARED SPACING: 0.0625
Info: NONBONDED TABLE SIZE: 705 POINTS
TCL: Running for 1500000 steps
ETITLE: TS BOND ANGLE DIHED IMPRP ELECT VDW BOUNDARY MISC KINETIC TOTAL TEMP POTENTIAL TOTALAVG TEMPAVG PRESSURE GPRESSURE VOLUME PRESSAVG GPRESSAVG
ENERGY: 0 2.0017 6.2283 5.0224 0.0000 -10715.9398 1447.3726 0.0000 0.0000 1809.6470 -7445.6678 307.6540 -9255.3148 -7445.6678 307.6540 71.5715 146.3523 30332.2518 71.5715 146.3523
ENERGY: 300000 0.5409 9.2103 3.7961 0.0000 -10590.0443 1425.8191 0.0000 0.0000 1728.4792 -7422.1987 293.8548 -9150.6779 -7490.9244 297.7596 257.1392 262.6321 30402.4595 204.5890 258.9018
ENERGY: 600000 1.1401 7.2320 2.7111 0.0000 -10712.9110 1479.3119 0.0000 0.0000 1788.5989 -7433.9171 304.0756 -9222.5160 -7481.0166 300.2552 439.1503 483.8460 30405.2209 125.2373 176.3124
ENERGY: 900000 1.5168 7.4714 2.7862 0.0000 -10629.4670 1356.8924 0.0000 0.0000 1764.9273 -7495.8729 300.0513 -9260.8003 -7474.2049 300.8044 -365.1825 -301.2653 29859.9867 130.0874 191.1597
ENERGY: 1200000 0.9777 5.4839 3.1663 0.0000 -10767.5164 1423.5676 0.0000 0.0000 1732.4712 -7601.8497 294.5335 -9334.3209 -7483.8075 300.6469 -126.4834 -73.5315 30041.5506 80.6009 148.3781
ENERGY: 1500000 0.5099 7.4226 3.4559 0.0000 -10685.8995 1408.4689 0.0000 0.0000 1803.2516 -7462.7906 306.5667 -9266.0422 -7483.3153 300.5710 -368.4976 -265.1726 30589.4178 87.9511 155.7500
TCL: Running FEP window   5: Lambda1 0.7999999999999998 Lambda2 0.7499999999999998 [dLambda -0.050000000000000044]
TCL: Setting parameter firsttimestep to 0
TCL: Setting parameter alchLambda to 0.7999999999999998
Info: NONBONDED TABLE R-SQUARED SPACING: 0.0625
Info: NONBONDED TABLE SIZE: 705 POINTS
TCL: Setting parameter alchLambda2 to 0.7499999999999998
Info: NONBONDED TABLE R-SQUARED SPACING: 0.0625
Info: NONBONDED TABLE SIZE: 705 POINTS
TCL: Running for 1500000 steps
ETITLE: TS BOND ANGLE DIHED IMPRP ELECT VDW BOUNDARY MISC KINETIC TOTAL TEMP POTENTIAL TOTALAVG TEMPAVG PRESSURE GPRESSURE VOLUME PRESSAVG GPRESSAVG
ENERGY: 0 0.5099 7.4226 3.4559 0.0000 -10685.0684 1407.3204 0.0000 0.0000 1802.3939 -7463.9657 306.4209 -9266.3596 -7463.9657 306.4209 -382.9914 -286.5197 30589.4178 -382.9914 -286.5197
ENERGY: 300000 2.1061 7.5538 3.2699 0.0000 -10525.0589 1300.8218 0.0000 0.0000 1829.1081 -7382.1991 310.9625 -9211.3072 -7455.0181 305.5401 -1233.4049 -1122.2572 30958.7874 -426.8256 -369.4884
ENERGY: 600000 1.3225 7.3386 3.6745 0.0000 -10684.5743 1446.0128 0.0000 0.0000 1755.7850 -7470.4409 298.4970 -9226.2259 -7468.4479 304.9021 8.4913 96.8840 30542.4983 -240.9633 -190.2704
ENERGY: 900000 1.5129 6.6913 3.9802 0.0000 -10953.9816 1602.2352 0.0000 0.0000 1764.4906 -7575.0714 299.9770 -9339.5620 -7469.7609 305.3962 1051.2470 1123.3800 30169.6329 -51.4121 0.6750
ENERGY: 1200000 0.5014 6.9967 2.8376 0.0000 -10765.8143 1494.6130 0.0000 0.0000 1733.7725 -7527.0931 294.7547 -9260.8656 -7475.4488 302.9328 366.8893 434.2685 30085.3599 -10.1643 49.7001
ENERGY: 1500000 1.9113 5.1743 3.2785 0.0000 -10605.6057 1406.2651 0.0000 0.0000 1723.7939 -7465.1826 293.0583 -9188.9766 -7480.2164 301.9759 -301.1920 -195.5780 30681.8487 -10.8175 54.0561
TCL: Running FEP window   6: Lambda1 0.7499999999999998 Lambda2 0.6999999999999997 [dLambda -0.050000000000000044]
TCL: Setting parameter firsttimestep to 0
TCL: Setting parameter alchLambda to 0.7499999999999998
Info: NONBONDED TABLE R-SQUARED SPACING: 0.0625
Info: NONBONDED TABLE SIZE: 705 POINTS
TCL: Setting parameter alchLambda2 to 0.6999999999999997
Info: NONBONDED TABLE R-SQUARED SPACING: 0.0625
Info: NONBONDED TABLE SIZE: 705 POINTS
TCL: Running for 1500000 steps
ETITLE: TS BOND ANGLE DIHED IMPRP ELECT VDW BOUNDARY MISC KINETIC TOTAL TEMP POTENTIAL TOTALAVG TEMPAVG PRESSURE GPRESSURE VOLUME PRESSAVG GPRESSAVG
ENERGY: 0 1.9113 5.1743 3.2785 0.0000 -10603.6052 1405.3909 0.0000 0.0000 1722.9198 -7464.9304 292.9097 -9187.8502 -7464.9304 292.9097 -286.4324 -204.3408 30681.8487 -286.4324 -204.3408
ENERGY: 300000 0.5428 10.1168 3.9520 0.0000 -10611.0398 1394.5206 0.0000 0.0000 1771.3893 -7430.5184 301.1499 -9201.9077 -7461.3160 300.3656 -141.8602 -115.6921 30372.0680 -355.2247 -269.7675
ENERGY: 600000 7.1302 7.5526 3.0686 0.0000 -10677.4733 1427.7503 0.0000 0.0000 1783.1107 -7448.8609 303.1426 -9231.9715 -7472.5196 300.0084 -281.2961 -238.5302 30535.1977 -120.6294 -51.0994
ENERGY: 900000 3.3055 9.9156 3.0618 0.0000 -10685.0227 1411.0844 0.0000 0.0000 1760.4932 -7497.1622 299.2975 -9257.6553 -7493.5074 298.0061 -412.3618 -361.6894 30642.0632 -177.6741 -110.4303
ENERGY: 1200000 1.8212 4.1116 3.0973 0.0000 -10738.0672 1521.5146 0.0000 0.0000 1793.8069 -7413.7156 304.9610 -9207.5225 -7487.4005 298.3681 897.1883 966.3010 30018.4352 -52.8676 15.1565
ENERGY: 1500000 3.6346 7.0963 2.7430 0.0000 -10647.2271 1383.3192 0.0000 0.0000 1745.7193 -7504.7145 296.7858 -9250.4339 -7491.2943 298.4506 -472.5439 -491.9123 30429.3951 -164.1163 -100.6327
TCL: Running FEP window   7: Lambda1 0.6999999999999997 Lambda2 0.6499999999999997 [dLambda -0.050000000000000044]
TCL: Setting parameter firsttimestep to 0
TCL: Setting parameter alchLambda to 0.6999999999999997
Info: NONBONDED TABLE R-SQUARED SPACING: 0.0625
Info: NONBONDED TABLE SIZE: 705 POINTS
TCL: Setting parameter alchLambda2 to 0.6499999999999997
Info: NONBONDED TABLE R-SQUARED SPACING: 0.0625
Info: NONBONDED TABLE SIZE: 705 POINTS
TCL: Running for 1500000 steps
ETITLE: TS BOND ANGLE DIHED IMPRP ELECT VDW BOUNDARY MISC KINETIC TOTAL TEMP POTENTIAL TOTALAVG TEMPAVG PRESSURE GPRESSURE VOLUME PRESSAVG GPRESSAVG
ENERGY: 0 3.6346 7.0963 2.7430 0.0000 -10646.2368 1383.7953 0.0000 0.0000 1744.8418 -7504.1257 296.6366 -9248.9676 -7504.1257 296.6366 -563.6986 -491.6777 30429.3951 -563.6986 -491.6777
ENERGY: 300000 2.1660 7.3310 2.8236 0.0000 -10526.4239 1341.6324 0.0000 0.0000 1752.5933 -7419.8776 297.9544 -9172.4709 -7460.0962 300.2393 -882.3343 -764.2503 30940.9006 -235.7933 -149.2861
ENERGY: 600000 2.3983 4.9038 3.7808 0.0000 -10691.8599 1415.0464 0.0000 0.0000 1808.5967 -7457.1340 307.4754 -9265.7307 -7485.1088 299.3080 -402.2307 -418.0568 30632.0984 -234.8142 -167.1045
ENERGY: 900000 2.0680 6.6586 3.7123 0.0000 -10758.9221 1422.9386 0.0000 0.0000 1770.0533 -7553.4913 300.9227 -9323.5445 -7479.1779 300.3416 -49.3513 14.4368 30090.4079 -137.8289 -74.5601
ENERGY: 1200000 0.3639 9.5950 3.5432 0.0000 -10567.8884 1352.6504 0.0000 0.0000 1731.2395 -7470.4964 294.3241 -9201.7359 -7474.9691 300.0841 -630.4720 -604.0203 30793.6961 -229.2558 -171.5405
ENERGY: 1500000 2.0506 7.0606 3.3548 0.0000 -10664.0281 1408.6968 0.0000 0.0000 1722.1329 -7520.7323 292.7759 -9242.8652 -7479.4491 299.3156 -186.7473 -115.2916 30246.3666 -163.8605 -109.3422
TCL: Running FEP window   8: Lambda1 0.6499999999999997 Lambda2 0.5999999999999996 [dLambda -0.050000000000000044]
TCL: Setting parameter firsttimestep to 0
TCL: Setting parameter alchLambda to 0.6499999999999997
Info: NONBONDED TABLE R-SQUARED SPACING: 0.0625
Info: NONBONDED TABLE SIZE: 705 POINTS
TCL: Setting parameter alchLambda2 to 0.5999999999999996
Info: NONBONDED TABLE R-SQUARED SPACING: 0.0625
Info: NONBONDED TABLE SIZE: 705 POINTS
TCL: Running for 1500000 steps
ETITLE: TS BOND ANGLE DIHED IMPRP ELECT VDW BOUNDARY MISC KINETIC TOTAL TEMP POTENTIAL TOTALAVG TEMPAVG PRESSURE GPRESSURE VOLUME PRESSAVG GPRESSAVG
ENERGY: 0 2.0506 7.0606 3.3548 0.0000 -10663.2150 1408.8257 0.0000 0.0000 1721.2733 -7520.6498 292.6298 -9241.9232 -7520.6498 292.6298 -201.8956 -122.7510 30246.3666 -201.8956 -122.7510
ENERGY: 300000 1.6603 9.0581 4.1292 0.0000 -10581.6484 1379.0028 0.0000 0.0000 1709.8689 -7477.9290 290.6909 -9187.7979 -7520.8671 294.7904 -567.5595 -474.1449 30645.9413 -99.7698 -31.0459
ENERGY: 600000 0.9986 7.2816 4.1791 0.0000 -10618.4407 1356.8783 0.0000 0.0000 1754.2144 -7494.8887 298.2300 -9249.1031 -7506.0246 296.4874 -1057.6573 -942.3503 31016.1073 -460.5329 -371.5936
ENERGY: 900000 2.2773 8.8309 2.6466 0.0000 -10815.7335 1501.2517 0.0000 0.0000 1786.5998 -7514.1272 303.7358 -9300.7270 -7506.2568 297.2890 438.4367 553.0325 30180.5474 -169.0649 -81.0214
ENERGY: 1200000 1.3077 6.5711 3.5435 0.0000 -10648.4426 1439.3156 0.0000 0.0000 1760.2859 -7437.4188 299.2622 -9197.7047 -7491.4902 297.8523 -50.3081 -4.9640 30855.5195 -214.4153 -134.9956
ENERGY: 1500000 3.1217 8.1435 3.7355 0.0000 -10751.0501 1507.3930 0.0000 0.0000 1783.6283 -7445.0281 303.2306 -9228.6564 -7480.8990 299.5331 843.9589 864.4994 30036.8704 -151.5239 -82.9402
TCL: Running FEP window   9: Lambda1 0.5999999999999996 Lambda2 0.5499999999999996 [dLambda -0.050000000000000044]
TCL: Setting parameter firsttimestep to 0
TCL: Setting parameter alchLambda to 0.5999999999999996
Info: NONBONDED TABLE R-SQUARED SPACING: 0.0625
Info: NONBONDED TABLE SIZE: 705 POINTS
TCL: Setting parameter alchLambda2 to 0.5499999999999996
Info: NONBONDED TABLE R-SQUARED SPACING: 0.0625
Info: NONBONDED TABLE SIZE: 705 POINTS
TCL: Running for 1500000 steps
ETITLE: TS BOND ANGLE DIHED IMPRP ELECT VDW BOUNDARY MISC KINETIC TOTAL TEMP POTENTIAL TOTALAVG TEMPAVG PRESSURE GPRESSURE VOLUME PRESSAVG GPRESSAVG
ENERGY: 0 3.1217 8.1435 3.7355 0.0000 -10750.9984 1507.4865 0.0000 0.0000 1782.7857 -7445.7256 303.0874 -9228.5113 -7445.7256 303.0874 778.6184 859.8606 30036.8704 778.6184 859.8606
ENERGY: 300000 3.3303 6.4032 3.1680 0.0000 -10699.8102 1402.4627 0.0000 0.0000 1774.7712 -7509.6749 301.7248 -9284.4461 -7497.5592 300.4823 -594.7414 -506.9185 30253.0663 -19.7067 64.5239
ENERGY: 600000 2.2155 6.7923 3.3407 0.0000 -10693.7130 1449.6379 0.0000 0.0000 1768.6184 -7463.1082 300.6788 -9231.7266 -7478.8718 301.1112 -31.1069 76.7242 30468.6697 110.6786 207.9539
ENERGY: 900000 1.8602 8.2608 3.2753 0.0000 -10712.6100 1475.0083 0.0000 0.0000 1766.2676 -7457.9378 300.2792 -9224.2054 -7480.6169 301.6352 244.1375 263.1285 30541.1505 -0.0728 78.0564
ENERGY: 1200000 2.1932 6.7517 2.8239 0.0000 -10604.1299 1363.8564 0.0000 0.0000 1745.2870 -7483.2177 296.7123 -9228.5047 -7479.9216 301.3265 -724.5580 -650.3382 30860.5048 -91.6308 -13.7473
ENERGY: 1500000 4.0275 5.9939 3.2668 0.0000 -10823.8009 1505.3021 0.0000 0.0000 1749.2456 -7555.9649 297.3853 -9305.2105 -7482.9666 301.0960 159.0774 222.2966 30675.2332 20.9637 94.4619
TCL: Running FEP window  10: Lambda1 0.5499999999999996 Lambda2 0.4999999999999996 [dLambda -0.04999999999999999]
TCL: Setting parameter firsttimestep to 0
TCL: Setting parameter alchLambda to 0.5499999999999996
Info: NONBONDED TABLE R-SQUARED SPACING: 0.0625
Info: NONBONDED TABLE SIZE: 705 POINTS
TCL: Setting parameter alchLambda2 to 0.4999999999999996
Info: NONBONDED TABLE R-SQUARED SPACING: 0.0625
Info: NONBONDED TABLE SIZE: 705 POINTS
TCL: Running for 1500000 steps
ETITLE: TS BOND ANGLE DIHED IMPRP ELECT VDW BOUNDARY MISC KINETIC TOTAL TEMP POTENTIAL TOTALAVG TEMPAVG PRESSURE GPRESSURE VOLUME PRESSAVG GPRESSAVG
ENERGY: 0 4.0275 5.9939 3.2668 0.0000 -10824.4876 1505.5498 0.0000 0.0000 1748.3479 -7557.3016 297.2327 -9305.6495 -7557.3016 297.2327 138.6812 215.2315 30675.2332 138.6812 215.2315
ENERGY: 300000 1.4254 9.2312 2.4987 0.0000 -10702.0859 1469.1905 0.0000 0.0000 1678.2847 -7541.4554 285.3214 -9219.7401 -7499.5136 297.6583 108.9159 192.0045 30686.6963 156.7178 234.4661
ENERGY: 600000 1.5167 6.5440 3.3791 0.0000 -10651.9293 1390.3900 0.0000 0.0000 1771.2416 -7478.8580 301.1248 -9250.0995 -7495.7769 297.9079 -280.4999 -322.1266 30281.9392 7.2801 69.3219
ENERGY: 900000 3.4619 6.0491 3.1163 0.0000 -10665.3465 1410.0150 0.0000 0.0000 1739.4434 -7503.2608 295.7188 -9242.7042 -7493.2388 298.4442 -416.0977 -398.6068 30506.6957 66.0946 123.8188
ENERGY: 1200000 2.2075 5.5509 3.2230 0.0000 -10586.1474 1355.0609 0.0000 0.0000 1779.3542 -7440.7508 302.5040 -9220.1050 -7493.8315 298.4528 -568.2271 -508.7657 30542.7563 -3.5403 53.5063
ENERGY: 1500000 2.4665 5.5515 3.1506 0.0000 -10720.4511 1454.7140 0.0000 0.0000 1795.0518 -7459.5167 305.1727 -9254.5685 -7493.9160 298.9412 -7.3997 44.9507 30851.4078 25.5816 81.2185
TCL: Running FEP window  11: Lambda1 0.4999999999999996 Lambda2 0.4499999999999996 [dLambda -0.04999999999999999]
TCL: Setting parameter firsttimestep to 0
TCL: Setting parameter alchLambda to 0.4999999999999996
Info: NONBONDED TABLE R-SQUARED SPACING: 0.0625
Info: NONBONDED TABLE SIZE: 705 POINTS
TCL: Setting parameter alchLambda2 to 0.4499999999999996
Info: NONBONDED TABLE R-SQUARED SPACING: 0.0625
Info: NONBONDED TABLE SIZE: 705 POINTS
TCL: Running for 1500000 steps
ETITLE: TS BOND ANGLE DIHED IMPRP ELECT VDW BOUNDARY MISC KINETIC TOTAL TEMP POTENTIAL TOTALAVG TEMPAVG PRESSURE GPRESSURE VOLUME PRESSAVG GPRESSAVG
ENERGY: 0 2.4665 5.5515 3.1506 0.0000 -10720.1567 1455.0727 0.0000 0.0000 1794.1370 -7459.7785 305.0172 -9253.9154 -7459.7785 305.0172 -49.5091 42.6469 30851.4078 -49.5091 42.6469
ENERGY: 300000 2.0278 5.2892 2.7055 0.0000 -10598.3351 1400.5095 0.0000 0.0000 1733.7201 -7454.0830 294.7458 -9187.8031 -7429.6796 300.7232 -96.2088 -28.6691 30431.5963 -258.4005 -182.3945
ENERGY: 600000 3.2275 10.5024 3.1688 0.0000 -10690.5973 1410.1998 0.0000 0.0000 1761.0026 -7502.4962 299.3841 -9263.4989 -7453.8111 300.2304 -393.8086 -346.6214 30425.2198 -246.6278 -171.6570
ENERGY: 900000 4.3254 10.2078 3.3600 0.0000 -10622.4581 1353.7182 0.0000 0.0000 1759.5700 -7491.2768 299.1405 -9250.8467 -7452.9796 300.7842 -863.7481 -779.4094 30540.7964 -285.9028 -204.0681
ENERGY: 1200000 2.2325 6.6463 2.8583 0.0000 -10820.5417 1527.7117 0.0000 0.0000 1754.4532 -7526.6397 298.2706 -9281.0929 -7458.3085 301.0669 469.6857 544.7589 30396.1283 -256.3938 -180.4872
ENERGY: 1500000 1.7797 9.2888 3.5948 0.0000 -10575.2612 1393.1809 0.0000 0.0000 1791.4733 -7375.9437 304.5643 -9167.4169 -7458.5819 301.0858 -76.4139 50.5218 30146.5016 -211.0170 -126.5839
TCL: Running FEP window  12: Lambda1 0.4499999999999996 Lambda2 0.39999999999999963 [dLambda -0.04999999999999999]
TCL: Setting parameter firsttimestep to 0
TCL: Setting parameter alchLambda to 0.4499999999999996
Info: NONBONDED TABLE R-SQUARED SPACING: 0.0625
Info: NONBONDED TABLE SIZE: 705 POINTS
TCL: Setting parameter alchLambda2 to 0.39999999999999963
Info: NONBONDED TABLE R-SQUARED SPACING: 0.0625
Info: NONBONDED TABLE SIZE: 705 POINTS
TCL: Running for 1500000 steps
ETITLE: TS BOND ANGLE DIHED IMPRP ELECT VDW BOUNDARY MISC KINETIC TOTAL TEMP POTENTIAL TOTALAVG TEMPAVG PRESSURE GPRESSURE VOLUME PRESSAVG GPRESSAVG
ENERGY: 0 1.7797 9.2888 3.5948 0.0000 -10575.2622 1393.4742 0.0000 0.0000 1790.5608 -7376.5638 304.4092 -9167.1247 -7376.5638 304.4092 -45.0012 52.4181 30146.5016 -45.0012 52.4181
ENERGY: 300000 2.0173 4.5196 2.7965 0.0000 -10641.1730 1466.8198 0.0000 0.0000 1765.7324 -7399.2875 300.1882 -9165.0199 -7454.9477 298.6192 426.4405 476.4379 30626.2278 105.8584 181.6842
ENERGY: 600000 0.9894 8.8670 3.1889 0.0000 -10663.7435 1428.0282 0.0000 0.0000 1739.3559 -7483.3141 295.7040 -9222.6700 -7462.5812 301.3619 98.9443 113.8734 30230.2538 -14.4275 49.5729
ENERGY: 900000 1.1256 4.9969 3.0706 0.0000 -10593.9554 1338.5708 0.0000 0.0000 1735.6127 -7510.5788 295.0676 -9246.1915 -7470.9120 300.5692 -786.0281 -752.3484 30555.1614 -74.5603 -16.2324
ENERGY: 1200000 2.9187 5.5028 3.2051 0.0000 -10696.3448 1421.5444 0.0000 0.0000 1740.8439 -7522.3299 295.9569 -9263.1738 -7481.1198 299.0426 -335.4413 -283.9960 30574.9683 -213.7582 -158.4883
ENERGY: 1500000 1.3890 4.8093 2.6178 0.0000 -10836.0573 1496.7289 0.0000 0.0000 1738.9545 -7591.5578 295.6357 -9330.5123 -7489.3367 298.6356 237.8732 281.9495 30169.7531 -93.2526 -39.2358
TCL: Running FEP window  13: Lambda1 0.39999999999999963 Lambda2 0.34999999999999964 [dLambda -0.04999999999999999]
TCL: Setting parameter firsttimestep to 0
TCL: Setting parameter alchLambda to 0.39999999999999963
Info: NONBONDED TABLE R-SQUARED SPACING: 0.0625
Info: NONBONDED TABLE SIZE: 705 POINTS
TCL: Setting parameter alchLambda2 to 0.34999999999999964
Info: NONBONDED TABLE R-SQUARED SPACING: 0.0625
Info: NONBONDED TABLE SIZE: 705 POINTS
TCL: Running for 1500000 steps
ETITLE: TS BOND ANGLE DIHED IMPRP ELECT VDW BOUNDARY MISC KINETIC TOTAL TEMP POTENTIAL TOTALAVG TEMPAVG PRESSURE GPRESSURE VOLUME PRESSAVG GPRESSAVG
ENERGY: 0 1.3890 4.8093 2.6178 0.0000 -10836.0577 1496.8233 0.0000 0.0000 1738.0839 -7592.3344 295.4877 -9330.4184 -7592.3344 295.4877 190.8029 274.5970 30169.7531 190.8029 274.5970
ENERGY: 300000 0.5773 10.7313 3.9271 0.0000 -10628.5494 1428.4037 0.0000 0.0000 1828.9580 -7355.9519 310.9370 -9184.9099 -7470.8823 302.6216 367.5945 424.9208 30072.1127 -25.9210 35.1201
ENERGY: 600000 0.2707 9.1723 3.2607 0.0000 -10679.8922 1433.2240 0.0000 0.0000 1736.4801 -7497.4845 295.2150 -9233.9645 -7478.2920 302.2210 81.4127 173.3340 29879.5222 -207.6532 -125.8826
ENERGY: 900000 1.3402 5.8728 2.8528 0.0000 -10753.3012 1486.0864 0.0000 0.0000 1724.7587 -7532.3902 293.2223 -9257.1489 -7480.2547 301.3682 292.6373 365.4533 30224.3556 -35.8287 44.2028
ENERGY: 1200000 1.9446 8.3754 3.5978 0.0000 -10715.8866 1466.4583 0.0000 0.0000 1838.3342 -7397.1763 312.5310 -9235.5105 -7480.0578 301.7605 364.8768 429.8379 29908.4736 56.9640 129.5106
ENERGY: 1500000 0.8996 8.3709 3.5549 0.0000 -10610.4050 1401.5097 0.0000 0.0000 1734.0707 -7461.9992 294.8054 -9196.0699 -7476.6535 301.2784 -292.7894 -266.8526 30961.5793 14.4275 78.2901
TCL: Running FEP window  14: Lambda1 0.34999999999999964 Lambda2 0.29999999999999966 [dLambda -0.04999999999999999]
TCL: Setting parameter firsttimestep to 0
TCL: Setting parameter alchLambda to 0.34999999999999964
Info: NONBONDED TABLE R-SQUARED SPACING: 0.0625
Info: NONBONDED TABLE SIZE: 705 POINTS
TCL: Setting parameter alchLambda2 to 0.29999999999999966
Info: NONBONDED TABLE R-SQUARED SPACING: 0.0625
Info: NONBONDED TABLE SIZE: 705 POINTS
TCL: Running for 1500000 steps
ETITLE: TS BOND ANGLE DIHED IMPRP ELECT VDW BOUNDARY MISC KINETIC TOTAL TEMP POTENTIAL TOTALAVG TEMPAVG PRESSURE GPRESSURE VOLUME PRESSAVG GPRESSAVG
ENERGY: 0 0.8996 8.3709 3.5549 0.0000 -10610.4049 1401.6732 0.0000 0.0000 1733.2164 -7462.6899 294.6602 -9195.9064 -7462.6899 294.6602 -362.0667 -269.7040 30961.5793 -362.0667 -269.7040
ENERGY: 300000 2.4039 12.6232 2.7712 0.0000 -10659.5671 1430.1417 0.0000 0.0000 1820.0916 -7391.5355 309.4296 -9211.6271 -7476.6149 301.3226 80.9192 139.1604 30200.3232 11.6967 89.3497
ENERGY: 600000 1.3156 6.6126 2.6972 0.0000 -10567.6847 1315.6091 0.0000 0.0000 1763.8564 -7477.5939 299.8692 -9241.4503 -7491.9675 303.1032 -1003.3067 -928.7578 30452.0035 -211.8725 -142.5399
ENERGY: 900000 1.3564 7.7121 4.1146 0.0000 -10575.8340 1357.6191 0.0000 0.0000 1799.2675 -7405.7643 305.8894 -9205.0318 -7479.8648 303.8160 -837.3713 -760.1572 30912.4871 -280.4397 -203.7578
ENERGY: 1200000 5.0614 4.0789 3.0176 0.0000 -10594.7437 1400.3995 0.0000 0.0000 1721.7015 -7460.4848 292.7026 -9182.1863 -7475.9221 302.7674 -233.3512 -185.3710 30759.5158 -197.9191 -121.4623
ENERGY: 1500000 1.8766 8.8596 3.7425 0.0000 -10663.1283 1421.6361 0.0000 0.0000 1740.6307 -7486.3828 295.9207 -9227.0135 -7484.7056 301.7464 -119.7241 -63.3687 30099.6911 -241.0010 -166.8089
TCL: Running FEP window  15: Lambda1 0.29999999999999966 Lambda2 0.24999999999999967 [dLambda -0.04999999999999999]
TCL: Setting parameter firsttimestep to 0
TCL: Setting parameter alchLambda to 0.29999999999999966
Info: NONBONDED TABLE R-SQUARED SPACING: 0.0625
Info: NONBONDED TABLE SIZE: 705 POINTS
TCL: Setting parameter alchLambda2 to 0.24999999999999967
Info: NONBONDED TABLE R-SQUARED SPACING: 0.0625
Info: NONBONDED TABLE SIZE: 705 POINTS
TCL: Running for 1500000 steps
ETITLE: TS BOND ANGLE DIHED IMPRP ELECT VDW BOUNDARY MISC KINETIC TOTAL TEMP POTENTIAL TOTALAVG TEMPAVG PRESSURE GPRESSURE VOLUME PRESSAVG GPRESSAVG
ENERGY: 0 1.8766 8.8596 3.7425 0.0000 -10663.1283 1421.5745 0.0000 0.0000 1739.7797 -7487.2954 295.7760 -9227.0752 -7487.2954 295.7760 -164.6648 -70.1904 30099.6911 -164.6648 -70.1904
ENERGY: 300000 2.2833 6.2285 4.1149 0.0000 -10607.6909 1345.8651 0.0000 0.0000 1792.6844 -7456.5147 304.7702 -9249.1991 -7444.3123 301.4871 -564.9878 -516.1612 30070.6084 -138.7312 -88.5868
ENERGY: 600000 2.9226 8.9105 2.8526 0.0000 -10607.5704 1333.6151 0.0000 0.0000 1747.7648 -7511.5048 297.1335 -9259.2695 -7463.8415 299.6474 -1014.1360 -991.1410 30407.1508 -320.6893 -280.8505
ENERGY: 900000 2.0263 8.8315 3.3993 0.0000 -10592.3922 1390.5308 0.0000 0.0000 1732.1808 -7455.4235 294.4841 -9187.6043 -7460.1515 299.3341 -654.1917 -588.4919 31102.9354 -320.8960 -280.6662
ENERGY: 1200000 2.3975 9.1849 3.4526 0.0000 -10775.7573 1441.4406 0.0000 0.0000 1778.9136 -7540.3681 302.4291 -9319.2817 -7457.7234 300.6046 -120.4138 -127.7756 30141.3784 -187.0760 -142.6433
ENERGY: 1500000 1.3485 10.8376 4.4836 0.0000 -10709.6635 1445.0885 0.0000 0.0000 1800.0117 -7447.8937 306.0159 -9247.9054 -7455.9862 300.6736 -8.9240 23.3570 30516.7796 -130.6175 -85.3119
TCL: Running FEP window  16: Lambda1 0.24999999999999967 Lambda2 0.19999999999999968 [dLambda -0.04999999999999999]
TCL: Setting parameter firsttimestep to 0
TCL: Setting parameter alchLambda to 0.24999999999999967
Info: NONBONDED TABLE R-SQUARED SPACING: 0.0625
Info: NONBONDED TABLE SIZE: 705 POINTS
TCL: Setting parameter alchLambda2 to 0.19999999999999968
Info: NONBONDED TABLE R-SQUARED SPACING: 0.0625
Info: NONBONDED TABLE SIZE: 705 POINTS
TCL: Running for 1500000 steps
ETITLE: TS BOND ANGLE DIHED IMPRP ELECT VDW BOUNDARY MISC KINETIC TOTAL TEMP POTENTIAL TOTALAVG TEMPAVG PRESSURE GPRESSURE VOLUME PRESSAVG GPRESSAVG
ENERGY: 0 1.3485 10.8376 4.4836 0.0000 -10709.6617 1445.1672 0.0000 0.0000 1799.0840 -7448.7409 305.8582 -9247.8248 -7448.7409 305.8582 -68.2595 20.1385 30516.7796 -68.2595 20.1385
ENERGY: 300000 0.6837 6.2482 2.9528 0.0000 -10642.5044 1399.9279 0.0000 0.0000 1753.9347 -7478.7571 298.1825 -9232.6919 -7502.2920 300.5525 -169.0205 -164.5919 30338.7507 -203.2446 -176.3064
ENERGY: 600000 3.0332 4.8591 2.7190 0.0000 -10610.1429 1378.6848 0.0000 0.0000 1746.3294 -7474.5174 296.8895 -9220.8468 -7493.1147 300.8596 -679.6595 -561.1044 30654.3825 -169.6536 -123.5506
ENERGY: 900000 0.5000 5.3898 4.3515 0.0000 -10776.4579 1475.5146 0.0000 0.0000 1790.6210 -7500.0810 304.4194 -9290.7020 -7501.6161 300.9623 82.5015 123.3318 30451.5369 -119.3093 -73.6747
ENERGY: 1200000 0.5737 7.8617 3.1551 0.0000 -10793.0105 1473.0401 0.0000 0.0000 1762.7638 -7545.6161 299.6835 -9308.3798 -7496.6121 300.9176 -50.7600 33.7380 30107.5790 -79.7467 -32.2289
ENERGY: 1500000 1.8774 8.4023 4.6146 0.0000 -10683.9763 1408.8169 0.0000 0.0000 1724.7250 -7535.5401 293.2166 -9260.2651 -7494.8684 300.6777 -81.6742 -40.2275 29978.7325 -33.4708 18.0163
TCL: Running FEP window  17: Lambda1 0.19999999999999968 Lambda2 0.1499999999999997 [dLambda -0.04999999999999999]
TCL: Setting parameter firsttimestep to 0
TCL: Setting parameter alchLambda to 0.19999999999999968
Info: NONBONDED TABLE R-SQUARED SPACING: 0.0625
Info: NONBONDED TABLE SIZE: 705 POINTS
TCL: Setting parameter alchLambda2 to 0.1499999999999997
Info: NONBONDED TABLE R-SQUARED SPACING: 0.0625
Info: NONBONDED TABLE SIZE: 705 POINTS
TCL: Running for 1500000 steps
ETITLE: TS BOND ANGLE DIHED IMPRP ELECT VDW BOUNDARY MISC KINETIC TOTAL TEMP POTENTIAL TOTALAVG TEMPAVG PRESSURE GPRESSURE VOLUME PRESSAVG GPRESSAVG
ENERGY: 0 1.8774 8.4023 4.6146 0.0000 -10683.9773 1409.3365 0.0000 0.0000 1723.8289 -7535.9176 293.0642 -9259.7465 -7535.9176 293.0642 -126.6728 -42.0839 29978.7325 -126.6728 -42.0839
ENERGY: 300000 1.9262 7.2270 3.1230 0.0000 -10717.5839 1493.6267 0.0000 0.0000 1755.4585 -7456.2224 298.4415 -9211.6809 -7470.3036 299.9107 469.1412 491.1465 30449.0826 378.2840 445.9682
ENERGY: 600000 5.5026 6.9463 3.0650 0.0000 -10515.4682 1360.4943 0.0000 0.0000 1741.0265 -7398.4335 295.9880 -9139.4599 -7444.2453 299.1749 -611.1908 -530.4836 30536.2982 117.9027 180.5997
ENERGY: 900000 3.2562 11.8991 4.6465 0.0000 -10726.9512 1406.8522 0.0000 0.0000 1733.4932 -7566.8041 294.7072 -9300.2973 -7469.8935 299.5641 -303.3562 -246.7579 30195.0498 -33.4354 29.2844
ENERGY: 1200000 0.7031 8.5133 2.9114 0.0000 -10627.0734 1351.1730 0.0000 0.0000 1735.9102 -7527.8624 295.1182 -9263.7726 -7477.5252 298.8640 -672.3104 -648.4868 30585.9534 -4.4185 57.1271
ENERGY: 1500000 1.9544 10.8142 3.6204 0.0000 -10900.0261 1571.8663 0.0000 0.0000 1768.5355 -7543.2353 300.6647 -9311.7708 -7483.8032 299.1917 727.2982 776.5460 30602.2692 -26.1576 40.8080
TCL: Running FEP window  18: Lambda1 0.1499999999999997 Lambda2 0.09999999999999969 [dLambda -0.05 ]
TCL: Setting parameter firsttimestep to 0
TCL: Setting parameter alchLambda to 0.1499999999999997
Info: NONBONDED TABLE R-SQUARED SPACING: 0.0625
Info: NONBONDED TABLE SIZE: 705 POINTS
TCL: Setting parameter alchLambda2 to 0.09999999999999969
Info: NONBONDED TABLE R-SQUARED SPACING: 0.0625
Info: NONBONDED TABLE SIZE: 705 POINTS
TCL: Running for 1500000 steps
ETITLE: TS BOND ANGLE DIHED IMPRP ELECT VDW BOUNDARY MISC KINETIC TOTAL TEMP POTENTIAL TOTALAVG TEMPAVG PRESSURE GPRESSURE VOLUME PRESSAVG GPRESSAVG
ENERGY: 0 1.9544 10.8142 3.6204 0.0000 -10900.0269 1571.6618 0.0000 0.0000 1767.6616 -7544.3146 300.5161 -9311.9762 -7544.3146 300.5161 700.5769 772.2936 30602.2692 700.5769 772.2936
ENERGY: 300000 0.6285 6.2783 3.0117 0.0000 -10907.8020 1617.8684 0.0000 0.0000 1761.2255 -7518.7896 299.4220 -9280.0151 -7491.5048 298.1132 1418.0343 1439.6707 30098.3685 389.6784 427.8703
ENERGY: 600000 2.8605 8.4467 2.6287 0.0000 -10662.0616 1443.5061 0.0000 0.0000 1773.2423 -7431.3773 301.4649 -9204.6196 -7492.3360 298.1433 327.0485 392.2658 30146.4194 215.8602 267.3003
ENERGY: 900000 1.5066 7.9903 3.7337 0.0000 -10610.4235 1337.6779 0.0000 0.0000 1735.5420 -7523.9731 295.0556 -9259.5151 -7490.2798 298.7512 -796.6501 -830.9427 30496.0711 5.8034 45.5329
ENERGY: 1200000 1.2523 4.8246 2.7158 0.0000 -10641.3561 1422.6536 0.0000 0.0000 1727.4204 -7482.4895 293.6748 -9209.9099 -7488.7399 298.4065 146.5120 234.6920 29996.1680 27.4685 71.5896
ENERGY: 1500000 2.9289 11.0854 3.5555 0.0000 -10699.0205 1399.5390 0.0000 0.0000 1724.7941 -7557.1177 293.2283 -9281.9118 -7499.2218 297.1609 -534.7111 -499.0821 30479.4967 -70.2005 -23.9599
TCL: Running FEP window  19: Lambda1 0.09999999999999969 Lambda2 0.049999999999999684 [dLambda -0.05 ]
TCL: Setting parameter firsttimestep to 0
TCL: Setting parameter alchLambda to 0.09999999999999969
Info: NONBONDED TABLE R-SQUARED SPACING: 0.0625
Info: NONBONDED TABLE SIZE: 705 POINTS
TCL: Setting parameter alchLambda2 to 0.049999999999999684
Info: NONBONDED TABLE R-SQUARED SPACING: 0.0625
Info: NONBONDED TABLE SIZE: 705 POINTS
TCL: Running for 1500000 steps
ETITLE: TS BOND ANGLE DIHED IMPRP ELECT VDW BOUNDARY MISC KINETIC TOTAL TEMP POTENTIAL TOTALAVG TEMPAVG PRESSURE GPRESSURE VOLUME PRESSAVG GPRESSAVG
ENERGY: 0 2.9289 11.0854 3.5555 0.0000 -10699.0192 1399.5426 0.0000 0.0000 1723.8966 -7558.0102 293.0758 -9281.9068 -7558.0102 293.0758 -584.3791 -499.9590 30479.4967 -584.3791 -499.9590
ENERGY: 300000 1.9989 11.8087 2.7552 0.0000 -10787.3646 1492.4847 0.0000 0.0000 1779.7745 -7498.5425 302.5754 -9278.3171 -7484.6829 298.8033 446.0300 536.0117 30123.7735 -90.3103 -22.6168
ENERGY: 600000 1.7416 5.5631 3.5207 0.0000 -10724.1801 1469.9004 0.0000 0.0000 1732.9309 -7510.5235 294.6116 -9243.4543 -7477.5501 298.1353 51.2019 -1.4888 30551.6285 -93.7961 -45.1045
ENERGY: 900000 0.1509 14.5399 2.9849 0.0000 -10844.1834 1504.0643 0.0000 0.0000 1768.3121 -7554.1313 300.6267 -9322.4434 -7490.2226 298.1189 230.3220 167.0328 30520.4062 13.1197 51.3355
ENERGY: 1200000 2.6633 9.8335 3.5695 0.0000 -10749.2664 1514.8748 0.0000 0.0000 1784.9914 -7433.3339 303.4624 -9218.3254 -7492.0410 298.7358 594.1300 660.4979 30322.3907 63.9890 110.0548
ENERGY: 1500000 0.3868 9.1966 3.7034 0.0000 -10749.6354 1480.9493 0.0000 0.0000 1780.4912 -7474.9081 302.6973 -9255.3993 -7486.0158 300.0367 473.3290 492.5889 29954.9221 -0.3354 43.7515
TCL: Running FEP window  20: Lambda1 0.049999999999999684 Lambda2 0.0    [dLambda -0.049999999999999684]
TCL: Setting parameter firsttimestep to 0
TCL: Setting parameter alchLambda to 0.049999999999999684
Info: NONBONDED TABLE R-SQUARED SPACING: 0.0625
Info: NONBONDED TABLE SIZE: 705 POINTS
TCL: Setting parameter alchLambda2 to 0.0
Info: NONBONDED TABLE R-SQUARED SPACING: 0.0625
Info: NONBONDED TABLE SIZE: 705 POINTS
TCL: Running for 1500000 steps
ETITLE: TS BOND ANGLE DIHED IMPRP ELECT VDW BOUNDARY MISC KINETIC TOTAL TEMP POTENTIAL TOTALAVG TEMPAVG PRESSURE GPRESSURE VOLUME PRESSAVG GPRESSAVG
ENERGY: 0 0.3868 9.1966 3.7034 0.0000 -10749.6347 1479.8717 0.0000 0.0000 1779.5736 -7476.9027 302.5413 -9256.4763 -7476.9027 302.5413 397.1273 489.8029 29954.9221 397.1273 489.8029
ENERGY: 300000 0.7282 7.6085 2.8290 0.0000 -10775.1274 1476.7925 0.0000 0.0000 1795.3700 -7491.7991 305.2268 -9287.1691 -7527.1391 300.3649 194.0218 258.3653 30247.4696 -64.7735 0.4171
ENERGY: 600000 1.1638 6.8918 3.3360 0.0000 -10689.4049 1455.9087 0.0000 0.0000 1726.4564 -7495.6483 293.5109 -9222.1047 -7489.1969 301.2537 155.5349 225.0408 30178.3661 134.9855 206.8688
ENERGY: 900000 1.7746 8.4890 2.5563 0.0000 -10654.8419 1431.4263 0.0000 0.0000 1724.3864 -7486.2093 293.1590 -9210.5956 -7480.0235 301.2261 -308.1300 -286.8857 30524.1984 43.8389 114.2593
ENERGY: 1200000 2.3532 3.3878 2.5642 0.0000 -10843.3175 1538.0663 0.0000 0.0000 1814.3973 -7482.5487 308.4616 -9296.9460 -7486.1172 300.7855 874.9058 953.1960 29979.9867 28.9306 105.0755
ENERGY: 1500000 1.3969 8.8454 2.7585 0.0000 -10768.6524 1530.4207 0.0000 0.0000 1703.0892 -7522.1417 289.5383 -9225.2309 -7489.5970 298.9247 968.8189 1060.2794 29670.7218 -27.7019 51.8885
TCL: Exiting due to exit command.
