Info: SIMULATION PARAMETERS:
Info: TIMESTEP               2
Info: NUMBER OF STEPS        0
Info: STEPS PER CYCLE        10
Info: PERIODIC CELL BASIS 1  31.6737 0 0
Info: PERIODIC CELL BASIS 2  0 29.4798 0
Info: PERIODIC CELL BASIS 3  0 0 32.8254
Info: PERIODIC CELL CENTER   0 0 0
Info: WRAPPING WATERS AROUND PERIODIC BOUNDARIES ON OUTPUT.
Info: WRAPPING ALL CLUSTERS AROUND PERIODIC BOUNDARIES ON OUTPUT.
Info: FIRST LDB TIMESTEP     50
Info: LAST LDB TIMESTEP     -1
Info: HOM BACKGROUND SCALING 1
Info: PME BACKGROUND SCALING 1
Info: MIN ATOMS PER PATCH    40
Info: EMPTY PATCH LOAD       40 ATOMS
Info: VELOCITY FILE          mobley_4845722_equil.vel
Info: CENTER OF MASS MOVING INITIALLY? NO
Info: DIELECTRIC             1
Info: EXCLUDE                SCALED ONE-FOUR
Info: 1-4 ELECTROSTATICS SCALED BY 0.833333
Info: MODIFIED 1-4 VDW PARAMETERS WILL BE USED
Info: DCD FILENAME           mobley_4845722_prod.dcd
Info: DCD FREQUENCY          100000
Info: DCD FIRST STEP         100000
Info: DCD FILE WILL CONTAIN UNIT CELL DATA
Info: XST FILENAME           mobley_4845722_prod.xst
Info: XST FREQUENCY          100000
Info: NO VELOCITY DCD OUTPUT
Info: NO FORCE DCD OUTPUT
Info: OUTPUT FILENAME        mobley_4845722_prod
Info: BINARY OUTPUT FILES WILL BE USED
Info: RESTART FILENAME       mobley_4845722_prod.restart
Info: RESTART FREQUENCY      100000
Info: BINARY RESTART FILES WILL BE USED
Info: CUTOFF                 9
Info: PAIRLIST DISTANCE      11
Info: PAIRLIST SHRINK RATE   0.01
Info: PAIRLIST GROW RATE     0.01
Info: PAIRLIST TRIGGER       0.3
Info: PAIRLISTS PER CYCLE    2
Info: PAIRLISTS ENABLED
Info: MARGIN                 2
Info: HYDROGEN GROUP CUTOFF  2.5
Info: PATCH DIMENSION        15.5
Info: ENERGY OUTPUT STEPS    100000
Info: ENERGY EVALUATION STEPS    100000
Info: OUTPUT ENERGY PRECISION 4
Info: CROSSTERM ENERGY INCLUDED IN DIHEDRAL
Info: TIMING OUTPUT STEPS    1000000
Info: PRESSURE OUTPUT STEPS  100000
Info: ALCHEMICAL FEP ON
Info: FEP CURRENT LAMBDA VALUE     1
Info: FEP COMPARISON LAMBDA VALUE  0.95
Info: FEP INTRA-ALCHEMICAL NON-BONDED INTERACTIONS WILL BE RETAINED
Info: FEP INTRA-ALCHEMICAL BONDED INTERACTIONS WILL BE RETAINED
Info: FEP VDW SHIFTING COEFFICIENT 5
Info: FEP ELEC. ACTIVE FOR ANNIHILATED PARTICLES BETWEEN LAMBDA = 0 AND LAMBDA = 0.5
Info: FEP ELEC. ACTIVE FOR EXNIHILATED PARTICLES BETWEEN LAMBDA = 0.5 AND LAMBDA = 1
Info: FEP VDW ACTIVE FOR ANNIHILATED PARTICLES BETWEEN LAMBDA = 0 AND LAMBDA = 1
Info: FEP VDW ACTIVE FOR EXNIHILATED PARTICLES BETWEEN LAMBDA = 0 AND LAMBDA = 1
Info: FEP BOND ACTIVE FOR ANNIHILATED PARTICLES BETWEEN LAMBDA = 1 AND LAMBDA = 1
Info: FEP BOND ACTIVE FOR EXNIHILATED PARTICLES BETWEEN LAMBDA = 0 AND LAMBDA = 0
Info: LANGEVIN DYNAMICS ACTIVE
Info: LANGEVIN TEMPERATURE   300
Info: LANGEVIN USING BBK INTEGRATOR
Info: LANGEVIN DAMPING COEFFICIENT IS 1 INVERSE PS
Info: LANGEVIN DYNAMICS APPLIED TO HYDROGENS
Info: LANGEVIN PISTON PRESSURE CONTROL ACTIVE
Info:        TARGET PRESSURE IS 1.01325 BAR
Info:     OSCILLATION PERIOD IS 50 FS
Info:             DECAY TIME IS 25 FS
Info:     PISTON TEMPERATURE IS 300 K
Info:       PRESSURE CONTROL IS GROUP-BASED
Info:    INITIAL STRAIN RATE IS 0.000151113 0.000151113 0.000151113
Info:       CELL FLUCTUATION IS ISOTROPIC
Info: PARTICLE MESH EWALD (PME) ACTIVE
Info: PME TOLERANCE               1e-06
Info: PME EWALD COEFFICIENT       0.348832
Info: PME INTERPOLATION ORDER     4
Info: PME GRID DIMENSIONS         32 32 36
Info: PME MAXIMUM GRID SPACING    1
Info: PME CALCULATION WILL BE PERFORMED ON GPU
Info: FULL ELECTROSTATIC EVALUATION FREQUENCY      2
Info: USING VERLET I (r-RESPA) MTS SCHEME.
Info: C1 SPLITTING OF LONG RANGE ELECTROSTATICS
Info: PLACING ATOMS IN PATCHES BY HYDROGEN GROUPS
Info: RIGID BONDS TO HYDROGEN : ALL
Info:         ERROR TOLERANCE : 1e-08
Info:          MAX ITERATIONS : 100
Info: RIGID WATER USING SETTLE ALGORITHM
Info: RANDOM NUMBER SEED     1743547013
Info: USE HYDROGEN BONDS?    NO
Info: Using AMBER format force field!
Info: AMBER PARM FILE        mobley_4845722.prmtop
Info: COORDINATE PDB         mobley_4845722.pdb
Info: Exclusions will be read from PARM file!
Info: SCNB (VDW SCALING)     2
Info: USING ARITHMETIC MEAN TO COMBINE L-J SIGMA PARAMETERS
Info: BINARY COORDINATES     mobley_4845722_equil.coor
Info: SUMMARY OF PARAMETERS:
Info: 4 BONDS
Info: 2 ANGLES
Info:   2 HARMONIC
Info:   0 COSINE-BASED
Info: 2 DIHEDRAL
Info: 0 IMPROPER
Info: 0 CROSSTERM
Info: 0 VDW
Info: 10 VDW_PAIRS
Info: 0 NBTHOLE_PAIRS
Info: To read alchdata from file: mobley_4845722.pdb
Info: To read alchflag data from column: 5
Info: STRUCTURE SUMMARY:
Info: 2976 ATOMS
Info: 2976 BONDS
Info: 18 ANGLES
Info: 30 DIHEDRALS
Info: 0 IMPROPERS
Info: 0 CROSSTERMS
Info: 3015 EXCLUSIONS
Info: 2964 RIGID BONDS
Info: ALCH: 0 ATOMS TO DISAPPEAR IN FINAL STATE
Info: ALCH: 12 ATOMS TO APPEAR IN FINAL STATE
Info: 5964 DEGREES OF FREEDOM
Info: 1000 HYDROGEN GROUPS
Info: 3 ATOMS IN LARGEST HYDROGEN GROUP
Info: 1000 MIGRATION GROUPS
Info: 3 ATOMS IN LARGEST MIGRATION GROUP
Info: TOTAL MASS = 18084.6 amu
Info: TOTAL CHARGE = -9.99998e-05 e
Info: MASS DENSITY = 0.979793 g/cm^3
Info: ATOM DENSITY = 0.0970956 atoms/A^3
Info: ADDED 0 IMPLICIT EXCLUSIONS
Info: NONBONDED TABLE R-SQUARED SPACING: 0.0625
Info: NONBONDED TABLE SIZE: 705 POINTS
Info: REMOVING COM VELOCITY 0.10157 0.131422 0.0496434
Info: Use 3D box decompostion in PME FFT.
Info: Updated CUDA force table with 4096 elements.
Info: Updated CUDA LJ table with 4 x 4 elements.
Info: Found 15 unique exclusion lists needing 28 bytes
TCL: Running for 1500000 steps
ETITLE: TS BOND ANGLE DIHED IMPRP ELECT VDW BOUNDARY MISC KINETIC TOTAL TEMP POTENTIAL TOTALAVG TEMPAVG PRESSURE GPRESSURE VOLUME PRESSAVG GPRESSAVG
ENERGY: 0 2.5929 2.3867 7.6946 0.0000 -10935.3999 1525.5514 0.0000 0.0000 1736.7965 -7660.3778 293.0905 -9397.1744 -7660.3778 293.0905 380.5818 465.9223 30650.1908 380.5818 465.9223
ENERGY: 300000 4.2330 3.8336 2.0200 0.0000 -10727.6473 1404.8102 0.0000 0.0000 1758.4223 -7554.3281 296.7399 -9312.7504 -7604.3084 295.4802 -157.3052 -172.6892 31073.5329 151.9347 203.3179
ENERGY: 600000 1.7679 1.1808 4.0729 0.0000 -10941.1868 1557.7057 0.0000 0.0000 1780.6368 -7595.8228 300.4887 -9376.4595 -7609.5796 297.7137 768.7809 791.8556 30853.1738 107.9486 152.2010
ENERGY: 900000 2.7674 2.6491 4.7996 0.0000 -10837.4493 1457.7381 0.0000 0.0000 1707.7075 -7661.7876 288.1816 -9369.4951 -7612.9260 296.6582 -194.2903 -95.4652 30732.8265 68.6367 120.6987
ENERGY: 1200000 2.5272 3.5722 1.7096 0.0000 -10750.4910 1348.9655 0.0000 0.0000 1735.8461 -7657.8703 292.9301 -9393.7164 -7597.7662 298.0150 -1070.4610 -1043.9551 30817.2587 -92.4632 -37.6721
ENERGY: 1500000 2.4019 3.3458 1.3288 0.0000 -10886.3037 1523.4129 0.0000 0.0000 1750.6198 -7605.1944 295.4232 -9355.8143 -7593.1122 298.6647 700.3797 701.2307 30508.4681 -84.4436 -34.3514
TCL: Running FEP window   2: Lambda1 0.95   Lambda2 0.8999999999999999 [dLambda -0.050000000000000044]
TCL: Setting parameter firsttimestep to 0
TCL: Setting parameter alchLambda to 0.95
Info: NONBONDED TABLE R-SQUARED SPACING: 0.0625
Info: NONBONDED TABLE SIZE: 705 POINTS
TCL: Setting parameter alchLambda2 to 0.8999999999999999
Info: NONBONDED TABLE R-SQUARED SPACING: 0.0625
Info: NONBONDED TABLE SIZE: 705 POINTS
TCL: Running for 1500000 steps
ETITLE: TS BOND ANGLE DIHED IMPRP ELECT VDW BOUNDARY MISC KINETIC TOTAL TEMP POTENTIAL TOTALAVG TEMPAVG PRESSURE GPRESSURE VOLUME PRESSAVG GPRESSAVG
ENERGY: 0 2.4019 3.3458 1.3288 0.0000 -10886.3317 1523.8264 0.0000 0.0000 1749.7694 -7605.6593 295.2797 -9355.4287 -7605.6593 295.2797 617.6615 694.2148 30508.4681 617.6615 694.2148
ENERGY: 300000 7.6677 1.2541 3.3066 0.0000 -10836.2860 1485.8246 0.0000 0.0000 1772.1421 -7566.0908 299.0552 -9338.2330 -7568.0771 299.3847 -72.7928 -81.8508 31195.4840 -101.8249 -41.9145
ENERGY: 600000 2.4083 1.5992 4.3680 0.0000 -10778.5526 1385.1073 0.0000 0.0000 1744.6773 -7640.3926 294.4204 -9385.0698 -7586.3051 298.3213 -465.7987 -411.7750 30329.0865 -160.5426 -89.9336
ENERGY: 900000 3.4866 2.5804 1.4809 0.0000 -10704.0012 1345.4826 0.0000 0.0000 1766.1427 -7584.8280 298.0427 -9350.9707 -7581.3026 299.0334 -859.0696 -818.2119 31312.3621 -285.7963 -232.3414
ENERGY: 1200000 1.8843 2.1226 2.2468 0.0000 -10825.3386 1473.5057 0.0000 0.0000 1798.6803 -7546.8988 303.5336 -9345.5792 -7569.5902 300.0399 244.2669 247.7807 30599.5959 -301.6539 -249.5389
ENERGY: 1500000 5.2394 3.4221 6.1568 0.0000 -10801.9133 1480.2930 0.0000 0.0000 1755.6091 -7551.1929 296.2652 -9306.8020 -7565.1697 300.3056 -2.8309 46.9351 30753.5345 -266.9006 -219.1115
TCL: Running FEP window   3: Lambda1 0.8999999999999999 Lambda2 0.8499999999999999 [dLambda -0.050000000000000044]
TCL: Setting parameter firsttimestep to 0
TCL: Setting parameter alchLambda to 0.8999999999999999
Info: NONBONDED TABLE R-SQUARED SPACING: 0.0625
Info: NONBONDED TABLE SIZE: 705 POINTS
TCL: Setting parameter alchLambda2 to 0.8499999999999999
Info: NONBONDED TABLE R-SQUARED SPACING: 0.0625
Info: NONBONDED TABLE SIZE: 705 POINTS
TCL: Running for 1500000 steps
ETITLE: TS BOND ANGLE DIHED IMPRP ELECT VDW BOUNDARY MISC KINETIC TOTAL TEMP POTENTIAL TOTALAVG TEMPAVG PRESSURE GPRESSURE VOLUME PRESSAVG GPRESSAVG
ENERGY: 0 5.2394 3.4221 6.1568 0.0000 -10801.8970 1480.9873 0.0000 0.0000 1754.7415 -7551.3499 296.1187 -9306.0914 -7551.3499 296.1187 -44.2376 41.9870 30753.5345 -44.2376 41.9870
ENERGY: 300000 7.1964 0.8594 4.9852 0.0000 -10779.6428 1454.9473 0.0000 0.0000 1789.4503 -7522.2042 301.9760 -9311.6545 -7539.1526 299.9962 321.1601 368.8931 30682.5470 -79.1636 -1.6417
ENERGY: 600000 2.9464 2.1984 2.3845 0.0000 -10554.6856 1341.2978 0.0000 0.0000 1764.6299 -7441.2285 297.7874 -9205.8584 -7519.9840 299.2632 -646.8375 -582.2947 31118.5544 -209.6437 -138.0961
ENERGY: 900000 5.5642 1.7297 4.2333 0.0000 -10749.7647 1371.2263 0.0000 0.0000 1784.9312 -7582.0799 301.2134 -9367.0111 -7538.9508 299.0412 -1102.9624 -1006.2493 31221.6271 -257.9835 -176.0902
ENERGY: 1200000 4.6598 0.5859 3.4497 0.0000 -10812.2512 1458.7982 0.0000 0.0000 1792.3900 -7552.3675 302.4721 -9344.7575 -7546.8189 298.7568 -100.5864 6.0174 30579.8443 -150.8717 -65.8909
ENERGY: 1500000 3.1826 3.1577 4.5349 0.0000 -10792.7238 1435.4571 0.0000 0.0000 1748.9074 -7597.4840 295.1342 -9346.3915 -7553.8406 298.4051 -94.4038 -8.5036 30531.7298 -90.7859 -10.5861
TCL: Running FEP window   4: Lambda1 0.8499999999999999 Lambda2 0.7999999999999998 [dLambda -0.050000000000000044]
TCL: Setting parameter firsttimestep to 0
TCL: Setting parameter alchLambda to 0.8499999999999999
Info: NONBONDED TABLE R-SQUARED SPACING: 0.0625
Info: NONBONDED TABLE SIZE: 705 POINTS
TCL: Setting parameter alchLambda2 to 0.7999999999999998
Info: NONBONDED TABLE R-SQUARED SPACING: 0.0625
Info: NONBONDED TABLE SIZE: 705 POINTS
TCL: Running for 1500000 steps
ETITLE: TS BOND ANGLE DIHED IMPRP ELECT VDW BOUNDARY MISC KINETIC TOTAL TEMP POTENTIAL TOTALAVG TEMPAVG PRESSURE GPRESSURE VOLUME PRESSAVG GPRESSAVG
ENERGY: 0 3.1826 3.1577 4.5349 0.0000 -10792.6946 1436.3368 0.0000 0.0000 1748.0049 -7597.4777 294.9819 -9345.4826 -7597.4777 294.9819 -105.2817 -12.3198 30531.7298 -105.2817 -12.3198
ENERGY: 300000 6.3273 1.9592 1.5049 0.0000 -10707.0779 1343.8695 0.0000 0.0000 1769.9808 -7583.4363 298.6904 -9353.4171 -7533.3042 300.3885 -988.0358 -904.7676 30776.3371 -107.5062 -34.5664
ENERGY: 600000 3.0575 0.7123 3.4362 0.0000 -10782.2373 1406.0819 0.0000 0.0000 1761.9926 -7606.9567 297.3424 -9368.9493 -7554.9444 300.0740 -390.2890 -404.5793 30721.4941 -209.7860 -151.0600
ENERGY: 900000 2.3284 2.2756 4.5160 0.0000 -10655.0237 1399.6435 0.0000 0.0000 1828.3748 -7417.8854 308.5446 -9246.2602 -7532.3128 302.4083 66.5296 57.8902 31019.4839 -257.1013 -192.5157
ENERGY: 1200000 4.5226 1.0982 1.8038 0.0000 -10799.0317 1460.0539 0.0000 0.0000 1759.2337 -7572.3195 296.8768 -9331.5532 -7534.9917 302.1358 192.1343 223.7210 30497.3512 -87.3661 -30.4401
ENERGY: 1500000 2.8230 2.0596 0.5822 0.0000 -10547.3962 1283.9924 0.0000 0.0000 1816.9211 -7441.0177 306.6118 -9257.9389 -7530.6001 302.4853 -1146.9880 -1061.2302 31021.4680 -167.9798 -106.7047
TCL: Running FEP window   5: Lambda1 0.7999999999999998 Lambda2 0.7499999999999998 [dLambda -0.050000000000000044]
TCL: Setting parameter firsttimestep to 0
TCL: Setting parameter alchLambda to 0.7999999999999998
Info: NONBONDED TABLE R-SQUARED SPACING: 0.0625
Info: NONBONDED TABLE SIZE: 705 POINTS
TCL: Setting parameter alchLambda2 to 0.7499999999999998
Info: NONBONDED TABLE R-SQUARED SPACING: 0.0625
Info: NONBONDED TABLE SIZE: 705 POINTS
TCL: Running for 1500000 steps
ETITLE: TS BOND ANGLE DIHED IMPRP ELECT VDW BOUNDARY MISC KINETIC TOTAL TEMP POTENTIAL TOTALAVG TEMPAVG PRESSURE GPRESSURE VOLUME PRESSAVG GPRESSAVG
ENERGY: 0 2.8230 2.0596 0.5822 0.0000 -10547.4189 1285.0030 0.0000 0.0000 1816.0555 -7440.8955 306.4657 -9256.9510 -7440.8955 306.4657 -1141.6760 -1062.9959 31021.4680 -1141.6760 -1062.9959
ENERGY: 300000 3.9439 1.8281 1.4401 0.0000 -10785.5525 1455.8851 0.0000 0.0000 1768.3492 -7554.1061 298.4151 -9322.4553 -7535.0704 303.8502 -127.9335 -62.8474 31189.4531 -239.3861 -172.6613
ENERGY: 600000 3.3837 2.4670 5.6228 0.0000 -10867.1274 1506.4397 0.0000 0.0000 1764.6459 -7584.5683 297.7901 -9349.2142 -7545.1168 302.2246 493.8902 594.3514 30529.1914 -34.6816 38.7197
ENERGY: 900000 2.9134 0.5066 4.1276 0.0000 -10642.6271 1312.7124 0.0000 0.0000 1802.2706 -7520.0965 304.1394 -9322.3670 -7539.3832 302.4939 -962.6758 -950.0818 30912.7549 -201.3922 -135.2760
ENERGY: 1200000 3.3243 1.2911 2.0070 0.0000 -10804.8327 1453.9285 0.0000 0.0000 1864.8915 -7479.3904 314.7069 -9344.2819 -7533.5280 304.1617 -16.8668 47.2534 30480.0818 -167.2674 -108.0841
ENERGY: 1500000 2.1152 3.2343 1.0414 0.0000 -10813.0078 1467.5893 0.0000 0.0000 1761.7771 -7577.2507 297.3060 -9339.0277 -7537.1393 303.6277 279.9716 328.3562 30661.5496 -148.0437 -93.1784
TCL: Running FEP window   6: Lambda1 0.7499999999999998 Lambda2 0.6999999999999997 [dLambda -0.050000000000000044]
TCL: Setting parameter firsttimestep to 0
TCL: Setting parameter alchLambda to 0.7499999999999998
Info: NONBONDED TABLE R-SQUARED SPACING: 0.0625
Info: NONBONDED TABLE SIZE: 705 POINTS
TCL: Setting parameter alchLambda2 to 0.6999999999999997
Info: NONBONDED TABLE R-SQUARED SPACING: 0.0625
Info: NONBONDED TABLE SIZE: 705 POINTS
TCL: Running for 1500000 steps
ETITLE: TS BOND ANGLE DIHED IMPRP ELECT VDW BOUNDARY MISC KINETIC TOTAL TEMP POTENTIAL TOTALAVG TEMPAVG PRESSURE GPRESSURE VOLUME PRESSAVG GPRESSAVG
ENERGY: 0 2.1152 3.2343 1.0414 0.0000 -10812.9666 1468.3548 0.0000 0.0000 1760.9124 -7577.3085 297.1601 -9338.2209 -7577.3085 297.1601 249.6282 323.0775 30661.5496 249.6282 323.0775
ENERGY: 300000 4.3642 3.3981 2.0109 0.0000 -10811.6983 1469.3974 0.0000 0.0000 1768.9232 -7563.6044 298.5119 -9332.5276 -7573.0006 301.2061 -46.1112 -31.2964 30957.0337 30.7532 80.4517
ENERGY: 600000 5.0689 3.0190 1.5768 0.0000 -10927.6201 1526.9130 0.0000 0.0000 1792.8380 -7598.2044 302.5477 -9391.0423 -7572.7505 300.3332 846.0227 869.1710 30211.0868 -198.3942 -146.0141
ENERGY: 900000 3.5346 3.0015 2.0377 0.0000 -10794.9309 1432.9004 0.0000 0.0000 1794.4827 -7558.9740 302.8252 -9353.4567 -7557.9374 301.5275 -187.1038 -64.1290 30814.3397 -64.9331 -5.8272
ENERGY: 1200000 2.3235 0.9406 2.1620 0.0000 -10849.3568 1504.9174 0.0000 0.0000 1789.1826 -7549.8306 301.9308 -9339.0133 -7550.9179 301.1932 225.6640 241.6324 30999.5692 13.4332 67.4997
ENERGY: 1500000 4.5092 1.3051 1.5582 0.0000 -10923.7799 1498.9898 0.0000 0.0000 1800.8806 -7616.5371 303.9049 -9417.4176 -7554.5363 301.1596 53.4850 135.5146 30675.2472 24.1344 79.5361
TCL: Running FEP window   7: Lambda1 0.6999999999999997 Lambda2 0.6499999999999997 [dLambda -0.050000000000000044]
TCL: Setting parameter firsttimestep to 0
TCL: Setting parameter alchLambda to 0.6999999999999997
Info: NONBONDED TABLE R-SQUARED SPACING: 0.0625
Info: NONBONDED TABLE SIZE: 705 POINTS
TCL: Setting parameter alchLambda2 to 0.6499999999999997
Info: NONBONDED TABLE R-SQUARED SPACING: 0.0625
Info: NONBONDED TABLE SIZE: 705 POINTS
TCL: Running for 1500000 steps
ETITLE: TS BOND ANGLE DIHED IMPRP ELECT VDW BOUNDARY MISC KINETIC TOTAL TEMP POTENTIAL TOTALAVG TEMPAVG PRESSURE GPRESSURE VOLUME PRESSAVG GPRESSAVG
ENERGY: 0 4.5092 1.3051 1.5582 0.0000 -10923.7940 1499.2547 0.0000 0.0000 1800.0086 -7617.1583 303.7577 -9417.1669 -7617.1583 303.7577 38.1675 128.0613 30675.2472 38.1675 128.0613
ENERGY: 300000 7.1065 1.9799 3.4800 0.0000 -10853.6146 1506.6073 0.0000 0.0000 1732.1303 -7602.3105 292.3030 -9334.4408 -7552.3985 297.9406 548.0833 649.3673 30207.3862 -436.8979 -341.0756
ENERGY: 600000 2.8917 3.8389 2.5538 0.0000 -10835.1091 1438.3223 0.0000 0.0000 1746.7425 -7640.7598 294.7689 -9387.5024 -7553.6409 299.8084 -426.2411 -407.0667 30818.9802 -229.2817 -174.1709
ENERGY: 900000 2.4808 1.9986 4.0482 0.0000 -10911.3241 1560.0001 0.0000 0.0000 1809.7424 -7533.0539 305.4003 -9342.7963 -7554.4383 299.9584 629.3740 726.6546 30738.7231 -116.3121 -55.1945
ENERGY: 1200000 2.6714 1.5014 2.2016 0.0000 -10695.5503 1402.9582 0.0000 0.0000 1784.5203 -7501.6973 301.1440 -9286.2177 -7547.3035 300.3832 -122.8215 -86.1493 31184.3214 -97.5852 -40.0487
ENERGY: 1500000 3.9686 2.7252 2.4094 0.0000 -10820.7736 1430.2491 0.0000 0.0000 1795.3494 -7586.0720 302.9715 -9381.4214 -7550.4145 300.2371 -426.3405 -293.7545 30696.2225 -193.9993 -129.8094
TCL: Running FEP window   8: Lambda1 0.6499999999999997 Lambda2 0.5999999999999996 [dLambda -0.050000000000000044]
TCL: Setting parameter firsttimestep to 0
TCL: Setting parameter alchLambda to 0.6499999999999997
Info: NONBONDED TABLE R-SQUARED SPACING: 0.0625
Info: NONBONDED TABLE SIZE: 705 POINTS
TCL: Setting parameter alchLambda2 to 0.5999999999999996
Info: NONBONDED TABLE R-SQUARED SPACING: 0.0625
Info: NONBONDED TABLE SIZE: 705 POINTS
TCL: Running for 1500000 steps
ETITLE: TS BOND ANGLE DIHED IMPRP ELECT VDW BOUNDARY MISC KINETIC TOTAL TEMP POTENTIAL TOTALAVG TEMPAVG PRESSURE GPRESSURE VOLUME PRESSAVG GPRESSAVG
ENERGY: 0 3.9686 2.7252 2.4094 0.0000 -10820.6847 1430.7913 0.0000 0.0000 1794.4731 -7586.3171 302.8236 -9380.7902 -7586.3171 302.8236 -382.9985 -300.0430 30696.2225 -382.9985 -300.0430
ENERGY: 300000 3.1653 1.8664 2.9773 0.0000 -10931.4796 1497.1928 0.0000 0.0000 1757.1100 -7669.1678 296.5184 -9426.2778 -7583.5459 297.5179 452.9872 497.9639 30035.4645 -283.1488 -240.4628
ENERGY: 600000 5.6931 1.4351 2.2990 0.0000 -10686.5435 1384.8803 0.0000 0.0000 1778.4749 -7513.7611 300.1238 -9292.2360 -7567.9096 299.0350 -427.9187 -373.5841 30998.3335 -325.4999 -280.1144
ENERGY: 900000 3.7246 3.2680 3.5953 0.0000 -10788.0627 1411.8183 0.0000 0.0000 1757.0237 -7608.6327 296.5039 -9365.6565 -7550.2800 299.7955 -502.5494 -395.7423 30762.4224 -210.1410 -155.8728
ENERGY: 1200000 3.8338 2.0701 3.0530 0.0000 -10755.9823 1439.7119 0.0000 0.0000 1802.9548 -7504.3588 304.2549 -9307.3136 -7546.9851 299.9162 66.6960 136.9570 30561.8387 -175.5245 -119.4429
ENERGY: 1500000 7.4472 2.0947 1.3135 0.0000 -10830.8146 1501.8949 0.0000 0.0000 1809.6368 -7508.4276 305.3825 -9318.0644 -7533.2535 300.7697 299.6588 267.5780 30704.9968 -147.1395 -99.6116
TCL: Running FEP window   9: Lambda1 0.5999999999999996 Lambda2 0.5499999999999996 [dLambda -0.050000000000000044]
TCL: Setting parameter firsttimestep to 0
TCL: Setting parameter alchLambda to 0.5999999999999996
Info: NONBONDED TABLE R-SQUARED SPACING: 0.0625
Info: NONBONDED TABLE SIZE: 705 POINTS
TCL: Setting parameter alchLambda2 to 0.5499999999999996
Info: NONBONDED TABLE R-SQUARED SPACING: 0.0625
Info: NONBONDED TABLE SIZE: 705 POINTS
TCL: Running for 1500000 steps
ETITLE: TS BOND ANGLE DIHED IMPRP ELECT VDW BOUNDARY MISC KINETIC TOTAL TEMP POTENTIAL TOTALAVG TEMPAVG PRESSURE GPRESSURE VOLUME PRESSAVG GPRESSAVG
ENERGY: 0 7.4472 2.0947 1.3135 0.0000 -10830.7468 1502.5586 0.0000 0.0000 1808.7087 -7508.6242 305.2259 -9317.3329 -7508.6242 305.2259 177.4837 262.3401 30704.9968 177.4837 262.3401
ENERGY: 300000 5.2241 1.3001 2.2281 0.0000 -10796.4003 1413.9794 0.0000 0.0000 1761.5905 -7612.0781 297.2745 -9373.6686 -7549.7000 299.2334 -405.6788 -336.9606 30587.3081 -208.3475 -137.8806
ENERGY: 600000 4.0438 2.4629 2.5263 0.0000 -10793.2364 1439.9229 0.0000 0.0000 1722.1449 -7622.1357 290.6180 -9344.2805 -7571.5383 299.1569 -202.3550 -90.2060 30739.3107 -278.4409 -205.4726
ENERGY: 900000 2.1155 3.0087 1.5720 0.0000 -10694.8332 1403.3295 0.0000 0.0000 1785.6416 -7499.1659 301.3333 -9284.8076 -7542.2601 299.7083 -337.9514 -248.8877 30961.6346 -276.7061 -197.6936
ENERGY: 1200000 3.9147 2.2115 2.0738 0.0000 -10720.4494 1428.3416 0.0000 0.0000 1787.1175 -7496.7903 301.5823 -9283.9078 -7533.6620 300.1801 -301.5123 -227.8848 31131.5506 -350.1872 -278.6743
ENERGY: 1500000 3.5645 1.3894 1.8009 0.0000 -10645.2041 1349.3949 0.0000 0.0000 1770.3368 -7518.7175 298.7505 -9289.0544 -7529.8753 300.5210 -824.4706 -810.2742 31093.3771 -387.5412 -325.0133
TCL: Running FEP window  10: Lambda1 0.5499999999999996 Lambda2 0.4999999999999996 [dLambda -0.04999999999999999]
TCL: Setting parameter firsttimestep to 0
TCL: Setting parameter alchLambda to 0.5499999999999996
Info: NONBONDED TABLE R-SQUARED SPACING: 0.0625
Info: NONBONDED TABLE SIZE: 705 POINTS
TCL: Setting parameter alchLambda2 to 0.4999999999999996
Info: NONBONDED TABLE R-SQUARED SPACING: 0.0625
Info: NONBONDED TABLE SIZE: 705 POINTS
TCL: Running for 1500000 steps
ETITLE: TS BOND ANGLE DIHED IMPRP ELECT VDW BOUNDARY MISC KINETIC TOTAL TEMP POTENTIAL TOTALAVG TEMPAVG PRESSURE GPRESSURE VOLUME PRESSAVG GPRESSAVG
ENERGY: 0 3.5645 1.3894 1.8009 0.0000 -10645.2232 1350.1117 0.0000 0.0000 1769.4680 -7518.8887 298.6039 -9288.3567 -7518.8887 298.6039 -882.1627 -812.5095 31093.3771 -882.1627 -812.5095
ENERGY: 300000 5.2817 0.8729 2.3078 0.0000 -10688.5373 1363.7595 0.0000 0.0000 1768.1009 -7548.2144 298.3732 -9316.3153 -7522.8526 299.1695 -735.4921 -605.9676 30517.7041 25.6699 112.9794
ENERGY: 600000 3.7095 2.1805 1.6473 0.0000 -10692.1060 1380.8569 0.0000 0.0000 1756.6136 -7547.0982 296.4347 -9303.7119 -7535.3944 298.7896 -554.9438 -458.4788 30623.1878 -140.4627 -63.6066
ENERGY: 900000 1.0883 1.7477 2.0933 0.0000 -10759.9437 1464.4124 0.0000 0.0000 1789.0419 -7501.5600 301.9071 -9290.6019 -7530.3282 299.3149 142.1521 195.0263 30941.1393 -89.3132 -19.9247
ENERGY: 1200000 4.1095 2.5705 6.7071 0.0000 -10733.6798 1395.0559 0.0000 0.0000 1795.5038 -7529.7329 302.9975 -9325.2368 -7522.8834 299.8092 -550.5859 -437.4145 31124.7987 -158.5984 -81.7384
ENERGY: 1500000 2.9587 2.5578 2.5833 0.0000 -10787.8278 1408.8878 0.0000 0.0000 1796.1522 -7574.6880 303.1069 -9370.8403 -7522.4847 300.0390 -289.4476 -260.0863 30488.8070 -150.6310 -80.0198
TCL: Running FEP window  11: Lambda1 0.4999999999999996 Lambda2 0.4499999999999996 [dLambda -0.04999999999999999]
TCL: Setting parameter firsttimestep to 0
TCL: Setting parameter alchLambda to 0.4999999999999996
Info: NONBONDED TABLE R-SQUARED SPACING: 0.0625
Info: NONBONDED TABLE SIZE: 705 POINTS
TCL: Setting parameter alchLambda2 to 0.4499999999999996
Info: NONBONDED TABLE R-SQUARED SPACING: 0.0625
Info: NONBONDED TABLE SIZE: 705 POINTS
TCL: Running for 1500000 steps
ETITLE: TS BOND ANGLE DIHED IMPRP ELECT VDW BOUNDARY MISC KINETIC TOTAL TEMP POTENTIAL TOTALAVG TEMPAVG PRESSURE GPRESSURE VOLUME PRESSAVG GPRESSAVG
ENERGY: 0 2.9587 2.5578 2.5833 0.0000 -10787.7268 1409.4378 0.0000 0.0000 1795.2549 -7574.9344 302.9555 -9370.1892 -7574.9344 302.9555 -357.5170 -267.9554 30488.8070 -357.5170 -267.9554
ENERGY: 300000 3.4489 1.2088 2.0536 0.0000 -10664.8341 1411.8477 0.0000 0.0000 1832.9080 -7413.3672 309.3096 -9246.2752 -7580.3401 300.3558 -155.9353 -48.8904 30660.7930 271.2839 350.2334
ENERGY: 600000 6.1907 0.7411 2.8012 0.0000 -10792.5583 1408.4639 0.0000 0.0000 1764.4165 -7609.9449 297.7514 -9374.3614 -7562.6911 301.6624 -560.9305 -604.6694 30734.9350 246.3155 285.7920
ENERGY: 900000 5.2876 1.5604 1.0295 0.0000 -10902.4174 1502.2949 0.0000 0.0000 1822.2472 -7569.9979 307.5106 -9392.2451 -7553.6450 302.9106 175.4970 212.9827 30477.2640 116.2094 161.2532
ENERGY: 1200000 2.6607 4.1594 2.5178 0.0000 -10807.4425 1484.4850 0.0000 0.0000 1839.6542 -7473.9654 310.4480 -9313.6196 -7555.4403 301.6683 299.0574 413.3364 30938.4205 20.8151 73.7226
ENERGY: 1500000 4.6115 3.1071 3.3007 0.0000 -10785.7104 1437.5910 0.0000 0.0000 1777.4811 -7559.6190 299.9561 -9337.1001 -7549.6800 301.2255 -283.9732 -253.7573 30648.4257 12.9812 66.6550
TCL: Running FEP window  12: Lambda1 0.4499999999999996 Lambda2 0.39999999999999963 [dLambda -0.04999999999999999]
TCL: Setting parameter firsttimestep to 0
TCL: Setting parameter alchLambda to 0.4499999999999996
Info: NONBONDED TABLE R-SQUARED SPACING: 0.0625
Info: NONBONDED TABLE SIZE: 705 POINTS
TCL: Setting parameter alchLambda2 to 0.39999999999999963
Info: NONBONDED TABLE R-SQUARED SPACING: 0.0625
Info: NONBONDED TABLE SIZE: 705 POINTS
TCL: Running for 1500000 steps
ETITLE: TS BOND ANGLE DIHED IMPRP ELECT VDW BOUNDARY MISC KINETIC TOTAL TEMP POTENTIAL TOTALAVG TEMPAVG PRESSURE GPRESSURE VOLUME PRESSAVG GPRESSAVG
ENERGY: 0 4.6115 3.1071 3.3007 0.0000 -10785.7105 1437.8881 0.0000 0.0000 1776.5834 -7560.2196 299.8046 -9336.8031 -7560.2196 299.8046 -333.7657 -258.9723 30648.4257 -333.7657 -258.9723
ENERGY: 300000 4.5719 3.8964 1.7861 0.0000 -10653.6955 1367.4839 0.0000 0.0000 1837.5637 -7438.3935 310.0953 -9275.9572 -7506.2383 300.5209 -310.8752 -223.4892 30657.6564 -57.6489 11.4847
ENERGY: 600000 3.5107 0.8089 1.3257 0.0000 -10863.9594 1529.1689 0.0000 0.0000 1818.8103 -7510.3348 306.9306 -9329.1451 -7555.6515 299.7204 465.1869 496.6837 30880.1548 201.0149 256.7675
ENERGY: 900000 4.4300 2.4233 2.0735 0.0000 -10730.6070 1388.7412 0.0000 0.0000 1741.8820 -7591.0571 293.9487 -9332.9391 -7556.8247 299.3107 -753.5635 -699.2645 30866.1263 127.1019 182.9504
ENERGY: 1200000 5.1181 1.7683 4.4746 0.0000 -10713.3722 1434.3034 0.0000 0.0000 1726.2865 -7541.4213 291.3169 -9267.7078 -7558.1484 298.2809 -487.8723 -441.7859 31285.5591 175.9084 230.1060
ENERGY: 1500000 3.0952 1.7380 2.5542 0.0000 -10858.4108 1499.3353 0.0000 0.0000 1778.6753 -7573.0128 300.1577 -9351.6881 -7569.4787 298.0082 676.1359 744.6312 29968.1247 163.9781 220.5639
TCL: Running FEP window  13: Lambda1 0.39999999999999963 Lambda2 0.34999999999999964 [dLambda -0.04999999999999999]
TCL: Setting parameter firsttimestep to 0
TCL: Setting parameter alchLambda to 0.39999999999999963
Info: NONBONDED TABLE R-SQUARED SPACING: 0.0625
Info: NONBONDED TABLE SIZE: 705 POINTS
TCL: Setting parameter alchLambda2 to 0.34999999999999964
Info: NONBONDED TABLE R-SQUARED SPACING: 0.0625
Info: NONBONDED TABLE SIZE: 705 POINTS
TCL: Running for 1500000 steps
ETITLE: TS BOND ANGLE DIHED IMPRP ELECT VDW BOUNDARY MISC KINETIC TOTAL TEMP POTENTIAL TOTALAVG TEMPAVG PRESSURE GPRESSURE VOLUME PRESSAVG GPRESSAVG
ENERGY: 0 3.0952 1.7380 2.5542 0.0000 -10858.4110 1499.8796 0.0000 0.0000 1777.7917 -7573.3523 300.0086 -9351.1440 -7573.3523 300.0086 657.4662 742.7213 29968.1247 657.4662 742.7213
ENERGY: 300000 3.7747 1.6272 2.1736 0.0000 -10761.5862 1395.7432 0.0000 0.0000 1761.2212 -7597.0463 297.2122 -9358.2675 -7540.7211 301.0039 -541.7892 -464.2968 30727.1562 116.9944 158.9859
ENERGY: 600000 5.7564 2.7519 1.4190 0.0000 -10778.6255 1440.1220 0.0000 0.0000 1787.8146 -7540.7615 301.6999 -9328.5761 -7541.6737 301.1851 -111.0274 -59.0303 30466.4538 45.9013 86.2792
ENERGY: 900000 2.6994 1.3573 5.4175 0.0000 -10794.8378 1407.5755 0.0000 0.0000 1783.0603 -7594.7277 300.8976 -9377.7880 -7538.6766 302.6829 -497.4888 -397.5417 30486.6272 -37.7676 14.9025
ENERGY: 1200000 3.7086 1.3097 3.3206 0.0000 -10600.2418 1303.1877 0.0000 0.0000 1737.5354 -7551.1798 293.2152 -9288.7152 -7540.2957 301.3116 -1147.1713 -1043.7464 30976.4938 -172.9850 -112.0687
ENERGY: 1500000 3.2387 3.0167 0.7990 0.0000 -10730.5897 1483.2419 0.0000 0.0000 1719.2952 -7520.9982 290.1371 -9240.2934 -7539.9885 300.6639 350.9959 449.1184 30955.2060 -64.1730 0.2202
TCL: Running FEP window  14: Lambda1 0.34999999999999964 Lambda2 0.29999999999999966 [dLambda -0.04999999999999999]
TCL: Setting parameter firsttimestep to 0
TCL: Setting parameter alchLambda to 0.34999999999999964
Info: NONBONDED TABLE R-SQUARED SPACING: 0.0625
Info: NONBONDED TABLE SIZE: 705 POINTS
TCL: Setting parameter alchLambda2 to 0.29999999999999966
Info: NONBONDED TABLE R-SQUARED SPACING: 0.0625
Info: NONBONDED TABLE SIZE: 705 POINTS
TCL: Running for 1500000 steps
ETITLE: TS BOND ANGLE DIHED IMPRP ELECT VDW BOUNDARY MISC KINETIC TOTAL TEMP POTENTIAL TOTALAVG TEMPAVG PRESSURE GPRESSURE VOLUME PRESSAVG GPRESSAVG
ENERGY: 0 3.2387 3.0167 0.7990 0.0000 -10730.5902 1483.2767 0.0000 0.0000 1718.4310 -7521.8282 289.9912 -9240.2592 -7521.8282 289.9912 354.6746 444.9688 30955.2060 354.6746 444.9688
ENERGY: 300000 1.7049 2.2647 4.1747 0.0000 -10763.1481 1467.1976 0.0000 0.0000 1812.0811 -7475.7251 305.7950 -9287.8062 -7485.1530 301.0085 24.7661 120.0734 30926.1491 376.5088 473.1786
ENERGY: 600000 3.3201 1.6374 1.3657 0.0000 -10715.1680 1392.7620 0.0000 0.0000 1761.4808 -7554.6021 297.2560 -9316.0829 -7516.2617 300.1071 -461.1775 -431.2628 30612.8120 200.3593 273.1728
ENERGY: 900000 1.4170 3.1734 4.6347 0.0000 -10808.4579 1444.4384 0.0000 0.0000 1758.9576 -7595.8367 296.8302 -9354.7943 -7521.5842 299.4248 -267.4902 -162.9540 30943.8205 26.3370 93.4451
ENERGY: 1200000 2.9532 1.9274 1.6484 0.0000 -10679.6789 1384.6261 0.0000 0.0000 1787.3743 -7501.1494 301.6256 -9288.5238 -7529.3936 299.7831 -536.7234 -540.2953 30781.6918 -44.5890 20.6855
ENERGY: 1500000 5.5199 0.8859 1.4185 0.0000 -10800.0531 1464.7644 0.0000 0.0000 1750.0832 -7577.3813 295.3326 -9327.4645 -7539.8318 299.3831 280.4924 378.6706 30135.8643 -17.5758 46.6388
TCL: Running FEP window  15: Lambda1 0.29999999999999966 Lambda2 0.24999999999999967 [dLambda -0.04999999999999999]
TCL: Setting parameter firsttimestep to 0
TCL: Setting parameter alchLambda to 0.29999999999999966
Info: NONBONDED TABLE R-SQUARED SPACING: 0.0625
Info: NONBONDED TABLE SIZE: 705 POINTS
TCL: Setting parameter alchLambda2 to 0.24999999999999967
Info: NONBONDED TABLE R-SQUARED SPACING: 0.0625
Info: NONBONDED TABLE SIZE: 705 POINTS
TCL: Running for 1500000 steps
ETITLE: TS BOND ANGLE DIHED IMPRP ELECT VDW BOUNDARY MISC KINETIC TOTAL TEMP POTENTIAL TOTALAVG TEMPAVG PRESSURE GPRESSURE VOLUME PRESSAVG GPRESSAVG
ENERGY: 0 5.5199 0.8859 1.4185 0.0000 -10800.0533 1465.4782 0.0000 0.0000 1749.2433 -7577.5075 295.1909 -9326.7508 -7577.5075 295.1909 298.8285 375.4286 30135.8643 298.8285 375.4286
ENERGY: 300000 5.9728 1.1869 1.3114 0.0000 -10760.0593 1388.1920 0.0000 0.0000 1773.1187 -7590.2775 299.2200 -9363.3962 -7578.5815 297.3145 -904.7373 -792.0612 31012.4511 -311.4746 -249.9713
ENERGY: 600000 2.3883 1.8912 2.8609 0.0000 -10761.3573 1455.5951 0.0000 0.0000 1827.2196 -7471.4023 308.3497 -9298.6218 -7559.3409 299.3621 -77.2467 -48.7716 30950.7032 -132.2982 -75.0459
ENERGY: 900000 1.6997 4.7033 1.7965 0.0000 -10893.8568 1565.2906 0.0000 0.0000 1766.8577 -7553.5090 298.1634 -9320.3667 -7547.6894 299.6067 960.8964 1030.5946 30344.7239 110.2179 172.4003
ENERGY: 1200000 3.7826 0.9250 0.9196 0.0000 -10885.3312 1502.8078 0.0000 0.0000 1752.6481 -7624.2482 295.7655 -9376.8963 -7553.0464 299.5704 165.9331 235.6935 30421.4287 42.3501 106.2493
ENERGY: 1500000 3.7360 1.8315 2.7595 0.0000 -10886.7735 1505.3764 0.0000 0.0000 1758.9992 -7614.0709 296.8372 -9373.0701 -7553.5786 298.7869 218.9769 281.0930 30664.2527 156.2886 222.1007
TCL: Running FEP window  16: Lambda1 0.24999999999999967 Lambda2 0.19999999999999968 [dLambda -0.04999999999999999]
TCL: Setting parameter firsttimestep to 0
TCL: Setting parameter alchLambda to 0.24999999999999967
Info: NONBONDED TABLE R-SQUARED SPACING: 0.0625
Info: NONBONDED TABLE SIZE: 705 POINTS
TCL: Setting parameter alchLambda2 to 0.19999999999999968
Info: NONBONDED TABLE R-SQUARED SPACING: 0.0625
Info: NONBONDED TABLE SIZE: 705 POINTS
TCL: Running for 1500000 steps
ETITLE: TS BOND ANGLE DIHED IMPRP ELECT VDW BOUNDARY MISC KINETIC TOTAL TEMP POTENTIAL TOTALAVG TEMPAVG PRESSURE GPRESSURE VOLUME PRESSAVG GPRESSAVG
ENERGY: 0 3.7360 1.8315 2.7595 0.0000 -10886.7755 1505.6766 0.0000 0.0000 1758.1185 -7614.6533 296.6886 -9372.7719 -7614.6533 296.6886 195.3041 278.7504 30664.2527 195.3041 278.7504
ENERGY: 300000 3.5251 1.0669 1.4815 0.0000 -10831.8160 1461.5699 0.0000 0.0000 1836.7930 -7527.3796 309.9652 -9364.1726 -7552.1174 301.1927 -155.7037 -143.1379 30645.8248 -43.8884 37.8577
ENERGY: 600000 4.6319 2.6262 3.5893 0.0000 -10788.0391 1436.5575 0.0000 0.0000 1804.9863 -7535.6479 304.5977 -9340.6342 -7537.7810 303.2217 -58.2322 -42.3872 30414.1704 -18.2146 63.6910
ENERGY: 900000 4.9986 1.0723 1.2390 0.0000 -10713.5010 1391.8683 0.0000 0.0000 1798.6363 -7515.6864 303.5261 -9314.3227 -7548.7290 302.6675 -522.0737 -518.6098 30696.8062 -12.5443 65.0018
ENERGY: 1200000 4.1145 0.8139 4.0245 0.0000 -10632.2579 1407.2192 0.0000 0.0000 1793.4628 -7422.6229 302.6531 -9216.0857 -7545.2984 302.1926 16.8628 63.0106 30506.1637 34.1905 106.2743
ENERGY: 1500000 4.7452 1.3455 1.7505 0.0000 -10729.1382 1426.0884 0.0000 0.0000 1757.7360 -7537.4726 296.6241 -9295.2086 -7529.7954 302.5778 -117.5173 -19.3244 30613.9470 6.2186 76.6290
TCL: Running FEP window  17: Lambda1 0.19999999999999968 Lambda2 0.1499999999999997 [dLambda -0.04999999999999999]
TCL: Setting parameter firsttimestep to 0
TCL: Setting parameter alchLambda to 0.19999999999999968
Info: NONBONDED TABLE R-SQUARED SPACING: 0.0625
Info: NONBONDED TABLE SIZE: 705 POINTS
TCL: Setting parameter alchLambda2 to 0.1499999999999997
Info: NONBONDED TABLE R-SQUARED SPACING: 0.0625
Info: NONBONDED TABLE SIZE: 705 POINTS
TCL: Running for 1500000 steps
ETITLE: TS BOND ANGLE DIHED IMPRP ELECT VDW BOUNDARY MISC KINETIC TOTAL TEMP POTENTIAL TOTALAVG TEMPAVG PRESSURE GPRESSURE VOLUME PRESSAVG GPRESSAVG
ENERGY: 0 4.7452 1.3455 1.7505 0.0000 -10729.1381 1426.6903 0.0000 0.0000 1756.8594 -7537.7472 296.4761 -9294.6066 -7537.7472 296.4761 -100.7833 -21.9082 30613.9470 -100.7833 -21.9082
ENERGY: 300000 7.0524 0.9465 1.1076 0.0000 -10713.6575 1400.9298 0.0000 0.0000 1764.1407 -7539.4806 297.7049 -9303.6213 -7547.2027 296.4754 -819.2694 -764.1005 31359.7859 -55.3780 23.6017
ENERGY: 600000 3.8124 1.0967 0.8848 0.0000 -10919.1580 1567.4655 0.0000 0.0000 1775.8571 -7570.0414 299.6821 -9345.8985 -7550.5642 297.9644 674.8029 704.1716 30650.5243 -92.9339 -32.5643
ENERGY: 900000 3.2358 0.8482 3.7994 0.0000 -10819.6338 1515.2022 0.0000 0.0000 1747.9594 -7548.5888 294.9742 -9296.5482 -7539.7156 296.8196 374.5863 347.5082 31036.6061 68.4896 124.1772
ENERGY: 1200000 4.4541 2.1617 3.4250 0.0000 -10743.3139 1453.7826 0.0000 0.0000 1792.0864 -7487.4041 302.4208 -9279.4905 -7527.9579 299.2907 -0.3599 61.5131 30605.7052 83.0482 139.0284
ENERGY: 1500000 3.2507 3.5538 2.8207 0.0000 -10783.4426 1438.9533 0.0000 0.0000 1815.9655 -7518.8986 306.4505 -9334.8641 -7525.0815 299.6514 -111.8053 -51.8196 30305.0367 -42.0014 13.2453
TCL: Running FEP window  18: Lambda1 0.1499999999999997 Lambda2 0.09999999999999969 [dLambda -0.05 ]
TCL: Setting parameter firsttimestep to 0
TCL: Setting parameter alchLambda to 0.1499999999999997
Info: NONBONDED TABLE R-SQUARED SPACING: 0.0625
Info: NONBONDED TABLE SIZE: 705 POINTS
TCL: Setting parameter alchLambda2 to 0.09999999999999969
Info: NONBONDED TABLE R-SQUARED SPACING: 0.0625
Info: NONBONDED TABLE SIZE: 705 POINTS
TCL: Running for 1500000 steps
ETITLE: TS BOND ANGLE DIHED IMPRP ELECT VDW BOUNDARY MISC KINETIC TOTAL TEMP POTENTIAL TOTALAVG TEMPAVG PRESSURE GPRESSURE VOLUME PRESSAVG GPRESSAVG
ENERGY: 0 3.2507 3.5538 2.8207 0.0000 -10783.4430 1439.5859 0.0000 0.0000 1815.0864 -7519.1456 306.3021 -9334.2319 -7519.1456 306.3021 -138.2276 -54.1398 30305.0367 -138.2276 -54.1398
ENERGY: 300000 5.6762 2.8756 1.4565 0.0000 -10751.6881 1400.2358 0.0000 0.0000 1710.1429 -7631.3011 288.5926 -9341.4440 -7542.0782 296.6201 -569.9302 -524.9474 31051.6558 -244.9752 -171.7645
ENERGY: 600000 4.6198 1.9926 2.0427 0.0000 -10897.1871 1497.0659 0.0000 0.0000 1749.9717 -7641.4944 295.3138 -9391.4661 -7562.2426 297.6411 -144.9780 -124.2996 30656.1529 -239.7384 -179.7568
ENERGY: 900000 2.9535 3.2425 1.6709 0.0000 -10798.1242 1442.4307 0.0000 0.0000 1802.6095 -7545.2171 304.1966 -9347.8266 -7555.9364 299.3695 -75.4531 -30.6572 30259.3773 -120.9482 -61.6409
ENERGY: 1200000 1.8201 1.8824 2.2219 0.0000 -10670.7700 1385.6917 0.0000 0.0000 1798.7510 -7480.4029 303.5455 -9279.1539 -7544.8611 300.3275 -396.4252 -382.8776 30820.4595 -94.2683 -39.2509
ENERGY: 1500000 1.2849 2.3567 1.2175 0.0000 -10844.2322 1498.0009 0.0000 0.0000 1790.9802 -7550.3921 302.2341 -9341.3722 -7550.5463 300.7056 208.5624 240.4137 30930.1674 -107.3556 -53.1911
TCL: Running FEP window  19: Lambda1 0.09999999999999969 Lambda2 0.049999999999999684 [dLambda -0.05 ]
TCL: Setting parameter firsttimestep to 0
TCL: Setting parameter alchLambda to 0.09999999999999969
Info: NONBONDED TABLE R-SQUARED SPACING: 0.0625
Info: NONBONDED TABLE SIZE: 705 POINTS
TCL: Setting parameter alchLambda2 to 0.049999999999999684
Info: NONBONDED TABLE R-SQUARED SPACING: 0.0625
Info: NONBONDED TABLE SIZE: 705 POINTS
TCL: Running for 1500000 steps
ETITLE: TS BOND ANGLE DIHED IMPRP ELECT VDW BOUNDARY MISC KINETIC TOTAL TEMP POTENTIAL TOTALAVG TEMPAVG PRESSURE GPRESSURE VOLUME PRESSAVG GPRESSAVG
ENERGY: 0 1.2849 2.3567 1.2175 0.0000 -10844.2311 1498.6107 0.0000 0.0000 1790.0912 -7550.6701 302.0841 -9340.7613 -7550.6701 302.0841 149.8372 242.9567 30930.1674 149.8372 242.9567
ENERGY: 300000 4.0894 3.3836 0.9516 0.0000 -10581.2255 1331.1576 0.0000 0.0000 1735.0383 -7506.6051 292.7938 -9241.6433 -7506.2192 301.1857 -657.3682 -606.1906 30572.5042 -123.9455 -62.1616
ENERGY: 600000 4.9423 2.0267 4.3042 0.0000 -10656.8929 1395.7226 0.0000 0.0000 1754.2821 -7495.6150 296.0412 -9249.8971 -7512.8557 298.9884 -483.9732 -504.5111 30789.6886 -380.8486 -327.2565
ENERGY: 900000 3.6203 2.6753 1.5358 0.0000 -10669.1833 1410.8633 0.0000 0.0000 1699.2220 -7551.2667 286.7496 -9250.4887 -7503.3102 300.4311 -273.7951 -195.6563 31024.0432 -299.8535 -235.3818
ENERGY: 1200000 5.4692 4.5047 1.7548 0.0000 -10755.3511 1378.5750 0.0000 0.0000 1749.0225 -7616.0250 295.1536 -9365.0475 -7512.8078 300.3515 -849.8865 -792.8988 30430.6190 -228.1766 -165.3337
ENERGY: 1500000 3.3692 1.3990 1.5957 0.0000 -10800.9382 1502.6818 0.0000 0.0000 1757.8541 -7534.0384 296.6440 -9291.8926 -7515.3750 299.8798 443.1463 562.0791 30618.7892 -114.1478 -48.7093
TCL: Running FEP window  20: Lambda1 0.049999999999999684 Lambda2 0.0    [dLambda -0.049999999999999684]
TCL: Setting parameter firsttimestep to 0
TCL: Setting parameter alchLambda to 0.049999999999999684
Info: NONBONDED TABLE R-SQUARED SPACING: 0.0625
Info: NONBONDED TABLE SIZE: 705 POINTS
TCL: Setting parameter alchLambda2 to 0.0
Info: NONBONDED TABLE R-SQUARED SPACING: 0.0625
Info: NONBONDED TABLE SIZE: 705 POINTS
TCL: Running for 1500000 steps
ETITLE: TS BOND ANGLE DIHED IMPRP ELECT VDW BOUNDARY MISC KINETIC TOTAL TEMP POTENTIAL TOTALAVG TEMPAVG PRESSURE GPRESSURE VOLUME PRESSAVG GPRESSAVG
ENERGY: 0 3.3692 1.3990 1.5957 0.0000 -10800.9385 1500.9195 0.0000 0.0000 1756.9529 -7536.7022 296.4919 -9293.6552 -7536.7022 296.4919 464.1392 552.5180 30618.7892 464.1392 552.5180
ENERGY: 300000 1.8869 1.8763 2.4285 0.0000 -10800.0308 1466.4576 0.0000 0.0000 1785.7875 -7541.5939 301.3579 -9327.3814 -7561.9231 297.7023 80.0312 107.3927 30902.9890 161.7991 230.9199
ENERGY: 600000 3.3751 2.6819 1.3420 0.0000 -10783.9033 1440.4377 0.0000 0.0000 1797.9978 -7538.0689 303.4184 -9336.0667 -7550.8092 299.1665 -252.2026 -174.1812 30512.4655 -100.8193 -46.2857
ENERGY: 900000 2.3245 3.2754 0.4644 0.0000 -10939.2626 1509.7816 0.0000 0.0000 1747.4738 -7675.9429 294.8923 -9423.4166 -7553.7334 298.8270 171.0971 278.1376 30303.4046 -6.7849 42.1049
ENERGY: 1200000 3.9813 4.0344 2.9425 0.0000 -10709.0942 1431.9948 0.0000 0.0000 1735.2785 -7530.8627 292.8343 -9266.1412 -7557.9399 297.6727 -359.9973 -296.0045 30770.2472 6.5646 59.0948
ENERGY: 1500000 3.4891 3.3970 1.2125 0.0000 -10793.5517 1469.7310 0.0000 0.0000 1803.4570 -7512.2652 304.3396 -9315.7222 -7557.5925 298.2064 54.0955 89.1089 30460.8637 -18.7938 29.8233
TCL: Exiting due to exit command.
