Info: SIMULATION PARAMETERS:
Info: TIMESTEP               2
Info: NUMBER OF STEPS        0
Info: STEPS PER CYCLE        10
Info: PERIODIC CELL BASIS 1  31.6299 0 0
Info: PERIODIC CELL BASIS 2  0 31.2515 0
Info: PERIODIC CELL BASIS 3  0 0 30.2341
Info: PERIODIC CELL CENTER   0 0 0
Info: WRAPPING WATERS AROUND PERIODIC BOUNDARIES ON OUTPUT.
Info: WRAPPING ALL CLUSTERS AROUND PERIODIC BOUNDARIES ON OUTPUT.
Info: FIRST LDB TIMESTEP     50
Info: LAST LDB TIMESTEP     -1
Info: HOM BACKGROUND SCALING 1
Info: PME BACKGROUND SCALING 1
Info: MIN ATOMS PER PATCH    40
Info: EMPTY PATCH LOAD       40 ATOMS
Info: VELOCITY FILE          mobley_8885088_equil.vel
Info: CENTER OF MASS MOVING INITIALLY? NO
Info: DIELECTRIC             1
Info: EXCLUDE                SCALED ONE-FOUR
Info: 1-4 ELECTROSTATICS SCALED BY 0.833333
Info: MODIFIED 1-4 VDW PARAMETERS WILL BE USED
Info: DCD FILENAME           mobley_8885088_prod.dcd
Info: DCD FREQUENCY          100000
Info: DCD FIRST STEP         100000
Info: DCD FILE WILL CONTAIN UNIT CELL DATA
Info: XST FILENAME           mobley_8885088_prod.xst
Info: XST FREQUENCY          100000
Info: NO VELOCITY DCD OUTPUT
Info: NO FORCE DCD OUTPUT
Info: OUTPUT FILENAME        mobley_8885088_prod
Info: BINARY OUTPUT FILES WILL BE USED
Info: RESTART FILENAME       mobley_8885088_prod.restart
Info: RESTART FREQUENCY      100000
Info: BINARY RESTART FILES WILL BE USED
Info: CUTOFF                 9
Info: PAIRLIST DISTANCE      11
Info: PAIRLIST SHRINK RATE   0.01
Info: PAIRLIST GROW RATE     0.01
Info: PAIRLIST TRIGGER       0.3
Info: PAIRLISTS PER CYCLE    2
Info: PAIRLISTS ENABLED
Info: MARGIN                 2
Info: HYDROGEN GROUP CUTOFF  2.5
Info: PATCH DIMENSION        15.5
Info: ENERGY OUTPUT STEPS    100000
Info: ENERGY EVALUATION STEPS    100000
Info: OUTPUT ENERGY PRECISION 4
Info: CROSSTERM ENERGY INCLUDED IN DIHEDRAL
Info: TIMING OUTPUT STEPS    1000000
Info: PRESSURE OUTPUT STEPS  100000
Info: ALCHEMICAL FEP ON
Info: FEP CURRENT LAMBDA VALUE     1
Info: FEP COMPARISON LAMBDA VALUE  0.95
Info: FEP INTRA-ALCHEMICAL NON-BONDED INTERACTIONS WILL BE RETAINED
Info: FEP INTRA-ALCHEMICAL BONDED INTERACTIONS WILL BE RETAINED
Info: FEP VDW SHIFTING COEFFICIENT 5
Info: FEP ELEC. ACTIVE FOR ANNIHILATED PARTICLES BETWEEN LAMBDA = 0 AND LAMBDA = 0.5
Info: FEP ELEC. ACTIVE FOR EXNIHILATED PARTICLES BETWEEN LAMBDA = 0.5 AND LAMBDA = 1
Info: FEP VDW ACTIVE FOR ANNIHILATED PARTICLES BETWEEN LAMBDA = 0 AND LAMBDA = 1
Info: FEP VDW ACTIVE FOR EXNIHILATED PARTICLES BETWEEN LAMBDA = 0 AND LAMBDA = 1
Info: FEP BOND ACTIVE FOR ANNIHILATED PARTICLES BETWEEN LAMBDA = 1 AND LAMBDA = 1
Info: FEP BOND ACTIVE FOR EXNIHILATED PARTICLES BETWEEN LAMBDA = 0 AND LAMBDA = 0
Info: LANGEVIN DYNAMICS ACTIVE
Info: LANGEVIN TEMPERATURE   300
Info: LANGEVIN USING BBK INTEGRATOR
Info: LANGEVIN DAMPING COEFFICIENT IS 1 INVERSE PS
Info: LANGEVIN DYNAMICS APPLIED TO HYDROGENS
Info: LANGEVIN PISTON PRESSURE CONTROL ACTIVE
Info:        TARGET PRESSURE IS 1.01325 BAR
Info:     OSCILLATION PERIOD IS 50 FS
Info:             DECAY TIME IS 25 FS
Info:     PISTON TEMPERATURE IS 300 K
Info:       PRESSURE CONTROL IS GROUP-BASED
Info:    INITIAL STRAIN RATE IS -7.24225e-05 -7.24225e-05 -7.24225e-05
Info:       CELL FLUCTUATION IS ISOTROPIC
Info: PARTICLE MESH EWALD (PME) ACTIVE
Info: PME TOLERANCE               1e-06
Info: PME EWALD COEFFICIENT       0.348832
Info: PME INTERPOLATION ORDER     4
Info: PME GRID DIMENSIONS         32 32 32
Info: PME MAXIMUM GRID SPACING    1
Info: PME CALCULATION WILL BE PERFORMED ON GPU
Info: FULL ELECTROSTATIC EVALUATION FREQUENCY      2
Info: USING VERLET I (r-RESPA) MTS SCHEME.
Info: C1 SPLITTING OF LONG RANGE ELECTROSTATICS
Info: PLACING ATOMS IN PATCHES BY HYDROGEN GROUPS
Info: RIGID BONDS TO HYDROGEN : ALL
Info:         ERROR TOLERANCE : 1e-08
Info:          MAX ITERATIONS : 100
Info: RIGID WATER USING SETTLE ALGORITHM
Info: RANDOM NUMBER SEED     1743569491
Info: USE HYDROGEN BONDS?    NO
Info: Using AMBER format force field!
Info: AMBER PARM FILE        mobley_8885088.prmtop
Info: COORDINATE PDB         mobley_8885088.pdb
Info: Exclusions will be read from PARM file!
Info: SCNB (VDW SCALING)     2
Info: USING ARITHMETIC MEAN TO COMBINE L-J SIGMA PARAMETERS
Info: BINARY COORDINATES     mobley_8885088_equil.coor
Info: SUMMARY OF PARAMETERS:
Info: 7 BONDS
Info: 8 ANGLES
Info:   8 HARMONIC
Info:   0 COSINE-BASED
Info: 9 DIHEDRAL
Info: 0 IMPROPER
Info: 0 CROSSTERM
Info: 0 VDW
Info: 21 VDW_PAIRS
Info: 0 NBTHOLE_PAIRS
Info: To read alchdata from file: mobley_8885088.pdb
Info: To read alchflag data from column: 5
Info: STRUCTURE SUMMARY:
Info: 2959 ATOMS
Info: 2959 BONDS
Info: 24 ANGLES
Info: 45 DIHEDRALS
Info: 0 IMPROPERS
Info: 0 CROSSTERMS
Info: 3012 EXCLUSIONS
Info: 2954 RIGID BONDS
Info: ALCH: 0 ATOMS TO DISAPPEAR IN FINAL STATE
Info: ALCH: 13 ATOMS TO APPEAR IN FINAL STATE
Info: 5923 DEGREES OF FREEDOM
Info: 987 HYDROGEN GROUPS
Info: 3 ATOMS IN LARGEST HYDROGEN GROUP
Info: 987 MIGRATION GROUPS
Info: 3 ATOMS IN LARGEST MIGRATION GROUP
Info: TOTAL MASS = 17759.8 amu
Info: TOTAL CHARGE = -0.000200003 e
Info: MASS DENSITY = 0.986807 g/cm^3
Info: ATOM DENSITY = 0.09901 atoms/A^3
Info: ADDED 0 IMPLICIT EXCLUSIONS
Info: NONBONDED TABLE R-SQUARED SPACING: 0.0625
Info: NONBONDED TABLE SIZE: 705 POINTS
Info: REDUCING NUMBER OF PATCHES TO IMPROVE LOAD BALANCE
Info: REMOVING COM VELOCITY 0.1588 -0.0587885 -0.171155
Info: Use 3D box decompostion in PME FFT.
Info: Updated CUDA force table with 4096 elements.
Info: Updated CUDA LJ table with 6 x 6 elements.
Info: Found 15 unique exclusion lists needing 32 bytes
TCL: Running for 1500000 steps
ETITLE: TS BOND ANGLE DIHED IMPRP ELECT VDW BOUNDARY MISC KINETIC TOTAL TEMP POTENTIAL TOTALAVG TEMPAVG PRESSURE GPRESSURE VOLUME PRESSAVG GPRESSAVG
ENERGY: 0 2.7960 15.7754 9.3533 0.0000 -10831.7880 1481.5631 0.0000 0.0000 1765.1421 -7557.1581 299.9358 -9322.3002 -7557.1581 299.9358 274.1360 360.8631 29885.8690 274.1360 360.8631
ENERGY: 300000 1.4138 14.7101 7.9185 0.0000 -10914.5222 1590.2858 0.0000 0.0000 1752.0833 -7548.1107 297.7168 -9300.1940 -7501.8574 298.1637 1287.9746 1378.3594 29822.7875 475.0659 573.0573
ENERGY: 600000 1.4100 14.9111 8.0749 0.0000 -10618.9676 1398.1715 0.0000 0.0000 1773.6656 -7422.7344 301.3841 -9196.4000 -7494.9378 298.4325 -60.4741 2.4968 30422.7131 396.9948 470.3882
ENERGY: 900000 2.5839 13.5476 9.7861 0.0000 -10613.4584 1354.0866 0.0000 0.0000 1779.9534 -7453.5007 302.4526 -9233.4541 -7482.7728 299.7850 -660.9596 -615.7942 30532.3191 176.3067 244.3006
ENERGY: 1200000 2.8171 15.5497 7.8742 0.0000 -10862.9524 1530.2150 0.0000 0.0000 1815.5276 -7490.9688 308.4974 -9306.4964 -7495.4260 300.2835 638.0594 652.0629 30167.6029 110.8958 175.7122
ENERGY: 1500000 0.7374 14.2394 7.8929 0.0000 -10815.5729 1514.2160 0.0000 0.0000 1742.1367 -7536.3507 296.0267 -9278.4873 -7493.2418 300.3136 680.0116 736.1779 30041.6034 96.5230 161.1099
TCL: Running FEP window   2: Lambda1 0.95   Lambda2 0.8999999999999999 [dLambda -0.050000000000000044]
TCL: Setting parameter firsttimestep to 0
TCL: Setting parameter alchLambda to 0.95
Info: NONBONDED TABLE R-SQUARED SPACING: 0.0625
Info: NONBONDED TABLE SIZE: 705 POINTS
TCL: Setting parameter alchLambda2 to 0.8999999999999999
Info: NONBONDED TABLE R-SQUARED SPACING: 0.0625
Info: NONBONDED TABLE SIZE: 705 POINTS
TCL: Running for 1500000 steps
ETITLE: TS BOND ANGLE DIHED IMPRP ELECT VDW BOUNDARY MISC KINETIC TOTAL TEMP POTENTIAL TOTALAVG TEMPAVG PRESSURE GPRESSURE VOLUME PRESSAVG GPRESSAVG
ENERGY: 0 0.7374 14.2394 7.8929 0.0000 -10815.1485 1513.6969 0.0000 0.0000 1741.2813 -7537.3006 295.8814 -9278.5820 -7537.3006 295.8814 630.4226 717.2625 30041.6034 630.4226 717.2625
ENERGY: 300000 0.8301 16.9629 9.7161 0.0000 -10770.9486 1524.6610 0.0000 0.0000 1744.6929 -7474.0856 296.4610 -9218.7784 -7511.7040 298.9142 852.7591 943.2027 30448.5079 420.0236 513.0102
ENERGY: 600000 0.6874 14.0816 7.9033 0.0000 -10734.8488 1425.4137 0.0000 0.0000 1795.0814 -7491.6815 305.0231 -9286.7629 -7497.3526 300.4878 71.7103 140.0272 29890.5259 339.9225 423.3956
ENERGY: 900000 1.0335 12.9439 8.1829 0.0000 -10709.3128 1465.7477 0.0000 0.0000 1773.5083 -7447.8965 301.3574 -9221.4049 -7498.4962 300.7782 241.3099 330.8068 30695.5081 282.4689 362.4427
ENERGY: 1200000 1.8273 14.7778 7.2938 0.0000 -10523.4412 1298.7201 0.0000 0.0000 1817.4240 -7383.3982 308.8196 -9200.8222 -7480.5373 301.2976 -927.9484 -843.8800 30322.5303 107.9053 185.5671
ENERGY: 1500000 1.5652 15.2014 9.5365 0.0000 -10699.7618 1415.1548 0.0000 0.0000 1842.1881 -7416.1158 313.0276 -9258.3039 -7486.8501 301.1799 -170.7772 -146.3889 30449.2073 108.2718 181.2288
TCL: Running FEP window   3: Lambda1 0.8999999999999999 Lambda2 0.8499999999999999 [dLambda -0.050000000000000044]
TCL: Setting parameter firsttimestep to 0
TCL: Setting parameter alchLambda to 0.8999999999999999
Info: NONBONDED TABLE R-SQUARED SPACING: 0.0625
Info: NONBONDED TABLE SIZE: 705 POINTS
TCL: Setting parameter alchLambda2 to 0.8499999999999999
Info: NONBONDED TABLE R-SQUARED SPACING: 0.0625
Info: NONBONDED TABLE SIZE: 705 POINTS
TCL: Running for 1500000 steps
ETITLE: TS BOND ANGLE DIHED IMPRP ELECT VDW BOUNDARY MISC KINETIC TOTAL TEMP POTENTIAL TOTALAVG TEMPAVG PRESSURE GPRESSURE VOLUME PRESSAVG GPRESSAVG
ENERGY: 0 1.5652 15.2014 9.5365 0.0000 -10699.4810 1415.2717 0.0000 0.0000 1841.2701 -7416.6361 312.8716 -9257.9062 -7416.6361 312.8716 -211.5018 -156.4154 30449.2073 -211.5018 -156.4154
ENERGY: 300000 3.4071 14.7006 8.9710 0.0000 -10625.7321 1401.1978 0.0000 0.0000 1789.8228 -7407.6328 304.1296 -9197.4556 -7449.9546 301.5697 -32.0089 12.7431 30587.6200 -124.2485 -60.9477
ENERGY: 600000 3.1508 16.1328 7.6654 0.0000 -10530.3938 1294.6772 0.0000 0.0000 1747.9997 -7460.7679 297.0229 -9208.7676 -7474.3423 301.4017 -1130.6063 -1127.0904 30655.0757 -103.3010 -55.5647
ENERGY: 900000 0.6146 13.9534 8.1701 0.0000 -10672.9590 1431.4600 0.0000 0.0000 1725.9640 -7492.7969 293.2786 -9218.7609 -7483.4009 300.8599 25.1155 8.0398 30380.1268 -123.3620 -76.9179
ENERGY: 1200000 0.9179 14.0950 7.8940 0.0000 -10604.5456 1368.2786 0.0000 0.0000 1768.0384 -7445.3216 300.4280 -9213.3600 -7484.9520 300.5214 -562.5008 -437.5826 30629.4318 -75.8544 -24.7252
ENERGY: 1500000 3.3116 12.1322 8.1793 0.0000 -10594.2103 1410.4728 0.0000 0.0000 1766.4388 -7393.6755 300.1562 -9160.1143 -7483.4555 300.9722 -154.1417 -102.2757 30936.8983 -117.9381 -65.7572
TCL: Running FEP window   4: Lambda1 0.8499999999999999 Lambda2 0.7999999999999998 [dLambda -0.050000000000000044]
TCL: Setting parameter firsttimestep to 0
TCL: Setting parameter alchLambda to 0.8499999999999999
Info: NONBONDED TABLE R-SQUARED SPACING: 0.0625
Info: NONBONDED TABLE SIZE: 705 POINTS
TCL: Setting parameter alchLambda2 to 0.7999999999999998
Info: NONBONDED TABLE R-SQUARED SPACING: 0.0625
Info: NONBONDED TABLE SIZE: 705 POINTS
TCL: Running for 1500000 steps
ETITLE: TS BOND ANGLE DIHED IMPRP ELECT VDW BOUNDARY MISC KINETIC TOTAL TEMP POTENTIAL TOTALAVG TEMPAVG PRESSURE GPRESSURE VOLUME PRESSAVG GPRESSAVG
ENERGY: 0 3.3116 12.1322 8.1793 0.0000 -10594.0338 1410.5723 0.0000 0.0000 1765.5799 -7394.2585 300.0102 -9159.8384 -7394.2585 300.0102 -202.8140 -104.6729 30936.8983 -202.8140 -104.6729
ENERGY: 300000 1.4422 16.3007 13.1008 0.0000 -10877.5898 1502.2834 0.0000 0.0000 1732.2528 -7612.2099 294.3472 -9344.4627 -7512.6215 298.8283 -15.4492 35.3481 30687.9263 -321.4963 -248.2329
ENERGY: 600000 2.3486 12.4168 7.8308 0.0000 -10630.3199 1400.7365 0.0000 0.0000 1741.7135 -7465.2737 295.9548 -9206.9872 -7497.7144 297.2645 -104.7975 17.9026 30205.0276 -455.5455 -380.8797
ENERGY: 900000 0.7013 14.6297 9.1662 0.0000 -10761.0544 1476.6157 0.0000 0.0000 1754.2282 -7505.7133 298.0813 -9259.9414 -7489.6725 298.1924 -25.8086 67.9290 30811.2806 -332.8172 -257.1681
ENERGY: 1200000 2.3902 14.7175 7.6699 0.0000 -10604.0652 1363.4974 0.0000 0.0000 1752.0998 -7463.6905 297.7196 -9215.7903 -7483.6434 298.5854 -441.1647 -315.0256 30270.3160 -361.6970 -280.1459
ENERGY: 1500000 1.1366 13.8272 9.6492 0.0000 -10594.5173 1374.4576 0.0000 0.0000 1773.1252 -7422.3215 301.2923 -9195.4467 -7482.9441 298.9618 -330.9849 -196.0103 30285.3729 -297.4036 -214.5070
TCL: Running FEP window   5: Lambda1 0.7999999999999998 Lambda2 0.7499999999999998 [dLambda -0.050000000000000044]
TCL: Setting parameter firsttimestep to 0
TCL: Setting parameter alchLambda to 0.7999999999999998
Info: NONBONDED TABLE R-SQUARED SPACING: 0.0625
Info: NONBONDED TABLE SIZE: 705 POINTS
TCL: Setting parameter alchLambda2 to 0.7499999999999998
Info: NONBONDED TABLE R-SQUARED SPACING: 0.0625
Info: NONBONDED TABLE SIZE: 705 POINTS
TCL: Running for 1500000 steps
ETITLE: TS BOND ANGLE DIHED IMPRP ELECT VDW BOUNDARY MISC KINETIC TOTAL TEMP POTENTIAL TOTALAVG TEMPAVG PRESSURE GPRESSURE VOLUME PRESSAVG GPRESSAVG
ENERGY: 0 1.1366 13.8272 9.6492 0.0000 -10594.3205 1374.7575 0.0000 0.0000 1772.2255 -7422.7245 301.1394 -9194.9500 -7422.7245 301.1394 -279.0868 -199.9797 30285.3729 -279.0868 -199.9797
ENERGY: 300000 3.5687 14.6595 8.1072 0.0000 -10727.6257 1455.6293 0.0000 0.0000 1753.1261 -7492.5349 297.8940 -9245.6611 -7472.2141 298.1903 188.3137 229.0634 30471.8337 -44.0429 -5.5702
ENERGY: 600000 1.8720 16.6453 9.2841 0.0000 -10642.5135 1423.4958 0.0000 0.0000 1765.2166 -7425.9998 299.9485 -9191.2164 -7482.6493 297.1264 78.4204 103.9422 30457.2650 -66.3978 -20.6380
ENERGY: 900000 1.5647 13.4058 8.4099 0.0000 -10729.5495 1443.7842 0.0000 0.0000 1809.6330 -7452.7518 307.4958 -9262.3848 -7482.6007 297.4099 135.6726 182.9672 30242.8907 -126.1688 -74.4597
ENERGY: 1200000 4.2259 22.2882 8.4402 0.0000 -10711.5457 1408.8491 0.0000 0.0000 1822.5362 -7445.2062 309.6883 -9267.7424 -7490.5306 299.8482 -204.3706 -85.5938 30314.3697 -101.3023 -38.9438
ENERGY: 1500000 5.8283 14.6648 9.1757 0.0000 -10686.9317 1401.3927 0.0000 0.0000 1768.4350 -7487.4353 300.4953 -9255.8703 -7491.8586 299.4260 -138.7829 -59.8207 30041.3657 -16.7017 44.7750
TCL: Running FEP window   6: Lambda1 0.7499999999999998 Lambda2 0.6999999999999997 [dLambda -0.050000000000000044]
TCL: Setting parameter firsttimestep to 0
TCL: Setting parameter alchLambda to 0.7499999999999998
Info: NONBONDED TABLE R-SQUARED SPACING: 0.0625
Info: NONBONDED TABLE SIZE: 705 POINTS
TCL: Setting parameter alchLambda2 to 0.6999999999999997
Info: NONBONDED TABLE R-SQUARED SPACING: 0.0625
Info: NONBONDED TABLE SIZE: 705 POINTS
TCL: Running for 1500000 steps
ETITLE: TS BOND ANGLE DIHED IMPRP ELECT VDW BOUNDARY MISC KINETIC TOTAL TEMP POTENTIAL TOTALAVG TEMPAVG PRESSURE GPRESSURE VOLUME PRESSAVG GPRESSAVG
ENERGY: 0 5.8283 14.6648 9.1757 0.0000 -10686.9048 1401.7328 0.0000 0.0000 1767.5271 -7487.9762 300.3411 -9255.5033 -7487.9762 300.3411 -145.6634 -62.9739 30041.3657 -145.6634 -62.9739
ENERGY: 300000 0.7673 15.0887 7.7166 0.0000 -10757.3973 1435.3341 0.0000 0.0000 1752.0025 -7546.4880 297.7031 -9298.4905 -7529.7923 295.4573 13.8487 76.2486 30029.4587 -456.6177 -383.8197
ENERGY: 600000 1.2859 14.2870 7.9057 0.0000 -10647.4804 1419.8111 0.0000 0.0000 1781.8387 -7422.3519 302.7729 -9204.1906 -7507.1839 295.8191 36.4320 109.3523 30574.2071 -226.9669 -170.2798
ENERGY: 900000 1.6990 17.3246 7.6241 0.0000 -10643.8302 1338.6464 0.0000 0.0000 1749.4883 -7529.0477 297.2759 -9278.5360 -7505.7771 297.5930 -1047.6420 -979.5694 30536.0648 -240.7016 -182.0971
ENERGY: 1200000 1.1465 12.1984 8.4744 0.0000 -10672.9927 1422.8455 0.0000 0.0000 1778.4613 -7449.8666 302.1990 -9228.3279 -7496.1057 298.7862 102.4813 154.6452 30093.0261 -140.1584 -82.6014
ENERGY: 1500000 0.5735 17.1526 7.1130 0.0000 -10630.4455 1356.4763 0.0000 0.0000 1788.5950 -7460.5352 303.9210 -9249.1302 -7490.5180 299.2802 -707.7380 -668.1469 30705.6391 -138.0134 -78.0156
TCL: Running FEP window   7: Lambda1 0.6999999999999997 Lambda2 0.6499999999999997 [dLambda -0.050000000000000044]
TCL: Setting parameter firsttimestep to 0
TCL: Setting parameter alchLambda to 0.6999999999999997
Info: NONBONDED TABLE R-SQUARED SPACING: 0.0625
Info: NONBONDED TABLE SIZE: 705 POINTS
TCL: Setting parameter alchLambda2 to 0.6499999999999997
Info: NONBONDED TABLE R-SQUARED SPACING: 0.0625
Info: NONBONDED TABLE SIZE: 705 POINTS
TCL: Running for 1500000 steps
ETITLE: TS BOND ANGLE DIHED IMPRP ELECT VDW BOUNDARY MISC KINETIC TOTAL TEMP POTENTIAL TOTALAVG TEMPAVG PRESSURE GPRESSURE VOLUME PRESSAVG GPRESSAVG
ENERGY: 0 0.5735 17.1526 7.1130 0.0000 -10630.2275 1356.4164 0.0000 0.0000 1787.7394 -7461.2327 303.7756 -9248.9720 -7461.2327 303.7756 -746.3777 -672.0005 30705.6391 -746.3777 -672.0005
ENERGY: 300000 2.1927 16.2064 8.8556 0.0000 -10627.5687 1394.9729 0.0000 0.0000 1757.5696 -7447.7715 298.6491 -9205.3411 -7503.3249 298.2892 -99.1251 -36.9293 30141.6976 -338.2172 -310.8668
ENERGY: 600000 0.3476 15.3487 9.3819 0.0000 -10813.5620 1488.5717 0.0000 0.0000 1782.9722 -7516.9400 302.9655 -9299.9122 -7503.0570 299.8424 370.4882 433.9275 30067.1159 -67.1199 -14.3118
ENERGY: 900000 1.7210 15.2907 6.6592 0.0000 -10647.1557 1387.9364 0.0000 0.0000 1767.3929 -7468.1554 300.3183 -9235.5484 -7495.5623 299.9886 -156.8283 -97.9976 30495.4779 -27.0201 29.6108
ENERGY: 1200000 0.4504 14.9025 11.1559 0.0000 -10802.8370 1476.0221 0.0000 0.0000 1783.5092 -7516.7970 303.0568 -9300.3061 -7502.3377 300.0393 142.0005 279.8968 30331.5598 8.6614 63.9346
ENERGY: 1500000 0.3047 16.7675 7.8550 0.0000 -10842.0733 1490.2377 0.0000 0.0000 1797.2853 -7529.6232 305.3976 -9326.9084 -7507.5523 299.8313 178.0661 219.4792 30415.2913 -45.6898 11.5896
TCL: Running FEP window   8: Lambda1 0.6499999999999997 Lambda2 0.5999999999999996 [dLambda -0.050000000000000044]
TCL: Setting parameter firsttimestep to 0
TCL: Setting parameter alchLambda to 0.6499999999999997
Info: NONBONDED TABLE R-SQUARED SPACING: 0.0625
Info: NONBONDED TABLE SIZE: 705 POINTS
TCL: Setting parameter alchLambda2 to 0.5999999999999996
Info: NONBONDED TABLE R-SQUARED SPACING: 0.0625
Info: NONBONDED TABLE SIZE: 705 POINTS
TCL: Running for 1500000 steps
ETITLE: TS BOND ANGLE DIHED IMPRP ELECT VDW BOUNDARY MISC KINETIC TOTAL TEMP POTENTIAL TOTALAVG TEMPAVG PRESSURE GPRESSURE VOLUME PRESSAVG GPRESSAVG
ENERGY: 0 0.3047 16.7675 7.8550 0.0000 -10842.1175 1490.6081 0.0000 0.0000 1796.4163 -7530.1659 305.2500 -9326.5822 -7530.1659 305.2500 123.0220 213.5797 30415.2913 123.0220 213.5797
ENERGY: 300000 0.7284 13.5609 7.8388 0.0000 -10502.1779 1261.4735 0.0000 0.0000 1736.8649 -7481.7114 295.1309 -9218.5763 -7475.7127 302.6476 -1387.3018 -1333.6043 30969.0275 -476.6733 -413.0951
ENERGY: 600000 2.1404 13.1538 8.9640 0.0000 -10797.0109 1561.0165 0.0000 0.0000 1790.3638 -7421.3725 304.2215 -9211.7362 -7469.3172 303.3374 1114.3442 1156.6100 30601.4883 -80.1399 -23.6519
ENERGY: 900000 0.2865 13.3773 8.1041 0.0000 -10574.0727 1355.5967 0.0000 0.0000 1748.7940 -7447.9141 297.1579 -9196.7081 -7466.4870 301.7281 -554.3627 -506.9394 30327.5453 -73.6530 -13.7002
ENERGY: 1200000 1.1982 12.2997 8.6288 0.0000 -10716.2676 1448.1769 0.0000 0.0000 1782.8894 -7463.0747 302.9515 -9245.9640 -7469.1742 301.0636 -23.9878 -16.8783 30782.4180 -124.7163 -64.1054
ENERGY: 1500000 0.9256 14.8988 7.7161 0.0000 -10723.4081 1462.1869 0.0000 0.0000 1724.6988 -7512.9818 293.0636 -9237.6806 -7483.0980 300.0185 276.6600 263.7589 30295.3168 -49.8486 5.0170
TCL: Running FEP window   9: Lambda1 0.5999999999999996 Lambda2 0.5499999999999996 [dLambda -0.050000000000000044]
TCL: Setting parameter firsttimestep to 0
TCL: Setting parameter alchLambda to 0.5999999999999996
Info: NONBONDED TABLE R-SQUARED SPACING: 0.0625
Info: NONBONDED TABLE SIZE: 705 POINTS
TCL: Setting parameter alchLambda2 to 0.5499999999999996
Info: NONBONDED TABLE R-SQUARED SPACING: 0.0625
Info: NONBONDED TABLE SIZE: 705 POINTS
TCL: Running for 1500000 steps
ETITLE: TS BOND ANGLE DIHED IMPRP ELECT VDW BOUNDARY MISC KINETIC TOTAL TEMP POTENTIAL TOTALAVG TEMPAVG PRESSURE GPRESSURE VOLUME PRESSAVG GPRESSAVG
ENERGY: 0 0.9256 14.8988 7.7161 0.0000 -10723.3725 1462.4294 0.0000 0.0000 1723.7901 -7513.6124 292.9092 -9237.4025 -7513.6124 292.9092 168.7873 260.2067 30295.3168 168.7873 260.2067
ENERGY: 300000 0.7868 12.1440 8.3913 0.0000 -10778.5574 1475.1534 0.0000 0.0000 1750.9835 -7531.0985 297.5300 -9282.0820 -7511.6510 299.6408 292.8623 343.8685 30283.0359 -95.6916 -32.7835
ENERGY: 600000 1.5943 14.9295 7.3451 0.0000 -10581.3655 1392.2251 0.0000 0.0000 1757.2650 -7408.0064 298.5973 -9165.2714 -7499.8775 299.7782 -188.4801 -141.8794 30864.3634 -62.5026 -10.4655
ENERGY: 900000 4.3496 14.5729 8.5376 0.0000 -10754.0700 1539.6725 0.0000 0.0000 1723.8361 -7463.1013 292.9170 -9186.9374 -7506.8938 299.6111 971.3325 1044.5236 30373.0937 -64.8724 -10.1879
ENERGY: 1200000 0.8141 16.2102 8.5510 0.0000 -10756.7898 1480.7612 0.0000 0.0000 1761.9732 -7488.4801 299.3974 -9250.4533 -7506.8833 299.1878 528.2445 577.2738 29875.1529 48.9901 104.9612
ENERGY: 1500000 1.6123 13.6609 9.7516 0.0000 -10856.0615 1504.5118 0.0000 0.0000 1754.4304 -7572.0945 298.1157 -9326.5249 -7507.6111 299.8168 170.7100 290.5557 30419.0962 91.2891 153.3762
TCL: Running FEP window  10: Lambda1 0.5499999999999996 Lambda2 0.4999999999999996 [dLambda -0.04999999999999999]
TCL: Setting parameter firsttimestep to 0
TCL: Setting parameter alchLambda to 0.5499999999999996
Info: NONBONDED TABLE R-SQUARED SPACING: 0.0625
Info: NONBONDED TABLE SIZE: 705 POINTS
TCL: Setting parameter alchLambda2 to 0.4999999999999996
Info: NONBONDED TABLE R-SQUARED SPACING: 0.0625
Info: NONBONDED TABLE SIZE: 705 POINTS
TCL: Running for 1500000 steps
ETITLE: TS BOND ANGLE DIHED IMPRP ELECT VDW BOUNDARY MISC KINETIC TOTAL TEMP POTENTIAL TOTALAVG TEMPAVG PRESSURE GPRESSURE VOLUME PRESSAVG GPRESSAVG
ENERGY: 0 1.6123 13.6609 9.7516 0.0000 -10856.1262 1504.6256 0.0000 0.0000 1753.5407 -7572.9352 297.9645 -9326.4759 -7572.9352 297.9645 208.5830 285.4358 30419.0962 208.5830 285.4358
ENERGY: 300000 0.2413 15.5098 8.5039 0.0000 -10677.7941 1391.7356 0.0000 0.0000 1777.7833 -7484.0204 302.0838 -9261.8036 -7494.5493 300.8543 -433.2485 -361.1943 30449.2130 164.0124 240.1870
ENERGY: 600000 0.7690 13.0231 8.2436 0.0000 -10702.4136 1441.5769 0.0000 0.0000 1832.8131 -7405.9879 311.4346 -9238.8010 -7488.9029 301.6244 22.9083 133.7643 30532.9560 138.1473 216.8982
ENERGY: 900000 1.8951 13.8068 7.0717 0.0000 -10677.6538 1378.2995 0.0000 0.0000 1737.0270 -7539.5538 295.1585 -9276.5808 -7487.3729 300.2384 -64.6125 -52.5926 29761.4799 25.8245 85.9853
ENERGY: 1200000 1.4636 18.6476 6.8792 0.0000 -10708.7637 1393.6300 0.0000 0.0000 1824.6161 -7463.5271 310.0417 -9288.1432 -7482.5325 301.5353 -528.2639 -439.5668 30530.8445 -65.3930 -7.7342
ENERGY: 1500000 2.0689 16.1217 8.2008 0.0000 -10697.0574 1401.4185 0.0000 0.0000 1777.6802 -7491.5674 302.0663 -9269.2476 -7473.5537 301.2307 -334.7460 -295.9855 30421.2768 -73.4309 -16.7031
TCL: Running FEP window  11: Lambda1 0.4999999999999996 Lambda2 0.4499999999999996 [dLambda -0.04999999999999999]
TCL: Setting parameter firsttimestep to 0
TCL: Setting parameter alchLambda to 0.4999999999999996
Info: NONBONDED TABLE R-SQUARED SPACING: 0.0625
Info: NONBONDED TABLE SIZE: 705 POINTS
TCL: Setting parameter alchLambda2 to 0.4499999999999996
Info: NONBONDED TABLE R-SQUARED SPACING: 0.0625
Info: NONBONDED TABLE SIZE: 705 POINTS
TCL: Running for 1500000 steps
ETITLE: TS BOND ANGLE DIHED IMPRP ELECT VDW BOUNDARY MISC KINETIC TOTAL TEMP POTENTIAL TOTALAVG TEMPAVG PRESSURE GPRESSURE VOLUME PRESSAVG GPRESSAVG
ENERGY: 0 2.0689 16.1217 8.2008 0.0000 -10696.7292 1401.7590 0.0000 0.0000 1776.7722 -7491.8066 301.9120 -9268.5789 -7491.8066 301.9120 -379.3299 -293.8215 30421.2768 -379.3299 -293.8215
ENERGY: 300000 0.5001 17.8126 7.6038 0.0000 -10677.2511 1415.9474 0.0000 0.0000 1793.8477 -7441.5395 304.8135 -9235.3872 -7465.5321 302.1696 5.8807 22.3513 30356.7198 -136.7334 -100.4534
ENERGY: 600000 0.7918 13.6217 7.9890 0.0000 -10796.9234 1460.1264 0.0000 0.0000 1746.9764 -7567.4181 296.8491 -9314.3946 -7491.5382 300.4744 58.7426 114.3972 30375.5156 84.6270 130.3865
ENERGY: 900000 0.3632 12.6889 9.2452 0.0000 -10716.0265 1452.4443 0.0000 0.0000 1752.0425 -7489.2423 297.7099 -9241.2848 -7491.8921 299.8570 -28.9327 67.8334 30514.2488 -22.5150 27.1679
ENERGY: 1200000 0.8760 15.0577 10.0125 0.0000 -10817.7508 1491.8737 0.0000 0.0000 1757.4481 -7542.4828 298.6284 -9299.9309 -7502.4223 299.3217 231.4934 227.6630 30367.2965 -40.0571 1.7477
ENERGY: 1500000 5.3565 13.6472 8.3739 0.0000 -10687.0059 1419.5292 0.0000 0.0000 1726.3967 -7513.7023 293.3521 -9240.0991 -7507.7477 298.3533 -637.5333 -580.7567 31224.0239 -67.2657 -20.5519
TCL: Running FEP window  12: Lambda1 0.4499999999999996 Lambda2 0.39999999999999963 [dLambda -0.04999999999999999]
TCL: Setting parameter firsttimestep to 0
TCL: Setting parameter alchLambda to 0.4499999999999996
Info: NONBONDED TABLE R-SQUARED SPACING: 0.0625
Info: NONBONDED TABLE SIZE: 705 POINTS
TCL: Setting parameter alchLambda2 to 0.39999999999999963
Info: NONBONDED TABLE R-SQUARED SPACING: 0.0625
Info: NONBONDED TABLE SIZE: 705 POINTS
TCL: Running for 1500000 steps
ETITLE: TS BOND ANGLE DIHED IMPRP ELECT VDW BOUNDARY MISC KINETIC TOTAL TEMP POTENTIAL TOTALAVG TEMPAVG PRESSURE GPRESSURE VOLUME PRESSAVG GPRESSAVG
ENERGY: 0 5.3565 13.6472 8.3739 0.0000 -10687.0035 1419.6418 0.0000 0.0000 1725.5209 -7514.4631 293.2033 -9239.9840 -7514.4631 293.2033 -670.3835 -584.1890 31224.0239 -670.3835 -584.1890
ENERGY: 300000 0.8279 11.9694 8.1824 0.0000 -10688.4488 1426.1899 0.0000 0.0000 1807.9127 -7433.3665 307.2035 -9241.2792 -7485.7468 298.3677 -282.6197 -209.8754 30826.8990 -226.3213 -148.7868
ENERGY: 600000 0.1632 13.1733 8.1183 0.0000 -10664.8301 1421.1627 0.0000 0.0000 1802.0095 -7420.2030 306.2004 -9222.2125 -7487.6956 299.4335 -25.1656 36.2862 30441.8715 -216.8702 -149.7569
ENERGY: 900000 1.2573 13.8945 9.7768 0.0000 -10686.0574 1424.3673 0.0000 0.0000 1735.7588 -7501.0026 294.9430 -9236.7614 -7485.5618 298.0835 -433.9988 -320.1208 30810.1780 -229.3127 -154.1930
ENERGY: 1200000 0.4734 14.6463 8.8136 0.0000 -10729.3888 1462.9577 0.0000 0.0000 1819.4448 -7423.0531 309.1630 -9242.4978 -7481.8309 299.1776 99.5148 120.3221 30534.5440 -74.0436 -12.2613
ENERGY: 1500000 0.4702 15.5392 10.4446 0.0000 -10653.2439 1469.6375 0.0000 0.0000 1753.2462 -7403.9062 297.9144 -9157.1524 -7475.9754 299.5857 217.5648 232.6949 31199.7701 -17.6761 43.1771
TCL: Running FEP window  13: Lambda1 0.39999999999999963 Lambda2 0.34999999999999964 [dLambda -0.04999999999999999]
TCL: Setting parameter firsttimestep to 0
TCL: Setting parameter alchLambda to 0.39999999999999963
Info: NONBONDED TABLE R-SQUARED SPACING: 0.0625
Info: NONBONDED TABLE SIZE: 705 POINTS
TCL: Setting parameter alchLambda2 to 0.34999999999999964
Info: NONBONDED TABLE R-SQUARED SPACING: 0.0625
Info: NONBONDED TABLE SIZE: 705 POINTS
TCL: Running for 1500000 steps
ETITLE: TS BOND ANGLE DIHED IMPRP ELECT VDW BOUNDARY MISC KINETIC TOTAL TEMP POTENTIAL TOTALAVG TEMPAVG PRESSURE GPRESSURE VOLUME PRESSAVG GPRESSAVG
ENERGY: 0 0.4702 15.5392 10.4446 0.0000 -10653.2450 1469.9567 0.0000 0.0000 1752.4126 -7404.4217 297.7728 -9156.8343 -7404.4217 297.7728 152.0529 231.1749 31199.7701 152.0529 231.1749
ENERGY: 300000 3.3029 15.1248 8.6245 0.0000 -10687.1456 1480.9461 0.0000 0.0000 1753.2785 -7425.8687 297.9199 -9179.1472 -7455.5758 298.1838 247.1658 268.1334 30665.0908 22.5059 67.1322
ENERGY: 600000 1.8001 14.3127 6.8853 0.0000 -10761.8214 1476.1265 0.0000 0.0000 1810.2281 -7452.4686 307.5969 -9262.6968 -7448.6987 300.4392 284.4301 347.2354 30460.1759 218.8539 261.2526
ENERGY: 900000 2.9543 15.4182 7.1901 0.0000 -10750.0536 1516.6267 0.0000 0.0000 1855.6377 -7352.2267 315.3130 -9207.8644 -7439.9843 302.0643 757.9453 755.1987 30485.8445 365.9605 411.6980
ENERGY: 1200000 2.7160 16.3537 7.9189 0.0000 -10743.6583 1519.9720 0.0000 0.0000 1744.1949 -7452.5028 296.3764 -9196.6977 -7457.8091 300.6157 673.8496 719.8401 30690.9982 278.9372 331.3846
ENERGY: 1500000 0.9995 15.2616 8.0229 0.0000 -10724.5761 1445.3394 0.0000 0.0000 1776.5733 -7478.3795 301.8782 -9254.9527 -7457.0079 300.3094 224.5509 256.0587 30048.2784 207.2388 257.7343
TCL: Running FEP window  14: Lambda1 0.34999999999999964 Lambda2 0.29999999999999966 [dLambda -0.04999999999999999]
TCL: Setting parameter firsttimestep to 0
TCL: Setting parameter alchLambda to 0.34999999999999964
Info: NONBONDED TABLE R-SQUARED SPACING: 0.0625
Info: NONBONDED TABLE SIZE: 705 POINTS
TCL: Setting parameter alchLambda2 to 0.29999999999999966
Info: NONBONDED TABLE R-SQUARED SPACING: 0.0625
Info: NONBONDED TABLE SIZE: 705 POINTS
TCL: Running for 1500000 steps
ETITLE: TS BOND ANGLE DIHED IMPRP ELECT VDW BOUNDARY MISC KINETIC TOTAL TEMP POTENTIAL TOTALAVG TEMPAVG PRESSURE GPRESSURE VOLUME PRESSAVG GPRESSAVG
ENERGY: 0 0.9995 15.2616 8.0229 0.0000 -10724.5746 1445.6735 0.0000 0.0000 1775.6946 -7478.9225 301.7289 -9254.6172 -7478.9225 301.7289 172.5564 253.8724 30048.2784 172.5564 253.8724
ENERGY: 300000 1.1720 13.7630 7.6403 0.0000 -10772.9669 1435.5833 0.0000 0.0000 1785.2478 -7529.5606 303.3522 -9314.8083 -7504.5873 301.5991 -235.6054 -140.1895 30400.4236 175.7161 243.1601
ENERGY: 600000 2.0080 13.7810 7.8974 0.0000 -10716.0532 1505.5513 0.0000 0.0000 1779.9908 -7406.8247 302.4589 -9186.8155 -7481.2670 301.3316 668.2914 734.9118 30320.3016 84.1051 157.2864
ENERGY: 900000 1.2198 13.3727 7.5873 0.0000 -10810.8166 1510.6489 0.0000 0.0000 1776.3110 -7501.6769 301.8336 -9277.9879 -7472.0895 301.2992 511.7450 533.2715 30362.2743 107.8552 180.6528
ENERGY: 1200000 3.8470 16.6482 6.1864 0.0000 -10832.2220 1492.5069 0.0000 0.0000 1773.2388 -7539.7947 301.3116 -9313.0335 -7480.2078 300.9163 596.1226 641.9927 29776.6083 194.3972 266.7651
ENERGY: 1500000 0.8925 15.4995 7.5129 0.0000 -10779.9571 1507.2534 0.0000 0.0000 1793.7305 -7455.0684 304.7936 -9248.7989 -7481.7637 300.8255 351.5089 447.8854 30473.2003 73.8460 147.1661
TCL: Running FEP window  15: Lambda1 0.29999999999999966 Lambda2 0.24999999999999967 [dLambda -0.04999999999999999]
TCL: Setting parameter firsttimestep to 0
TCL: Setting parameter alchLambda to 0.29999999999999966
Info: NONBONDED TABLE R-SQUARED SPACING: 0.0625
Info: NONBONDED TABLE SIZE: 705 POINTS
TCL: Setting parameter alchLambda2 to 0.24999999999999967
Info: NONBONDED TABLE R-SQUARED SPACING: 0.0625
Info: NONBONDED TABLE SIZE: 705 POINTS
TCL: Running for 1500000 steps
ETITLE: TS BOND ANGLE DIHED IMPRP ELECT VDW BOUNDARY MISC KINETIC TOTAL TEMP POTENTIAL TOTALAVG TEMPAVG PRESSURE GPRESSURE VOLUME PRESSAVG GPRESSAVG
ENERGY: 0 0.8925 15.4995 7.5129 0.0000 -10779.9557 1507.5868 0.0000 0.0000 1792.8900 -7455.5741 304.6508 -9248.4641 -7455.5741 304.6508 361.6405 445.5714 30473.2003 361.6405 445.5714
ENERGY: 300000 1.3976 14.3905 7.8024 0.0000 -10531.6957 1339.5601 0.0000 0.0000 1722.2460 -7446.2992 292.6468 -9168.5451 -7484.7186 297.2384 -698.9550 -608.4426 30537.3068 5.6449 80.8305
ENERGY: 600000 1.9106 16.6319 8.5287 0.0000 -10592.3026 1405.3985 0.0000 0.0000 1742.7994 -7417.0334 296.1393 -9159.8328 -7489.5044 295.7875 -80.9475 -28.5597 30530.9255 -119.8564 -59.9620
ENERGY: 900000 1.1041 16.4140 6.9487 0.0000 -10769.2758 1471.3628 0.0000 0.0000 1733.5897 -7539.8565 294.5744 -9273.4462 -7503.1005 296.5795 354.4387 398.2351 29906.7664 25.9747 75.3995
ENERGY: 1200000 1.3293 16.9226 8.7977 0.0000 -10864.9264 1546.9511 0.0000 0.0000 1713.7345 -7577.1911 291.2006 -9290.9256 -7507.7913 296.7204 779.8283 809.5718 29988.3094 156.9329 202.5292
ENERGY: 1500000 1.2755 16.3524 8.3743 0.0000 -10704.1143 1461.6219 0.0000 0.0000 1746.9206 -7469.5696 296.8396 -9216.4902 -7505.2813 296.7227 125.4148 152.1178 30283.9329 167.2865 209.7019
TCL: Running FEP window  16: Lambda1 0.24999999999999967 Lambda2 0.19999999999999968 [dLambda -0.04999999999999999]
TCL: Setting parameter firsttimestep to 0
TCL: Setting parameter alchLambda to 0.24999999999999967
Info: NONBONDED TABLE R-SQUARED SPACING: 0.0625
Info: NONBONDED TABLE SIZE: 705 POINTS
TCL: Setting parameter alchLambda2 to 0.19999999999999968
Info: NONBONDED TABLE R-SQUARED SPACING: 0.0625
Info: NONBONDED TABLE SIZE: 705 POINTS
TCL: Running for 1500000 steps
ETITLE: TS BOND ANGLE DIHED IMPRP ELECT VDW BOUNDARY MISC KINETIC TOTAL TEMP POTENTIAL TOTALAVG TEMPAVG PRESSURE GPRESSURE VOLUME PRESSAVG GPRESSAVG
ENERGY: 0 1.2755 16.3524 8.3743 0.0000 -10704.1126 1461.8267 0.0000 0.0000 1746.0553 -7470.2284 296.6926 -9216.2837 -7470.2284 296.6926 69.8563 150.9198 30283.9329 69.8563 150.9198
ENERGY: 300000 2.7104 13.2639 7.9694 0.0000 -10849.6200 1512.0793 0.0000 0.0000 1774.5299 -7539.0670 301.5310 -9313.5969 -7507.0603 302.5593 296.6154 363.7664 30143.1758 145.4326 201.9052
ENERGY: 600000 0.8655 15.5432 9.9187 0.0000 -10649.6878 1368.2416 0.0000 0.0000 1772.6430 -7482.4758 301.2104 -9255.1188 -7480.3899 304.5389 -420.8620 -372.0875 30234.8872 85.7917 164.3177
ENERGY: 900000 1.8150 13.2114 11.4877 0.0000 -10560.6968 1392.3849 0.0000 0.0000 1748.4056 -7393.3923 297.0919 -9141.7978 -7476.0036 302.3400 -331.8318 -264.2099 30806.0538 -85.9340 -19.6555
ENERGY: 1200000 0.4956 12.3237 8.9762 0.0000 -10644.1909 1391.1091 0.0000 0.0000 1737.1544 -7494.1319 295.1801 -9231.2863 -7471.5321 301.9582 -578.4995 -457.8798 30668.8476 -68.9304 -5.0448
ENERGY: 1500000 1.2184 13.9365 8.6825 0.0000 -10591.5749 1383.2272 0.0000 0.0000 1829.7485 -7354.7618 310.9138 -9184.5103 -7463.4385 302.5544 -126.6748 -80.9797 30468.3357 -79.4666 -17.0059
TCL: Running FEP window  17: Lambda1 0.19999999999999968 Lambda2 0.1499999999999997 [dLambda -0.04999999999999999]
TCL: Setting parameter firsttimestep to 0
TCL: Setting parameter alchLambda to 0.19999999999999968
Info: NONBONDED TABLE R-SQUARED SPACING: 0.0625
Info: NONBONDED TABLE SIZE: 705 POINTS
TCL: Setting parameter alchLambda2 to 0.1499999999999997
Info: NONBONDED TABLE R-SQUARED SPACING: 0.0625
Info: NONBONDED TABLE SIZE: 705 POINTS
TCL: Running for 1500000 steps
ETITLE: TS BOND ANGLE DIHED IMPRP ELECT VDW BOUNDARY MISC KINETIC TOTAL TEMP POTENTIAL TOTALAVG TEMPAVG PRESSURE GPRESSURE VOLUME PRESSAVG GPRESSAVG
ENERGY: 0 1.2184 13.9365 8.6825 0.0000 -10591.5731 1383.3429 0.0000 0.0000 1828.8719 -7355.5209 310.7649 -9184.3929 -7355.5209 310.7649 -166.8043 -82.4841 30468.3357 -166.8043 -82.4841
ENERGY: 300000 2.1878 16.2931 9.4317 0.0000 -10698.0155 1417.6363 0.0000 0.0000 1756.4679 -7495.9987 298.4619 -9252.4666 -7466.6602 301.6022 -269.7376 -261.4014 30736.7714 -166.3633 -131.6551
ENERGY: 600000 3.3877 12.9658 8.3166 0.0000 -10805.1886 1521.3474 0.0000 0.0000 1731.6246 -7527.5465 294.2405 -9259.1711 -7487.3185 300.2925 582.5131 700.8689 29879.5594 39.6925 83.6482
ENERGY: 900000 0.5318 13.9667 8.8201 0.0000 -10785.7318 1469.9497 0.0000 0.0000 1747.8768 -7544.5867 297.0021 -9292.4635 -7489.7317 300.0391 94.4864 162.4278 30512.2151 -77.3899 -34.5403
ENERGY: 1200000 1.8431 15.9913 8.1151 0.0000 -10784.7665 1491.5069 0.0000 0.0000 1733.1571 -7534.1529 294.5009 -9267.3101 -7484.3317 300.1618 301.8463 274.2180 30292.8242 -21.1370 27.7061
ENERGY: 1500000 3.4135 13.8478 10.0871 0.0000 -10751.4339 1439.1097 0.0000 0.0000 1731.0651 -7553.9108 294.1454 -9284.9759 -7491.8112 299.4946 81.7648 142.3401 30008.4147 22.6438 71.9996
TCL: Running FEP window  18: Lambda1 0.1499999999999997 Lambda2 0.09999999999999969 [dLambda -0.05 ]
TCL: Setting parameter firsttimestep to 0
TCL: Setting parameter alchLambda to 0.1499999999999997
Info: NONBONDED TABLE R-SQUARED SPACING: 0.0625
Info: NONBONDED TABLE SIZE: 705 POINTS
TCL: Setting parameter alchLambda2 to 0.09999999999999969
Info: NONBONDED TABLE R-SQUARED SPACING: 0.0625
Info: NONBONDED TABLE SIZE: 705 POINTS
TCL: Running for 1500000 steps
ETITLE: TS BOND ANGLE DIHED IMPRP ELECT VDW BOUNDARY MISC KINETIC TOTAL TEMP POTENTIAL TOTALAVG TEMPAVG PRESSURE GPRESSURE VOLUME PRESSAVG GPRESSAVG
ENERGY: 0 3.4135 13.8478 10.0871 0.0000 -10751.4337 1439.2786 0.0000 0.0000 1730.2072 -7554.5996 293.9996 -9284.8068 -7554.5996 293.9996 53.4608 140.6152 30008.4147 53.4608 140.6152
ENERGY: 300000 0.6196 14.4214 7.7230 0.0000 -10644.5817 1428.9435 0.0000 0.0000 1741.2372 -7451.6371 295.8739 -9192.8743 -7546.0227 296.3051 -129.8074 -37.0992 30804.1165 -65.9374 7.5815
ENERGY: 600000 1.7191 14.5242 8.1880 0.0000 -10741.5230 1493.2839 0.0000 0.0000 1776.0141 -7447.7936 301.7832 -9223.8077 -7510.9912 299.2403 478.9401 461.6507 30550.4693 68.2202 130.1277
ENERGY: 900000 4.1598 17.3876 5.6992 0.0000 -10762.6904 1450.7231 0.0000 0.0000 1791.3223 -7493.3983 304.3844 -9284.7206 -7516.7058 299.9824 124.4227 223.2041 30040.3261 214.7093 281.0323
ENERGY: 1200000 2.3945 12.4066 8.9479 0.0000 -10702.6624 1436.7855 0.0000 0.0000 1719.2616 -7522.8663 292.1397 -9242.1279 -7514.2548 299.6385 -290.9750 -169.9212 30693.0427 194.3199 267.5680
ENERGY: 1500000 1.6091 14.5156 10.3177 0.0000 -10690.2371 1398.8957 0.0000 0.0000 1794.6329 -7470.2661 304.9469 -9264.8989 -7515.8501 299.0123 -386.6802 -323.2402 30325.2094 134.7571 200.4350
TCL: Running FEP window  19: Lambda1 0.09999999999999969 Lambda2 0.049999999999999684 [dLambda -0.05 ]
TCL: Setting parameter firsttimestep to 0
TCL: Setting parameter alchLambda to 0.09999999999999969
Info: NONBONDED TABLE R-SQUARED SPACING: 0.0625
Info: NONBONDED TABLE SIZE: 705 POINTS
TCL: Setting parameter alchLambda2 to 0.049999999999999684
Info: NONBONDED TABLE R-SQUARED SPACING: 0.0625
Info: NONBONDED TABLE SIZE: 705 POINTS
TCL: Running for 1500000 steps
ETITLE: TS BOND ANGLE DIHED IMPRP ELECT VDW BOUNDARY MISC KINETIC TOTAL TEMP POTENTIAL TOTALAVG TEMPAVG PRESSURE GPRESSURE VOLUME PRESSAVG GPRESSAVG
ENERGY: 0 1.6091 14.5156 10.3177 0.0000 -10690.2376 1399.3071 0.0000 0.0000 1793.7476 -7470.7404 304.7965 -9264.4880 -7470.7404 304.7965 -417.3372 -323.9821 30325.2094 -417.3372 -323.9821
ENERGY: 300000 1.4469 14.7949 7.6457 0.0000 -10770.9191 1500.9871 0.0000 0.0000 1745.8243 -7500.2201 296.6533 -9246.0444 -7472.2720 300.7942 709.1262 771.2756 30181.7239 32.4950 102.0606
ENERGY: 600000 2.9181 15.0535 7.8288 0.0000 -10757.1163 1462.9224 0.0000 0.0000 1732.5447 -7535.8488 294.3968 -9268.3934 -7482.8270 300.0011 317.9074 364.3385 29874.3211 -66.3007 4.3600
ENERGY: 900000 3.4469 17.0738 7.7665 0.0000 -10852.6101 1538.1466 0.0000 0.0000 1776.0837 -7510.0926 301.7950 -9286.1763 -7485.9836 299.4622 772.8451 851.8207 29868.9354 60.0820 137.6568
ENERGY: 1200000 0.9296 18.1698 7.1371 0.0000 -10767.9382 1443.8510 0.0000 0.0000 1808.7507 -7489.1001 307.3459 -9297.8507 -7496.8531 299.4926 -25.6032 7.1291 30158.4377 -44.3945 23.9217
ENERGY: 1500000 1.7375 16.5012 8.2493 0.0000 -10574.4187 1358.6511 0.0000 0.0000 1729.1059 -7460.1736 293.8125 -9189.2795 -7488.5082 299.1728 -653.0363 -556.4616 30391.9439 -113.8992 -44.9281
TCL: Running FEP window  20: Lambda1 0.049999999999999684 Lambda2 0.0    [dLambda -0.049999999999999684]
TCL: Setting parameter firsttimestep to 0
TCL: Setting parameter alchLambda to 0.049999999999999684
Info: NONBONDED TABLE R-SQUARED SPACING: 0.0625
Info: NONBONDED TABLE SIZE: 705 POINTS
TCL: Setting parameter alchLambda2 to 0.0
Info: NONBONDED TABLE R-SQUARED SPACING: 0.0625
Info: NONBONDED TABLE SIZE: 705 POINTS
TCL: Running for 1500000 steps
ETITLE: TS BOND ANGLE DIHED IMPRP ELECT VDW BOUNDARY MISC KINETIC TOTAL TEMP POTENTIAL TOTALAVG TEMPAVG PRESSURE GPRESSURE VOLUME PRESSAVG GPRESSAVG
ENERGY: 0 1.7375 16.5012 8.2493 0.0000 -10574.4196 1358.6443 0.0000 0.0000 1728.2259 -7461.0613 293.6630 -9189.2872 -7461.0613 293.6630 -653.1366 -558.0293 30391.9439 -653.1366 -558.0293
ENERGY: 300000 5.1945 14.9939 8.7515 0.0000 -10781.3110 1471.5449 0.0000 0.0000 1727.7370 -7553.0891 293.5799 -9280.8261 -7518.5100 294.8190 -121.8970 -56.6673 30375.5956 -146.5494 -85.0012
ENERGY: 600000 0.5221 18.1350 7.8272 0.0000 -10848.9613 1519.9181 0.0000 0.0000 1794.6704 -7507.8885 304.9533 -9302.5589 -7501.1221 298.8612 503.5864 500.2664 30100.1052 -152.1672 -99.4179
ENERGY: 900000 1.0742 16.5471 8.8768 0.0000 -10669.0126 1462.5133 0.0000 0.0000 1732.4094 -7447.5917 294.3738 -9180.0011 -7500.3913 299.5328 219.8732 301.5552 30327.6159 83.0575 135.6626
ENERGY: 1200000 0.3404 19.2648 8.8398 0.0000 -10755.2779 1484.9275 0.0000 0.0000 1702.0013 -7539.9042 289.2068 -9241.9054 -7500.5244 299.2389 268.6233 363.5066 30176.3449 81.3037 132.6365
ENERGY: 1500000 0.4881 13.4757 7.9745 0.0000 -10718.8338 1479.4452 0.0000 0.0000 1795.4456 -7422.0047 305.0850 -9217.4503 -7491.7771 300.0304 447.2311 480.4770 30482.4004 49.4124 105.5741
TCL: Exiting due to exit command.
