Info: SIMULATION PARAMETERS:
Info: TIMESTEP               2
Info: NUMBER OF STEPS        0
Info: STEPS PER CYCLE        10
Info: PERIODIC CELL BASIS 1  30.9382 0 0
Info: PERIODIC CELL BASIS 2  0 31.314 0
Info: PERIODIC CELL BASIS 3  0 0 32.0108
Info: PERIODIC CELL CENTER   0 0 0
Info: WRAPPING WATERS AROUND PERIODIC BOUNDARIES ON OUTPUT.
Info: WRAPPING ALL CLUSTERS AROUND PERIODIC BOUNDARIES ON OUTPUT.
Info: FIRST LDB TIMESTEP     50
Info: LAST LDB TIMESTEP     -1
Info: HOM BACKGROUND SCALING 1
Info: PME BACKGROUND SCALING 1
Info: MIN ATOMS PER PATCH    40
Info: EMPTY PATCH LOAD       40 ATOMS
Info: VELOCITY FILE          mobley_5157661_equil.vel
Info: CENTER OF MASS MOVING INITIALLY? NO
Info: DIELECTRIC             1
Info: EXCLUDE                SCALED ONE-FOUR
Info: 1-4 ELECTROSTATICS SCALED BY 0.833333
Info: MODIFIED 1-4 VDW PARAMETERS WILL BE USED
Info: DCD FILENAME           mobley_5157661_prod.dcd
Info: DCD FREQUENCY          100000
Info: DCD FIRST STEP         100000
Info: DCD FILE WILL CONTAIN UNIT CELL DATA
Info: XST FILENAME           mobley_5157661_prod.xst
Info: XST FREQUENCY          100000
Info: NO VELOCITY DCD OUTPUT
Info: NO FORCE DCD OUTPUT
Info: OUTPUT FILENAME        mobley_5157661_prod
Info: BINARY OUTPUT FILES WILL BE USED
Info: RESTART FILENAME       mobley_5157661_prod.restart
Info: RESTART FREQUENCY      100000
Info: BINARY RESTART FILES WILL BE USED
Info: CUTOFF                 9
Info: PAIRLIST DISTANCE      11
Info: PAIRLIST SHRINK RATE   0.01
Info: PAIRLIST GROW RATE     0.01
Info: PAIRLIST TRIGGER       0.3
Info: PAIRLISTS PER CYCLE    2
Info: PAIRLISTS ENABLED
Info: MARGIN                 2
Info: HYDROGEN GROUP CUTOFF  2.5
Info: PATCH DIMENSION        15.5
Info: ENERGY OUTPUT STEPS    100000
Info: ENERGY EVALUATION STEPS    100000
Info: OUTPUT ENERGY PRECISION 4
Info: CROSSTERM ENERGY INCLUDED IN DIHEDRAL
Info: TIMING OUTPUT STEPS    1000000
Info: PRESSURE OUTPUT STEPS  100000
Info: ALCHEMICAL FEP ON
Info: FEP CURRENT LAMBDA VALUE     0
Info: FEP COMPARISON LAMBDA VALUE  0.05
Info: FEP INTRA-ALCHEMICAL NON-BONDED INTERACTIONS WILL BE RETAINED
Info: FEP INTRA-ALCHEMICAL BONDED INTERACTIONS WILL BE RETAINED
Info: FEP VDW SHIFTING COEFFICIENT 5
Info: FEP ELEC. ACTIVE FOR ANNIHILATED PARTICLES BETWEEN LAMBDA = 0 AND LAMBDA = 0.5
Info: FEP ELEC. ACTIVE FOR EXNIHILATED PARTICLES BETWEEN LAMBDA = 0.5 AND LAMBDA = 1
Info: FEP VDW ACTIVE FOR ANNIHILATED PARTICLES BETWEEN LAMBDA = 0 AND LAMBDA = 1
Info: FEP VDW ACTIVE FOR EXNIHILATED PARTICLES BETWEEN LAMBDA = 0 AND LAMBDA = 1
Info: FEP BOND ACTIVE FOR ANNIHILATED PARTICLES BETWEEN LAMBDA = 1 AND LAMBDA = 1
Info: FEP BOND ACTIVE FOR EXNIHILATED PARTICLES BETWEEN LAMBDA = 0 AND LAMBDA = 0
Info: LANGEVIN DYNAMICS ACTIVE
Info: LANGEVIN TEMPERATURE   300
Info: LANGEVIN USING BBK INTEGRATOR
Info: LANGEVIN DAMPING COEFFICIENT IS 1 INVERSE PS
Info: LANGEVIN DYNAMICS APPLIED TO HYDROGENS
Info: LANGEVIN PISTON PRESSURE CONTROL ACTIVE
Info:        TARGET PRESSURE IS 1.01325 BAR
Info:     OSCILLATION PERIOD IS 50 FS
Info:             DECAY TIME IS 25 FS
Info:     PISTON TEMPERATURE IS 300 K
Info:       PRESSURE CONTROL IS GROUP-BASED
Info:    INITIAL STRAIN RATE IS 9.30203e-06 9.30203e-06 9.30203e-06
Info:       CELL FLUCTUATION IS ISOTROPIC
Info: PARTICLE MESH EWALD (PME) ACTIVE
Info: PME TOLERANCE               1e-06
Info: PME EWALD COEFFICIENT       0.348832
Info: PME INTERPOLATION ORDER     4
Info: PME GRID DIMENSIONS         32 32 36
Info: PME MAXIMUM GRID SPACING    1
Info: PME CALCULATION WILL BE PERFORMED ON GPU
Info: FULL ELECTROSTATIC EVALUATION FREQUENCY      2
Info: USING VERLET I (r-RESPA) MTS SCHEME.
Info: C1 SPLITTING OF LONG RANGE ELECTROSTATICS
Info: PLACING ATOMS IN PATCHES BY HYDROGEN GROUPS
Info: RIGID BONDS TO HYDROGEN : ALL
Info:         ERROR TOLERANCE : 1e-08
Info:          MAX ITERATIONS : 100
Info: RIGID WATER USING SETTLE ALGORITHM
Info: RANDOM NUMBER SEED     1743562728
Info: USE HYDROGEN BONDS?    NO
Info: Using AMBER format force field!
Info: AMBER PARM FILE        mobley_5157661.prmtop
Info: COORDINATE PDB         mobley_5157661.pdb
Info: Exclusions will be read from PARM file!
Info: SCNB (VDW SCALING)     2
Info: USING ARITHMETIC MEAN TO COMBINE L-J SIGMA PARAMETERS
Info: BINARY COORDINATES     mobley_5157661_equil.coor
Info: SUMMARY OF PARAMETERS:
Info: 4 BONDS
Info: 3 ANGLES
Info:   3 HARMONIC
Info:   0 COSINE-BASED
Info: 2 DIHEDRAL
Info: 0 IMPROPER
Info: 0 CROSSTERM
Info: 0 VDW
Info: 10 VDW_PAIRS
Info: 0 NBTHOLE_PAIRS
Info: To read alchdata from file: mobley_5157661.pdb
Info: To read alchflag data from column: 5
Info: STRUCTURE SUMMARY:
Info: 2987 ATOMS
Info: 2986 BONDS
Info: 24 ANGLES
Info: 27 DIHEDRALS
Info: 0 IMPROPERS
Info: 0 CROSSTERMS
Info: 3037 EXCLUSIONS
Info: 2983 RIGID BONDS
Info: ALCH: 0 ATOMS TO DISAPPEAR IN FINAL STATE
Info: ALCH: 14 ATOMS TO APPEAR IN FINAL STATE
Info: 5978 DEGREES OF FREEDOM
Info: 995 HYDROGEN GROUPS
Info: 4 ATOMS IN LARGEST HYDROGEN GROUP
Info: 995 MIGRATION GROUPS
Info: 4 ATOMS IN LARGEST MIGRATION GROUP
Info: TOTAL MASS = 17912 amu
Info: TOTAL CHARGE = 0.000200011 e
Info: MASS DENSITY = 0.959121 g/cm^3
Info: ATOM DENSITY = 0.0963176 atoms/A^3
Info: ADDED 0 IMPLICIT EXCLUSIONS
Info: NONBONDED TABLE R-SQUARED SPACING: 0.0625
Info: NONBONDED TABLE SIZE: 705 POINTS
Info: REMOVING COM VELOCITY 0.0133683 0.000721135 -0.154001
Info: Use 3D box decompostion in PME FFT.
Info: Updated CUDA force table with 4096 elements.
Info: Updated CUDA LJ table with 4 x 4 elements.
Info: Found 17 unique exclusion lists needing 36 bytes
TCL: Running for 1500000 steps
ETITLE: TS BOND ANGLE DIHED IMPRP ELECT VDW BOUNDARY MISC KINETIC TOTAL TEMP POTENTIAL TOTALAVG TEMPAVG PRESSURE GPRESSURE VOLUME PRESSAVG GPRESSAVG
ENERGY: 0 1.9250 6.3810 0.6474 0.0000 -10760.7059 1396.3072 0.0000 0.0000 1835.5009 -7519.9444 309.0218 -9355.4453 -7519.9444 309.0218 -576.8922 -496.8496 31011.9707 -576.8922 -496.8496
ENERGY: 300000 2.2799 6.3013 0.2561 0.0000 -10864.5060 1481.0073 0.0000 0.0000 1797.5978 -7577.0636 302.6405 -9374.6614 -7567.8880 302.0899 -79.0012 -44.9472 30802.1046 113.3816 169.4728
ENERGY: 600000 1.6678 6.6538 2.4782 0.0000 -10650.4626 1370.8998 0.0000 0.0000 1763.5169 -7505.2461 296.9027 -9268.7630 -7559.6709 302.3171 -595.1262 -529.1898 30848.0415 -221.1130 -180.2940
ENERGY: 900000 2.1356 5.8597 0.9122 0.0000 -10761.1106 1401.5209 0.0000 0.0000 1738.1340 -7612.5482 292.6293 -9350.6823 -7566.1554 299.4255 -403.0811 -375.0658 30474.8043 -146.4678 -102.3408
ENERGY: 1200000 0.5527 5.4798 0.1006 0.0000 -10737.1815 1388.6401 0.0000 0.0000 1788.0776 -7554.3308 301.0377 -9342.4084 -7568.1224 299.7984 -627.0498 -611.6177 30956.1571 -76.7230 -34.2163
ENERGY: 1500000 2.7328 12.4345 1.0729 0.0000 -10879.3191 1452.2872 0.0000 0.0000 1741.7910 -7669.0007 293.2449 -9410.7917 -7582.0280 299.0420 -402.6095 -359.2387 30598.5642 -149.8717 -108.5323
TCL: Running FEP window   2: Lambda1 0.05   Lambda2 0.1    [dLambda 0.05  ]
TCL: Setting parameter firsttimestep to 0
TCL: Setting parameter alchLambda to 0.05
Info: NONBONDED TABLE R-SQUARED SPACING: 0.0625
Info: NONBONDED TABLE SIZE: 705 POINTS
TCL: Setting parameter alchLambda2 to 0.1
Info: NONBONDED TABLE R-SQUARED SPACING: 0.0625
Info: NONBONDED TABLE SIZE: 705 POINTS
TCL: Running for 1500000 steps
ETITLE: TS BOND ANGLE DIHED IMPRP ELECT VDW BOUNDARY MISC KINETIC TOTAL TEMP POTENTIAL TOTALAVG TEMPAVG PRESSURE GPRESSURE VOLUME PRESSAVG GPRESSAVG
ENERGY: 0 2.7328 12.4345 1.0729 0.0000 -10879.3206 1453.5214 0.0000 0.0000 1740.9271 -7668.6318 293.0995 -9409.5590 -7668.6318 293.0995 -438.4797 -351.4196 30598.5642 -438.4797 -351.4196
ENERGY: 300000 3.5660 6.6072 1.7970 0.0000 -10776.2273 1472.8889 0.0000 0.0000 1781.8536 -7509.5145 299.9898 -9291.3681 -7576.8003 295.7362 52.7897 130.9851 30749.9193 -250.2576 -189.1317
ENERGY: 600000 3.0131 5.0953 0.3444 0.0000 -10740.4307 1387.8458 0.0000 0.0000 1774.0905 -7570.0415 298.6828 -9344.1320 -7578.4843 297.1394 -454.8728 -389.1491 30277.6748 -184.3007 -114.9658
ENERGY: 900000 2.8473 5.6614 0.5468 0.0000 -10832.3751 1454.3255 0.0000 0.0000 1812.4489 -7556.5453 305.1408 -9368.9941 -7578.7813 298.4959 14.3102 63.3791 30774.5897 -45.4363 17.1694
ENERGY: 1200000 0.6760 8.4110 0.8128 0.0000 -10730.6438 1352.7124 0.0000 0.0000 1756.1101 -7611.9215 295.6557 -9368.0316 -7575.6986 298.1551 -794.8303 -724.1774 30527.0092 -218.4867 -149.2994
ENERGY: 1500000 1.2269 4.0085 1.0380 0.0000 -10667.1306 1371.6080 0.0000 0.0000 1730.8930 -7558.3561 291.4102 -9289.2491 -7570.0187 298.6693 -442.7151 -372.2906 30488.7499 -165.4139 -103.2692
TCL: Running FEP window   3: Lambda1 0.1    Lambda2 0.15000000000000002 [dLambda 0.05000000000000002]
TCL: Setting parameter firsttimestep to 0
TCL: Setting parameter alchLambda to 0.1
Info: NONBONDED TABLE R-SQUARED SPACING: 0.0625
Info: NONBONDED TABLE SIZE: 705 POINTS
TCL: Setting parameter alchLambda2 to 0.15000000000000002
Info: NONBONDED TABLE R-SQUARED SPACING: 0.0625
Info: NONBONDED TABLE SIZE: 705 POINTS
TCL: Running for 1500000 steps
ETITLE: TS BOND ANGLE DIHED IMPRP ELECT VDW BOUNDARY MISC KINETIC TOTAL TEMP POTENTIAL TOTALAVG TEMPAVG PRESSURE GPRESSURE VOLUME PRESSAVG GPRESSAVG
ENERGY: 0 1.2269 4.0085 1.0380 0.0000 -10667.1297 1372.8505 0.0000 0.0000 1730.0114 -7557.9942 291.2617 -9288.0057 -7557.9942 291.2617 -451.2017 -365.0619 30488.7499 -451.2017 -365.0619
ENERGY: 300000 1.9760 6.5655 1.2513 0.0000 -10922.9246 1469.8372 0.0000 0.0000 1734.5346 -7708.7601 292.0233 -9443.2946 -7616.9297 295.3525 -67.7208 29.6398 30170.1832 -152.3168 -74.8973
ENERGY: 600000 0.3708 3.7537 0.2388 0.0000 -10881.8571 1409.0040 0.0000 0.0000 1739.9476 -7728.5422 292.9346 -9468.4898 -7619.9870 296.3691 -400.5312 -323.7736 29828.1167 -290.1278 -211.5601
ENERGY: 900000 1.6691 6.5080 3.3082 0.0000 -10708.8585 1338.3257 0.0000 0.0000 1791.2084 -7567.8392 301.5648 -9359.0476 -7598.8351 297.4677 -922.8854 -852.2007 30520.4080 -322.9175 -250.0300
ENERGY: 1200000 0.3743 3.9182 0.9216 0.0000 -11001.0805 1503.4556 0.0000 0.0000 1738.2122 -7754.1986 292.6424 -9492.4108 -7608.1338 297.3663 -17.0502 51.0095 30282.2908 -240.3487 -168.4038
ENERGY: 1500000 0.0103 4.4960 0.8023 0.0000 -10672.1539 1406.4060 0.0000 0.0000 1759.2968 -7501.1426 296.1922 -9260.4394 -7602.8604 297.1272 -350.2389 -271.6141 31136.8924 -207.3351 -135.0763
TCL: Running FEP window   4: Lambda1 0.15000000000000002 Lambda2 0.2    [dLambda 0.04999999999999999]
TCL: Setting parameter firsttimestep to 0
TCL: Setting parameter alchLambda to 0.15000000000000002
Info: NONBONDED TABLE R-SQUARED SPACING: 0.0625
Info: NONBONDED TABLE SIZE: 705 POINTS
TCL: Setting parameter alchLambda2 to 0.2
Info: NONBONDED TABLE R-SQUARED SPACING: 0.0625
Info: NONBONDED TABLE SIZE: 705 POINTS
TCL: Running for 1500000 steps
ETITLE: TS BOND ANGLE DIHED IMPRP ELECT VDW BOUNDARY MISC KINETIC TOTAL TEMP POTENTIAL TOTALAVG TEMPAVG PRESSURE GPRESSURE VOLUME PRESSAVG GPRESSAVG
ENERGY: 0 0.0103 4.4960 0.8023 0.0000 -10672.1548 1407.8295 0.0000 0.0000 1758.3939 -7500.6229 296.0402 -9259.0168 -7500.6229 296.0402 -350.1790 -265.9421 31136.8924 -350.1790 -265.9421
ENERGY: 300000 0.9302 5.3386 0.8171 0.0000 -10740.8922 1414.9640 0.0000 0.0000 1773.9121 -7544.9302 298.6528 -9318.8423 -7531.6320 301.2235 -257.5758 -184.8792 30597.8712 23.3527 113.8170
ENERGY: 600000 1.1997 3.9560 0.8493 0.0000 -10786.9509 1488.9400 0.0000 0.0000 1781.5819 -7510.4240 299.9441 -9292.0059 -7545.7947 300.6073 198.4565 281.8634 30956.7061 88.6895 171.7784
ENERGY: 900000 1.6425 7.3705 0.9274 0.0000 -10762.3700 1393.2139 0.0000 0.0000 1744.9909 -7614.2247 293.7837 -9359.2156 -7556.4676 299.2535 -592.7020 -531.2432 30754.7333 -108.5376 -22.1035
ENERGY: 1200000 0.9314 8.9492 0.9671 0.0000 -10756.7446 1390.4513 0.0000 0.0000 1764.4791 -7590.9664 297.0647 -9355.4455 -7559.1025 299.0565 -754.4000 -632.4669 30619.6503 -90.6024 -4.3450
ENERGY: 1500000 1.0110 7.0149 0.8399 0.0000 -10844.9527 1471.0489 0.0000 0.0000 1813.6775 -7551.3606 305.3476 -9365.0381 -7567.7753 299.5815 262.2379 293.4964 30235.8541 -121.4681 -47.9655
TCL: Running FEP window   5: Lambda1 0.2    Lambda2 0.25   [dLambda 0.04999999999999999]
TCL: Setting parameter firsttimestep to 0
TCL: Setting parameter alchLambda to 0.2
Info: NONBONDED TABLE R-SQUARED SPACING: 0.0625
Info: NONBONDED TABLE SIZE: 705 POINTS
TCL: Setting parameter alchLambda2 to 0.25
Info: NONBONDED TABLE R-SQUARED SPACING: 0.0625
Info: NONBONDED TABLE SIZE: 705 POINTS
TCL: Running for 1500000 steps
ETITLE: TS BOND ANGLE DIHED IMPRP ELECT VDW BOUNDARY MISC KINETIC TOTAL TEMP POTENTIAL TOTALAVG TEMPAVG PRESSURE GPRESSURE VOLUME PRESSAVG GPRESSAVG
ENERGY: 0 1.0110 7.0149 0.8399 0.0000 -10844.9525 1471.0645 0.0000 0.0000 1812.8027 -7552.2195 305.2003 -9365.0222 -7552.2195 305.2003 208.8422 295.2245 30235.8541 208.8422 295.2245
ENERGY: 300000 0.2925 4.8000 1.3024 0.0000 -10801.0205 1431.6851 0.0000 0.0000 1791.5604 -7571.3802 301.6240 -9362.9406 -7593.9332 301.8063 -143.2975 -114.3628 30719.3604 -191.1781 -137.7006
ENERGY: 600000 0.5190 5.1383 0.7722 0.0000 -11000.4651 1609.4003 0.0000 0.0000 1703.3510 -7681.2844 286.7732 -9384.6353 -7609.5143 300.0599 993.1373 1041.5336 30671.4444 61.1881 110.2996
ENERGY: 900000 1.0374 4.1795 0.1680 0.0000 -10826.1541 1503.0531 0.0000 0.0000 1802.9784 -7514.7376 303.5463 -9317.7160 -7588.6945 301.1461 254.2466 319.4489 31004.2206 162.6586 211.1722
ENERGY: 1200000 0.2824 5.2041 0.7945 0.0000 -10887.6643 1494.2656 0.0000 0.0000 1801.4247 -7585.6931 303.2848 -9387.1178 -7584.3365 301.4739 80.6258 127.5782 30594.4544 137.7910 182.8347
ENERGY: 1500000 2.3797 6.6118 0.5811 0.0000 -10852.4507 1445.1846 0.0000 0.0000 1820.4214 -7577.2721 306.4830 -9397.6935 -7578.3797 302.0067 -173.4845 -110.9776 30567.9712 91.6327 145.8832
TCL: Running FEP window   6: Lambda1 0.25   Lambda2 0.3    [dLambda 0.04999999999999999]
TCL: Setting parameter firsttimestep to 0
TCL: Setting parameter alchLambda to 0.25
Info: NONBONDED TABLE R-SQUARED SPACING: 0.0625
Info: NONBONDED TABLE SIZE: 705 POINTS
TCL: Setting parameter alchLambda2 to 0.3
Info: NONBONDED TABLE R-SQUARED SPACING: 0.0625
Info: NONBONDED TABLE SIZE: 705 POINTS
TCL: Running for 1500000 steps
ETITLE: TS BOND ANGLE DIHED IMPRP ELECT VDW BOUNDARY MISC KINETIC TOTAL TEMP POTENTIAL TOTALAVG TEMPAVG PRESSURE GPRESSURE VOLUME PRESSAVG GPRESSAVG
ENERGY: 0 2.3797 6.6118 0.5811 0.0000 -10852.4510 1445.0243 0.0000 0.0000 1819.5334 -7578.3207 306.3335 -9397.8541 -7578.3207 306.3335 -192.9847 -107.7482 30567.9712 -192.9847 -107.7482
ENERGY: 300000 0.6184 7.6489 0.8267 0.0000 -10758.5190 1454.1822 0.0000 0.0000 1839.2327 -7456.0101 309.6501 -9295.2428 -7543.0188 307.1866 63.2474 42.0987 31062.3023 -106.7742 -67.3249
ENERGY: 600000 0.5370 8.0662 0.5524 0.0000 -10800.8450 1518.9068 0.0000 0.0000 1796.7128 -7476.0698 302.4915 -9272.7826 -7545.1328 304.2809 691.5875 660.3307 30824.8110 -16.7690 34.1921
ENERGY: 900000 0.1390 6.1905 0.7084 0.0000 -10792.1810 1453.2375 0.0000 0.0000 1779.7202 -7552.1854 299.6306 -9331.9056 -7546.8452 304.1100 -145.1285 -144.7446 31218.3973 -44.4402 1.7693
ENERGY: 1200000 0.2780 6.3699 0.7211 0.0000 -10824.5362 1443.4314 0.0000 0.0000 1856.7373 -7516.9984 312.5971 -9373.7357 -7557.3452 304.2345 -85.2706 -49.0214 30824.1829 -106.3060 -59.4448
ENERGY: 1500000 0.9324 5.2830 0.7516 0.0000 -10861.3846 1505.2994 0.0000 0.0000 1797.6191 -7551.4991 302.6441 -9349.1182 -7558.1858 303.8235 514.2017 553.3228 30430.9143 -68.9452 -21.2597
TCL: Running FEP window   7: Lambda1 0.3    Lambda2 0.35   [dLambda 0.04999999999999999]
TCL: Setting parameter firsttimestep to 0
TCL: Setting parameter alchLambda to 0.3
Info: NONBONDED TABLE R-SQUARED SPACING: 0.0625
Info: NONBONDED TABLE SIZE: 705 POINTS
TCL: Setting parameter alchLambda2 to 0.35
Info: NONBONDED TABLE R-SQUARED SPACING: 0.0625
Info: NONBONDED TABLE SIZE: 705 POINTS
TCL: Running for 1500000 steps
ETITLE: TS BOND ANGLE DIHED IMPRP ELECT VDW BOUNDARY MISC KINETIC TOTAL TEMP POTENTIAL TOTALAVG TEMPAVG PRESSURE GPRESSURE VOLUME PRESSAVG GPRESSAVG
ENERGY: 0 0.9324 5.2830 0.7516 0.0000 -10861.3837 1505.4914 0.0000 0.0000 1796.7726 -7552.1528 302.5015 -9348.9254 -7552.1528 302.5015 477.6391 557.1229 30430.9143 477.6391 557.1229
ENERGY: 300000 2.5631 6.3038 1.0634 0.0000 -10909.3968 1483.5746 0.0000 0.0000 1790.9963 -7624.8956 301.5290 -9415.8918 -7591.1186 302.2325 103.8124 141.9408 30463.1592 -64.5999 6.9778
ENERGY: 600000 1.3439 5.0218 0.2954 0.0000 -10882.3683 1486.1464 0.0000 0.0000 1752.6397 -7636.9212 295.0714 -9389.5609 -7585.2346 301.5375 150.7051 214.1984 30426.3434 49.2874 124.9499
ENERGY: 900000 0.9016 2.8129 1.1187 0.0000 -10790.7698 1459.4810 0.0000 0.0000 1850.8298 -7475.6259 311.6025 -9326.4556 -7567.9452 303.2059 -31.0012 58.6230 31134.1055 79.2309 159.3297
ENERGY: 1200000 0.2593 6.7186 0.1150 0.0000 -10895.0078 1509.1383 0.0000 0.0000 1837.5164 -7541.2602 309.3611 -9378.7766 -7562.3310 302.0323 332.5398 458.2639 30557.6149 71.4127 157.9023
ENERGY: 1500000 3.9986 4.6754 0.7565 0.0000 -10825.1826 1470.5008 0.0000 0.0000 1750.6724 -7594.5790 294.7402 -9345.2514 -7567.6195 301.5957 203.4834 294.4655 30540.8712 52.9715 140.7889
TCL: Running FEP window   8: Lambda1 0.35   Lambda2 0.39999999999999997 [dLambda 0.04999999999999999]
TCL: Setting parameter firsttimestep to 0
TCL: Setting parameter alchLambda to 0.35
Info: NONBONDED TABLE R-SQUARED SPACING: 0.0625
Info: NONBONDED TABLE SIZE: 705 POINTS
TCL: Setting parameter alchLambda2 to 0.39999999999999997
Info: NONBONDED TABLE R-SQUARED SPACING: 0.0625
Info: NONBONDED TABLE SIZE: 705 POINTS
TCL: Running for 1500000 steps
ETITLE: TS BOND ANGLE DIHED IMPRP ELECT VDW BOUNDARY MISC KINETIC TOTAL TEMP POTENTIAL TOTALAVG TEMPAVG PRESSURE GPRESSURE VOLUME PRESSAVG GPRESSAVG
ENERGY: 0 3.9986 4.6754 0.7565 0.0000 -10825.1822 1470.1456 0.0000 0.0000 1749.7841 -7595.8220 294.5906 -9345.6061 -7595.8220 294.5906 209.8418 295.9723 30540.8712 209.8418 295.9723
ENERGY: 300000 0.0056 6.5492 1.6279 0.0000 -10653.9885 1365.4865 0.0000 0.0000 1812.8191 -7467.5002 305.2031 -9280.3193 -7542.4823 297.7218 -633.3387 -578.8288 31182.4080 16.0706 71.8890
ENERGY: 600000 0.1830 5.5658 0.7980 0.0000 -10839.1121 1462.3066 0.0000 0.0000 1772.1366 -7598.1220 298.3539 -9370.2586 -7556.0247 298.4426 69.5204 93.4477 30532.9614 -61.1727 -1.9965
ENERGY: 900000 0.2613 2.0677 0.3381 0.0000 -10883.6599 1479.9405 0.0000 0.0000 1801.2062 -7599.8462 303.2480 -9401.0524 -7559.6641 299.4890 -72.4396 31.2975 30854.2273 6.0195 62.8116
ENERGY: 1200000 1.8640 7.4864 1.8172 0.0000 -10909.9306 1483.2727 0.0000 0.0000 1772.4119 -7643.0783 298.4002 -9415.4902 -7563.6125 298.8224 82.0233 131.2019 30663.6036 28.8655 90.3357
ENERGY: 1500000 0.6445 10.8426 0.7565 0.0000 -10926.5819 1530.8981 0.0000 0.0000 1727.9052 -7655.5350 290.9071 -9383.4402 -7579.5978 298.3407 301.8870 367.0498 30802.6497 11.6713 70.2700
TCL: Running FEP window   9: Lambda1 0.39999999999999997 Lambda2 0.44999999999999996 [dLambda 0.04999999999999999]
TCL: Setting parameter firsttimestep to 0
TCL: Setting parameter alchLambda to 0.39999999999999997
Info: NONBONDED TABLE R-SQUARED SPACING: 0.0625
Info: NONBONDED TABLE SIZE: 705 POINTS
TCL: Setting parameter alchLambda2 to 0.44999999999999996
Info: NONBONDED TABLE R-SQUARED SPACING: 0.0625
Info: NONBONDED TABLE SIZE: 705 POINTS
TCL: Running for 1500000 steps
ETITLE: TS BOND ANGLE DIHED IMPRP ELECT VDW BOUNDARY MISC KINETIC TOTAL TEMP POTENTIAL TOTALAVG TEMPAVG PRESSURE GPRESSURE VOLUME PRESSAVG GPRESSAVG
ENERGY: 0 0.6445 10.8426 0.7565 0.0000 -10926.5821 1530.4668 0.0000 0.0000 1727.0207 -7656.8510 290.7582 -9383.8717 -7656.8510 290.7582 285.1569 367.2770 30802.6497 285.1569 367.2770
ENERGY: 300000 0.5555 7.6017 2.0327 0.0000 -10920.1181 1602.8143 0.0000 0.0000 1757.6676 -7549.4462 295.9179 -9307.1138 -7616.9868 295.9561 1185.6251 1250.3510 30793.6219 406.6697 466.0459
ENERGY: 600000 0.3714 10.3657 0.5839 0.0000 -10818.8140 1484.1412 0.0000 0.0000 1773.6570 -7549.6947 298.6098 -9323.3517 -7598.5310 297.2624 -14.9172 -1.5241 31428.6698 76.0980 140.1252
ENERGY: 900000 1.2794 5.9188 2.2258 0.0000 -10755.4117 1375.7428 0.0000 0.0000 1705.9066 -7664.3383 287.2035 -9370.2449 -7607.1387 296.8590 -898.2009 -830.1025 30808.4671 -50.8424 14.9593
ENERGY: 1200000 0.5126 4.8503 0.6198 0.0000 -10839.9328 1432.2805 0.0000 0.0000 1765.3004 -7636.3693 297.2029 -9401.6697 -7600.9882 297.3920 -317.4075 -303.5467 30644.8904 -89.8264 -28.8404
ENERGY: 1500000 2.2869 3.9595 0.9651 0.0000 -10807.7386 1455.7406 0.0000 0.0000 1806.0953 -7538.6913 304.0711 -9344.7865 -7590.0528 298.3972 -148.7082 -108.4762 31287.4497 -85.5961 -27.9140
TCL: Running FEP window  10: Lambda1 0.44999999999999996 Lambda2 0.49999999999999994 [dLambda 0.04999999999999999]
TCL: Setting parameter firsttimestep to 0
TCL: Setting parameter alchLambda to 0.44999999999999996
Info: NONBONDED TABLE R-SQUARED SPACING: 0.0625
Info: NONBONDED TABLE SIZE: 705 POINTS
TCL: Setting parameter alchLambda2 to 0.49999999999999994
Info: NONBONDED TABLE R-SQUARED SPACING: 0.0625
Info: NONBONDED TABLE SIZE: 705 POINTS
TCL: Running for 1500000 steps
ETITLE: TS BOND ANGLE DIHED IMPRP ELECT VDW BOUNDARY MISC KINETIC TOTAL TEMP POTENTIAL TOTALAVG TEMPAVG PRESSURE GPRESSURE VOLUME PRESSAVG GPRESSAVG
ENERGY: 0 2.2869 3.9595 0.9651 0.0000 -10807.7380 1455.9352 0.0000 0.0000 1805.1575 -7539.4338 303.9132 -9344.5913 -7539.4338 303.9132 -178.4714 -105.1445 31287.4497 -178.4714 -105.1445
ENERGY: 300000 0.8428 4.8114 0.4413 0.0000 -10762.8596 1384.5599 0.0000 0.0000 1725.2814 -7646.9227 290.4654 -9372.2042 -7578.4468 298.7856 -635.9701 -554.2891 30601.2037 -114.5820 -73.0561
ENERGY: 600000 1.2345 5.3417 0.7436 0.0000 -10913.0059 1554.5923 0.0000 0.0000 1819.6341 -7531.4596 306.3505 -9351.0937 -7569.1206 300.8049 890.2788 989.4389 30489.2688 59.6341 114.1469
ENERGY: 900000 0.4122 9.2019 1.1264 0.0000 -10830.3044 1462.8655 0.0000 0.0000 1850.5615 -7506.1368 311.5573 -9356.6983 -7570.1104 301.1327 -96.4018 -73.2225 31023.7061 -99.1127 -50.9656
ENERGY: 1200000 2.8506 4.5160 1.8555 0.0000 -10708.7221 1398.4913 0.0000 0.0000 1846.2972 -7454.7114 310.8394 -9301.0086 -7571.1437 301.6913 -187.8066 -157.4646 30502.5391 -113.6435 -63.3602
ENERGY: 1500000 1.0766 10.9546 0.8308 0.0000 -10758.4033 1474.4391 0.0000 0.0000 1816.0378 -7455.0644 305.7450 -9271.1023 -7567.3370 301.8470 280.4651 370.0346 30690.6045 -130.6965 -77.7542
TCL: Running FEP window  11: Lambda1 0.49999999999999994 Lambda2 0.5499999999999999 [dLambda 0.04999999999999999]
TCL: Setting parameter firsttimestep to 0
TCL: Setting parameter alchLambda to 0.49999999999999994
Info: NONBONDED TABLE R-SQUARED SPACING: 0.0625
Info: NONBONDED TABLE SIZE: 705 POINTS
TCL: Setting parameter alchLambda2 to 0.5499999999999999
Info: NONBONDED TABLE R-SQUARED SPACING: 0.0625
Info: NONBONDED TABLE SIZE: 705 POINTS
TCL: Running for 1500000 steps
ETITLE: TS BOND ANGLE DIHED IMPRP ELECT VDW BOUNDARY MISC KINETIC TOTAL TEMP POTENTIAL TOTALAVG TEMPAVG PRESSURE GPRESSURE VOLUME PRESSAVG GPRESSAVG
ENERGY: 0 1.0766 10.9546 0.8308 0.0000 -10758.4024 1474.8861 0.0000 0.0000 1815.1640 -7455.4903 305.5979 -9270.6543 -7455.4903 305.5979 298.4514 380.5061 30690.6045 298.4514 380.5061
ENERGY: 300000 2.1719 6.9875 1.0641 0.0000 -10851.7044 1458.3296 0.0000 0.0000 1761.9884 -7621.1628 296.6453 -9383.1512 -7554.8503 298.4870 -123.1791 -75.5654 30665.9577 52.9461 123.3681
ENERGY: 600000 1.6520 3.6635 0.1389 0.0000 -10712.7428 1335.2749 0.0000 0.0000 1778.0326 -7593.9809 299.3465 -9372.0135 -7555.5039 299.7086 -892.2170 -821.7606 30406.8910 -148.9100 -68.4534
ENERGY: 900000 0.5884 7.2520 0.4511 0.0000 -10715.7272 1362.4290 0.0000 0.0000 1796.3266 -7548.6800 302.4265 -9345.0067 -7569.6230 299.6127 -635.5588 -518.6338 30502.7238 -94.0950 -7.6382
ENERGY: 1200000 1.0514 5.0974 1.0820 0.0000 -10880.3460 1533.0121 0.0000 0.0000 1746.0665 -7594.0367 293.9648 -9340.1032 -7577.1660 299.3178 743.3070 771.9762 30456.2610 -10.3474 73.8682
ENERGY: 1500000 1.8489 6.3215 1.5527 0.0000 -10799.4529 1457.7857 0.0000 0.0000 1773.0786 -7558.8655 298.5125 -9331.9441 -7575.8722 299.0102 -288.5265 -195.1071 31220.0310 -67.1051 17.2717
TCL: Running FEP window  12: Lambda1 0.5499999999999999 Lambda2 0.6    [dLambda 0.050000000000000044]
TCL: Setting parameter firsttimestep to 0
TCL: Setting parameter alchLambda to 0.5499999999999999
Info: NONBONDED TABLE R-SQUARED SPACING: 0.0625
Info: NONBONDED TABLE SIZE: 705 POINTS
TCL: Setting parameter alchLambda2 to 0.6
Info: NONBONDED TABLE R-SQUARED SPACING: 0.0625
Info: NONBONDED TABLE SIZE: 705 POINTS
TCL: Running for 1500000 steps
ETITLE: TS BOND ANGLE DIHED IMPRP ELECT VDW BOUNDARY MISC KINETIC TOTAL TEMP POTENTIAL TOTALAVG TEMPAVG PRESSURE GPRESSURE VOLUME PRESSAVG GPRESSAVG
ENERGY: 0 1.8489 6.3215 1.5527 0.0000 -10799.3549 1458.2254 0.0000 0.0000 1772.1584 -7559.2479 298.3575 -9331.4063 -7559.2479 298.3575 -279.1029 -183.3972 31220.0310 -279.1029 -183.3972
ENERGY: 300000 3.1643 6.0048 0.9199 0.0000 -10770.0467 1467.9105 0.0000 0.0000 1741.9252 -7550.1220 293.2675 -9292.0472 -7526.7116 301.5301 57.2740 98.1561 30921.4532 54.0922 118.4005
ENERGY: 600000 0.5478 2.9955 0.5036 0.0000 -10973.0299 1585.3099 0.0000 0.0000 1815.6019 -7568.0714 305.6716 -9383.6732 -7550.9441 301.4849 1043.4038 1058.4508 30830.2819 71.1334 129.2256
ENERGY: 900000 1.0671 6.2338 0.7416 0.0000 -11045.9414 1542.8782 0.0000 0.0000 1798.7658 -7696.2549 302.8371 -9495.0208 -7580.8699 301.7292 458.9512 389.5677 30664.3891 34.8739 81.4795
ENERGY: 1200000 0.1971 4.6112 1.4114 0.0000 -10834.6590 1424.1096 0.0000 0.0000 1808.6585 -7595.6712 304.5026 -9404.3297 -7566.8854 302.8973 -368.7790 -335.7905 30802.0925 31.7342 74.9058
ENERGY: 1500000 0.2656 6.7037 0.8262 0.0000 -10876.6351 1515.4625 0.0000 0.0000 1767.6720 -7585.7050 297.6022 -9353.3770 -7567.0079 302.3768 462.0772 511.7404 30616.2851 13.8850 58.4108
TCL: Running FEP window  13: Lambda1 0.6    Lambda2 0.65   [dLambda 0.050000000000000044]
TCL: Setting parameter firsttimestep to 0
TCL: Setting parameter alchLambda to 0.6
Info: NONBONDED TABLE R-SQUARED SPACING: 0.0625
Info: NONBONDED TABLE SIZE: 705 POINTS
TCL: Setting parameter alchLambda2 to 0.65
Info: NONBONDED TABLE R-SQUARED SPACING: 0.0625
Info: NONBONDED TABLE SIZE: 705 POINTS
TCL: Running for 1500000 steps
ETITLE: TS BOND ANGLE DIHED IMPRP ELECT VDW BOUNDARY MISC KINETIC TOTAL TEMP POTENTIAL TOTALAVG TEMPAVG PRESSURE GPRESSURE VOLUME PRESSAVG GPRESSAVG
ENERGY: 0 0.2656 6.7037 0.8262 0.0000 -10876.6100 1515.2219 0.0000 0.0000 1766.7612 -7586.8312 297.4489 -9353.5925 -7586.8312 297.4489 422.2090 515.1579 30616.2851 422.2090 515.1579
ENERGY: 300000 1.4125 3.4955 0.3036 0.0000 -10892.8037 1474.0458 0.0000 0.0000 1811.3583 -7602.1881 304.9572 -9413.5464 -7586.5853 300.7184 -28.5515 -38.3318 30600.3902 -0.5310 58.9105
ENERGY: 600000 0.7877 6.1593 1.6598 0.0000 -10748.3418 1423.3561 0.0000 0.0000 1810.2934 -7506.0854 304.7779 -9316.3788 -7583.1724 300.0755 94.1266 194.5361 30150.7698 -140.5642 -71.7828
ENERGY: 900000 0.6737 8.4624 1.4841 0.0000 -10865.6331 1506.2943 0.0000 0.0000 1801.2705 -7547.4480 303.2588 -9348.7185 -7591.3854 299.3010 499.2862 472.7130 30497.0759 -113.6077 -62.7056
ENERGY: 1200000 1.2899 5.7500 0.9072 0.0000 -10939.2166 1529.0981 0.0000 0.0000 1804.7104 -7597.4610 303.8379 -9402.1714 -7588.2916 300.0381 324.9516 390.1505 30745.5325 -72.6284 -14.8815
ENERGY: 1500000 0.4468 3.3764 0.4827 0.0000 -10747.0317 1409.6880 0.0000 0.0000 1808.2409 -7524.7970 304.4323 -9333.0379 -7584.7937 300.1824 -35.1943 58.2687 30368.1778 -123.5873 -66.0652
TCL: Running FEP window  14: Lambda1 0.65   Lambda2 0.7000000000000001 [dLambda 0.050000000000000044]
TCL: Setting parameter firsttimestep to 0
TCL: Setting parameter alchLambda to 0.65
Info: NONBONDED TABLE R-SQUARED SPACING: 0.0625
Info: NONBONDED TABLE SIZE: 705 POINTS
TCL: Setting parameter alchLambda2 to 0.7000000000000001
Info: NONBONDED TABLE R-SQUARED SPACING: 0.0625
Info: NONBONDED TABLE SIZE: 705 POINTS
TCL: Running for 1500000 steps
ETITLE: TS BOND ANGLE DIHED IMPRP ELECT VDW BOUNDARY MISC KINETIC TOTAL TEMP POTENTIAL TOTALAVG TEMPAVG PRESSURE GPRESSURE VOLUME PRESSAVG GPRESSAVG
ENERGY: 0 0.4468 3.3764 0.4827 0.0000 -10746.9991 1410.5381 0.0000 0.0000 1807.3494 -7524.8058 304.2822 -9332.1552 -7524.8058 304.2822 -23.6052 69.7850 30368.1778 -23.6052 69.7850
ENERGY: 300000 0.5803 7.4031 0.4607 0.0000 -10769.7463 1382.9669 0.0000 0.0000 1729.5897 -7648.7456 291.1907 -9378.3353 -7575.4641 298.9282 -616.5414 -490.0829 30590.8960 -48.4793 51.2404
ENERGY: 600000 1.0402 4.5891 0.3478 0.0000 -10922.5943 1436.2308 0.0000 0.0000 1756.3639 -7724.0225 295.6984 -9480.3864 -7594.0207 299.9535 -240.8860 -235.9503 30377.0158 -146.2331 -62.9327
ENERGY: 900000 0.3814 4.5005 0.7450 0.0000 -11017.2162 1542.6006 0.0000 0.0000 1859.9613 -7609.0274 313.1399 -9468.9888 -7570.6965 302.3763 539.1157 595.1156 30454.8891 -178.5589 -107.0898
ENERGY: 1200000 2.7696 6.8788 0.4817 0.0000 -10812.4029 1446.2569 0.0000 0.0000 1797.6391 -7558.3768 302.6474 -9356.0159 -7574.4178 302.7814 -185.5500 -47.1626 30474.9239 -201.8962 -125.4398
ENERGY: 1500000 0.2820 5.6186 0.2910 0.0000 -10856.9258 1477.6912 0.0000 0.0000 1743.3950 -7629.6480 293.5150 -9373.0430 -7574.9507 301.9597 238.3050 269.8128 30403.3841 -161.6050 -98.0761
TCL: Running FEP window  15: Lambda1 0.7000000000000001 Lambda2 0.7500000000000001 [dLambda 0.050000000000000044]
TCL: Setting parameter firsttimestep to 0
TCL: Setting parameter alchLambda to 0.7000000000000001
Info: NONBONDED TABLE R-SQUARED SPACING: 0.0625
Info: NONBONDED TABLE SIZE: 705 POINTS
TCL: Setting parameter alchLambda2 to 0.7500000000000001
Info: NONBONDED TABLE R-SQUARED SPACING: 0.0625
Info: NONBONDED TABLE SIZE: 705 POINTS
TCL: Running for 1500000 steps
ETITLE: TS BOND ANGLE DIHED IMPRP ELECT VDW BOUNDARY MISC KINETIC TOTAL TEMP POTENTIAL TOTALAVG TEMPAVG PRESSURE GPRESSURE VOLUME PRESSAVG GPRESSAVG
ENERGY: 0 0.2820 5.6186 0.2910 0.0000 -10856.8872 1477.7856 0.0000 0.0000 1742.4823 -7630.4277 293.3613 -9372.9100 -7630.4277 293.3613 195.2539 278.3887 30403.3841 195.2539 278.3887
ENERGY: 300000 0.4919 4.8149 1.0796 0.0000 -10939.8720 1490.4205 0.0000 0.0000 1773.8086 -7669.2565 298.6354 -9443.0651 -7640.9966 296.2786 124.8235 261.0628 30264.5488 165.8537 271.2774
ENERGY: 600000 0.8021 4.8422 0.2269 0.0000 -10727.1481 1381.5534 0.0000 0.0000 1810.0738 -7529.6496 304.7409 -9339.7234 -7603.0491 297.4869 -544.6369 -457.2429 30872.9612 40.4984 129.5161
ENERGY: 900000 1.7912 7.8829 0.3578 0.0000 -10752.7648 1406.2712 0.0000 0.0000 1785.5927 -7550.8690 300.6193 -9336.4617 -7598.2395 298.6746 -401.4424 -368.5865 30860.6399 -90.2943 -4.7405
ENERGY: 1200000 0.2923 4.1760 1.1791 0.0000 -10710.6235 1392.1814 0.0000 0.0000 1767.7908 -7545.0039 297.6222 -9312.7946 -7590.5805 298.7868 -330.4443 -271.9177 30661.8448 -128.1700 -46.3220
ENERGY: 1500000 0.4001 8.6619 0.9840 0.0000 -10839.6068 1455.2283 0.0000 0.0000 1777.8155 -7596.5171 299.3100 -9374.3326 -7585.8268 298.7582 -70.4398 -32.8299 30832.7189 -99.7556 -22.7220
TCL: Running FEP window  16: Lambda1 0.7500000000000001 Lambda2 0.8000000000000002 [dLambda 0.050000000000000044]
TCL: Setting parameter firsttimestep to 0
TCL: Setting parameter alchLambda to 0.7500000000000001
Info: NONBONDED TABLE R-SQUARED SPACING: 0.0625
Info: NONBONDED TABLE SIZE: 705 POINTS
TCL: Setting parameter alchLambda2 to 0.8000000000000002
Info: NONBONDED TABLE R-SQUARED SPACING: 0.0625
Info: NONBONDED TABLE SIZE: 705 POINTS
TCL: Running for 1500000 steps
ETITLE: TS BOND ANGLE DIHED IMPRP ELECT VDW BOUNDARY MISC KINETIC TOTAL TEMP POTENTIAL TOTALAVG TEMPAVG PRESSURE GPRESSURE VOLUME PRESSAVG GPRESSAVG
ENERGY: 0 0.4001 8.6619 0.9840 0.0000 -10839.5972 1456.0970 0.0000 0.0000 1776.9326 -7596.5217 299.1613 -9373.4543 -7596.5217 299.1613 -87.3015 -14.3885 30832.7189 -87.3015 -14.3885
ENERGY: 300000 0.5769 3.6470 0.3571 0.0000 -10798.5953 1469.7754 0.0000 0.0000 1776.5802 -7547.6586 299.1020 -9324.2388 -7579.1930 297.9981 396.6595 407.8068 30523.2416 -1.1383 51.0776
ENERGY: 600000 0.4094 6.9360 0.9438 0.0000 -10862.6338 1406.3965 0.0000 0.0000 1739.5492 -7708.3988 292.8675 -9447.9480 -7617.2084 296.8085 -690.5108 -636.6920 30724.6085 -110.4411 -61.1990
ENERGY: 900000 0.6386 5.3587 0.4093 0.0000 -10927.9458 1566.4210 0.0000 0.0000 1815.7770 -7539.3412 305.7011 -9355.1182 -7607.8464 299.0352 925.9283 974.6708 30759.0931 44.0410 101.0478
ENERGY: 1200000 1.9649 7.2978 1.3422 0.0000 -10862.3592 1458.3688 0.0000 0.0000 1758.0372 -7635.3483 295.9801 -9393.3856 -7594.7354 299.3076 206.7300 177.3222 30344.9367 -95.9482 -46.7675
ENERGY: 1500000 1.1657 10.1808 1.4037 0.0000 -10824.6684 1453.5731 0.0000 0.0000 1804.2336 -7554.1115 303.7577 -9358.3451 -7583.2174 299.4201 57.0472 102.6429 30714.6027 -105.4606 -56.3034
TCL: Running FEP window  17: Lambda1 0.8000000000000002 Lambda2 0.8500000000000002 [dLambda 0.050000000000000044]
TCL: Setting parameter firsttimestep to 0
TCL: Setting parameter alchLambda to 0.8000000000000002
Info: NONBONDED TABLE R-SQUARED SPACING: 0.0625
Info: NONBONDED TABLE SIZE: 705 POINTS
TCL: Setting parameter alchLambda2 to 0.8500000000000002
Info: NONBONDED TABLE R-SQUARED SPACING: 0.0625
Info: NONBONDED TABLE SIZE: 705 POINTS
TCL: Running for 1500000 steps
ETITLE: TS BOND ANGLE DIHED IMPRP ELECT VDW BOUNDARY MISC KINETIC TOTAL TEMP POTENTIAL TOTALAVG TEMPAVG PRESSURE GPRESSURE VOLUME PRESSAVG GPRESSAVG
ENERGY: 0 1.1657 10.1808 1.4037 0.0000 -10824.6828 1453.7747 0.0000 0.0000 1803.3572 -7554.8007 303.6101 -9358.1578 -7554.8007 303.6101 34.6634 115.1589 30714.6027 34.6634 115.1589
ENERGY: 300000 0.5733 3.8524 0.7966 0.0000 -10740.4842 1394.8423 0.0000 0.0000 1770.7900 -7569.6296 298.1272 -9340.4196 -7562.1188 299.7295 -574.3236 -554.5451 31252.2303 -98.2520 -33.8284
ENERGY: 600000 1.4569 3.9258 2.0947 0.0000 -10853.1022 1446.7820 0.0000 0.0000 1796.9774 -7601.8652 302.5360 -9398.8427 -7573.1158 298.7832 -160.9756 -87.2509 30795.4105 -106.1469 -37.3069
ENERGY: 900000 0.7253 4.8604 0.7966 0.0000 -10632.5724 1350.8527 0.0000 0.0000 1800.7339 -7474.6035 303.1685 -9275.3374 -7553.4790 299.7393 -676.6113 -595.2584 31215.6538 -144.4981 -82.3827
ENERGY: 1200000 1.3476 6.2815 0.6717 0.0000 -10716.4086 1447.4569 0.0000 0.0000 1773.5304 -7487.1205 298.5885 -9260.6509 -7552.6881 299.9345 327.0960 370.0920 30606.2010 -49.9064 8.1163
ENERGY: 1500000 0.1601 5.3086 0.8606 0.0000 -11047.8898 1597.9244 0.0000 0.0000 1822.6240 -7621.0121 306.8538 -9443.6361 -7566.6883 299.4976 783.4537 870.8379 30781.1074 49.0280 108.9443
TCL: Running FEP window  18: Lambda1 0.8500000000000002 Lambda2 0.9000000000000002 [dLambda 0.050000000000000044]
TCL: Setting parameter firsttimestep to 0
TCL: Setting parameter alchLambda to 0.8500000000000002
Info: NONBONDED TABLE R-SQUARED SPACING: 0.0625
Info: NONBONDED TABLE SIZE: 705 POINTS
TCL: Setting parameter alchLambda2 to 0.9000000000000002
Info: NONBONDED TABLE R-SQUARED SPACING: 0.0625
Info: NONBONDED TABLE SIZE: 705 POINTS
TCL: Running for 1500000 steps
ETITLE: TS BOND ANGLE DIHED IMPRP ELECT VDW BOUNDARY MISC KINETIC TOTAL TEMP POTENTIAL TOTALAVG TEMPAVG PRESSURE GPRESSURE VOLUME PRESSAVG GPRESSAVG
ENERGY: 0 0.1601 5.3086 0.8606 0.0000 -11047.8749 1597.7557 0.0000 0.0000 1821.7022 -7622.0878 306.6986 -9443.7900 -7622.0878 306.6986 801.4326 874.4495 30781.1074 801.4326 874.4495
ENERGY: 300000 1.3710 4.6873 0.6466 0.0000 -10861.3798 1456.5332 0.0000 0.0000 1739.4707 -7658.6710 292.8543 -9398.1417 -7622.0370 296.1562 -36.2078 39.2348 30403.1840 21.1846 88.3725
ENERGY: 600000 0.3819 8.0374 0.8165 0.0000 -10800.8568 1395.7173 0.0000 0.0000 1810.4413 -7585.4624 304.8028 -9395.9037 -7588.4403 298.3841 -338.4659 -294.7374 30453.5843 -99.5962 -30.7084
ENERGY: 900000 0.6263 7.6069 2.6761 0.0000 -10912.1463 1533.8347 0.0000 0.0000 1825.4006 -7542.0016 307.3213 -9367.4022 -7586.0514 299.4246 803.2883 901.3054 30236.2285 9.1977 86.6948
ENERGY: 1200000 1.8218 7.8845 0.7608 0.0000 -10936.8199 1552.7516 0.0000 0.0000 1771.9899 -7601.6112 298.3292 -9373.6011 -7583.9960 300.3320 464.1880 585.6185 30704.7452 -33.5361 41.4102
ENERGY: 1500000 0.3629 7.1913 0.3317 0.0000 -10716.4438 1351.4451 0.0000 0.0000 1789.2035 -7567.9092 301.2272 -9357.1127 -7581.2279 300.3120 -722.9970 -625.2693 30748.1840 -160.3557 -86.0978
TCL: Running FEP window  19: Lambda1 0.9000000000000002 Lambda2 0.9500000000000003 [dLambda 0.050000000000000044]
TCL: Setting parameter firsttimestep to 0
TCL: Setting parameter alchLambda to 0.9000000000000002
Info: NONBONDED TABLE R-SQUARED SPACING: 0.0625
Info: NONBONDED TABLE SIZE: 705 POINTS
TCL: Setting parameter alchLambda2 to 0.9500000000000003
Info: NONBONDED TABLE R-SQUARED SPACING: 0.0625
Info: NONBONDED TABLE SIZE: 705 POINTS
TCL: Running for 1500000 steps
ETITLE: TS BOND ANGLE DIHED IMPRP ELECT VDW BOUNDARY MISC KINETIC TOTAL TEMP POTENTIAL TOTALAVG TEMPAVG PRESSURE GPRESSURE VOLUME PRESSAVG GPRESSAVG
ENERGY: 0 0.3629 7.1913 0.3317 0.0000 -10716.4298 1351.0862 0.0000 0.0000 1788.3067 -7569.1510 301.0762 -9357.4577 -7569.1510 301.0762 -714.8326 -623.7280 30748.1840 -714.8326 -623.7280
ENERGY: 300000 1.4525 8.8955 2.4145 0.0000 -10786.1438 1475.7691 0.0000 0.0000 1841.8843 -7455.7279 310.0965 -9297.6123 -7511.0556 305.4240 222.2645 282.5279 30923.5584 -159.4645 -109.5726
ENERGY: 600000 0.3332 4.1246 0.2974 0.0000 -10820.2598 1408.8930 0.0000 0.0000 1789.8483 -7616.7633 301.3358 -9406.6116 -7552.4757 302.5307 -344.6427 -324.6938 30499.2309 -84.2539 -31.8461
ENERGY: 900000 1.1137 4.6591 0.7093 0.0000 -10880.0872 1482.8275 0.0000 0.0000 1791.5217 -7599.2560 301.6175 -9390.7777 -7558.7062 301.6744 449.8972 515.6437 30180.8604 75.6473 135.2369
ENERGY: 1200000 1.2203 6.5635 0.6283 0.0000 -11025.9938 1583.8157 0.0000 0.0000 1787.6923 -7646.0737 300.9728 -9433.7660 -7569.9113 301.8736 877.2004 971.8450 30305.4566 95.6135 160.9390
ENERGY: 1500000 0.8681 3.6075 0.1138 0.0000 -10751.0257 1417.6162 0.0000 0.0000 1778.8144 -7550.0057 299.4781 -9328.8202 -7568.6744 301.3057 -533.2524 -520.8227 31293.7227 33.6125 95.2068
TCL: Running FEP window  20: Lambda1 0.9500000000000003 Lambda2 1.0    [dLambda 0.04999999999999971]
TCL: Setting parameter firsttimestep to 0
TCL: Setting parameter alchLambda to 0.9500000000000003
Info: NONBONDED TABLE R-SQUARED SPACING: 0.0625
Info: NONBONDED TABLE SIZE: 705 POINTS
TCL: Setting parameter alchLambda2 to 1.0
Info: NONBONDED TABLE R-SQUARED SPACING: 0.0625
Info: NONBONDED TABLE SIZE: 705 POINTS
TCL: Running for 1500000 steps
ETITLE: TS BOND ANGLE DIHED IMPRP ELECT VDW BOUNDARY MISC KINETIC TOTAL TEMP POTENTIAL TOTALAVG TEMPAVG PRESSURE GPRESSURE VOLUME PRESSAVG GPRESSAVG
ENERGY: 0 0.8681 3.6075 0.1138 0.0000 -10751.0272 1417.8049 0.0000 0.0000 1777.9427 -7550.6903 299.3314 -9328.6330 -7550.6903 299.3314 -580.7869 -510.0614 31293.7227 -580.7869 -510.0614
ENERGY: 300000 0.6165 5.4855 0.3245 0.0000 -10891.2485 1458.7196 0.0000 0.0000 1822.3506 -7603.7518 306.8078 -9426.1024 -7603.4317 300.9977 -146.5868 -67.0326 30938.6577 -213.2040 -148.6922
ENERGY: 600000 0.5401 5.5420 0.3751 0.0000 -10964.6171 1543.2151 0.0000 0.0000 1812.4247 -7602.5201 305.1367 -9414.9447 -7596.5277 302.7872 791.5013 898.5971 30208.4549 134.6617 206.1239
ENERGY: 900000 1.9620 3.5151 0.6434 0.0000 -10860.2881 1469.8457 0.0000 0.0000 1732.7629 -7651.5589 291.7250 -9384.3219 -7592.8977 302.3570 -49.7858 -2.0102 30698.8758 61.1711 120.7843
ENERGY: 1200000 0.8554 5.6456 0.2674 0.0000 -10928.1208 1524.2407 0.0000 0.0000 1748.9870 -7648.1247 294.4564 -9397.1117 -7604.4059 300.8252 322.6529 388.7311 30811.6931 71.2505 127.2414
ENERGY: 1500000 0.3018 6.2023 0.2796 0.0000 -10642.1261 1333.9978 0.0000 0.0000 1704.9370 -7596.4077 287.0402 -9301.3446 -7599.4665 299.9553 -682.3188 -674.5897 31007.7913 67.1892 119.1585
TCL: Exiting due to exit command.
