Info: SIMULATION PARAMETERS:
Info: TIMESTEP               2
Info: NUMBER OF STEPS        0
Info: STEPS PER CYCLE        10
Info: PERIODIC CELL BASIS 1  32.3037 0 0
Info: PERIODIC CELL BASIS 2  0 31.586 0
Info: PERIODIC CELL BASIS 3  0 0 30.4313
Info: PERIODIC CELL CENTER   0 0 0
Info: WRAPPING WATERS AROUND PERIODIC BOUNDARIES ON OUTPUT.
Info: WRAPPING ALL CLUSTERS AROUND PERIODIC BOUNDARIES ON OUTPUT.
Info: FIRST LDB TIMESTEP     50
Info: LAST LDB TIMESTEP     -1
Info: HOM BACKGROUND SCALING 1
Info: PME BACKGROUND SCALING 1
Info: MIN ATOMS PER PATCH    40
Info: EMPTY PATCH LOAD       40 ATOMS
Info: VELOCITY FILE          mobley_3211679_equil.vel
Info: CENTER OF MASS MOVING INITIALLY? NO
Info: DIELECTRIC             1
Info: EXCLUDE                SCALED ONE-FOUR
Info: 1-4 ELECTROSTATICS SCALED BY 0.833333
Info: MODIFIED 1-4 VDW PARAMETERS WILL BE USED
Info: DCD FILENAME           mobley_3211679_prod.dcd
Info: DCD FREQUENCY          100000
Info: DCD FIRST STEP         100000
Info: DCD FILE WILL CONTAIN UNIT CELL DATA
Info: XST FILENAME           mobley_3211679_prod.xst
Info: XST FREQUENCY          100000
Info: NO VELOCITY DCD OUTPUT
Info: NO FORCE DCD OUTPUT
Info: OUTPUT FILENAME        mobley_3211679_prod
Info: BINARY OUTPUT FILES WILL BE USED
Info: RESTART FILENAME       mobley_3211679_prod.restart
Info: RESTART FREQUENCY      100000
Info: BINARY RESTART FILES WILL BE USED
Info: CUTOFF                 9
Info: PAIRLIST DISTANCE      11
Info: PAIRLIST SHRINK RATE   0.01
Info: PAIRLIST GROW RATE     0.01
Info: PAIRLIST TRIGGER       0.3
Info: PAIRLISTS PER CYCLE    2
Info: PAIRLISTS ENABLED
Info: MARGIN                 2
Info: HYDROGEN GROUP CUTOFF  2.5
Info: PATCH DIMENSION        15.5
Info: ENERGY OUTPUT STEPS    100000
Info: ENERGY EVALUATION STEPS    100000
Info: OUTPUT ENERGY PRECISION 4
Info: CROSSTERM ENERGY INCLUDED IN DIHEDRAL
Info: TIMING OUTPUT STEPS    1000000
Info: PRESSURE OUTPUT STEPS  100000
Info: ALCHEMICAL FEP ON
Info: FEP CURRENT LAMBDA VALUE     0
Info: FEP COMPARISON LAMBDA VALUE  0.05
Info: FEP INTRA-ALCHEMICAL NON-BONDED INTERACTIONS WILL BE RETAINED
Info: FEP INTRA-ALCHEMICAL BONDED INTERACTIONS WILL BE RETAINED
Info: FEP VDW SHIFTING COEFFICIENT 5
Info: FEP ELEC. ACTIVE FOR ANNIHILATED PARTICLES BETWEEN LAMBDA = 0 AND LAMBDA = 0.5
Info: FEP ELEC. ACTIVE FOR EXNIHILATED PARTICLES BETWEEN LAMBDA = 0.5 AND LAMBDA = 1
Info: FEP VDW ACTIVE FOR ANNIHILATED PARTICLES BETWEEN LAMBDA = 0 AND LAMBDA = 1
Info: FEP VDW ACTIVE FOR EXNIHILATED PARTICLES BETWEEN LAMBDA = 0 AND LAMBDA = 1
Info: FEP BOND ACTIVE FOR ANNIHILATED PARTICLES BETWEEN LAMBDA = 1 AND LAMBDA = 1
Info: FEP BOND ACTIVE FOR EXNIHILATED PARTICLES BETWEEN LAMBDA = 0 AND LAMBDA = 0
Info: LANGEVIN DYNAMICS ACTIVE
Info: LANGEVIN TEMPERATURE   300
Info: LANGEVIN USING BBK INTEGRATOR
Info: LANGEVIN DAMPING COEFFICIENT IS 1 INVERSE PS
Info: LANGEVIN DYNAMICS APPLIED TO HYDROGENS
Info: LANGEVIN PISTON PRESSURE CONTROL ACTIVE
Info:        TARGET PRESSURE IS 1.01325 BAR
Info:     OSCILLATION PERIOD IS 50 FS
Info:             DECAY TIME IS 25 FS
Info:     PISTON TEMPERATURE IS 300 K
Info:       PRESSURE CONTROL IS GROUP-BASED
Info:    INITIAL STRAIN RATE IS 0.000449668 0.000449668 0.000449668
Info:       CELL FLUCTUATION IS ISOTROPIC
Info: PARTICLE MESH EWALD (PME) ACTIVE
Info: PME TOLERANCE               1e-06
Info: PME EWALD COEFFICIENT       0.348832
Info: PME INTERPOLATION ORDER     4
Info: PME GRID DIMENSIONS         36 32 32
Info: PME MAXIMUM GRID SPACING    1
Info: PME CALCULATION WILL BE PERFORMED ON GPU
Info: FULL ELECTROSTATIC EVALUATION FREQUENCY      2
Info: USING VERLET I (r-RESPA) MTS SCHEME.
Info: C1 SPLITTING OF LONG RANGE ELECTROSTATICS
Info: PLACING ATOMS IN PATCHES BY HYDROGEN GROUPS
Info: RIGID BONDS TO HYDROGEN : ALL
Info:         ERROR TOLERANCE : 1e-08
Info:          MAX ITERATIONS : 100
Info: RIGID WATER USING SETTLE ALGORITHM
Info: RANDOM NUMBER SEED     1743579714
Info: USE HYDROGEN BONDS?    NO
Info: Using AMBER format force field!
Info: AMBER PARM FILE        mobley_3211679.prmtop
Info: COORDINATE PDB         mobley_3211679.pdb
Info: Exclusions will be read from PARM file!
Info: SCNB (VDW SCALING)     2
Info: USING ARITHMETIC MEAN TO COMBINE L-J SIGMA PARAMETERS
Info: BINARY COORDINATES     mobley_3211679_equil.coor
Info: SUMMARY OF PARAMETERS:
Info: 7 BONDS
Info: 8 ANGLES
Info:   8 HARMONIC
Info:   0 COSINE-BASED
Info: 12 DIHEDRAL
Info: 0 IMPROPER
Info: 0 CROSSTERM
Info: 0 VDW
Info: 21 VDW_PAIRS
Info: 0 NBTHOLE_PAIRS
Info: To read alchdata from file: mobley_3211679.pdb
Info: To read alchflag data from column: 5
Info: STRUCTURE SUMMARY:
Info: 2983 ATOMS
Info: 2983 BONDS
Info: 30 ANGLES
Info: 56 DIHEDRALS
Info: 0 IMPROPERS
Info: 0 CROSSTERMS
Info: 3053 EXCLUSIONS
Info: 2977 RIGID BONDS
Info: ALCH: 0 ATOMS TO DISAPPEAR IN FINAL STATE
Info: ALCH: 16 ATOMS TO APPEAR IN FINAL STATE
Info: 5972 DEGREES OF FREEDOM
Info: 995 HYDROGEN GROUPS
Info: 3 ATOMS IN LARGEST HYDROGEN GROUP
Info: 995 MIGRATION GROUPS
Info: 3 ATOMS IN LARGEST MIGRATION GROUP
Info: TOTAL MASS = 17900 amu
Info: TOTAL CHARGE = -0.000200011 e
Info: MASS DENSITY = 0.957292 g/cm^3
Info: ATOM DENSITY = 0.0960696 atoms/A^3
Info: ADDED 0 IMPLICIT EXCLUSIONS
Info: NONBONDED TABLE R-SQUARED SPACING: 0.0625
Info: NONBONDED TABLE SIZE: 705 POINTS
Info: REDUCING NUMBER OF PATCHES TO IMPROVE LOAD BALANCE
Info: REMOVING COM VELOCITY 0.192769 0.160823 0.0503464
Info: Use 3D box decompostion in PME FFT.
Info: Updated CUDA force table with 4096 elements.
Info: Updated CUDA LJ table with 6 x 6 elements.
Info: Found 18 unique exclusion lists needing 44 bytes
TCL: Running for 1500000 steps
ETITLE: TS BOND ANGLE DIHED IMPRP ELECT VDW BOUNDARY MISC KINETIC TOTAL TEMP POTENTIAL TOTALAVG TEMPAVG PRESSURE GPRESSURE VOLUME PRESSAVG GPRESSAVG
ENERGY: 0 1.1940 5.9681 5.1609 0.0000 -10675.2737 1314.2061 0.0000 0.0000 1761.9058 -7586.8389 296.9294 -9348.7446 -7586.8389 296.9294 -1402.3966 -1325.5609 31050.3997 -1402.3966 -1325.5609
ENERGY: 300000 1.3773 7.6494 7.0139 0.0000 -10816.0295 1465.3953 0.0000 0.0000 1784.5271 -7550.0665 300.7418 -9334.5936 -7524.3527 304.6366 -109.1025 73.4735 30821.1247 -355.6355 -289.8331
ENERGY: 600000 1.8729 7.6487 4.6180 0.0000 -10737.0909 1346.2618 0.0000 0.0000 1784.3649 -7592.3246 300.7144 -9376.6895 -7560.4551 301.5285 -946.8995 -876.9318 30456.9394 -453.4305 -394.2313
ENERGY: 900000 1.3595 4.1072 5.5949 0.0000 -10703.6596 1402.3012 0.0000 0.0000 1768.2472 -7522.0496 297.9981 -9290.2968 -7558.5131 299.6851 -473.8407 -383.1363 30935.9920 -407.2037 -340.3049
ENERGY: 1200000 2.2625 8.4187 5.0169 0.0000 -10578.5395 1395.0063 0.0000 0.0000 1749.5453 -7418.2897 294.8464 -9167.8349 -7558.1161 298.6100 -378.3822 -348.8670 31336.7450 -342.8706 -279.6255
ENERGY: 1500000 2.0232 8.0704 5.5036 0.0000 -10853.4237 1507.9958 0.0000 0.0000 1817.8398 -7511.9908 306.3559 -9329.8306 -7543.4974 299.5060 704.8461 805.9275 30314.8768 -204.9993 -137.7419
TCL: Running FEP window   2: Lambda1 0.05   Lambda2 0.1    [dLambda 0.05  ]
TCL: Setting parameter firsttimestep to 0
TCL: Setting parameter alchLambda to 0.05
Info: NONBONDED TABLE R-SQUARED SPACING: 0.0625
Info: NONBONDED TABLE SIZE: 705 POINTS
TCL: Setting parameter alchLambda2 to 0.1
Info: NONBONDED TABLE R-SQUARED SPACING: 0.0625
Info: NONBONDED TABLE SIZE: 705 POINTS
TCL: Running for 1500000 steps
ETITLE: TS BOND ANGLE DIHED IMPRP ELECT VDW BOUNDARY MISC KINETIC TOTAL TEMP POTENTIAL TOTALAVG TEMPAVG PRESSURE GPRESSURE VOLUME PRESSAVG GPRESSAVG
ENERGY: 0 2.0232 8.0704 5.5036 0.0000 -10853.4243 1509.8116 0.0000 0.0000 1816.9493 -7511.0661 306.2058 -9328.0154 -7511.0661 306.2058 728.5577 812.4196 30314.8768 728.5577 812.4196
ENERGY: 300000 4.4893 5.4554 4.4979 0.0000 -10704.9979 1414.2429 0.0000 0.0000 1771.4257 -7504.8867 298.5338 -9276.3124 -7500.8085 304.2978 -524.1507 -437.3915 30828.0106 -282.4348 -204.4572
ENERGY: 600000 0.9905 4.7234 4.2874 0.0000 -10851.4411 1484.3747 0.0000 0.0000 1830.6492 -7526.4159 308.5146 -9357.0651 -7494.9772 304.3799 75.4041 111.7021 30649.4566 -293.2214 -226.0294
ENERGY: 900000 1.4862 7.9451 4.7552 0.0000 -10861.4324 1490.9395 0.0000 0.0000 1788.2395 -7568.0668 301.3674 -9356.3064 -7510.4218 303.6883 83.8497 126.5419 30592.3846 -204.2955 -141.2819
ENERGY: 1200000 0.3943 6.2368 6.5339 0.0000 -10732.4002 1433.8875 0.0000 0.0000 1747.4552 -7537.8926 294.4941 -9285.3477 -7530.7211 300.9726 -91.3023 -42.2554 30558.8502 -194.0698 -128.1280
ENERGY: 1500000 2.2932 6.2725 4.8650 0.0000 -10826.3840 1522.1198 0.0000 0.0000 1825.2740 -7465.5594 307.6087 -9290.8334 -7527.2357 301.4153 509.5634 626.8644 30638.0280 -141.9673 -72.0001
TCL: Running FEP window   3: Lambda1 0.1    Lambda2 0.15000000000000002 [dLambda 0.05000000000000002]
TCL: Setting parameter firsttimestep to 0
TCL: Setting parameter alchLambda to 0.1
Info: NONBONDED TABLE R-SQUARED SPACING: 0.0625
Info: NONBONDED TABLE SIZE: 705 POINTS
TCL: Setting parameter alchLambda2 to 0.15000000000000002
Info: NONBONDED TABLE R-SQUARED SPACING: 0.0625
Info: NONBONDED TABLE SIZE: 705 POINTS
TCL: Running for 1500000 steps
ETITLE: TS BOND ANGLE DIHED IMPRP ELECT VDW BOUNDARY MISC KINETIC TOTAL TEMP POTENTIAL TOTALAVG TEMPAVG PRESSURE GPRESSURE VOLUME PRESSAVG GPRESSAVG
ENERGY: 0 2.2932 6.2725 4.8650 0.0000 -10826.3836 1523.1974 0.0000 0.0000 1824.4030 -7465.3524 307.4619 -9289.7554 -7465.3524 307.4619 545.0598 632.3663 30638.0280 545.0598 632.3663
ENERGY: 300000 0.7759 8.8097 4.9066 0.0000 -10882.5085 1523.7463 0.0000 0.0000 1765.3769 -7578.8930 297.5144 -9344.2699 -7521.5674 301.4011 498.5857 534.8187 30333.9741 -22.5341 53.8038
ENERGY: 600000 1.5479 8.9346 5.6201 0.0000 -10857.8753 1504.0412 0.0000 0.0000 1778.5915 -7559.1400 299.7415 -9337.7315 -7533.0739 300.4015 390.8983 392.8658 30639.3025 144.6740 191.5055
ENERGY: 900000 1.6403 10.9043 4.2348 0.0000 -10826.5056 1482.1890 0.0000 0.0000 1819.0382 -7508.4990 306.5578 -9327.5372 -7537.7801 301.4838 655.3497 743.4669 30023.8121 235.6693 283.0840
ENERGY: 1200000 2.2648 3.9158 5.9007 0.0000 -10750.1775 1428.3267 0.0000 0.0000 1797.2873 -7512.4822 302.8922 -9309.7695 -7538.0390 301.2174 -343.8186 -253.4771 30832.9755 165.0891 213.3801
ENERGY: 1500000 2.8770 3.4422 5.2676 0.0000 -10797.1007 1417.7785 0.0000 0.0000 1786.0040 -7581.7315 300.9907 -9367.7355 -7544.2965 301.2617 -412.2173 -309.3942 30364.4267 87.5420 137.0271
TCL: Running FEP window   4: Lambda1 0.15000000000000002 Lambda2 0.2    [dLambda 0.04999999999999999]
TCL: Setting parameter firsttimestep to 0
TCL: Setting parameter alchLambda to 0.15000000000000002
Info: NONBONDED TABLE R-SQUARED SPACING: 0.0625
Info: NONBONDED TABLE SIZE: 705 POINTS
TCL: Setting parameter alchLambda2 to 0.2
Info: NONBONDED TABLE R-SQUARED SPACING: 0.0625
Info: NONBONDED TABLE SIZE: 705 POINTS
TCL: Running for 1500000 steps
ETITLE: TS BOND ANGLE DIHED IMPRP ELECT VDW BOUNDARY MISC KINETIC TOTAL TEMP POTENTIAL TOTALAVG TEMPAVG PRESSURE GPRESSURE VOLUME PRESSAVG GPRESSAVG
ENERGY: 0 2.8770 3.4422 5.2676 0.0000 -10797.1003 1417.7531 0.0000 0.0000 1785.1191 -7582.6414 300.8415 -9367.7605 -7582.6414 300.8415 -402.9283 -305.6021 30364.4267 -402.9283 -305.6021
ENERGY: 300000 1.9179 7.6153 7.4180 0.0000 -10793.1368 1425.0485 0.0000 0.0000 1779.8257 -7571.3115 299.9494 -9351.1371 -7558.3306 303.0757 -215.3278 -210.4941 30294.8234 -247.7188 -199.4217
ENERGY: 600000 0.9641 6.7260 4.8146 0.0000 -10768.3596 1447.8150 0.0000 0.0000 1743.9832 -7564.0566 293.9090 -9308.0399 -7546.5103 301.4947 15.3916 121.5162 30493.6381 -143.5301 -87.3928
ENERGY: 900000 1.9778 8.7273 5.4402 0.0000 -10677.9334 1361.5066 0.0000 0.0000 1813.6542 -7486.6273 305.6505 -9300.2815 -7544.9951 300.9157 -486.5038 -387.2865 30513.1192 -102.5982 -39.5236
ENERGY: 1200000 1.3604 7.8325 5.6163 0.0000 -10694.1896 1430.5318 0.0000 0.0000 1819.1360 -7429.7125 306.5743 -9248.8485 -7528.4525 301.0714 57.2306 122.3530 30582.3304 -106.3706 -38.4330
ENERGY: 1500000 1.4095 10.3253 6.6403 0.0000 -10922.5433 1561.0193 0.0000 0.0000 1789.7164 -7553.4326 301.6163 -9343.1490 -7529.7017 300.7113 609.6402 683.8967 30853.8955 -39.1443 31.0933
TCL: Running FEP window   5: Lambda1 0.2    Lambda2 0.25   [dLambda 0.04999999999999999]
TCL: Setting parameter firsttimestep to 0
TCL: Setting parameter alchLambda to 0.2
Info: NONBONDED TABLE R-SQUARED SPACING: 0.0625
Info: NONBONDED TABLE SIZE: 705 POINTS
TCL: Setting parameter alchLambda2 to 0.25
Info: NONBONDED TABLE R-SQUARED SPACING: 0.0625
Info: NONBONDED TABLE SIZE: 705 POINTS
TCL: Running for 1500000 steps
ETITLE: TS BOND ANGLE DIHED IMPRP ELECT VDW BOUNDARY MISC KINETIC TOTAL TEMP POTENTIAL TOTALAVG TEMPAVG PRESSURE GPRESSURE VOLUME PRESSAVG GPRESSAVG
ENERGY: 0 1.4095 10.3253 6.6403 0.0000 -10922.5429 1560.6634 0.0000 0.0000 1788.8362 -7554.6682 301.4680 -9343.5044 -7554.6682 301.4680 608.2430 686.3366 30853.8955 608.2430 686.3366
ENERGY: 300000 2.0824 7.6948 4.9393 0.0000 -10891.9869 1491.3613 0.0000 0.0000 1791.3060 -7594.6031 301.8842 -9385.9092 -7556.3606 299.0164 120.7685 189.7464 30560.8766 107.5819 188.9631
ENERGY: 600000 2.8215 5.1346 5.1084 0.0000 -10751.6243 1425.3223 0.0000 0.0000 1776.0040 -7537.2336 299.3054 -9313.2375 -7546.1006 300.2632 -179.4824 -142.5703 30620.0872 68.7854 151.9980
ENERGY: 900000 2.1475 9.3459 4.5569 0.0000 -10704.6579 1413.5725 0.0000 0.0000 1756.2293 -7518.8058 295.9728 -9275.0351 -7551.0014 298.5609 -178.8871 -183.0201 30886.2892 11.4308 79.3493
ENERGY: 1200000 4.6859 4.7876 5.9359 0.0000 -10724.6378 1369.7795 0.0000 0.0000 1706.4064 -7633.0424 287.5763 -9339.4488 -7549.9490 298.2625 -738.4756 -683.6391 30375.1484 -80.9175 -13.2471
ENERGY: 1500000 0.8082 7.4015 5.0135 0.0000 -10839.2163 1518.1700 0.0000 0.0000 1767.9256 -7539.8975 297.9439 -9307.8230 -7540.8269 299.9092 477.7743 563.7716 30664.7639 13.3506 78.9415
TCL: Running FEP window   6: Lambda1 0.25   Lambda2 0.3    [dLambda 0.04999999999999999]
TCL: Setting parameter firsttimestep to 0
TCL: Setting parameter alchLambda to 0.25
Info: NONBONDED TABLE R-SQUARED SPACING: 0.0625
Info: NONBONDED TABLE SIZE: 705 POINTS
TCL: Setting parameter alchLambda2 to 0.3
Info: NONBONDED TABLE R-SQUARED SPACING: 0.0625
Info: NONBONDED TABLE SIZE: 705 POINTS
TCL: Running for 1500000 steps
ETITLE: TS BOND ANGLE DIHED IMPRP ELECT VDW BOUNDARY MISC KINETIC TOTAL TEMP POTENTIAL TOTALAVG TEMPAVG PRESSURE GPRESSURE VOLUME PRESSAVG GPRESSAVG
ENERGY: 0 0.8082 7.4015 5.0135 0.0000 -10839.2150 1517.8881 0.0000 0.0000 1767.0143 -7541.0894 297.7904 -9308.1037 -7541.0894 297.7904 469.6671 568.3663 30664.7639 469.6671 568.3663
ENERGY: 300000 1.8329 4.6647 5.9261 0.0000 -10854.6518 1500.1208 0.0000 0.0000 1746.9338 -7595.1736 294.4063 -9342.1074 -7549.3156 300.9122 313.3042 407.7712 30293.9703 105.3925 187.0678
ENERGY: 600000 2.6523 7.3672 5.3815 0.0000 -10749.5926 1465.9926 0.0000 0.0000 1817.0703 -7451.1288 306.2262 -9268.1991 -7517.0508 303.2022 340.6916 335.3871 30610.2658 92.4474 152.4030
ENERGY: 900000 1.9599 5.3694 5.1914 0.0000 -10897.8267 1568.7311 0.0000 0.0000 1792.9582 -7523.6168 302.1626 -9316.5750 -7531.9752 302.6630 703.1374 725.2801 30692.4558 153.7401 209.9483
ENERGY: 1200000 1.1444 8.6299 5.0517 0.0000 -10863.3784 1508.9012 0.0000 0.0000 1794.9032 -7544.7480 302.4904 -9339.6512 -7534.8017 302.3872 303.8160 314.9340 30609.4584 97.0815 156.3970
ENERGY: 1500000 1.2330 6.7784 5.7098 0.0000 -10777.2071 1423.5211 0.0000 0.0000 1759.3421 -7580.6226 296.4974 -9339.9647 -7548.4633 300.7084 -96.3868 -85.4615 30539.3371 20.9495 80.7292
TCL: Running FEP window   7: Lambda1 0.3    Lambda2 0.35   [dLambda 0.04999999999999999]
TCL: Setting parameter firsttimestep to 0
TCL: Setting parameter alchLambda to 0.3
Info: NONBONDED TABLE R-SQUARED SPACING: 0.0625
Info: NONBONDED TABLE SIZE: 705 POINTS
TCL: Setting parameter alchLambda2 to 0.35
Info: NONBONDED TABLE R-SQUARED SPACING: 0.0625
Info: NONBONDED TABLE SIZE: 705 POINTS
TCL: Running for 1500000 steps
ETITLE: TS BOND ANGLE DIHED IMPRP ELECT VDW BOUNDARY MISC KINETIC TOTAL TEMP POTENTIAL TOTALAVG TEMPAVG PRESSURE GPRESSURE VOLUME PRESSAVG GPRESSAVG
ENERGY: 0 1.2330 6.7784 5.7098 0.0000 -10777.2062 1425.4458 0.0000 0.0000 1758.4609 -7579.5782 296.3489 -9338.0391 -7579.5782 296.3489 -146.6405 -76.2263 30539.3371 -146.6405 -76.2263
ENERGY: 300000 1.7677 5.9790 4.3911 0.0000 -10696.9553 1428.0351 0.0000 0.0000 1751.9844 -7504.7981 295.2574 -9256.7824 -7542.4886 296.1936 -125.4037 -170.7057 30952.3682 -187.1710 -119.0647
ENERGY: 600000 2.7792 8.8042 7.1839 0.0000 -10814.4265 1443.2491 0.0000 0.0000 1759.0840 -7593.3262 296.4539 -9352.4102 -7536.3950 297.2348 -185.8278 -153.4271 30678.9350 -184.2110 -119.6025
ENERGY: 900000 3.5760 3.7110 4.7909 0.0000 -10581.7414 1302.1414 0.0000 0.0000 1760.0737 -7507.4485 296.6207 -9267.5222 -7525.0681 298.2487 -1085.7506 -1001.9860 30820.6319 -160.0544 -94.0737
ENERGY: 1200000 3.7065 4.0329 5.4870 0.0000 -10705.4957 1428.3170 0.0000 0.0000 1802.9752 -7460.9772 303.8508 -9263.9524 -7523.5406 298.7619 -28.3217 7.2363 30717.6472 -149.6768 -86.6898
ENERGY: 1500000 2.1563 6.9585 5.1352 0.0000 -10950.3704 1494.3304 0.0000 0.0000 1752.9690 -7688.8210 295.4233 -9441.7900 -7533.5941 299.0661 21.3709 90.7887 30497.7402 -201.9250 -136.7834
TCL: Running FEP window   8: Lambda1 0.35   Lambda2 0.39999999999999997 [dLambda 0.04999999999999999]
TCL: Setting parameter firsttimestep to 0
TCL: Setting parameter alchLambda to 0.35
Info: NONBONDED TABLE R-SQUARED SPACING: 0.0625
Info: NONBONDED TABLE SIZE: 705 POINTS
TCL: Setting parameter alchLambda2 to 0.39999999999999997
Info: NONBONDED TABLE R-SQUARED SPACING: 0.0625
Info: NONBONDED TABLE SIZE: 705 POINTS
TCL: Running for 1500000 steps
ETITLE: TS BOND ANGLE DIHED IMPRP ELECT VDW BOUNDARY MISC KINETIC TOTAL TEMP POTENTIAL TOTALAVG TEMPAVG PRESSURE GPRESSURE VOLUME PRESSAVG GPRESSAVG
ENERGY: 0 2.1563 6.9585 5.1352 0.0000 -10950.3708 1494.7333 0.0000 0.0000 1752.0814 -7689.3062 295.2738 -9441.3876 -7689.3062 295.2738 8.6834 95.2861 30497.7402 8.6834 95.2861
ENERGY: 300000 1.8135 7.1566 6.6745 0.0000 -10732.8960 1468.7660 0.0000 0.0000 1822.3222 -7426.1632 307.1113 -9248.4853 -7534.6334 304.9889 596.3994 723.4521 30277.1210 137.6733 222.9677
ENERGY: 600000 1.7561 6.0155 4.8512 0.0000 -10688.3722 1417.2754 0.0000 0.0000 1780.0982 -7478.3758 299.9954 -9258.4740 -7543.0298 302.9990 56.6139 118.2769 30402.9642 13.7494 90.6420
ENERGY: 900000 1.0522 5.6752 5.9799 0.0000 -10914.5385 1489.2453 0.0000 0.0000 1710.7147 -7701.8714 288.3023 -9412.5860 -7561.8975 300.2427 -192.1112 -102.2665 30869.4795 -79.1627 2.6395
ENERGY: 1200000 3.7857 6.5541 5.1532 0.0000 -10743.7343 1393.3492 0.0000 0.0000 1784.7929 -7550.0991 300.7866 -9334.8921 -7554.6811 300.3284 -154.1363 -129.3043 30395.0292 -144.3663 -74.3309
ENERGY: 1500000 4.9202 4.8123 5.4600 0.0000 -10764.8163 1372.1126 0.0000 0.0000 1740.1144 -7637.3969 293.2570 -9377.5113 -7558.3700 299.9669 -753.0508 -775.9201 30603.3995 -128.6372 -63.2315
TCL: Running FEP window   9: Lambda1 0.39999999999999997 Lambda2 0.44999999999999996 [dLambda 0.04999999999999999]
TCL: Setting parameter firsttimestep to 0
TCL: Setting parameter alchLambda to 0.39999999999999997
Info: NONBONDED TABLE R-SQUARED SPACING: 0.0625
Info: NONBONDED TABLE SIZE: 705 POINTS
TCL: Setting parameter alchLambda2 to 0.44999999999999996
Info: NONBONDED TABLE R-SQUARED SPACING: 0.0625
Info: NONBONDED TABLE SIZE: 705 POINTS
TCL: Running for 1500000 steps
ETITLE: TS BOND ANGLE DIHED IMPRP ELECT VDW BOUNDARY MISC KINETIC TOTAL TEMP POTENTIAL TOTALAVG TEMPAVG PRESSURE GPRESSURE VOLUME PRESSAVG GPRESSAVG
ENERGY: 0 4.9202 4.8123 5.4600 0.0000 -10764.8169 1371.9077 0.0000 0.0000 1739.2416 -7638.4752 293.1099 -9377.7168 -7638.4752 293.1099 -851.0964 -772.2271 30603.3995 -851.0964 -772.2271
ENERGY: 300000 1.4940 6.8436 5.0588 0.0000 -10733.0908 1388.7090 0.0000 0.0000 1777.0263 -7553.9590 299.4777 -9330.9853 -7556.1439 299.5564 -407.8474 -390.7656 30672.5801 -245.9000 -180.3339
ENERGY: 600000 0.7491 5.9449 5.2066 0.0000 -10800.1474 1440.7975 0.0000 0.0000 1828.3425 -7519.1067 308.1259 -9347.4492 -7568.3393 299.9592 -75.3365 -30.6129 30666.5108 -189.2767 -121.8421
ENERGY: 900000 2.9274 6.0332 5.4221 0.0000 -10781.9353 1377.7403 0.0000 0.0000 1809.9517 -7579.8607 305.0265 -9389.8124 -7565.1906 300.1404 -712.5129 -536.7301 30277.9258 -183.0357 -109.5296
ENERGY: 1200000 3.7678 5.3565 4.6583 0.0000 -10925.4144 1497.1564 0.0000 0.0000 1771.6323 -7642.8431 298.5686 -9414.4754 -7561.6154 300.6352 277.0080 259.8020 30464.5088 -171.5949 -111.7232
ENERGY: 1500000 2.5756 6.1941 5.6944 0.0000 -10822.5159 1424.8650 0.0000 0.0000 1734.2617 -7648.9251 292.2707 -9383.1867 -7576.0545 298.7108 -322.7470 -218.6934 30383.1250 -183.2838 -120.2043
TCL: Running FEP window  10: Lambda1 0.44999999999999996 Lambda2 0.49999999999999994 [dLambda 0.04999999999999999]
TCL: Setting parameter firsttimestep to 0
TCL: Setting parameter alchLambda to 0.44999999999999996
Info: NONBONDED TABLE R-SQUARED SPACING: 0.0625
Info: NONBONDED TABLE SIZE: 705 POINTS
TCL: Setting parameter alchLambda2 to 0.49999999999999994
Info: NONBONDED TABLE R-SQUARED SPACING: 0.0625
Info: NONBONDED TABLE SIZE: 705 POINTS
TCL: Running for 1500000 steps
ETITLE: TS BOND ANGLE DIHED IMPRP ELECT VDW BOUNDARY MISC KINETIC TOTAL TEMP POTENTIAL TOTALAVG TEMPAVG PRESSURE GPRESSURE VOLUME PRESSAVG GPRESSAVG
ENERGY: 0 2.5756 6.1941 5.6944 0.0000 -10822.5161 1424.9246 0.0000 0.0000 1733.3905 -7649.7369 292.1238 -9383.1273 -7649.7369 292.1238 -297.0102 -213.1927 30383.1250 -297.0102 -213.1927
ENERGY: 300000 2.0749 6.7439 6.2242 0.0000 -10850.3932 1422.3236 0.0000 0.0000 1766.2424 -7646.7842 297.6603 -9413.0267 -7563.3680 299.9144 -554.3644 -494.7545 30765.0633 -410.7398 -350.5643
ENERGY: 600000 2.3363 7.7229 4.7645 0.0000 -11068.1421 1627.5393 0.0000 0.0000 1739.1012 -7686.6780 293.0862 -9425.7792 -7569.8700 300.2655 1341.4259 1352.1518 30040.3142 6.1132 43.3054
ENERGY: 900000 3.0664 6.9050 4.8766 0.0000 -10826.0875 1518.8572 0.0000 0.0000 1842.6984 -7449.6838 310.5452 -9292.3823 -7554.7557 300.0250 908.9371 953.3615 30185.3954 90.9063 126.4663
ENERGY: 1200000 2.4393 8.3655 8.0074 0.0000 -10731.1390 1418.0015 0.0000 0.0000 1823.6833 -7470.6419 307.3407 -9294.3252 -7548.2374 300.9649 -310.1892 -249.6827 30835.4153 -7.9241 30.1126
ENERGY: 1500000 2.4705 5.0106 5.6721 0.0000 -10600.1413 1383.8553 0.0000 0.0000 1799.3453 -7403.7875 303.2390 -9203.1328 -7537.2302 301.2590 10.4406 27.5379 30493.1963 -78.8752 -41.7801
TCL: Running FEP window  11: Lambda1 0.49999999999999994 Lambda2 0.5499999999999999 [dLambda 0.04999999999999999]
TCL: Setting parameter firsttimestep to 0
TCL: Setting parameter alchLambda to 0.49999999999999994
Info: NONBONDED TABLE R-SQUARED SPACING: 0.0625
Info: NONBONDED TABLE SIZE: 705 POINTS
TCL: Setting parameter alchLambda2 to 0.5499999999999999
Info: NONBONDED TABLE R-SQUARED SPACING: 0.0625
Info: NONBONDED TABLE SIZE: 705 POINTS
TCL: Running for 1500000 steps
ETITLE: TS BOND ANGLE DIHED IMPRP ELECT VDW BOUNDARY MISC KINETIC TOTAL TEMP POTENTIAL TOTALAVG TEMPAVG PRESSURE GPRESSURE VOLUME PRESSAVG GPRESSAVG
ENERGY: 0 2.4705 5.0106 5.6721 0.0000 -10600.1415 1384.2064 0.0000 0.0000 1798.4415 -7404.3404 303.0867 -9202.7818 -7404.3404 303.0867 -50.0830 36.5292 30493.1963 -50.0830 36.5292
ENERGY: 300000 4.4043 6.7300 6.1121 0.0000 -10734.9819 1450.7503 0.0000 0.0000 1717.1214 -7549.8637 289.3821 -9266.9852 -7496.5998 299.5605 -167.0299 -40.0478 30972.4259 -415.7000 -337.6546
ENERGY: 600000 1.5723 4.2439 5.5263 0.0000 -10801.0393 1450.6343 0.0000 0.0000 1813.1907 -7525.8718 305.5724 -9339.0625 -7518.7100 300.7573 -59.2773 15.4506 30526.9090 -391.9254 -314.9541
ENERGY: 900000 1.2022 6.4348 6.3388 0.0000 -10848.8622 1455.7914 0.0000 0.0000 1792.3873 -7586.7077 302.0664 -9379.0950 -7522.6180 302.0377 110.5966 170.0606 30505.4975 -197.0537 -122.6436
ENERGY: 1200000 0.2821 5.0270 5.3069 0.0000 -10742.8011 1447.5600 0.0000 0.0000 1754.4158 -7530.2094 295.6672 -9284.6252 -7519.3369 302.1577 -21.1446 25.2831 30799.7003 -105.3369 -32.9409
ENERGY: 1500000 2.6858 8.2374 5.5807 0.0000 -10823.5250 1483.2010 0.0000 0.0000 1781.9201 -7541.8999 300.3024 -9323.8201 -7517.3386 302.2478 219.4296 237.4834 30740.4579 -75.0467 -5.8609
TCL: Running FEP window  12: Lambda1 0.5499999999999999 Lambda2 0.6    [dLambda 0.050000000000000044]
TCL: Setting parameter firsttimestep to 0
TCL: Setting parameter alchLambda to 0.5499999999999999
Info: NONBONDED TABLE R-SQUARED SPACING: 0.0625
Info: NONBONDED TABLE SIZE: 705 POINTS
TCL: Setting parameter alchLambda2 to 0.6
Info: NONBONDED TABLE R-SQUARED SPACING: 0.0625
Info: NONBONDED TABLE SIZE: 705 POINTS
TCL: Running for 1500000 steps
ETITLE: TS BOND ANGLE DIHED IMPRP ELECT VDW BOUNDARY MISC KINETIC TOTAL TEMP POTENTIAL TOTALAVG TEMPAVG PRESSURE GPRESSURE VOLUME PRESSAVG GPRESSAVG
ENERGY: 0 2.6858 8.2375 5.5807 0.0000 -10823.5640 1483.5385 0.0000 0.0000 1781.0428 -7542.4787 300.1546 -9323.5215 -7542.4787 300.1546 160.1582 245.8678 30740.4579 160.1582 245.8678
ENERGY: 300000 1.0126 5.6791 4.5502 0.0000 -10756.4502 1421.7905 0.0000 0.0000 1741.6856 -7581.7323 293.5218 -9323.4179 -7563.7587 297.0022 -329.1910 -286.5944 30676.3002 81.4670 133.9521
ENERGY: 600000 0.8025 7.0631 4.7595 0.0000 -10761.3006 1467.5530 0.0000 0.0000 1810.8017 -7470.3207 305.1698 -9281.1225 -7533.1305 300.0443 73.1933 181.7570 31075.3208 132.1287 194.8685
ENERGY: 900000 1.9226 10.8428 5.3995 0.0000 -10875.7066 1534.6884 0.0000 0.0000 1782.0469 -7540.8065 300.3238 -9322.8534 -7526.3275 301.0948 730.8499 797.9895 30379.0502 35.8030 107.0229
ENERGY: 1200000 0.6827 5.7014 4.8378 0.0000 -10728.8509 1411.2325 0.0000 0.0000 1811.2725 -7495.1240 305.2491 -9306.3965 -7536.2196 300.7177 -425.8196 -331.1354 31023.9286 -9.9326 65.7941
ENERGY: 1500000 2.2220 9.7954 6.4572 0.0000 -10798.9204 1489.3988 0.0000 0.0000 1774.8498 -7516.1971 299.1109 -9291.0469 -7537.8330 300.6239 322.6421 371.2685 31091.8937 -50.3091 21.7874
TCL: Running FEP window  13: Lambda1 0.6    Lambda2 0.65   [dLambda 0.050000000000000044]
TCL: Setting parameter firsttimestep to 0
TCL: Setting parameter alchLambda to 0.6
Info: NONBONDED TABLE R-SQUARED SPACING: 0.0625
Info: NONBONDED TABLE SIZE: 705 POINTS
TCL: Setting parameter alchLambda2 to 0.65
Info: NONBONDED TABLE R-SQUARED SPACING: 0.0625
Info: NONBONDED TABLE SIZE: 705 POINTS
TCL: Running for 1500000 steps
ETITLE: TS BOND ANGLE DIHED IMPRP ELECT VDW BOUNDARY MISC KINETIC TOTAL TEMP POTENTIAL TOTALAVG TEMPAVG PRESSURE GPRESSURE VOLUME PRESSAVG GPRESSAVG
ENERGY: 0 2.2220 9.7954 6.4572 0.0000 -10798.8882 1489.3352 0.0000 0.0000 1773.9858 -7517.0926 298.9653 -9291.0784 -7517.0926 298.9653 301.3812 375.1861 31091.8937 301.3812 375.1861
ENERGY: 300000 2.3841 8.7149 3.9975 0.0000 -10790.5600 1519.3164 0.0000 0.0000 1821.1604 -7434.9867 306.9155 -9256.1471 -7498.9492 303.7216 890.6312 905.5900 30582.6487 213.5851 243.9563
ENERGY: 600000 0.9242 5.0867 5.1771 0.0000 -10690.9301 1410.4507 0.0000 0.0000 1791.8329 -7477.4584 301.9730 -9269.2913 -7515.4747 300.3953 -94.7755 -1.2315 30712.1589 314.0428 344.8312
ENERGY: 900000 2.0743 4.9347 4.7457 0.0000 -10711.7713 1399.7213 0.0000 0.0000 1807.1059 -7493.1894 304.5469 -9300.2952 -7516.3788 301.2370 -463.1532 -417.7714 30949.9056 213.8118 248.2535
ENERGY: 1200000 1.5149 7.2658 5.2516 0.0000 -10850.7991 1460.0775 0.0000 0.0000 1811.7060 -7564.9833 305.3222 -9376.6893 -7526.8721 301.5083 -217.4860 -88.7290 30797.4683 226.2275 271.1340
ENERGY: 1500000 0.9349 6.1325 6.6085 0.0000 -10864.8089 1499.0927 0.0000 0.0000 1778.6808 -7573.3595 299.7565 -9352.0403 -7535.4451 301.5995 132.2915 208.0119 30779.8252 199.0058 249.5253
TCL: Running FEP window  14: Lambda1 0.65   Lambda2 0.7000000000000001 [dLambda 0.050000000000000044]
TCL: Setting parameter firsttimestep to 0
TCL: Setting parameter alchLambda to 0.65
Info: NONBONDED TABLE R-SQUARED SPACING: 0.0625
Info: NONBONDED TABLE SIZE: 705 POINTS
TCL: Setting parameter alchLambda2 to 0.7000000000000001
Info: NONBONDED TABLE R-SQUARED SPACING: 0.0625
Info: NONBONDED TABLE SIZE: 705 POINTS
TCL: Running for 1500000 steps
ETITLE: TS BOND ANGLE DIHED IMPRP ELECT VDW BOUNDARY MISC KINETIC TOTAL TEMP POTENTIAL TOTALAVG TEMPAVG PRESSURE GPRESSURE VOLUME PRESSAVG GPRESSAVG
ENERGY: 0 0.9349 6.1325 6.6085 0.0000 -10864.8107 1499.0032 0.0000 0.0000 1777.8015 -7574.3301 299.6083 -9352.1317 -7574.3301 299.6083 136.7753 217.8346 30779.8252 136.7753 217.8346
ENERGY: 300000 3.8607 6.4582 5.0107 0.0000 -10731.1683 1403.8560 0.0000 0.0000 1727.5274 -7584.4553 291.1357 -9311.9827 -7566.7680 297.2959 -524.5145 -524.1627 30890.4941 -478.2588 -412.2279
ENERGY: 600000 2.1870 11.8216 5.2815 0.0000 -10622.9901 1372.9779 0.0000 0.0000 1746.4754 -7484.2467 294.3290 -9230.7221 -7564.7959 297.7287 -363.1036 -349.0143 31075.4317 -295.9049 -240.0912
ENERGY: 900000 0.7983 6.5387 5.8310 0.0000 -10774.5802 1392.5311 0.0000 0.0000 1809.3060 -7559.5751 304.9177 -9368.8811 -7546.5840 299.9962 -663.6057 -541.7157 30643.0169 -193.7507 -131.4129
ENERGY: 1200000 0.7168 10.1527 4.0165 0.0000 -10821.5899 1440.2824 0.0000 0.0000 1776.9561 -7589.4654 299.4658 -9366.4216 -7552.4608 299.6695 90.0802 158.4166 30114.2863 -155.4705 -101.5119
ENERGY: 1500000 1.7693 5.0143 5.1732 0.0000 -10737.9923 1312.8275 0.0000 0.0000 1766.4315 -7646.7765 297.6922 -9413.2081 -7552.5611 299.6557 -1389.8809 -1292.2356 31016.3052 -179.0193 -123.4485
TCL: Running FEP window  15: Lambda1 0.7000000000000001 Lambda2 0.7500000000000001 [dLambda 0.050000000000000044]
TCL: Setting parameter firsttimestep to 0
TCL: Setting parameter alchLambda to 0.7000000000000001
Info: NONBONDED TABLE R-SQUARED SPACING: 0.0625
Info: NONBONDED TABLE SIZE: 705 POINTS
TCL: Setting parameter alchLambda2 to 0.7500000000000001
Info: NONBONDED TABLE R-SQUARED SPACING: 0.0625
Info: NONBONDED TABLE SIZE: 705 POINTS
TCL: Running for 1500000 steps
ETITLE: TS BOND ANGLE DIHED IMPRP ELECT VDW BOUNDARY MISC KINETIC TOTAL TEMP POTENTIAL TOTALAVG TEMPAVG PRESSURE GPRESSURE VOLUME PRESSAVG GPRESSAVG
ENERGY: 0 1.7693 5.0143 5.1732 0.0000 -10737.9714 1312.3088 0.0000 0.0000 1765.5353 -7648.1705 297.5411 -9413.7058 -7648.1705 297.5411 -1370.0417 -1294.6603 31016.3052 -1370.0417 -1294.6603
ENERGY: 300000 1.0282 7.5905 6.3369 0.0000 -10797.7806 1412.9120 0.0000 0.0000 1794.2001 -7575.7129 302.3719 -9369.9130 -7591.7237 300.8652 -222.8054 -172.0589 30519.6651 -237.3199 -178.6388
ENERGY: 600000 0.4863 4.4166 6.0288 0.0000 -10825.0034 1433.3902 0.0000 0.0000 1794.4698 -7586.2115 302.4174 -9380.6814 -7574.3011 300.2128 -390.3355 -364.7842 30782.2615 -374.0041 -324.7881
ENERGY: 900000 0.4475 5.1503 4.8684 0.0000 -10841.9724 1501.0089 0.0000 0.0000 1779.5092 -7550.9882 299.8961 -9330.4974 -7568.8281 299.3617 402.8770 479.6858 30601.7204 -263.8061 -210.8656
ENERGY: 1200000 2.4854 5.9786 5.0490 0.0000 -10832.6723 1467.5155 0.0000 0.0000 1726.6693 -7624.9744 290.9911 -9351.6438 -7561.3956 298.5047 91.6620 110.5822 30893.4606 -216.8042 -156.7164
ENERGY: 1500000 3.6010 12.3706 6.3362 0.0000 -10885.4055 1451.2940 0.0000 0.0000 1767.9061 -7643.8975 297.9407 -9411.8037 -7561.9734 298.7764 -310.0312 -231.9733 30514.1653 -135.2460 -76.9150
TCL: Running FEP window  16: Lambda1 0.7500000000000001 Lambda2 0.8000000000000002 [dLambda 0.050000000000000044]
TCL: Setting parameter firsttimestep to 0
TCL: Setting parameter alchLambda to 0.7500000000000001
Info: NONBONDED TABLE R-SQUARED SPACING: 0.0625
Info: NONBONDED TABLE SIZE: 705 POINTS
TCL: Setting parameter alchLambda2 to 0.8000000000000002
Info: NONBONDED TABLE R-SQUARED SPACING: 0.0625
Info: NONBONDED TABLE SIZE: 705 POINTS
TCL: Running for 1500000 steps
ETITLE: TS BOND ANGLE DIHED IMPRP ELECT VDW BOUNDARY MISC KINETIC TOTAL TEMP POTENTIAL TOTALAVG TEMPAVG PRESSURE GPRESSURE VOLUME PRESSAVG GPRESSAVG
ENERGY: 0 3.6010 12.3706 6.3362 0.0000 -10885.4102 1451.5821 0.0000 0.0000 1767.0380 -7644.4822 297.7944 -9411.5202 -7644.4822 297.7944 -304.2477 -218.8870 30514.1653 -304.2477 -218.8870
ENERGY: 300000 3.0132 5.2699 5.3668 0.0000 -10800.1752 1467.0142 0.0000 0.0000 1750.4999 -7569.0112 295.0072 -9319.5111 -7544.2825 302.3881 208.5915 175.5314 30482.0697 -112.4128 -75.2196
ENERGY: 600000 2.7187 7.2503 7.0219 0.0000 -10800.2300 1451.3752 0.0000 0.0000 1787.9687 -7543.8953 301.3218 -9331.8640 -7544.9029 301.9056 282.5051 379.3014 30273.4097 -68.7315 -9.1209
ENERGY: 900000 0.6844 10.3670 3.7743 0.0000 -10772.3733 1432.2496 0.0000 0.0000 1810.8138 -7514.4842 305.1718 -9325.2981 -7549.9270 300.5200 -384.2433 -292.1534 31114.9148 -80.5372 -11.5913
ENERGY: 1200000 0.9241 4.7779 5.0394 0.0000 -10756.6458 1518.6824 0.0000 0.0000 1776.1755 -7451.0465 299.3343 -9227.2220 -7540.9185 300.1588 769.2100 807.7637 31113.1565 -3.7496 61.4092
ENERGY: 1500000 0.9853 4.8200 5.5173 0.0000 -10830.1784 1481.4647 0.0000 0.0000 1797.6485 -7539.7426 302.9531 -9337.3911 -7546.3483 299.8088 53.1999 120.6862 30757.7331 33.5039 100.3942
TCL: Running FEP window  17: Lambda1 0.8000000000000002 Lambda2 0.8500000000000002 [dLambda 0.050000000000000044]
TCL: Setting parameter firsttimestep to 0
TCL: Setting parameter alchLambda to 0.8000000000000002
Info: NONBONDED TABLE R-SQUARED SPACING: 0.0625
Info: NONBONDED TABLE SIZE: 705 POINTS
TCL: Setting parameter alchLambda2 to 0.8500000000000002
Info: NONBONDED TABLE R-SQUARED SPACING: 0.0625
Info: NONBONDED TABLE SIZE: 705 POINTS
TCL: Running for 1500000 steps
ETITLE: TS BOND ANGLE DIHED IMPRP ELECT VDW BOUNDARY MISC KINETIC TOTAL TEMP POTENTIAL TOTALAVG TEMPAVG PRESSURE GPRESSURE VOLUME PRESSAVG GPRESSAVG
ENERGY: 0 0.9853 4.8200 5.5173 0.0000 -10830.2915 1482.6954 0.0000 0.0000 1796.7930 -7539.4805 302.8089 -9336.2735 -7539.4805 302.8089 60.8364 142.9529 30757.7331 60.8364 142.9529
ENERGY: 300000 1.8389 6.8260 4.5484 0.0000 -10812.4509 1410.2753 0.0000 0.0000 1824.4957 -7564.4665 307.4776 -9388.9622 -7532.2517 304.8221 -156.6778 -97.5786 30014.1028 -349.6592 -263.8968
ENERGY: 600000 2.3365 6.3337 5.4230 0.0000 -10866.4921 1486.5581 0.0000 0.0000 1730.5339 -7635.3068 291.6424 -9365.8407 -7559.5975 299.7559 202.0973 161.6362 30469.4169 -393.2487 -334.2670
ENERGY: 900000 1.1482 9.1353 5.1392 0.0000 -10829.6399 1454.0958 0.0000 0.0000 1729.9439 -7630.1776 291.5430 -9360.1214 -7564.7481 298.9670 -49.4714 -11.1909 30881.9535 -241.0421 -172.7160
ENERGY: 1200000 3.7690 13.1367 6.3247 0.0000 -10773.0010 1452.2557 0.0000 0.0000 1800.7874 -7496.7274 303.4821 -9297.5148 -7552.9361 300.0628 -182.4645 -129.6131 31171.9767 -138.1157 -70.4431
ENERGY: 1500000 1.9225 5.0931 5.5013 0.0000 -10825.0681 1433.7164 0.0000 0.0000 1796.8686 -7581.9661 302.8216 -9378.8348 -7557.7084 300.0081 -215.0708 -162.0468 30555.2844 -98.1149 -34.8282
TCL: Running FEP window  18: Lambda1 0.8500000000000002 Lambda2 0.9000000000000002 [dLambda 0.050000000000000044]
TCL: Setting parameter firsttimestep to 0
TCL: Setting parameter alchLambda to 0.8500000000000002
Info: NONBONDED TABLE R-SQUARED SPACING: 0.0625
Info: NONBONDED TABLE SIZE: 705 POINTS
TCL: Setting parameter alchLambda2 to 0.9000000000000002
Info: NONBONDED TABLE R-SQUARED SPACING: 0.0625
Info: NONBONDED TABLE SIZE: 705 POINTS
TCL: Running for 1500000 steps
ETITLE: TS BOND ANGLE DIHED IMPRP ELECT VDW BOUNDARY MISC KINETIC TOTAL TEMP POTENTIAL TOTALAVG TEMPAVG PRESSURE GPRESSURE VOLUME PRESSAVG GPRESSAVG
ENERGY: 0 1.9225 5.0931 5.5013 0.0000 -10825.2043 1434.1721 0.0000 0.0000 1795.9478 -7582.5673 302.6665 -9378.5152 -7582.5673 302.6665 -220.9244 -145.9598 30555.2844 -220.9244 -145.9598
ENERGY: 300000 4.5657 10.5913 4.6910 0.0000 -10740.7401 1398.5804 0.0000 0.0000 1822.4308 -7499.8808 307.1296 -9322.3116 -7521.3366 302.5486 -707.9517 -669.6741 31260.8408 -3.5471 48.0609
ENERGY: 600000 1.2153 6.1195 3.8047 0.0000 -10716.8529 1413.0665 0.0000 0.0000 1799.5952 -7493.0517 303.2811 -9292.6469 -7535.1776 299.9080 -510.9750 -441.0315 31539.7520 -140.7596 -105.4117
ENERGY: 900000 3.3617 7.8722 5.9635 0.0000 -10633.2055 1356.6375 0.0000 0.0000 1752.9626 -7506.4081 295.4223 -9259.3707 -7531.2013 299.6619 -712.4827 -628.5265 30858.2006 -197.4824 -156.3116
ENERGY: 1200000 1.6953 5.2626 5.1093 0.0000 -10987.5992 1613.3789 0.0000 0.0000 1760.3885 -7601.7645 296.6737 -9362.1530 -7549.8148 300.0084 1300.4446 1318.4936 30390.3208 -98.9086 -53.1810
ENERGY: 1500000 0.6938 6.8459 4.5927 0.0000 -10660.7646 1329.5108 0.0000 0.0000 1808.3784 -7510.7429 304.7614 -9319.1214 -7547.8337 300.6369 -1064.0940 -964.2472 31280.7061 -114.8989 -66.3317
TCL: Running FEP window  19: Lambda1 0.9000000000000002 Lambda2 0.9500000000000003 [dLambda 0.050000000000000044]
TCL: Setting parameter firsttimestep to 0
TCL: Setting parameter alchLambda to 0.9000000000000002
Info: NONBONDED TABLE R-SQUARED SPACING: 0.0625
Info: NONBONDED TABLE SIZE: 705 POINTS
TCL: Setting parameter alchLambda2 to 0.9500000000000003
Info: NONBONDED TABLE R-SQUARED SPACING: 0.0625
Info: NONBONDED TABLE SIZE: 705 POINTS
TCL: Running for 1500000 steps
ETITLE: TS BOND ANGLE DIHED IMPRP ELECT VDW BOUNDARY MISC KINETIC TOTAL TEMP POTENTIAL TOTALAVG TEMPAVG PRESSURE GPRESSURE VOLUME PRESSAVG GPRESSAVG
ENERGY: 0 0.6938 6.8459 4.5927 0.0000 -10661.0159 1329.3510 0.0000 0.0000 1807.5013 -7512.0312 304.6135 -9319.5324 -7512.0312 304.6135 -1032.6433 -958.7125 31280.7061 -1032.6433 -958.7125
ENERGY: 300000 2.4513 7.0486 5.8202 0.0000 -10816.2449 1476.7298 0.0000 0.0000 1803.5626 -7520.6324 303.9498 -9324.1950 -7518.3549 302.1865 166.4275 265.9056 30504.2936 -339.9065 -284.7902
ENERGY: 600000 1.7944 4.0193 5.9039 0.0000 -10884.5131 1509.3393 0.0000 0.0000 1791.4081 -7572.0481 301.9014 -9363.4562 -7555.6531 301.2440 -2.1197 119.4449 30987.4087 -252.3307 -191.3546
ENERGY: 900000 2.8607 7.0627 4.8675 0.0000 -10906.9915 1528.8742 0.0000 0.0000 1752.1808 -7611.1457 295.2905 -9363.3265 -7552.0495 299.7826 259.4003 306.6299 30932.7483 -143.4265 -80.4184
ENERGY: 1200000 2.3768 4.9301 4.6845 0.0000 -10834.5564 1479.8671 0.0000 0.0000 1761.7908 -7580.9071 296.9101 -9342.6978 -7547.3069 300.4978 -42.9264 -4.2763 31050.8579 -142.7271 -79.7009
ENERGY: 1500000 0.9200 6.8719 5.9300 0.0000 -10782.9058 1457.8939 0.0000 0.0000 1808.0344 -7503.2557 304.7034 -9311.2901 -7537.2171 300.8833 406.2290 516.8619 30300.2596 -12.9744 53.2083
TCL: Running FEP window  20: Lambda1 0.9500000000000003 Lambda2 1.0    [dLambda 0.04999999999999971]
TCL: Setting parameter firsttimestep to 0
TCL: Setting parameter alchLambda to 0.9500000000000003
Info: NONBONDED TABLE R-SQUARED SPACING: 0.0625
Info: NONBONDED TABLE SIZE: 705 POINTS
TCL: Setting parameter alchLambda2 to 1.0
Info: NONBONDED TABLE R-SQUARED SPACING: 0.0625
Info: NONBONDED TABLE SIZE: 705 POINTS
TCL: Running for 1500000 steps
ETITLE: TS BOND ANGLE DIHED IMPRP ELECT VDW BOUNDARY MISC KINETIC TOTAL TEMP POTENTIAL TOTALAVG TEMPAVG PRESSURE GPRESSURE VOLUME PRESSAVG GPRESSAVG
ENERGY: 0 0.9200 6.8719 5.9300 0.0000 -10782.8840 1458.3176 0.0000 0.0000 1807.1592 -7503.6854 304.5559 -9310.8446 -7503.6854 304.5559 452.4315 536.3174 30300.2596 452.4315 536.3174
ENERGY: 300000 1.8678 10.5148 6.1018 0.0000 -10716.3258 1389.6382 0.0000 0.0000 1801.7958 -7506.4075 303.6520 -9308.2033 -7546.0706 300.9835 -673.0163 -568.1190 31227.0608 -88.1663 -30.2695
ENERGY: 600000 0.7738 8.3440 6.2195 0.0000 -10812.7832 1433.5259 0.0000 0.0000 1760.0990 -7603.8209 296.6250 -9363.9199 -7556.8636 299.4866 -297.1407 -138.4738 30553.0158 -194.0652 -114.1941
ENERGY: 900000 1.1971 6.0512 5.5729 0.0000 -10830.5452 1482.4863 0.0000 0.0000 1761.5096 -7573.7280 296.8627 -9335.2376 -7553.2109 299.9875 -14.5725 39.2546 30741.9493 -88.2002 -12.1186
ENERGY: 1200000 1.4264 5.8229 4.4199 0.0000 -10695.2560 1414.9030 0.0000 0.0000 1831.6359 -7437.0479 308.6809 -9268.6838 -7553.2778 300.5150 -186.3535 -152.0752 30990.5486 -56.7396 4.4759
ENERGY: 1500000 3.2185 7.2179 7.0215 0.0000 -10766.5884 1460.9298 0.0000 0.0000 1743.0139 -7545.1868 293.7456 -9288.2007 -7552.9042 300.0384 212.7552 299.8821 30624.6045 -126.1840 -64.0916
TCL: Exiting due to exit command.
