Info: SIMULATION PARAMETERS:
Info: TIMESTEP               2
Info: NUMBER OF STEPS        0
Info: STEPS PER CYCLE        10
Info: PERIODIC CELL BASIS 1  30.8085 0 0
Info: PERIODIC CELL BASIS 2  0 31.5667 0
Info: PERIODIC CELL BASIS 3  0 0 31.2752
Info: PERIODIC CELL CENTER   0 0 0
Info: WRAPPING WATERS AROUND PERIODIC BOUNDARIES ON OUTPUT.
Info: WRAPPING ALL CLUSTERS AROUND PERIODIC BOUNDARIES ON OUTPUT.
Info: FIRST LDB TIMESTEP     50
Info: LAST LDB TIMESTEP     -1
Info: HOM BACKGROUND SCALING 1
Info: PME BACKGROUND SCALING 1
Info: MIN ATOMS PER PATCH    40
Info: EMPTY PATCH LOAD       40 ATOMS
Info: VELOCITY FILE          mobley_8191186_equil.vel
Info: CENTER OF MASS MOVING INITIALLY? NO
Info: DIELECTRIC             1
Info: EXCLUDE                SCALED ONE-FOUR
Info: 1-4 ELECTROSTATICS SCALED BY 0.833333
Info: MODIFIED 1-4 VDW PARAMETERS WILL BE USED
Info: DCD FILENAME           mobley_8191186_prod.dcd
Info: DCD FREQUENCY          100000
Info: DCD FIRST STEP         100000
Info: DCD FILE WILL CONTAIN UNIT CELL DATA
Info: XST FILENAME           mobley_8191186_prod.xst
Info: XST FREQUENCY          100000
Info: NO VELOCITY DCD OUTPUT
Info: NO FORCE DCD OUTPUT
Info: OUTPUT FILENAME        mobley_8191186_prod
Info: BINARY OUTPUT FILES WILL BE USED
Info: RESTART FILENAME       mobley_8191186_prod.restart
Info: RESTART FREQUENCY      100000
Info: BINARY RESTART FILES WILL BE USED
Info: CUTOFF                 9
Info: PAIRLIST DISTANCE      11
Info: PAIRLIST SHRINK RATE   0.01
Info: PAIRLIST GROW RATE     0.01
Info: PAIRLIST TRIGGER       0.3
Info: PAIRLISTS PER CYCLE    2
Info: PAIRLISTS ENABLED
Info: MARGIN                 2
Info: HYDROGEN GROUP CUTOFF  2.5
Info: PATCH DIMENSION        15.5
Info: ENERGY OUTPUT STEPS    100000
Info: ENERGY EVALUATION STEPS    100000
Info: OUTPUT ENERGY PRECISION 4
Info: CROSSTERM ENERGY INCLUDED IN DIHEDRAL
Info: TIMING OUTPUT STEPS    1000000
Info: PRESSURE OUTPUT STEPS  100000
Info: ALCHEMICAL FEP ON
Info: FEP CURRENT LAMBDA VALUE     1
Info: FEP COMPARISON LAMBDA VALUE  0.95
Info: FEP INTRA-ALCHEMICAL NON-BONDED INTERACTIONS WILL BE RETAINED
Info: FEP INTRA-ALCHEMICAL BONDED INTERACTIONS WILL BE RETAINED
Info: FEP VDW SHIFTING COEFFICIENT 5
Info: FEP ELEC. ACTIVE FOR ANNIHILATED PARTICLES BETWEEN LAMBDA = 0 AND LAMBDA = 0.5
Info: FEP ELEC. ACTIVE FOR EXNIHILATED PARTICLES BETWEEN LAMBDA = 0.5 AND LAMBDA = 1
Info: FEP VDW ACTIVE FOR ANNIHILATED PARTICLES BETWEEN LAMBDA = 0 AND LAMBDA = 1
Info: FEP VDW ACTIVE FOR EXNIHILATED PARTICLES BETWEEN LAMBDA = 0 AND LAMBDA = 1
Info: FEP BOND ACTIVE FOR ANNIHILATED PARTICLES BETWEEN LAMBDA = 1 AND LAMBDA = 1
Info: FEP BOND ACTIVE FOR EXNIHILATED PARTICLES BETWEEN LAMBDA = 0 AND LAMBDA = 0
Info: LANGEVIN DYNAMICS ACTIVE
Info: LANGEVIN TEMPERATURE   300
Info: LANGEVIN USING BBK INTEGRATOR
Info: LANGEVIN DAMPING COEFFICIENT IS 1 INVERSE PS
Info: LANGEVIN DYNAMICS APPLIED TO HYDROGENS
Info: LANGEVIN PISTON PRESSURE CONTROL ACTIVE
Info:        TARGET PRESSURE IS 1.01325 BAR
Info:     OSCILLATION PERIOD IS 50 FS
Info:             DECAY TIME IS 25 FS
Info:     PISTON TEMPERATURE IS 300 K
Info:       PRESSURE CONTROL IS GROUP-BASED
Info:    INITIAL STRAIN RATE IS -0.000672652 -0.000672652 -0.000672652
Info:       CELL FLUCTUATION IS ISOTROPIC
Info: PARTICLE MESH EWALD (PME) ACTIVE
Info: PME TOLERANCE               1e-06
Info: PME EWALD COEFFICIENT       0.348832
Info: PME INTERPOLATION ORDER     4
Info: PME GRID DIMENSIONS         32 32 32
Info: PME MAXIMUM GRID SPACING    1
Info: PME CALCULATION WILL BE PERFORMED ON GPU
Info: FULL ELECTROSTATIC EVALUATION FREQUENCY      2
Info: USING VERLET I (r-RESPA) MTS SCHEME.
Info: C1 SPLITTING OF LONG RANGE ELECTROSTATICS
Info: PLACING ATOMS IN PATCHES BY HYDROGEN GROUPS
Info: RIGID BONDS TO HYDROGEN : ALL
Info:         ERROR TOLERANCE : 1e-08
Info:          MAX ITERATIONS : 100
Info: RIGID WATER USING SETTLE ALGORITHM
Info: RANDOM NUMBER SEED     1743507536
Info: USE HYDROGEN BONDS?    NO
Info: Using AMBER format force field!
Info: AMBER PARM FILE        mobley_8191186.prmtop
Info: COORDINATE PDB         mobley_8191186.pdb
Info: Exclusions will be read from PARM file!
Info: SCNB (VDW SCALING)     2
Info: USING ARITHMETIC MEAN TO COMBINE L-J SIGMA PARAMETERS
Info: BINARY COORDINATES     mobley_8191186_equil.coor
Info: SUMMARY OF PARAMETERS:
Info: 6 BONDS
Info: 6 ANGLES
Info:   6 HARMONIC
Info:   0 COSINE-BASED
Info: 3 DIHEDRAL
Info: 0 IMPROPER
Info: 0 CROSSTERM
Info: 0 VDW
Info: 21 VDW_PAIRS
Info: 0 NBTHOLE_PAIRS
Info: To read alchdata from file: mobley_8191186.pdb
Info: To read alchflag data from column: 5
Info: STRUCTURE SUMMARY:
Info: 2915 ATOMS
Info: 2914 BONDS
Info: 12 ANGLES
Info: 15 DIHEDRALS
Info: 0 IMPROPERS
Info: 0 CROSSTERMS
Info: 2935 EXCLUSIONS
Info: 2909 RIGID BONDS
Info: ALCH: 0 ATOMS TO DISAPPEAR IN FINAL STATE
Info: ALCH: 8 ATOMS TO APPEAR IN FINAL STATE
Info: 5836 DEGREES OF FREEDOM
Info: 975 HYDROGEN GROUPS
Info: 3 ATOMS IN LARGEST HYDROGEN GROUP
Info: 975 MIGRATION GROUPS
Info: 3 ATOMS IN LARGEST MIGRATION GROUP
Info: TOTAL MASS = 17576 amu
Info: TOTAL CHARGE = 9.99831e-05 e
Info: MASS DENSITY = 0.959577 g/cm^3
Info: ATOM DENSITY = 0.0958383 atoms/A^3
Info: ADDED 0 IMPLICIT EXCLUSIONS
Info: NONBONDED TABLE R-SQUARED SPACING: 0.0625
Info: NONBONDED TABLE SIZE: 705 POINTS
Info: REMOVING COM VELOCITY -0.159728 0.0452288 0.0593253
Info: Use 3D box decompostion in PME FFT.
Info: Updated CUDA force table with 4096 elements.
Info: Updated CUDA LJ table with 6 x 6 elements.
Info: Found 11 unique exclusion lists needing 16 bytes
TCL: Running for 1500000 steps
ETITLE: TS BOND ANGLE DIHED IMPRP ELECT VDW BOUNDARY MISC KINETIC TOTAL TEMP POTENTIAL TOTALAVG TEMPAVG PRESSURE GPRESSURE VOLUME PRESSAVG GPRESSAVG
ENERGY: 0 1.5846 2.2998 1.2416 0.0000 -10518.2339 1425.9465 0.0000 0.0000 1772.1659 -7314.9954 305.6184 -9087.1613 -7314.9954 305.6184 88.3181 172.8307 30415.8039 88.3181 172.8307
ENERGY: 300000 2.7186 1.8262 1.3510 0.0000 -10662.0462 1458.2016 0.0000 0.0000 1753.5465 -7444.4024 302.4074 -9197.9489 -7411.6936 299.1839 355.7569 434.2020 29863.8021 17.8295 74.8916
ENERGY: 600000 1.5372 2.4320 1.1696 0.0000 -10914.5588 1564.4692 0.0000 0.0000 1733.5407 -7611.4101 298.9573 -9344.9508 -7461.8799 297.6063 1180.7091 1230.1212 29160.5792 230.9817 285.2495
ENERGY: 900000 1.2030 6.4924 1.2471 0.0000 -10595.8200 1419.5986 0.0000 0.0000 1733.1481 -7434.1308 298.8896 -9167.2789 -7448.7956 299.3866 203.6074 248.1544 29603.8613 145.0524 199.7537
ENERGY: 1200000 1.5303 4.6712 1.1819 0.0000 -10663.0704 1465.1240 0.0000 0.0000 1779.2825 -7411.2805 306.8457 -9190.5630 -7439.7090 299.8435 194.7730 242.7779 30065.0284 181.1045 230.6645
ENERGY: 1500000 0.7077 3.3274 1.5781 0.0000 -10586.2182 1380.7219 0.0000 0.0000 1716.0905 -7483.7926 295.9479 -9199.8832 -7436.9918 299.7949 -426.3688 -365.0975 30049.3854 110.2857 166.4755
TCL: Running FEP window   2: Lambda1 0.95   Lambda2 0.8999999999999999 [dLambda -0.050000000000000044]
TCL: Setting parameter firsttimestep to 0
TCL: Setting parameter alchLambda to 0.95
Info: NONBONDED TABLE R-SQUARED SPACING: 0.0625
Info: NONBONDED TABLE SIZE: 705 POINTS
TCL: Setting parameter alchLambda2 to 0.8999999999999999
Info: NONBONDED TABLE R-SQUARED SPACING: 0.0625
Info: NONBONDED TABLE SIZE: 705 POINTS
TCL: Running for 1500000 steps
ETITLE: TS BOND ANGLE DIHED IMPRP ELECT VDW BOUNDARY MISC KINETIC TOTAL TEMP POTENTIAL TOTALAVG TEMPAVG PRESSURE GPRESSURE VOLUME PRESSAVG GPRESSAVG
ENERGY: 0 0.7077 3.3274 1.5781 0.0000 -10586.0266 1381.1005 0.0000 0.0000 1715.2081 -7484.1049 295.7957 -9199.3129 -7484.1049 295.7957 -457.4598 -371.6503 30049.3854 -457.4598 -371.6503
ENERGY: 300000 4.9038 2.6072 1.3692 0.0000 -10583.7638 1395.1340 0.0000 0.0000 1848.1638 -7331.5858 318.7246 -9179.7495 -7398.0120 304.1763 -211.6888 -117.1746 29726.8214 -290.8853 -222.6199
ENERGY: 600000 1.5377 4.9451 1.1497 0.0000 -10562.1446 1406.7758 0.0000 0.0000 1737.2914 -7410.4449 299.6041 -9147.7364 -7408.2142 301.6827 -96.8981 -97.4433 30004.1673 -159.4786 -108.3092
ENERGY: 900000 3.8485 3.0737 1.1670 0.0000 -10526.0274 1402.7655 0.0000 0.0000 1729.9706 -7385.2021 298.3416 -9115.1727 -7411.1635 300.9558 -226.5706 -201.4443 30111.8024 -215.3780 -165.3865
ENERGY: 1200000 1.1184 1.8172 1.1568 0.0000 -10593.3102 1442.3591 0.0000 0.0000 1696.0413 -7450.8174 292.4903 -9146.8587 -7428.4151 299.9006 168.7914 261.3051 29984.2718 -151.9117 -93.2941
ENERGY: 1500000 2.9478 3.8133 1.2027 0.0000 -10572.3423 1362.6117 0.0000 0.0000 1757.2791 -7444.4878 303.0511 -9201.7669 -7424.2813 299.7851 -387.1085 -349.8478 29956.8742 -205.1780 -150.5545
TCL: Running FEP window   3: Lambda1 0.8999999999999999 Lambda2 0.8499999999999999 [dLambda -0.050000000000000044]
TCL: Setting parameter firsttimestep to 0
TCL: Setting parameter alchLambda to 0.8999999999999999
Info: NONBONDED TABLE R-SQUARED SPACING: 0.0625
Info: NONBONDED TABLE SIZE: 705 POINTS
TCL: Setting parameter alchLambda2 to 0.8499999999999999
Info: NONBONDED TABLE R-SQUARED SPACING: 0.0625
Info: NONBONDED TABLE SIZE: 705 POINTS
TCL: Running for 1500000 steps
ETITLE: TS BOND ANGLE DIHED IMPRP ELECT VDW BOUNDARY MISC KINETIC TOTAL TEMP POTENTIAL TOTALAVG TEMPAVG PRESSURE GPRESSURE VOLUME PRESSAVG GPRESSAVG
ENERGY: 0 2.9478 3.8133 1.2027 0.0000 -10572.1821 1362.2499 0.0000 0.0000 1756.4190 -7445.5495 302.9028 -9201.9685 -7445.5495 302.9028 -446.8534 -360.2936 29956.8742 -446.8534 -360.2936
ENERGY: 300000 2.6704 3.9640 1.4808 0.0000 -10661.9568 1440.5994 0.0000 0.0000 1691.2018 -7522.0403 291.6557 -9213.2421 -7440.5070 298.8344 -145.0653 -108.6512 30246.7476 -115.7406 -62.1928
ENERGY: 600000 1.4813 6.4953 1.1632 0.0000 -10503.0585 1388.3405 0.0000 0.0000 1775.3367 -7330.2414 306.1652 -9105.5782 -7416.6393 300.2967 -218.5315 -93.6017 30209.6359 -343.4428 -271.3264
ENERGY: 900000 2.5042 1.2791 1.1587 0.0000 -10767.8266 1541.3622 0.0000 0.0000 1781.5720 -7439.9503 307.2405 -9221.5224 -7409.7163 300.5509 819.3636 858.2540 29657.3108 -197.2953 -121.3173
ENERGY: 1200000 0.5182 3.3195 1.2904 0.0000 -10653.4348 1466.8797 0.0000 0.0000 1777.3118 -7404.1152 306.5058 -9181.4270 -7412.8779 301.4214 365.0708 449.7810 29995.5124 -137.2427 -54.6787
ENERGY: 1500000 0.2349 1.9946 1.2161 0.0000 -10633.5253 1425.9571 0.0000 0.0000 1806.1236 -7397.9990 311.4745 -9204.1225 -7409.2930 301.9946 83.9855 160.0851 29660.2165 -156.8624 -79.8347
TCL: Running FEP window   4: Lambda1 0.8499999999999999 Lambda2 0.7999999999999998 [dLambda -0.050000000000000044]
TCL: Setting parameter firsttimestep to 0
TCL: Setting parameter alchLambda to 0.8499999999999999
Info: NONBONDED TABLE R-SQUARED SPACING: 0.0625
Info: NONBONDED TABLE SIZE: 705 POINTS
TCL: Setting parameter alchLambda2 to 0.7999999999999998
Info: NONBONDED TABLE R-SQUARED SPACING: 0.0625
Info: NONBONDED TABLE SIZE: 705 POINTS
TCL: Running for 1500000 steps
ETITLE: TS BOND ANGLE DIHED IMPRP ELECT VDW BOUNDARY MISC KINETIC TOTAL TEMP POTENTIAL TOTALAVG TEMPAVG PRESSURE GPRESSURE VOLUME PRESSAVG GPRESSAVG
ENERGY: 0 0.2349 1.9946 1.2161 0.0000 -10632.8569 1426.0592 0.0000 0.0000 1805.2529 -7398.0992 311.3244 -9203.3521 -7398.0992 311.3244 75.7227 155.7882 29660.2165 75.7227 155.7882
ENERGY: 300000 0.3940 4.1566 1.3386 0.0000 -10434.1772 1285.4029 0.0000 0.0000 1786.1018 -7356.7833 308.0217 -9142.8851 -7375.4451 306.4014 -1253.7488 -1165.7334 30490.2735 -81.6571 -15.3479
ENERGY: 600000 0.7928 5.2837 1.1273 0.0000 -10730.7303 1548.6535 0.0000 0.0000 1761.0257 -7413.8474 303.6972 -9174.8731 -7396.6634 302.4733 905.0156 937.1239 30011.3173 146.3947 213.2712
ENERGY: 900000 0.8556 3.4426 1.2161 0.0000 -10564.6417 1379.3639 0.0000 0.0000 1674.7803 -7504.9832 288.8238 -9179.7635 -7416.3596 301.1826 -425.7456 -390.7103 30036.9291 160.5253 225.0435
ENERGY: 1200000 1.9769 6.3437 1.4266 0.0000 -10628.5699 1429.1680 0.0000 0.0000 1743.6426 -7446.0121 300.6994 -9189.6547 -7423.6685 300.8770 19.8310 83.7609 29967.0928 139.6001 202.9066
ENERGY: 1500000 2.6264 2.9627 2.0614 0.0000 -10614.9446 1383.8423 0.0000 0.0000 1714.9597 -7508.4920 295.7529 -9223.4517 -7416.8805 301.0910 -669.7351 -598.6281 30413.3059 41.2475 107.8963
TCL: Running FEP window   5: Lambda1 0.7999999999999998 Lambda2 0.7499999999999998 [dLambda -0.050000000000000044]
TCL: Setting parameter firsttimestep to 0
TCL: Setting parameter alchLambda to 0.7999999999999998
Info: NONBONDED TABLE R-SQUARED SPACING: 0.0625
Info: NONBONDED TABLE SIZE: 705 POINTS
TCL: Setting parameter alchLambda2 to 0.7499999999999998
Info: NONBONDED TABLE R-SQUARED SPACING: 0.0625
Info: NONBONDED TABLE SIZE: 705 POINTS
TCL: Running for 1500000 steps
ETITLE: TS BOND ANGLE DIHED IMPRP ELECT VDW BOUNDARY MISC KINETIC TOTAL TEMP POTENTIAL TOTALAVG TEMPAVG PRESSURE GPRESSURE VOLUME PRESSAVG GPRESSAVG
ENERGY: 0 2.6264 2.9627 2.0614 0.0000 -10614.3499 1383.8754 0.0000 0.0000 1714.0983 -7508.7257 295.6044 -9222.8240 -7508.7257 295.6044 -685.7149 -602.3267 30413.3059 -685.7149 -602.3267
ENERGY: 300000 0.8157 1.8816 1.1740 0.0000 -10696.0040 1486.1253 0.0000 0.0000 1708.3224 -7497.6851 294.6083 -9206.0074 -7485.4324 297.8970 502.3344 552.9137 29669.6925 -297.7859 -226.1810
ENERGY: 600000 2.7273 6.8700 1.8942 0.0000 -10570.4967 1397.5164 0.0000 0.0000 1700.7604 -7460.7283 293.3042 -9161.4887 -7461.9145 297.3207 -365.6157 -336.6692 30116.2897 -242.5893 -178.7202
ENERGY: 900000 1.0538 2.0962 1.3133 0.0000 -10636.7819 1399.2323 0.0000 0.0000 1753.5498 -7479.5364 302.4080 -9233.0863 -7450.2044 298.8543 -483.5823 -476.3427 30290.8650 -375.6557 -310.8175
ENERGY: 1200000 0.2736 2.2389 1.1341 0.0000 -10483.5474 1376.2132 0.0000 0.0000 1758.2232 -7345.4644 303.2139 -9103.6876 -7450.0446 297.8147 -259.8774 -252.6378 30525.9315 -225.8483 -173.6649
ENERGY: 1500000 0.6806 2.1125 1.1515 0.0000 -10570.2287 1421.3809 0.0000 0.0000 1788.7959 -7356.1074 308.4863 -9144.9033 -7434.1532 299.2234 326.5983 385.6592 29699.3119 -76.7416 -24.7720
TCL: Running FEP window   6: Lambda1 0.7499999999999998 Lambda2 0.6999999999999997 [dLambda -0.050000000000000044]
TCL: Setting parameter firsttimestep to 0
TCL: Setting parameter alchLambda to 0.7499999999999998
Info: NONBONDED TABLE R-SQUARED SPACING: 0.0625
Info: NONBONDED TABLE SIZE: 705 POINTS
TCL: Setting parameter alchLambda2 to 0.6999999999999997
Info: NONBONDED TABLE R-SQUARED SPACING: 0.0625
Info: NONBONDED TABLE SIZE: 705 POINTS
TCL: Running for 1500000 steps
ETITLE: TS BOND ANGLE DIHED IMPRP ELECT VDW BOUNDARY MISC KINETIC TOTAL TEMP POTENTIAL TOTALAVG TEMPAVG PRESSURE GPRESSURE VOLUME PRESSAVG GPRESSAVG
ENERGY: 0 0.6806 2.1125 1.1515 0.0000 -10569.7962 1421.0754 0.0000 0.0000 1787.9076 -7356.8687 308.3331 -9144.7763 -7356.8687 308.3331 286.4620 374.9481 29699.3119 286.4620 374.9481
ENERGY: 300000 1.1963 3.5198 1.1528 0.0000 -10552.4926 1391.9893 0.0000 0.0000 1743.6769 -7410.9575 300.7053 -9154.6344 -7419.4588 303.1236 -197.0954 -127.7351 29942.5552 14.9994 77.2164
ENERGY: 600000 1.0416 2.6292 1.1725 0.0000 -10685.3539 1408.4964 0.0000 0.0000 1715.5649 -7556.4493 295.8573 -9272.0142 -7448.2701 302.0764 -338.6009 -283.2039 29870.0570 -149.5745 -86.3730
ENERGY: 900000 2.6512 2.8166 1.2302 0.0000 -10790.3982 1539.5224 0.0000 0.0000 1701.3339 -7542.8438 293.4031 -9244.1777 -7450.3937 301.6664 1162.3501 1254.7922 29188.5496 -0.5316 61.3834
ENERGY: 1200000 1.7755 2.3239 1.1597 0.0000 -10569.1108 1398.2520 0.0000 0.0000 1738.6856 -7426.9141 299.8446 -9165.5997 -7449.3514 301.6242 -42.5200 63.6212 29678.2720 -46.1128 19.2038
ENERGY: 1500000 3.0663 4.6241 1.4585 0.0000 -10662.7401 1432.0761 0.0000 0.0000 1745.6230 -7475.8920 301.0409 -9221.5150 -7448.1574 301.1551 55.4476 110.1071 29534.6447 -20.9077 45.1105
TCL: Running FEP window   7: Lambda1 0.6999999999999997 Lambda2 0.6499999999999997 [dLambda -0.050000000000000044]
TCL: Setting parameter firsttimestep to 0
TCL: Setting parameter alchLambda to 0.6999999999999997
Info: NONBONDED TABLE R-SQUARED SPACING: 0.0625
Info: NONBONDED TABLE SIZE: 705 POINTS
TCL: Setting parameter alchLambda2 to 0.6499999999999997
Info: NONBONDED TABLE R-SQUARED SPACING: 0.0625
Info: NONBONDED TABLE SIZE: 705 POINTS
TCL: Running for 1500000 steps
ETITLE: TS BOND ANGLE DIHED IMPRP ELECT VDW BOUNDARY MISC KINETIC TOTAL TEMP POTENTIAL TOTALAVG TEMPAVG PRESSURE GPRESSURE VOLUME PRESSAVG GPRESSAVG
ENERGY: 0 3.0663 4.6241 1.4585 0.0000 -10662.2481 1432.1324 0.0000 0.0000 1744.7725 -7476.1943 300.8943 -9220.9667 -7476.1943 300.8943 13.6705 103.0899 29534.6447 13.6705 103.0899
ENERGY: 300000 2.2124 2.5345 1.1903 0.0000 -10621.7289 1456.2885 0.0000 0.0000 1759.0207 -7400.4826 303.3514 -9159.5032 -7413.4040 304.9598 142.2385 209.7577 30126.5971 27.5847 104.5891
ENERGY: 600000 1.1966 3.4734 1.2959 0.0000 -10681.1905 1457.2497 0.0000 0.0000 1720.4463 -7497.5286 296.6991 -9217.9748 -7445.8151 300.5306 -109.0917 -45.4636 30358.5726 -102.9173 -28.1120
ENERGY: 900000 0.8227 2.9677 1.3963 0.0000 -10624.5315 1343.4197 0.0000 0.0000 1746.3147 -7529.6105 301.1602 -9275.9252 -7448.3085 300.5845 -811.7444 -720.7562 29698.4944 -79.7421 -14.3626
ENERGY: 1200000 0.4350 3.3385 1.5002 0.0000 -10642.0692 1461.7371 0.0000 0.0000 1727.3150 -7447.7434 297.8836 -9175.0584 -7443.0076 300.9513 199.5069 299.8218 29978.2146 -52.9893 19.5872
ENERGY: 1500000 1.2049 2.8150 1.1943 0.0000 -10546.2540 1384.6820 0.0000 0.0000 1693.0713 -7463.2865 291.9781 -9156.3578 -7441.5131 300.3115 -569.7879 -407.1599 30192.8237 -50.5068 26.6935
TCL: Running FEP window   8: Lambda1 0.6499999999999997 Lambda2 0.5999999999999996 [dLambda -0.050000000000000044]
TCL: Setting parameter firsttimestep to 0
TCL: Setting parameter alchLambda to 0.6499999999999997
Info: NONBONDED TABLE R-SQUARED SPACING: 0.0625
Info: NONBONDED TABLE SIZE: 705 POINTS
TCL: Setting parameter alchLambda2 to 0.5999999999999996
Info: NONBONDED TABLE R-SQUARED SPACING: 0.0625
Info: NONBONDED TABLE SIZE: 705 POINTS
TCL: Running for 1500000 steps
ETITLE: TS BOND ANGLE DIHED IMPRP ELECT VDW BOUNDARY MISC KINETIC TOTAL TEMP POTENTIAL TOTALAVG TEMPAVG PRESSURE GPRESSURE VOLUME PRESSAVG GPRESSAVG
ENERGY: 0 1.2049 2.8150 1.1943 0.0000 -10546.0311 1384.7646 0.0000 0.0000 1692.1750 -7463.8774 291.8236 -9156.0524 -7463.8774 291.8236 -515.2852 -411.5405 30192.8237 -515.2852 -411.5405
ENERGY: 300000 2.5248 4.0008 1.1400 0.0000 -10571.4317 1415.4664 0.0000 0.0000 1720.8719 -7427.4278 296.7725 -9148.2997 -7396.3669 298.6975 -372.7140 -233.4945 30151.0668 -150.7278 -73.6550
ENERGY: 600000 1.9410 2.0011 1.5420 0.0000 -10600.9480 1453.5609 0.0000 0.0000 1737.2844 -7404.6186 299.6029 -9141.9030 -7396.0644 300.2670 245.4776 276.0786 30001.5482 -41.5963 21.5508
ENERGY: 900000 0.5593 3.7365 1.3813 0.0000 -10751.1128 1484.6367 0.0000 0.0000 1760.0524 -7500.7467 303.5293 -9260.7990 -7402.8330 300.7834 214.3844 260.2256 30155.2852 -21.5154 42.9303
ENERGY: 1200000 1.0103 1.9337 1.3761 0.0000 -10687.6223 1506.6986 0.0000 0.0000 1747.9930 -7428.6105 301.4497 -9176.6036 -7399.6623 300.7248 773.3118 793.1963 29718.9376 -10.9755 50.2674
ENERGY: 1500000 1.2471 4.6680 1.3991 0.0000 -10604.0576 1442.2032 0.0000 0.0000 1758.2071 -7396.3333 303.2111 -9154.5404 -7402.5559 301.0104 212.7849 345.8260 29949.6449 46.1011 111.4351
TCL: Running FEP window   9: Lambda1 0.5999999999999996 Lambda2 0.5499999999999996 [dLambda -0.050000000000000044]
TCL: Setting parameter firsttimestep to 0
TCL: Setting parameter alchLambda to 0.5999999999999996
Info: NONBONDED TABLE R-SQUARED SPACING: 0.0625
Info: NONBONDED TABLE SIZE: 705 POINTS
TCL: Setting parameter alchLambda2 to 0.5499999999999996
Info: NONBONDED TABLE R-SQUARED SPACING: 0.0625
Info: NONBONDED TABLE SIZE: 705 POINTS
TCL: Running for 1500000 steps
ETITLE: TS BOND ANGLE DIHED IMPRP ELECT VDW BOUNDARY MISC KINETIC TOTAL TEMP POTENTIAL TOTALAVG TEMPAVG PRESSURE GPRESSURE VOLUME PRESSAVG GPRESSAVG
ENERGY: 0 1.2471 4.6680 1.3991 0.0000 -10603.6646 1442.2143 0.0000 0.0000 1757.3482 -7396.7880 303.0630 -9154.1362 -7396.7880 303.0630 262.7038 342.2995 29949.6449 262.7038 342.2995
ENERGY: 300000 0.6809 4.7625 1.6956 0.0000 -10557.9780 1378.4195 0.0000 0.0000 1759.5229 -7412.8967 303.4380 -9172.4196 -7428.5444 297.6676 -472.3847 -346.2357 30023.7297 -71.4978 22.6421
ENERGY: 600000 1.2291 4.3401 1.1381 0.0000 -10630.6678 1505.2760 0.0000 0.0000 1785.1393 -7333.5452 307.8557 -9118.6845 -7389.6746 301.3185 438.6167 462.7777 30451.4861 167.3803 248.5305
ENERGY: 900000 1.6751 1.5100 1.1492 0.0000 -10523.8609 1344.5687 0.0000 0.0000 1709.4229 -7465.5349 294.7981 -9174.9579 -7404.5611 300.9802 -898.2837 -812.8995 30469.0300 34.9924 98.5826
ENERGY: 1200000 0.9512 3.6082 1.1802 0.0000 -10418.5920 1379.6184 0.0000 0.0000 1719.9143 -7313.3197 296.6073 -9033.2339 -7395.6903 301.2495 -61.0665 -43.3607 30239.3998 98.4477 158.7719
ENERGY: 1500000 1.9604 3.6084 1.5914 0.0000 -10564.9714 1330.5935 0.0000 0.0000 1776.2151 -7451.0027 306.3167 -9227.2177 -7402.9868 301.5834 -737.4635 -727.8455 29965.3146 84.8040 144.9107
TCL: Running FEP window  10: Lambda1 0.5499999999999996 Lambda2 0.4999999999999996 [dLambda -0.04999999999999999]
TCL: Setting parameter firsttimestep to 0
TCL: Setting parameter alchLambda to 0.5499999999999996
Info: NONBONDED TABLE R-SQUARED SPACING: 0.0625
Info: NONBONDED TABLE SIZE: 705 POINTS
TCL: Setting parameter alchLambda2 to 0.4999999999999996
Info: NONBONDED TABLE R-SQUARED SPACING: 0.0625
Info: NONBONDED TABLE SIZE: 705 POINTS
TCL: Running for 1500000 steps
ETITLE: TS BOND ANGLE DIHED IMPRP ELECT VDW BOUNDARY MISC KINETIC TOTAL TEMP POTENTIAL TOTALAVG TEMPAVG PRESSURE GPRESSURE VOLUME PRESSAVG GPRESSAVG
ENERGY: 0 1.9604 3.6084 1.5914 0.0000 -10564.5686 1330.7203 0.0000 0.0000 1775.3758 -7451.3123 306.1719 -9226.6881 -7451.3123 306.1719 -811.7586 -731.6288 29965.3146 -811.7586 -731.6288
ENERGY: 300000 0.5694 4.6381 1.5827 0.0000 -10595.5483 1411.5484 0.0000 0.0000 1715.5978 -7461.6120 295.8630 -9177.2098 -7414.9239 302.5014 89.4732 144.1950 29729.2141 -209.5142 -132.8302
ENERGY: 600000 2.4038 2.9561 1.2296 0.0000 -10479.1778 1399.9550 0.0000 0.0000 1786.7122 -7285.9211 308.1270 -9072.6333 -7418.3754 301.7158 -88.8839 -58.3149 30308.6137 3.5232 77.2896
ENERGY: 900000 1.3819 2.3012 1.1569 0.0000 -10533.7472 1403.5733 0.0000 0.0000 1692.2510 -7433.0829 291.8367 -9125.3338 -7433.2552 299.8297 -27.3835 -20.7907 29982.8841 197.1490 255.7644
ENERGY: 1200000 1.3394 4.0980 1.2519 0.0000 -10538.9710 1377.5271 0.0000 0.0000 1744.1264 -7410.6282 300.7828 -9154.7546 -7432.6596 299.5436 -305.6935 -260.5720 30090.8733 121.5187 183.7877
ENERGY: 1500000 0.8165 5.2733 1.1853 0.0000 -10520.8836 1412.4551 0.0000 0.0000 1762.6549 -7338.4986 303.9782 -9101.1534 -7426.5828 299.3583 -37.5467 85.8811 30294.9893 79.3133 142.7105
TCL: Running FEP window  11: Lambda1 0.4999999999999996 Lambda2 0.4499999999999996 [dLambda -0.04999999999999999]
TCL: Setting parameter firsttimestep to 0
TCL: Setting parameter alchLambda to 0.4999999999999996
Info: NONBONDED TABLE R-SQUARED SPACING: 0.0625
Info: NONBONDED TABLE SIZE: 705 POINTS
TCL: Setting parameter alchLambda2 to 0.4499999999999996
Info: NONBONDED TABLE R-SQUARED SPACING: 0.0625
Info: NONBONDED TABLE SIZE: 705 POINTS
TCL: Running for 1500000 steps
ETITLE: TS BOND ANGLE DIHED IMPRP ELECT VDW BOUNDARY MISC KINETIC TOTAL TEMP POTENTIAL TOTALAVG TEMPAVG PRESSURE GPRESSURE VOLUME PRESSAVG GPRESSAVG
ENERGY: 0 0.8165 5.2733 1.1853 0.0000 -10520.7529 1412.7120 0.0000 0.0000 1761.8066 -7338.9593 303.8319 -9100.7658 -7338.9593 303.8319 -5.7606 84.8979 30294.9893 -5.7606 84.8979
ENERGY: 300000 0.8225 2.8536 1.6872 0.0000 -10647.2162 1492.4750 0.0000 0.0000 1793.3497 -7356.0282 309.2716 -9149.3780 -7372.3283 305.9084 470.7920 617.9354 29987.2996 307.6978 414.1991
ENERGY: 600000 0.6615 2.1110 1.1523 0.0000 -10413.7754 1345.7033 0.0000 0.0000 1774.6332 -7289.5142 306.0439 -9064.1474 -7365.4208 304.4824 -576.1808 -552.9733 30659.2174 11.6731 90.8981
ENERGY: 900000 1.1191 2.8573 1.1815 0.0000 -10527.8450 1393.8546 0.0000 0.0000 1761.4481 -7367.3843 303.7700 -9128.8323 -7373.3630 303.4277 -323.6629 -237.6572 30250.5775 -31.1172 45.6509
ENERGY: 1200000 0.9336 1.6691 1.1696 0.0000 -10656.9417 1506.9941 0.0000 0.0000 1731.7389 -7414.4364 298.6466 -9146.1753 -7367.6738 303.6760 822.1501 850.4647 29787.6111 16.3143 87.7522
ENERGY: 1500000 0.6840 4.4631 1.1635 0.0000 -10554.4317 1375.5609 0.0000 0.0000 1690.1614 -7482.3988 291.4763 -9172.5602 -7397.3036 301.8878 -458.0093 -399.5193 30068.1994 6.5366 78.8563
TCL: Running FEP window  12: Lambda1 0.4499999999999996 Lambda2 0.39999999999999963 [dLambda -0.04999999999999999]
TCL: Setting parameter firsttimestep to 0
TCL: Setting parameter alchLambda to 0.4499999999999996
Info: NONBONDED TABLE R-SQUARED SPACING: 0.0625
Info: NONBONDED TABLE SIZE: 705 POINTS
TCL: Setting parameter alchLambda2 to 0.39999999999999963
Info: NONBONDED TABLE R-SQUARED SPACING: 0.0625
Info: NONBONDED TABLE SIZE: 705 POINTS
TCL: Running for 1500000 steps
ETITLE: TS BOND ANGLE DIHED IMPRP ELECT VDW BOUNDARY MISC KINETIC TOTAL TEMP POTENTIAL TOTALAVG TEMPAVG PRESSURE GPRESSURE VOLUME PRESSAVG GPRESSAVG
ENERGY: 0 0.6840 4.4631 1.1635 0.0000 -10554.4297 1375.4516 0.0000 0.0000 1689.3115 -7483.3558 291.3298 -9172.6674 -7483.3558 291.3298 -501.3919 -404.3910 30068.1994 -501.3919 -404.3910
ENERGY: 300000 1.6768 3.3373 1.5251 0.0000 -10469.3434 1348.6466 0.0000 0.0000 1691.9197 -7422.2380 291.7795 -9114.1577 -7411.4972 294.8382 -557.9687 -442.2091 29794.2625 -426.6691 -338.9679
ENERGY: 600000 1.1796 2.1328 1.4203 0.0000 -10620.3697 1436.1386 0.0000 0.0000 1692.1632 -7487.3351 291.8215 -9179.4983 -7435.3648 295.7102 48.7487 180.9005 29799.4216 -211.1767 -132.5212
ENERGY: 900000 1.9806 2.5524 1.4644 0.0000 -10614.0388 1429.6057 0.0000 0.0000 1753.3711 -7425.0645 302.3771 -9178.4356 -7431.3006 298.4081 -133.9812 -140.4050 30136.9228 -145.5020 -81.0314
ENERGY: 1200000 0.7004 2.9597 1.2453 0.0000 -10574.9572 1394.0805 0.0000 0.0000 1725.1411 -7450.8303 297.5087 -9175.9713 -7437.6473 297.5897 -307.7224 -216.9400 30112.5966 -65.2768 -1.3928
ENERGY: 1500000 1.4293 4.1438 1.2343 0.0000 -10615.5122 1422.6077 0.0000 0.0000 1723.9336 -7462.1635 297.3005 -9186.0972 -7440.3072 297.6507 -195.7736 -48.7672 29950.8159 -21.2369 40.3653
TCL: Running FEP window  13: Lambda1 0.39999999999999963 Lambda2 0.34999999999999964 [dLambda -0.04999999999999999]
TCL: Setting parameter firsttimestep to 0
TCL: Setting parameter alchLambda to 0.39999999999999963
Info: NONBONDED TABLE R-SQUARED SPACING: 0.0625
Info: NONBONDED TABLE SIZE: 705 POINTS
TCL: Setting parameter alchLambda2 to 0.34999999999999964
Info: NONBONDED TABLE R-SQUARED SPACING: 0.0625
Info: NONBONDED TABLE SIZE: 705 POINTS
TCL: Running for 1500000 steps
ETITLE: TS BOND ANGLE DIHED IMPRP ELECT VDW BOUNDARY MISC KINETIC TOTAL TEMP POTENTIAL TOTALAVG TEMPAVG PRESSURE GPRESSURE VOLUME PRESSAVG GPRESSAVG
ENERGY: 0 1.4293 4.1438 1.2343 0.0000 -10615.5123 1422.2730 0.0000 0.0000 1723.0830 -7463.3489 297.1538 -9186.4320 -7463.3489 297.1538 -144.4192 -55.2001 29950.8159 -144.4192 -55.2001
ENERGY: 300000 0.4762 3.5814 1.1718 0.0000 -10611.6922 1446.5851 0.0000 0.0000 1732.4106 -7427.4670 298.7624 -9159.8776 -7420.2027 299.8823 281.4935 368.5044 29620.5007 103.8474 190.0703
ENERGY: 600000 0.6292 2.3727 1.2710 0.0000 -10651.4838 1478.1707 0.0000 0.0000 1663.3368 -7505.7034 286.8503 -9169.0402 -7438.8951 299.0110 329.0261 337.5103 29868.0929 71.8721 134.2692
ENERGY: 900000 0.9008 0.9670 1.1681 0.0000 -10393.0667 1319.4694 0.0000 0.0000 1733.9399 -7336.6214 299.0261 -9070.5614 -7428.9034 298.8050 -629.1170 -678.2745 30453.7211 17.8939 73.8431
ENERGY: 1200000 1.6467 2.6077 1.2141 0.0000 -10503.6865 1351.1049 0.0000 0.0000 1706.8241 -7440.2889 294.3499 -9147.1130 -7446.2219 297.5841 -895.7632 -854.5923 30498.4862 -53.3336 1.2009
ENERGY: 1500000 0.2759 1.4424 1.2377 0.0000 -10519.7800 1397.1957 0.0000 0.0000 1723.3067 -7396.3217 297.1924 -9119.6284 -7447.9648 298.0698 -218.2138 -116.6323 30096.2092 -84.4012 -26.7924
TCL: Running FEP window  14: Lambda1 0.34999999999999964 Lambda2 0.29999999999999966 [dLambda -0.04999999999999999]
TCL: Setting parameter firsttimestep to 0
TCL: Setting parameter alchLambda to 0.34999999999999964
Info: NONBONDED TABLE R-SQUARED SPACING: 0.0625
Info: NONBONDED TABLE SIZE: 705 POINTS
TCL: Setting parameter alchLambda2 to 0.29999999999999966
Info: NONBONDED TABLE R-SQUARED SPACING: 0.0625
Info: NONBONDED TABLE SIZE: 705 POINTS
TCL: Running for 1500000 steps
ETITLE: TS BOND ANGLE DIHED IMPRP ELECT VDW BOUNDARY MISC KINETIC TOTAL TEMP POTENTIAL TOTALAVG TEMPAVG PRESSURE GPRESSURE VOLUME PRESSAVG GPRESSAVG
ENERGY: 0 0.2759 1.4424 1.2377 0.0000 -10519.7799 1397.2612 0.0000 0.0000 1722.3957 -7397.1670 297.0353 -9119.5628 -7397.1670 297.0353 -217.4179 -118.7688 30096.2092 -217.4179 -118.7688
ENERGY: 300000 0.8633 2.6885 1.1508 0.0000 -10516.2669 1359.1926 0.0000 0.0000 1798.0695 -7354.3022 310.0856 -9152.3717 -7403.9141 300.6046 -825.3747 -731.1033 30517.4431 -482.2412 -407.9909
ENERGY: 600000 0.7255 2.8328 1.2143 0.0000 -10576.6755 1429.5516 0.0000 0.0000 1753.5324 -7388.8189 302.4049 -9142.3513 -7393.2393 301.7330 101.8757 255.6464 29793.3371 -149.0781 -81.5458
ENERGY: 900000 0.9538 2.0390 1.1444 0.0000 -10629.5648 1419.3148 0.0000 0.0000 1774.4032 -7431.7095 306.0042 -9206.1128 -7402.0508 301.9323 -25.7512 -24.9014 29764.8433 -86.2724 -28.9267
ENERGY: 1200000 0.9560 3.2496 1.2936 0.0000 -10690.2268 1553.4770 0.0000 0.0000 1797.9273 -7333.3234 310.0611 -9131.2507 -7397.4968 302.6440 1193.8870 1283.9793 29747.1971 -20.9404 40.3879
ENERGY: 1500000 1.4609 5.4761 1.1678 0.0000 -10526.4204 1430.7874 0.0000 0.0000 1808.2814 -7279.2468 311.8467 -9087.5282 -7390.7420 302.7630 327.3308 382.6383 29867.8568 -50.1922 12.5415
TCL: Running FEP window  15: Lambda1 0.29999999999999966 Lambda2 0.24999999999999967 [dLambda -0.04999999999999999]
TCL: Setting parameter firsttimestep to 0
TCL: Setting parameter alchLambda to 0.29999999999999966
Info: NONBONDED TABLE R-SQUARED SPACING: 0.0625
Info: NONBONDED TABLE SIZE: 705 POINTS
TCL: Setting parameter alchLambda2 to 0.24999999999999967
Info: NONBONDED TABLE R-SQUARED SPACING: 0.0625
Info: NONBONDED TABLE SIZE: 705 POINTS
TCL: Running for 1500000 steps
ETITLE: TS BOND ANGLE DIHED IMPRP ELECT VDW BOUNDARY MISC KINETIC TOTAL TEMP POTENTIAL TOTALAVG TEMPAVG PRESSURE GPRESSURE VOLUME PRESSAVG GPRESSAVG
ENERGY: 0 1.4609 5.4761 1.1678 0.0000 -10526.4213 1430.7603 0.0000 0.0000 1807.3797 -7280.1766 311.6912 -9087.5562 -7280.1766 311.6912 298.4132 377.5780 29867.8568 298.4132 377.5780
ENERGY: 300000 1.4626 2.0939 1.1857 0.0000 -10509.2613 1416.2497 0.0000 0.0000 1739.9510 -7348.3183 300.0628 -9088.2693 -7362.2346 302.0019 205.0015 229.2001 30005.6604 136.0368 212.1904
ENERGY: 600000 1.8780 4.3273 1.1837 0.0000 -10468.5717 1377.1473 0.0000 0.0000 1719.7468 -7364.2885 296.5785 -9084.0353 -7383.6025 299.6933 -266.5621 -307.8842 30130.3263 16.9301 69.6850
ENERGY: 900000 2.4526 3.7810 1.2200 0.0000 -10745.1087 1485.7485 0.0000 0.0000 1709.9297 -7541.9771 294.8855 -9251.9067 -7393.4539 299.7990 545.0043 578.2324 29328.2880 87.6406 137.3714
ENERGY: 1200000 1.3448 3.7157 1.2315 0.0000 -10656.8439 1486.0191 0.0000 0.0000 1741.3903 -7423.1425 300.3110 -9164.5328 -7393.7148 299.8533 504.8253 565.5305 29818.4287 115.7804 169.0598
ENERGY: 1500000 1.3952 4.1193 1.1281 0.0000 -10498.8056 1358.3723 0.0000 0.0000 1746.5077 -7387.2829 301.1935 -9133.7906 -7404.7892 299.4475 -439.1456 -348.7271 30059.2808 66.9233 121.2037
TCL: Running FEP window  16: Lambda1 0.24999999999999967 Lambda2 0.19999999999999968 [dLambda -0.04999999999999999]
TCL: Setting parameter firsttimestep to 0
TCL: Setting parameter alchLambda to 0.24999999999999967
Info: NONBONDED TABLE R-SQUARED SPACING: 0.0625
Info: NONBONDED TABLE SIZE: 705 POINTS
TCL: Setting parameter alchLambda2 to 0.19999999999999968
Info: NONBONDED TABLE R-SQUARED SPACING: 0.0625
Info: NONBONDED TABLE SIZE: 705 POINTS
TCL: Running for 1500000 steps
ETITLE: TS BOND ANGLE DIHED IMPRP ELECT VDW BOUNDARY MISC KINETIC TOTAL TEMP POTENTIAL TOTALAVG TEMPAVG PRESSURE GPRESSURE VOLUME PRESSAVG GPRESSAVG
ENERGY: 0 1.3952 4.1193 1.1281 0.0000 -10498.8039 1358.6535 0.0000 0.0000 1745.6405 -7387.8672 301.0440 -9133.5078 -7387.8672 301.0440 -436.1643 -348.7657 30059.2808 -436.1643 -348.7657
ENERGY: 300000 0.5258 3.0983 1.4442 0.0000 -10630.0090 1430.4573 0.0000 0.0000 1771.0215 -7423.4619 305.4210 -9194.4833 -7433.5669 298.3954 91.7235 150.0968 29670.3340 -55.7747 19.0567
ENERGY: 600000 1.8407 3.2941 1.4271 0.0000 -10492.6333 1334.4048 0.0000 0.0000 1739.2261 -7412.4404 299.9378 -9151.6665 -7434.1963 299.0546 -863.9247 -782.7844 30395.4850 11.9650 86.0206
ENERGY: 900000 1.3473 2.4405 1.1995 0.0000 -10552.9132 1372.3805 0.0000 0.0000 1762.4219 -7413.1235 303.9380 -9175.5455 -7419.9857 299.7151 -635.6731 -568.9712 30370.0459 -77.1654 -7.3502
ENERGY: 1200000 2.0002 1.8599 1.1615 0.0000 -10615.1891 1447.0679 0.0000 0.0000 1690.6602 -7472.4393 291.5623 -9163.0995 -7434.2519 299.0816 204.8144 291.6408 29761.5445 -34.2457 39.3860
ENERGY: 1500000 2.7241 3.9094 1.1464 0.0000 -10573.5901 1359.7724 0.0000 0.0000 1742.7834 -7463.2544 300.5512 -9206.0378 -7425.9925 300.1111 -714.6985 -634.7373 30380.5598 -50.6872 24.3333
TCL: Running FEP window  17: Lambda1 0.19999999999999968 Lambda2 0.1499999999999997 [dLambda -0.04999999999999999]
TCL: Setting parameter firsttimestep to 0
TCL: Setting parameter alchLambda to 0.19999999999999968
Info: NONBONDED TABLE R-SQUARED SPACING: 0.0625
Info: NONBONDED TABLE SIZE: 705 POINTS
TCL: Setting parameter alchLambda2 to 0.1499999999999997
Info: NONBONDED TABLE R-SQUARED SPACING: 0.0625
Info: NONBONDED TABLE SIZE: 705 POINTS
TCL: Running for 1500000 steps
ETITLE: TS BOND ANGLE DIHED IMPRP ELECT VDW BOUNDARY MISC KINETIC TOTAL TEMP POTENTIAL TOTALAVG TEMPAVG PRESSURE GPRESSURE VOLUME PRESSAVG GPRESSAVG
ENERGY: 0 2.7241 3.9094 1.1464 0.0000 -10573.5908 1360.1358 0.0000 0.0000 1741.8796 -7463.7954 300.3954 -9205.6750 -7463.7954 300.3954 -707.5958 -633.0632 30380.5598 -707.5958 -633.0632
ENERGY: 300000 0.8951 3.9224 1.9246 0.0000 -10530.3366 1424.3667 0.0000 0.0000 1735.4428 -7363.7850 299.2853 -9099.2278 -7395.1022 301.8694 -34.4132 76.2433 30182.5330 -56.1973 38.0614
ENERGY: 600000 3.5267 2.9035 1.2154 0.0000 -10398.7588 1366.2489 0.0000 0.0000 1706.8248 -7318.0395 294.3500 -9024.8643 -7374.1127 300.4175 -19.8221 13.4229 30160.8982 120.8115 194.8878
ENERGY: 900000 0.7215 1.2876 1.4349 0.0000 -10539.8857 1398.5090 0.0000 0.0000 1775.4610 -7362.4716 306.1866 -9137.9326 -7380.9226 300.8708 -390.0049 -318.4508 30525.5069 -2.3413 71.1177
ENERGY: 1200000 3.1082 4.2432 2.0833 0.0000 -10649.4222 1382.4352 0.0000 0.0000 1736.7073 -7520.8449 299.5034 -9257.5522 -7402.0838 300.9528 -756.2263 -635.1642 29714.2079 -8.7820 66.9689
ENERGY: 1500000 3.0502 2.3509 1.7902 0.0000 -10526.4677 1431.4072 0.0000 0.0000 1717.7375 -7370.1317 296.2319 -9087.8692 -7405.9462 300.4863 88.2284 135.0999 30031.4100 35.9443 102.4773
TCL: Running FEP window  18: Lambda1 0.1499999999999997 Lambda2 0.09999999999999969 [dLambda -0.05 ]
TCL: Setting parameter firsttimestep to 0
TCL: Setting parameter alchLambda to 0.1499999999999997
Info: NONBONDED TABLE R-SQUARED SPACING: 0.0625
Info: NONBONDED TABLE SIZE: 705 POINTS
TCL: Setting parameter alchLambda2 to 0.09999999999999969
Info: NONBONDED TABLE R-SQUARED SPACING: 0.0625
Info: NONBONDED TABLE SIZE: 705 POINTS
TCL: Running for 1500000 steps
ETITLE: TS BOND ANGLE DIHED IMPRP ELECT VDW BOUNDARY MISC KINETIC TOTAL TEMP POTENTIAL TOTALAVG TEMPAVG PRESSURE GPRESSURE VOLUME PRESSAVG GPRESSAVG
ENERGY: 0 3.0502 2.3509 1.7902 0.0000 -10526.4669 1429.7832 0.0000 0.0000 1716.8762 -7372.6163 296.0834 -9089.4924 -7372.6163 296.0834 28.9164 123.4651 30031.4100 28.9164 123.4651
ENERGY: 300000 2.3632 3.9718 1.3127 0.0000 -10720.1597 1446.6830 0.0000 0.0000 1721.1767 -7544.6523 296.8251 -9265.8290 -7467.2045 295.5407 -32.8795 43.7687 29589.6208 278.1993 362.0553
ENERGY: 600000 1.3942 3.3286 1.1717 0.0000 -10636.4867 1441.7128 0.0000 0.0000 1758.4587 -7430.4206 303.2545 -9188.8793 -7445.6274 298.1358 186.8247 241.1483 29630.9283 141.0132 215.3886
ENERGY: 900000 1.0685 5.6988 1.1458 0.0000 -10633.9961 1383.5875 0.0000 0.0000 1756.1790 -7486.3165 302.8614 -9242.4954 -7449.4462 297.5255 -578.8130 -474.8822 29791.8005 -68.1682 15.4332
ENERGY: 1200000 2.6366 1.6323 1.4992 0.0000 -10538.6534 1382.4046 0.0000 0.0000 1737.2733 -7413.2074 299.6010 -9150.4807 -7437.9080 298.6145 -618.1054 -530.3780 30220.4293 -176.3582 -93.9382
ENERGY: 1500000 0.9690 5.6733 1.2342 0.0000 -10581.8445 1378.7066 0.0000 0.0000 1737.8328 -7457.4286 299.6975 -9195.2615 -7437.0595 298.2265 -308.9202 -296.9331 29738.3408 -114.2881 -42.3493
TCL: Running FEP window  19: Lambda1 0.09999999999999969 Lambda2 0.049999999999999684 [dLambda -0.05 ]
TCL: Setting parameter firsttimestep to 0
TCL: Setting parameter alchLambda to 0.09999999999999969
Info: NONBONDED TABLE R-SQUARED SPACING: 0.0625
Info: NONBONDED TABLE SIZE: 705 POINTS
TCL: Setting parameter alchLambda2 to 0.049999999999999684
Info: NONBONDED TABLE R-SQUARED SPACING: 0.0625
Info: NONBONDED TABLE SIZE: 705 POINTS
TCL: Running for 1500000 steps
ETITLE: TS BOND ANGLE DIHED IMPRP ELECT VDW BOUNDARY MISC KINETIC TOTAL TEMP POTENTIAL TOTALAVG TEMPAVG PRESSURE GPRESSURE VOLUME PRESSAVG GPRESSAVG
ENERGY: 0 0.9690 5.6733 1.2342 0.0000 -10581.8445 1378.6618 0.0000 0.0000 1736.9499 -7458.3563 299.5452 -9195.3062 -7458.3563 299.5452 -378.8047 -297.9464 29738.3408 -378.8047 -297.9464
ENERGY: 300000 0.2670 1.9141 1.2176 0.0000 -10520.0120 1404.9552 0.0000 0.0000 1712.3542 -7399.3039 295.3036 -9111.6581 -7427.9531 296.7341 -223.7388 -182.4397 30326.3689 -143.4937 -80.3218
ENERGY: 600000 1.0861 3.9311 1.4191 0.0000 -10529.0485 1391.8776 0.0000 0.0000 1695.6549 -7435.0798 292.4237 -9130.7347 -7407.2687 298.8264 -360.9092 -363.8720 30297.3601 -154.5010 -100.0010
ENERGY: 900000 2.0756 2.6256 1.3179 0.0000 -10515.9760 1328.6981 0.0000 0.0000 1732.3372 -7448.9216 298.7497 -9181.2587 -7416.3891 298.4549 -1107.2981 -1070.6988 30356.6462 -230.9358 -176.7646
ENERGY: 1200000 2.9255 5.4269 1.1983 0.0000 -10553.7844 1391.9847 0.0000 0.0000 1746.0264 -7406.2227 301.1105 -9152.2491 -7421.0206 298.4550 -467.3409 -446.3803 29905.9872 -226.0419 -172.5217
ENERGY: 1500000 0.3977 2.9152 1.2124 0.0000 -10514.6539 1417.4833 0.0000 0.0000 1760.7062 -7331.9392 303.6421 -9092.6454 -7417.3697 299.1049 130.2175 163.0111 29989.7583 -193.9513 -140.8802
TCL: Running FEP window  20: Lambda1 0.049999999999999684 Lambda2 0.0    [dLambda -0.049999999999999684]
TCL: Setting parameter firsttimestep to 0
TCL: Setting parameter alchLambda to 0.049999999999999684
Info: NONBONDED TABLE R-SQUARED SPACING: 0.0625
Info: NONBONDED TABLE SIZE: 705 POINTS
TCL: Setting parameter alchLambda2 to 0.0
Info: NONBONDED TABLE R-SQUARED SPACING: 0.0625
Info: NONBONDED TABLE SIZE: 705 POINTS
TCL: Running for 1500000 steps
ETITLE: TS BOND ANGLE DIHED IMPRP ELECT VDW BOUNDARY MISC KINETIC TOTAL TEMP POTENTIAL TOTALAVG TEMPAVG PRESSURE GPRESSURE VOLUME PRESSAVG GPRESSAVG
ENERGY: 0 0.3977 2.9152 1.2124 0.0000 -10514.6536 1416.9975 0.0000 0.0000 1759.8353 -7333.2955 303.4919 -9093.1309 -7333.2955 303.4919 81.2044 160.0507 29989.7583 81.2044 160.0507
ENERGY: 300000 1.5188 2.3203 1.6069 0.0000 -10722.4861 1470.4379 0.0000 0.0000 1773.3815 -7473.2208 305.8280 -9246.6023 -7368.7300 303.8784 71.3199 101.2504 29777.6063 56.6397 114.1615
ENERGY: 600000 0.5578 1.5053 1.3566 0.0000 -10593.9956 1359.7220 0.0000 0.0000 1784.2955 -7446.5584 307.7102 -9230.8538 -7404.6273 303.7776 -741.5496 -686.6493 29895.8012 -166.4848 -97.2137
ENERGY: 900000 1.0027 3.0237 1.1710 0.0000 -10651.5661 1506.5330 0.0000 0.0000 1770.8369 -7368.9987 305.3892 -9139.8356 -7408.9695 302.2419 614.4526 702.5620 30212.4477 -111.6070 -40.8099
ENERGY: 1200000 1.5028 6.1035 1.1730 0.0000 -10616.8155 1494.8925 0.0000 0.0000 1770.5710 -7342.5727 305.3433 -9113.1437 -7413.8628 301.2241 606.8825 688.6734 30131.6821 -3.8006 59.6083
ENERGY: 1500000 0.8637 1.5012 1.1552 0.0000 -10596.1802 1481.8654 0.0000 0.0000 1771.7960 -7338.9986 305.5546 -9110.7946 -7401.0425 301.8320 534.3163 600.0795 29840.6419 -10.7235 51.5240
TCL: Exiting due to exit command.
