Info: SIMULATION PARAMETERS:
Info: TIMESTEP               2
Info: NUMBER OF STEPS        0
Info: STEPS PER CYCLE        10
Info: PERIODIC CELL BASIS 1  30.8354 0 0
Info: PERIODIC CELL BASIS 2  0 32.1266 0
Info: PERIODIC CELL BASIS 3  0 0 30.8072
Info: PERIODIC CELL CENTER   0 0 0
Info: WRAPPING WATERS AROUND PERIODIC BOUNDARIES ON OUTPUT.
Info: WRAPPING ALL CLUSTERS AROUND PERIODIC BOUNDARIES ON OUTPUT.
Info: FIRST LDB TIMESTEP     50
Info: LAST LDB TIMESTEP     -1
Info: HOM BACKGROUND SCALING 1
Info: PME BACKGROUND SCALING 1
Info: MIN ATOMS PER PATCH    40
Info: EMPTY PATCH LOAD       40 ATOMS
Info: VELOCITY FILE          mobley_5056289_equil.vel
Info: CENTER OF MASS MOVING INITIALLY? NO
Info: DIELECTRIC             1
Info: EXCLUDE                SCALED ONE-FOUR
Info: 1-4 ELECTROSTATICS SCALED BY 0.833333
Info: MODIFIED 1-4 VDW PARAMETERS WILL BE USED
Info: DCD FILENAME           mobley_5056289_prod.dcd
Info: DCD FREQUENCY          100000
Info: DCD FIRST STEP         100000
Info: DCD FILE WILL CONTAIN UNIT CELL DATA
Info: XST FILENAME           mobley_5056289_prod.xst
Info: XST FREQUENCY          100000
Info: NO VELOCITY DCD OUTPUT
Info: NO FORCE DCD OUTPUT
Info: OUTPUT FILENAME        mobley_5056289_prod
Info: BINARY OUTPUT FILES WILL BE USED
Info: RESTART FILENAME       mobley_5056289_prod.restart
Info: RESTART FREQUENCY      100000
Info: BINARY RESTART FILES WILL BE USED
Info: CUTOFF                 9
Info: PAIRLIST DISTANCE      11
Info: PAIRLIST SHRINK RATE   0.01
Info: PAIRLIST GROW RATE     0.01
Info: PAIRLIST TRIGGER       0.3
Info: PAIRLISTS PER CYCLE    2
Info: PAIRLISTS ENABLED
Info: MARGIN                 2
Info: HYDROGEN GROUP CUTOFF  2.5
Info: PATCH DIMENSION        15.5
Info: ENERGY OUTPUT STEPS    100000
Info: ENERGY EVALUATION STEPS    100000
Info: OUTPUT ENERGY PRECISION 4
Info: CROSSTERM ENERGY INCLUDED IN DIHEDRAL
Info: TIMING OUTPUT STEPS    1000000
Info: PRESSURE OUTPUT STEPS  100000
Info: ALCHEMICAL FEP ON
Info: FEP CURRENT LAMBDA VALUE     1
Info: FEP COMPARISON LAMBDA VALUE  0.95
Info: FEP INTRA-ALCHEMICAL NON-BONDED INTERACTIONS WILL BE RETAINED
Info: FEP INTRA-ALCHEMICAL BONDED INTERACTIONS WILL BE RETAINED
Info: FEP VDW SHIFTING COEFFICIENT 5
Info: FEP ELEC. ACTIVE FOR ANNIHILATED PARTICLES BETWEEN LAMBDA = 0 AND LAMBDA = 0.5
Info: FEP ELEC. ACTIVE FOR EXNIHILATED PARTICLES BETWEEN LAMBDA = 0.5 AND LAMBDA = 1
Info: FEP VDW ACTIVE FOR ANNIHILATED PARTICLES BETWEEN LAMBDA = 0 AND LAMBDA = 1
Info: FEP VDW ACTIVE FOR EXNIHILATED PARTICLES BETWEEN LAMBDA = 0 AND LAMBDA = 1
Info: FEP BOND ACTIVE FOR ANNIHILATED PARTICLES BETWEEN LAMBDA = 1 AND LAMBDA = 1
Info: FEP BOND ACTIVE FOR EXNIHILATED PARTICLES BETWEEN LAMBDA = 0 AND LAMBDA = 0
Info: LANGEVIN DYNAMICS ACTIVE
Info: LANGEVIN TEMPERATURE   300
Info: LANGEVIN USING BBK INTEGRATOR
Info: LANGEVIN DAMPING COEFFICIENT IS 1 INVERSE PS
Info: LANGEVIN DYNAMICS APPLIED TO HYDROGENS
Info: LANGEVIN PISTON PRESSURE CONTROL ACTIVE
Info:        TARGET PRESSURE IS 1.01325 BAR
Info:     OSCILLATION PERIOD IS 50 FS
Info:             DECAY TIME IS 25 FS
Info:     PISTON TEMPERATURE IS 300 K
Info:       PRESSURE CONTROL IS GROUP-BASED
Info:    INITIAL STRAIN RATE IS 0.000511728 0.000511728 0.000511728
Info:       CELL FLUCTUATION IS ISOTROPIC
Info: PARTICLE MESH EWALD (PME) ACTIVE
Info: PME TOLERANCE               1e-06
Info: PME EWALD COEFFICIENT       0.348832
Info: PME INTERPOLATION ORDER     4
Info: PME GRID DIMENSIONS         32 36 32
Info: PME MAXIMUM GRID SPACING    1
Info: PME CALCULATION WILL BE PERFORMED ON GPU
Info: FULL ELECTROSTATIC EVALUATION FREQUENCY      2
Info: USING VERLET I (r-RESPA) MTS SCHEME.
Info: C1 SPLITTING OF LONG RANGE ELECTROSTATICS
Info: PLACING ATOMS IN PATCHES BY HYDROGEN GROUPS
Info: RIGID BONDS TO HYDROGEN : ALL
Info:         ERROR TOLERANCE : 1e-08
Info:          MAX ITERATIONS : 100
Info: RIGID WATER USING SETTLE ALGORITHM
Info: RANDOM NUMBER SEED     1743598998
Info: USE HYDROGEN BONDS?    NO
Info: Using AMBER format force field!
Info: AMBER PARM FILE        mobley_5056289.prmtop
Info: COORDINATE PDB         mobley_5056289.pdb
Info: Exclusions will be read from PARM file!
Info: SCNB (VDW SCALING)     2
Info: USING ARITHMETIC MEAN TO COMBINE L-J SIGMA PARAMETERS
Info: BINARY COORDINATES     mobley_5056289_equil.coor
Info: SUMMARY OF PARAMETERS:
Info: 6 BONDS
Info: 8 ANGLES
Info:   8 HARMONIC
Info:   0 COSINE-BASED
Info: 11 DIHEDRAL
Info: 0 IMPROPER
Info: 0 CROSSTERM
Info: 0 VDW
Info: 21 VDW_PAIRS
Info: 0 NBTHOLE_PAIRS
Info: To read alchdata from file: mobley_5056289.pdb
Info: To read alchflag data from column: 5
Info: STRUCTURE SUMMARY:
Info: 2923 ATOMS
Info: 2923 BONDS
Info: 31 ANGLES
Info: 56 DIHEDRALS
Info: 0 IMPROPERS
Info: 0 CROSSTERMS
Info: 2991 EXCLUSIONS
Info: 2917 RIGID BONDS
Info: ALCH: 0 ATOMS TO DISAPPEAR IN FINAL STATE
Info: ALCH: 16 ATOMS TO APPEAR IN FINAL STATE
Info: 5852 DEGREES OF FREEDOM
Info: 975 HYDROGEN GROUPS
Info: 4 ATOMS IN LARGEST HYDROGEN GROUP
Info: 975 MIGRATION GROUPS
Info: 4 ATOMS IN LARGEST MIGRATION GROUP
Info: TOTAL MASS = 17543.6 amu
Info: TOTAL CHARGE = -9.99942e-05 e
Info: MASS DENSITY = 0.95458 g/cm^3
Info: ATOM DENSITY = 0.0957772 atoms/A^3
Info: ADDED 0 IMPLICIT EXCLUSIONS
Info: NONBONDED TABLE R-SQUARED SPACING: 0.0625
Info: NONBONDED TABLE SIZE: 705 POINTS
Info: REMOVING COM VELOCITY 0.00771267 -0.157013 -0.00904867
Info: Use 3D box decompostion in PME FFT.
Info: Updated CUDA force table with 4096 elements.
Info: Updated CUDA LJ table with 6 x 6 elements.
Info: Found 19 unique exclusion lists needing 44 bytes
TCL: Running for 1500000 steps
ETITLE: TS BOND ANGLE DIHED IMPRP ELECT VDW BOUNDARY MISC KINETIC TOTAL TEMP POTENTIAL TOTALAVG TEMPAVG PRESSURE GPRESSURE VOLUME PRESSAVG GPRESSAVG
ENERGY: 0 2.9304 9.5107 9.1688 0.0000 -10573.6188 1361.1460 0.0000 0.0000 1791.0046 -7399.8583 308.0227 -9190.8629 -7399.8583 308.0227 -653.7739 -567.4380 30518.7391 -653.7739 -567.4380
ENERGY: 300000 2.2548 8.6289 10.2207 0.0000 -10496.7185 1361.2803 0.0000 0.0000 1741.2418 -7373.0921 299.4644 -9114.3339 -7351.3610 302.8022 -500.6460 -416.1231 30247.7439 42.9330 136.4617
ENERGY: 600000 1.0461 9.3419 11.3640 0.0000 -10649.7257 1455.9262 0.0000 0.0000 1779.2780 -7392.7695 306.0059 -9172.0474 -7400.1749 300.9504 286.1295 336.7000 30128.3828 43.4751 127.4852
ENERGY: 900000 1.3268 14.5204 7.4813 0.0000 -10636.9250 1403.5692 0.0000 0.0000 1769.8692 -7440.1582 304.3878 -9210.0274 -7409.6268 301.0127 23.7020 99.3144 29718.7399 47.8138 122.5830
ENERGY: 1200000 0.5416 11.9952 8.9415 0.0000 -10372.2687 1281.1873 0.0000 0.0000 1778.8382 -7290.7649 305.9303 -9069.6031 -7387.9514 302.2391 -1050.0560 -929.9828 30498.9110 -23.5574 57.6352
ENERGY: 1500000 0.3719 13.0561 8.1129 0.0000 -10503.9081 1335.7694 0.0000 0.0000 1820.5071 -7326.0906 313.0967 -9146.5977 -7378.9751 302.8203 -473.3369 -400.0794 29865.4284 -96.2019 -18.9621
TCL: Running FEP window   2: Lambda1 0.95   Lambda2 0.8999999999999999 [dLambda -0.050000000000000044]
TCL: Setting parameter firsttimestep to 0
TCL: Setting parameter alchLambda to 0.95
Info: NONBONDED TABLE R-SQUARED SPACING: 0.0625
Info: NONBONDED TABLE SIZE: 705 POINTS
TCL: Setting parameter alchLambda2 to 0.8999999999999999
Info: NONBONDED TABLE R-SQUARED SPACING: 0.0625
Info: NONBONDED TABLE SIZE: 705 POINTS
TCL: Running for 1500000 steps
ETITLE: TS BOND ANGLE DIHED IMPRP ELECT VDW BOUNDARY MISC KINETIC TOTAL TEMP POTENTIAL TOTALAVG TEMPAVG PRESSURE GPRESSURE VOLUME PRESSAVG GPRESSAVG
ENERGY: 0 0.3719 13.0561 8.1129 0.0000 -10503.7799 1336.3763 0.0000 0.0000 1819.6265 -7326.2362 312.9452 -9145.8627 -7326.2362 312.9452 -484.3485 -403.3309 29865.4284 -484.3485 -403.3309
ENERGY: 300000 1.5579 11.5754 8.3470 0.0000 -10643.0415 1439.9636 0.0000 0.0000 1774.4545 -7407.1429 305.1764 -9181.5974 -7388.8457 304.8196 186.2885 239.9172 30081.4142 -71.7843 -29.5644
ENERGY: 600000 0.4663 11.7831 8.8145 0.0000 -10635.0551 1431.4096 0.0000 0.0000 1716.1861 -7466.3956 295.1552 -9182.5816 -7408.6503 302.0762 179.2512 245.7320 29769.8070 30.7478 69.7677
ENERGY: 900000 1.6029 9.9051 13.5606 0.0000 -10686.5457 1425.9658 0.0000 0.0000 1719.0972 -7516.4141 295.6559 -9235.5113 -7423.7487 300.4658 -397.7041 -391.4364 30336.7586 -35.2076 0.3536
ENERGY: 1200000 1.2758 10.2399 9.2279 0.0000 -10624.3660 1487.1188 0.0000 0.0000 1754.5109 -7361.9928 301.7464 -9116.5038 -7417.8449 300.3530 620.8326 670.5029 29995.6225 36.7877 77.7682
ENERGY: 1500000 0.7601 15.7979 8.1048 0.0000 -10679.6634 1496.5448 0.0000 0.0000 1761.1965 -7397.2592 302.8962 -9158.4557 -7422.2453 299.9380 640.2220 743.9511 29835.2724 92.8055 136.0904
TCL: Running FEP window   3: Lambda1 0.8999999999999999 Lambda2 0.8499999999999999 [dLambda -0.050000000000000044]
TCL: Setting parameter firsttimestep to 0
TCL: Setting parameter alchLambda to 0.8999999999999999
Info: NONBONDED TABLE R-SQUARED SPACING: 0.0625
Info: NONBONDED TABLE SIZE: 705 POINTS
TCL: Setting parameter alchLambda2 to 0.8499999999999999
Info: NONBONDED TABLE R-SQUARED SPACING: 0.0625
Info: NONBONDED TABLE SIZE: 705 POINTS
TCL: Running for 1500000 steps
ETITLE: TS BOND ANGLE DIHED IMPRP ELECT VDW BOUNDARY MISC KINETIC TOTAL TEMP POTENTIAL TOTALAVG TEMPAVG PRESSURE GPRESSURE VOLUME PRESSAVG GPRESSAVG
ENERGY: 0 0.7601 15.7980 8.1048 0.0000 -10678.7660 1496.2236 0.0000 0.0000 1760.3528 -7397.5267 302.7511 -9157.8794 -7397.5267 302.7511 640.7020 731.6231 29835.2724 640.7020 731.6231
ENERGY: 300000 1.7969 8.8106 10.5739 0.0000 -10571.2716 1370.2124 0.0000 0.0000 1737.2049 -7442.6728 298.7701 -9179.8777 -7441.8030 297.4446 -627.1470 -577.0668 30678.2965 -85.2660 9.6831
ENERGY: 600000 1.2442 10.3869 9.0302 0.0000 -10449.0145 1338.3503 0.0000 0.0000 1788.3129 -7301.6900 307.5598 -9090.0029 -7407.6675 300.4170 -262.0916 -197.7140 30091.8323 93.8961 172.5839
ENERGY: 900000 1.4151 9.9505 7.8901 0.0000 -10582.6308 1457.9846 0.0000 0.0000 1733.3827 -7372.0079 298.1127 -9105.3905 -7399.5422 299.7367 617.9277 692.5759 29883.9182 167.5489 239.0388
ENERGY: 1200000 1.6764 9.0853 9.6790 0.0000 -10572.8183 1455.5446 0.0000 0.0000 1748.6608 -7348.1721 300.7403 -9096.8329 -7398.9450 299.5872 514.4413 566.9101 29822.7642 73.2593 140.1780
ENERGY: 1500000 1.4600 10.9906 9.3705 0.0000 -10576.0225 1362.5354 0.0000 0.0000 1780.5101 -7411.1558 306.2178 -9191.6659 -7396.1506 299.9132 -407.2400 -462.6176 29989.7028 -34.2894 28.7389
TCL: Running FEP window   4: Lambda1 0.8499999999999999 Lambda2 0.7999999999999998 [dLambda -0.050000000000000044]
TCL: Setting parameter firsttimestep to 0
TCL: Setting parameter alchLambda to 0.8499999999999999
Info: NONBONDED TABLE R-SQUARED SPACING: 0.0625
Info: NONBONDED TABLE SIZE: 705 POINTS
TCL: Setting parameter alchLambda2 to 0.7999999999999998
Info: NONBONDED TABLE R-SQUARED SPACING: 0.0625
Info: NONBONDED TABLE SIZE: 705 POINTS
TCL: Running for 1500000 steps
ETITLE: TS BOND ANGLE DIHED IMPRP ELECT VDW BOUNDARY MISC KINETIC TOTAL TEMP POTENTIAL TOTALAVG TEMPAVG PRESSURE GPRESSURE VOLUME PRESSAVG GPRESSAVG
ENERGY: 0 1.4600 10.9906 9.3705 0.0000 -10575.5335 1362.5214 0.0000 0.0000 1779.6373 -7411.5537 306.0677 -9191.1910 -7411.5537 306.0677 -551.0371 -470.6503 29989.7028 -551.0371 -470.6503
ENERGY: 300000 1.0530 9.5165 13.1903 0.0000 -10481.4028 1275.2995 0.0000 0.0000 1760.1161 -7422.2275 302.7104 -9182.3436 -7394.1538 300.6993 -1355.3004 -1316.5235 30368.7830 -576.6566 -538.8617
ENERGY: 600000 1.2233 10.4144 9.6237 0.0000 -10577.3759 1441.9944 0.0000 0.0000 1746.4209 -7367.6991 300.3551 -9114.1200 -7400.0729 299.2857 304.4571 367.2096 30228.9590 -398.1159 -357.5390
ENERGY: 900000 2.4777 10.4566 8.4926 0.0000 -10669.1517 1511.4505 0.0000 0.0000 1752.3608 -7383.9135 301.3767 -9136.2743 -7400.5411 298.8597 801.6265 850.6487 30013.1961 -184.8828 -136.0564
ENERGY: 1200000 2.2599 12.9900 8.7118 0.0000 -10710.6119 1455.8743 0.0000 0.0000 1807.1642 -7423.6117 310.8019 -9230.7759 -7409.2629 300.3642 17.5978 68.8648 30147.5564 -219.6599 -163.2441
ENERGY: 1500000 1.5651 10.0622 8.9205 0.0000 -10503.1230 1367.1112 0.0000 0.0000 1760.9585 -7354.5055 302.8553 -9115.4640 -7408.1206 300.0512 -406.3580 -416.0616 30354.8035 -216.4223 -171.0994
TCL: Running FEP window   5: Lambda1 0.7999999999999998 Lambda2 0.7499999999999998 [dLambda -0.050000000000000044]
TCL: Setting parameter firsttimestep to 0
TCL: Setting parameter alchLambda to 0.7999999999999998
Info: NONBONDED TABLE R-SQUARED SPACING: 0.0625
Info: NONBONDED TABLE SIZE: 705 POINTS
TCL: Setting parameter alchLambda2 to 0.7499999999999998
Info: NONBONDED TABLE R-SQUARED SPACING: 0.0625
Info: NONBONDED TABLE SIZE: 705 POINTS
TCL: Running for 1500000 steps
ETITLE: TS BOND ANGLE DIHED IMPRP ELECT VDW BOUNDARY MISC KINETIC TOTAL TEMP POTENTIAL TOTALAVG TEMPAVG PRESSURE GPRESSURE VOLUME PRESSAVG GPRESSAVG
ENERGY: 0 1.5651 10.0622 8.9205 0.0000 -10502.3639 1367.4079 0.0000 0.0000 1760.1610 -7354.2472 302.7182 -9114.4082 -7354.2472 302.7182 -503.4914 -417.0737 30354.8035 -503.4914 -417.0737
ENERGY: 300000 1.5116 9.7889 8.7973 0.0000 -10678.7274 1478.6691 0.0000 0.0000 1738.7813 -7441.1792 299.0412 -9179.9605 -7379.1982 301.8250 518.4132 640.2416 29752.2491 -340.6457 -289.4093
ENERGY: 600000 6.4264 12.4789 10.7436 0.0000 -10665.2626 1439.2828 0.0000 0.0000 1755.0346 -7441.2962 301.8365 -9196.3309 -7389.1344 302.8782 63.5869 137.3456 29960.5707 -325.6633 -281.8635
ENERGY: 900000 4.1151 13.4834 10.5483 0.0000 -10640.9864 1423.9338 0.0000 0.0000 1736.5244 -7452.3813 298.6531 -9188.9057 -7416.7949 301.0026 -1.6371 84.6013 29906.8534 -260.3158 -201.5201
ENERGY: 1200000 1.6556 13.4256 8.4983 0.0000 -10541.4345 1414.6687 0.0000 0.0000 1762.4030 -7340.7832 303.1037 -9103.1863 -7391.1644 301.4019 29.7655 98.3191 30098.3139 -242.3524 -179.7325
ENERGY: 1500000 1.0191 7.5251 10.3017 0.0000 -10670.2985 1468.1718 0.0000 0.0000 1736.9293 -7446.3515 298.7227 -9183.2808 -7401.5693 300.3520 221.7840 374.2438 29910.9683 -198.0360 -126.5706
TCL: Running FEP window   6: Lambda1 0.7499999999999998 Lambda2 0.6999999999999997 [dLambda -0.050000000000000044]
TCL: Setting parameter firsttimestep to 0
TCL: Setting parameter alchLambda to 0.7499999999999998
Info: NONBONDED TABLE R-SQUARED SPACING: 0.0625
Info: NONBONDED TABLE SIZE: 705 POINTS
TCL: Setting parameter alchLambda2 to 0.6999999999999997
Info: NONBONDED TABLE R-SQUARED SPACING: 0.0625
Info: NONBONDED TABLE SIZE: 705 POINTS
TCL: Running for 1500000 steps
ETITLE: TS BOND ANGLE DIHED IMPRP ELECT VDW BOUNDARY MISC KINETIC TOTAL TEMP POTENTIAL TOTALAVG TEMPAVG PRESSURE GPRESSURE VOLUME PRESSAVG GPRESSAVG
ENERGY: 0 1.0191 7.5251 10.3017 0.0000 -10669.7412 1468.4770 0.0000 0.0000 1736.0454 -7446.3729 298.5707 -9182.4182 -7446.3729 298.5707 297.7456 374.8418 29910.9683 297.7456 374.8418
ENERGY: 300000 1.5770 7.3215 11.8770 0.0000 -10534.5670 1383.5762 0.0000 0.0000 1740.9056 -7389.3097 299.4065 -9130.2153 -7424.4527 298.4978 -248.0556 -183.7235 30120.9891 234.7300 300.9635
ENERGY: 600000 4.1758 10.1349 10.0402 0.0000 -10514.5295 1373.6326 0.0000 0.0000 1729.5365 -7387.0096 297.4512 -9116.5461 -7394.1119 299.7995 -286.6391 -213.9660 30231.1536 25.2828 92.9138
ENERGY: 900000 1.0546 14.8773 8.2795 0.0000 -10757.8417 1469.4420 0.0000 0.0000 1709.9300 -7554.2583 294.0793 -9264.1883 -7407.2248 299.1278 -114.3223 -91.5950 30106.5358 39.3108 98.4849
ENERGY: 1200000 4.3047 7.7831 9.7564 0.0000 -10532.4292 1422.1658 0.0000 0.0000 1765.7704 -7322.6488 303.6829 -9088.4192 -7397.7467 299.7288 -144.0068 -22.2819 30239.4686 -81.7591 -25.6071
ENERGY: 1500000 1.3071 10.4214 10.4773 0.0000 -10563.3921 1427.7392 0.0000 0.0000 1718.5216 -7394.9254 295.5569 -9113.4470 -7400.5241 299.4934 -195.7691 -149.6189 30394.8799 -74.8946 -20.5849
TCL: Running FEP window   7: Lambda1 0.6999999999999997 Lambda2 0.6499999999999997 [dLambda -0.050000000000000044]
TCL: Setting parameter firsttimestep to 0
TCL: Setting parameter alchLambda to 0.6999999999999997
Info: NONBONDED TABLE R-SQUARED SPACING: 0.0625
Info: NONBONDED TABLE SIZE: 705 POINTS
TCL: Setting parameter alchLambda2 to 0.6499999999999997
Info: NONBONDED TABLE R-SQUARED SPACING: 0.0625
Info: NONBONDED TABLE SIZE: 705 POINTS
TCL: Running for 1500000 steps
ETITLE: TS BOND ANGLE DIHED IMPRP ELECT VDW BOUNDARY MISC KINETIC TOTAL TEMP POTENTIAL TOTALAVG TEMPAVG PRESSURE GPRESSURE VOLUME PRESSAVG GPRESSAVG
ENERGY: 0 1.3071 10.4214 10.4773 0.0000 -10562.9160 1428.2615 0.0000 0.0000 1717.6800 -7394.7686 295.4121 -9112.4486 -7394.7686 295.4121 -224.2310 -151.2227 30394.8799 -224.2310 -151.2227
ENERGY: 300000 0.6199 9.7808 8.8236 0.0000 -10740.7125 1554.0300 0.0000 0.0000 1753.6578 -7413.8004 301.5997 -9167.4583 -7397.1418 296.6490 1086.8081 1120.4084 29824.8572 287.9155 357.0274
ENERGY: 600000 2.7432 7.9721 9.8795 0.0000 -10624.8437 1440.5491 0.0000 0.0000 1733.5495 -7430.1503 298.1414 -9163.6998 -7403.3970 297.7639 178.5790 269.5201 29648.2845 152.1754 240.8001
ENERGY: 900000 2.0650 9.9915 8.8874 0.0000 -10582.9117 1419.8305 0.0000 0.0000 1775.3738 -7366.7635 305.3345 -9142.1374 -7406.7939 299.0547 214.1911 265.8370 29828.1933 85.4893 172.7741
ENERGY: 1200000 0.8993 10.5608 10.6747 0.0000 -10507.4112 1369.1108 0.0000 0.0000 1766.3189 -7349.8466 303.7772 -9116.1656 -7393.7324 299.3629 -583.5318 -527.0675 30380.9850 -74.5266 11.4368
ENERGY: 1500000 2.9346 8.3525 10.0813 0.0000 -10685.3126 1532.5242 0.0000 0.0000 1758.7101 -7372.7098 302.4686 -9131.4199 -7394.6029 299.2011 1089.4390 1142.5130 29855.8875 49.4697 128.6765
TCL: Running FEP window   8: Lambda1 0.6499999999999997 Lambda2 0.5999999999999996 [dLambda -0.050000000000000044]
TCL: Setting parameter firsttimestep to 0
TCL: Setting parameter alchLambda to 0.6499999999999997
Info: NONBONDED TABLE R-SQUARED SPACING: 0.0625
Info: NONBONDED TABLE SIZE: 705 POINTS
TCL: Setting parameter alchLambda2 to 0.5999999999999996
Info: NONBONDED TABLE R-SQUARED SPACING: 0.0625
Info: NONBONDED TABLE SIZE: 705 POINTS
TCL: Running for 1500000 steps
ETITLE: TS BOND ANGLE DIHED IMPRP ELECT VDW BOUNDARY MISC KINETIC TOTAL TEMP POTENTIAL TOTALAVG TEMPAVG PRESSURE GPRESSURE VOLUME PRESSAVG GPRESSAVG
ENERGY: 0 2.9346 8.3525 10.0813 0.0000 -10685.0428 1532.9080 0.0000 0.0000 1757.8318 -7372.9345 302.3176 -9130.7663 -7372.9345 302.3176 1050.3789 1138.4863 29855.8875 1050.3789 1138.4863
ENERGY: 300000 3.4034 9.4986 9.9064 0.0000 -10623.1291 1466.7471 0.0000 0.0000 1749.3666 -7384.2070 300.8617 -9133.5736 -7420.6465 297.8438 241.9810 338.0892 30356.2542 291.6251 389.3804
ENERGY: 600000 1.4814 9.9970 9.1231 0.0000 -10688.6888 1480.2222 0.0000 0.0000 1754.2421 -7433.6231 301.7002 -9187.8652 -7415.0325 298.9947 92.2438 89.8555 30333.4516 53.8439 125.9401
ENERGY: 900000 2.1292 8.0033 8.9438 0.0000 -10718.5297 1457.7202 0.0000 0.0000 1742.9371 -7498.7962 299.7559 -9241.7333 -7429.1052 298.5194 51.0937 46.8872 29995.4944 -26.2433 34.4726
ENERGY: 1200000 1.6266 7.9670 10.7394 0.0000 -10641.2744 1451.3986 0.0000 0.0000 1752.0533 -7417.4894 301.3238 -9169.5428 -7435.1845 298.9565 526.6275 578.7689 29545.7510 74.5417 143.6972
ENERGY: 1500000 1.0789 17.4350 9.5140 0.0000 -10520.2051 1331.2323 0.0000 0.0000 1723.5056 -7437.4393 296.4140 -9160.9448 -7428.5022 298.8078 -648.1899 -581.7337 29733.1891 50.6101 116.3221
TCL: Running FEP window   9: Lambda1 0.5999999999999996 Lambda2 0.5499999999999996 [dLambda -0.050000000000000044]
TCL: Setting parameter firsttimestep to 0
TCL: Setting parameter alchLambda to 0.5999999999999996
Info: NONBONDED TABLE R-SQUARED SPACING: 0.0625
Info: NONBONDED TABLE SIZE: 705 POINTS
TCL: Setting parameter alchLambda2 to 0.5499999999999996
Info: NONBONDED TABLE R-SQUARED SPACING: 0.0625
Info: NONBONDED TABLE SIZE: 705 POINTS
TCL: Running for 1500000 steps
ETITLE: TS BOND ANGLE DIHED IMPRP ELECT VDW BOUNDARY MISC KINETIC TOTAL TEMP POTENTIAL TOTALAVG TEMPAVG PRESSURE GPRESSURE VOLUME PRESSAVG GPRESSAVG
ENERGY: 0 1.0789 17.4350 9.5140 0.0000 -10519.8892 1330.7518 0.0000 0.0000 1722.6408 -7438.4686 296.2653 -9161.1094 -7438.4686 296.2653 -681.2643 -593.8849 29733.1891 -681.2643 -593.8849
ENERGY: 300000 1.7345 8.0843 9.4055 0.0000 -10603.6852 1441.4590 0.0000 0.0000 1714.3566 -7428.6453 294.8406 -9143.0019 -7425.4991 297.0591 67.0951 69.1038 30472.1683 -221.9786 -160.2623
ENERGY: 600000 0.4730 13.0503 8.9129 0.0000 -10539.4828 1378.9545 0.0000 0.0000 1788.0864 -7350.0056 307.5209 -9138.0920 -7401.3701 299.2760 -312.5998 -271.6042 29981.4740 -139.6572 -86.6219
ENERGY: 900000 0.7652 8.1123 9.4773 0.0000 -10665.0278 1469.2322 0.0000 0.0000 1680.0291 -7497.4116 288.9368 -9177.4408 -7415.7673 299.4752 470.7400 564.7509 29529.2146 45.5875 98.7863
ENERGY: 1200000 0.7826 10.2766 9.5238 0.0000 -10558.1298 1355.6292 0.0000 0.0000 1711.6242 -7470.2934 294.3706 -9181.9175 -7422.4130 298.4144 -510.3282 -439.9120 29746.0034 -18.6459 28.7974
ENERGY: 1500000 1.1677 9.3358 8.9813 0.0000 -10654.7475 1417.5704 0.0000 0.0000 1728.9809 -7488.7113 297.3557 -9217.6922 -7422.4378 298.8141 -97.8908 -139.7838 29769.6970 -48.3529 -1.7616
TCL: Running FEP window  10: Lambda1 0.5499999999999996 Lambda2 0.4999999999999996 [dLambda -0.04999999999999999]
TCL: Setting parameter firsttimestep to 0
TCL: Setting parameter alchLambda to 0.5499999999999996
Info: NONBONDED TABLE R-SQUARED SPACING: 0.0625
Info: NONBONDED TABLE SIZE: 705 POINTS
TCL: Setting parameter alchLambda2 to 0.4999999999999996
Info: NONBONDED TABLE R-SQUARED SPACING: 0.0625
Info: NONBONDED TABLE SIZE: 705 POINTS
TCL: Running for 1500000 steps
ETITLE: TS BOND ANGLE DIHED IMPRP ELECT VDW BOUNDARY MISC KINETIC TOTAL TEMP POTENTIAL TOTALAVG TEMPAVG PRESSURE GPRESSURE VOLUME PRESSAVG GPRESSAVG
ENERGY: 0 1.1677 9.3358 8.9813 0.0000 -10653.6310 1417.2619 0.0000 0.0000 1728.1344 -7488.7498 297.2101 -9216.8843 -7488.7498 297.2101 -222.4197 -148.7615 29769.6970 -222.4197 -148.7615
ENERGY: 300000 0.9824 14.7571 8.0622 0.0000 -10537.9993 1398.0790 0.0000 0.0000 1766.2451 -7349.8736 303.7645 -9116.1187 -7412.9181 298.3961 -237.4096 -195.4519 30459.6884 -135.4127 -62.0992
ENERGY: 600000 2.0302 8.5904 11.9464 0.0000 -10428.6421 1377.3347 0.0000 0.0000 1773.4019 -7255.3385 304.9954 -9028.7404 -7374.5861 302.0138 -266.6814 -204.6558 30610.2031 -209.9300 -151.4269
ENERGY: 900000 1.6432 11.6752 8.8632 0.0000 -10551.2814 1422.0097 0.0000 0.0000 1763.0295 -7344.0606 303.2115 -9107.0901 -7384.6211 301.8026 -289.6894 -186.1234 30301.5513 -167.7383 -108.2968
ENERGY: 1200000 1.3745 13.2539 8.4790 0.0000 -10631.8782 1430.5923 0.0000 0.0000 1843.1891 -7334.9895 316.9976 -9178.1786 -7386.4307 302.1554 -497.0420 -378.5080 30454.0316 -171.9486 -109.6029
ENERGY: 1500000 0.0803 9.4822 10.6416 0.0000 -10693.8951 1466.4966 0.0000 0.0000 1767.8650 -7439.3293 304.0431 -9207.1944 -7393.3558 301.4958 192.7431 220.2391 29972.8198 -187.6700 -128.6387
TCL: Running FEP window  11: Lambda1 0.4999999999999996 Lambda2 0.4499999999999996 [dLambda -0.04999999999999999]
TCL: Setting parameter firsttimestep to 0
TCL: Setting parameter alchLambda to 0.4999999999999996
Info: NONBONDED TABLE R-SQUARED SPACING: 0.0625
Info: NONBONDED TABLE SIZE: 705 POINTS
TCL: Setting parameter alchLambda2 to 0.4499999999999996
Info: NONBONDED TABLE R-SQUARED SPACING: 0.0625
Info: NONBONDED TABLE SIZE: 705 POINTS
TCL: Running for 1500000 steps
ETITLE: TS BOND ANGLE DIHED IMPRP ELECT VDW BOUNDARY MISC KINETIC TOTAL TEMP POTENTIAL TOTALAVG TEMPAVG PRESSURE GPRESSURE VOLUME PRESSAVG GPRESSAVG
ENERGY: 0 0.0803 9.4822 10.6416 0.0000 -10693.9349 1466.9279 0.0000 0.0000 1766.9814 -7439.8215 303.8911 -9206.8029 -7439.8215 303.8911 133.2197 217.8332 29972.8198 133.2197 217.8332
ENERGY: 300000 4.4439 10.6470 7.9176 0.0000 -10449.3633 1313.0673 0.0000 0.0000 1756.5155 -7356.7721 302.0912 -9113.2875 -7410.4434 300.1421 -808.5204 -826.4741 29980.7798 -127.5588 -93.7881
ENERGY: 600000 1.5405 10.7796 11.7558 0.0000 -10586.8743 1457.2247 0.0000 0.0000 1727.9550 -7377.6187 297.1793 -9105.5737 -7417.7638 299.6223 384.3725 446.7842 29834.7166 -236.2307 -196.9517
ENERGY: 900000 1.9894 10.5588 10.3592 0.0000 -10627.4940 1473.8627 0.0000 0.0000 1763.5167 -7367.2072 303.2953 -9130.7239 -7400.6167 301.1505 552.0386 524.6822 29914.4185 -96.7308 -56.3709
ENERGY: 1200000 1.6687 11.3391 10.5469 0.0000 -10599.9684 1431.6389 0.0000 0.0000 1775.8881 -7368.8867 305.4229 -9144.7748 -7381.9293 302.1074 306.4242 399.3351 29701.9217 -54.4044 -8.2441
ENERGY: 1500000 5.7457 7.5138 11.6905 0.0000 -10609.5719 1386.6590 0.0000 0.0000 1772.7411 -7425.2217 304.8817 -9197.9629 -7384.2081 301.6030 -402.5605 -439.3630 29947.0655 -76.8027 -34.8493
TCL: Running FEP window  12: Lambda1 0.4499999999999996 Lambda2 0.39999999999999963 [dLambda -0.04999999999999999]
TCL: Setting parameter firsttimestep to 0
TCL: Setting parameter alchLambda to 0.4499999999999996
Info: NONBONDED TABLE R-SQUARED SPACING: 0.0625
Info: NONBONDED TABLE SIZE: 705 POINTS
TCL: Setting parameter alchLambda2 to 0.39999999999999963
Info: NONBONDED TABLE R-SQUARED SPACING: 0.0625
Info: NONBONDED TABLE SIZE: 705 POINTS
TCL: Running for 1500000 steps
ETITLE: TS BOND ANGLE DIHED IMPRP ELECT VDW BOUNDARY MISC KINETIC TOTAL TEMP POTENTIAL TOTALAVG TEMPAVG PRESSURE GPRESSURE VOLUME PRESSAVG GPRESSAVG
ENERGY: 0 5.7457 7.5138 11.6905 0.0000 -10609.5714 1387.0332 0.0000 0.0000 1771.8443 -7425.7438 304.7275 -9197.5882 -7425.7438 304.7275 -516.3232 -437.8285 29947.0655 -516.3232 -437.8285
ENERGY: 300000 0.5699 9.8514 10.8264 0.0000 -10447.4012 1331.9137 0.0000 0.0000 1756.4964 -7337.7434 302.0879 -9094.2398 -7404.1464 302.4444 -611.8370 -511.8486 29975.9732 -282.8975 -211.6417
ENERGY: 600000 0.3922 8.0540 9.1634 0.0000 -10539.5389 1425.3681 0.0000 0.0000 1811.4222 -7285.1390 311.5342 -9096.5612 -7410.9172 302.0326 150.6558 176.6696 30185.3781 -224.5356 -150.7155
ENERGY: 900000 1.1504 7.5966 9.4631 0.0000 -10522.4080 1330.6076 0.0000 0.0000 1769.8203 -7403.7700 304.3794 -9173.5903 -7407.1544 300.9957 -1024.6143 -932.7667 30208.0224 -244.5030 -164.7019
ENERGY: 1200000 1.1188 11.2125 10.7672 0.0000 -10764.7283 1493.3497 0.0000 0.0000 1775.6623 -7472.6179 305.3841 -9248.2802 -7417.4131 301.0734 80.8037 78.8543 30187.8068 -220.7026 -149.5516
ENERGY: 1500000 1.1496 8.6243 10.3521 0.0000 -10596.3188 1448.2895 0.0000 0.0000 1724.6972 -7403.2061 296.6190 -9127.9033 -7420.5765 300.1735 440.1703 464.4552 29642.3741 -178.2274 -111.7444
TCL: Running FEP window  13: Lambda1 0.39999999999999963 Lambda2 0.34999999999999964 [dLambda -0.04999999999999999]
TCL: Setting parameter firsttimestep to 0
TCL: Setting parameter alchLambda to 0.39999999999999963
Info: NONBONDED TABLE R-SQUARED SPACING: 0.0625
Info: NONBONDED TABLE SIZE: 705 POINTS
TCL: Setting parameter alchLambda2 to 0.34999999999999964
Info: NONBONDED TABLE R-SQUARED SPACING: 0.0625
Info: NONBONDED TABLE SIZE: 705 POINTS
TCL: Running for 1500000 steps
ETITLE: TS BOND ANGLE DIHED IMPRP ELECT VDW BOUNDARY MISC KINETIC TOTAL TEMP POTENTIAL TOTALAVG TEMPAVG PRESSURE GPRESSURE VOLUME PRESSAVG GPRESSAVG
ENERGY: 0 1.1496 8.6243 10.3521 0.0000 -10596.3193 1448.8610 0.0000 0.0000 1723.8256 -7403.5067 296.4691 -9127.3323 -7403.5067 296.4691 379.2789 465.5714 29642.3741 379.2789 465.5714
ENERGY: 300000 2.8315 12.8224 11.0093 0.0000 -10657.5372 1451.0211 0.0000 0.0000 1714.3876 -7465.4652 294.8459 -9179.8528 -7421.7046 297.4996 -100.4495 -8.6226 29974.2995 58.9265 154.3015
ENERGY: 600000 5.5228 7.1615 9.8963 0.0000 -10745.7609 1549.8535 0.0000 0.0000 1757.5451 -7415.7817 302.2683 -9173.3267 -7411.2332 299.7206 964.0268 1073.4196 29601.9331 201.0500 295.8839
ENERGY: 900000 2.9762 9.2246 11.2074 0.0000 -10513.1147 1399.1282 0.0000 0.0000 1714.1606 -7376.4176 294.8069 -9090.5782 -7393.5376 299.4197 -51.6067 -30.1871 30098.8028 81.9344 159.9967
ENERGY: 1200000 0.9967 11.6714 10.0803 0.0000 -10639.2343 1462.9993 0.0000 0.0000 1760.7673 -7392.7193 302.8224 -9153.4867 -7396.7506 300.5979 285.1120 326.6873 29995.4998 114.4871 187.7752
ENERGY: 1500000 2.1422 9.5273 8.5811 0.0000 -10722.4190 1484.6601 0.0000 0.0000 1736.0740 -7481.4344 298.5756 -9217.5084 -7406.9529 299.6138 376.9375 403.7481 29739.0602 160.2333 229.1118
TCL: Running FEP window  14: Lambda1 0.34999999999999964 Lambda2 0.29999999999999966 [dLambda -0.04999999999999999]
TCL: Setting parameter firsttimestep to 0
TCL: Setting parameter alchLambda to 0.34999999999999964
Info: NONBONDED TABLE R-SQUARED SPACING: 0.0625
Info: NONBONDED TABLE SIZE: 705 POINTS
TCL: Setting parameter alchLambda2 to 0.29999999999999966
Info: NONBONDED TABLE R-SQUARED SPACING: 0.0625
Info: NONBONDED TABLE SIZE: 705 POINTS
TCL: Running for 1500000 steps
ETITLE: TS BOND ANGLE DIHED IMPRP ELECT VDW BOUNDARY MISC KINETIC TOTAL TEMP POTENTIAL TOTALAVG TEMPAVG PRESSURE GPRESSURE VOLUME PRESSAVG GPRESSAVG
ENERGY: 0 2.1422 9.5273 8.5811 0.0000 -10722.4178 1484.9694 0.0000 0.0000 1735.1966 -7482.0013 298.4247 -9217.1979 -7482.0013 298.4247 321.8083 402.4850 29739.0602 321.8083 402.4850
ENERGY: 300000 3.8101 9.4922 8.3638 0.0000 -10665.2418 1482.0435 0.0000 0.0000 1704.7290 -7456.8032 293.1848 -9161.5322 -7432.2204 300.1139 219.9940 287.4320 30063.0526 379.5951 432.5196
ENERGY: 600000 1.5172 11.5422 8.6973 0.0000 -10636.2323 1419.3846 0.0000 0.0000 1762.9102 -7432.1808 303.1910 -9195.0909 -7427.3318 300.1665 -223.8399 -199.8734 29790.5640 -110.8946 -62.1853
ENERGY: 900000 1.0574 8.8248 10.7362 0.0000 -10520.9597 1409.6188 0.0000 0.0000 1785.6003 -7305.1223 307.0933 -9090.7226 -7404.2738 301.0547 -94.5504 6.0582 30133.9514 -96.0928 -51.3445
ENERGY: 1200000 2.2875 9.1229 10.2365 0.0000 -10452.9577 1324.0498 0.0000 0.0000 1787.1163 -7320.1448 307.3540 -9107.2611 -7398.1985 301.3148 -682.6920 -653.5164 30190.1542 -34.3385 17.0113
ENERGY: 1500000 1.6229 7.4383 9.8676 0.0000 -10515.8728 1387.5034 0.0000 0.0000 1703.5846 -7405.8559 292.9880 -9109.4405 -7394.6350 301.0055 -68.9738 -92.9845 29952.8072 -47.7240 -1.9826
TCL: Running FEP window  15: Lambda1 0.29999999999999966 Lambda2 0.24999999999999967 [dLambda -0.04999999999999999]
TCL: Setting parameter firsttimestep to 0
TCL: Setting parameter alchLambda to 0.29999999999999966
Info: NONBONDED TABLE R-SQUARED SPACING: 0.0625
Info: NONBONDED TABLE SIZE: 705 POINTS
TCL: Setting parameter alchLambda2 to 0.24999999999999967
Info: NONBONDED TABLE R-SQUARED SPACING: 0.0625
Info: NONBONDED TABLE SIZE: 705 POINTS
TCL: Running for 1500000 steps
ETITLE: TS BOND ANGLE DIHED IMPRP ELECT VDW BOUNDARY MISC KINETIC TOTAL TEMP POTENTIAL TOTALAVG TEMPAVG PRESSURE GPRESSURE VOLUME PRESSAVG GPRESSAVG
ENERGY: 0 1.6229 7.4383 9.8676 0.0000 -10515.8741 1387.8413 0.0000 0.0000 1702.7560 -7406.3480 292.8455 -9109.1040 -7406.3480 292.8455 -161.9624 -96.7288 29952.8072 -161.9624 -96.7288
ENERGY: 300000 1.8436 16.5592 9.0008 0.0000 -10584.2415 1489.1192 0.0000 0.0000 1731.7908 -7335.9279 297.8390 -9067.7187 -7384.6733 296.3665 399.6671 467.1540 30228.6813 288.2414 370.2798
ENERGY: 600000 0.2184 12.5447 7.8291 0.0000 -10485.6690 1353.8322 0.0000 0.0000 1752.5566 -7358.6880 301.4103 -9111.2446 -7384.6663 296.9566 -589.4870 -481.0005 30306.5064 -145.3874 -56.6237
ENERGY: 900000 1.6956 7.0994 9.7344 0.0000 -10516.5915 1362.6092 0.0000 0.0000 1767.6057 -7367.8472 303.9985 -9135.4529 -7379.0845 298.5422 -520.9365 -448.3190 30055.7359 -162.0984 -69.1605
ENERGY: 1200000 2.3871 10.2120 11.3978 0.0000 -10656.9074 1465.3591 0.0000 0.0000 1728.4329 -7439.1185 297.2614 -9167.5514 -7385.9947 299.1193 -153.6659 -52.5329 30220.2695 -136.9233 -50.7894
ENERGY: 1500000 1.7071 15.5532 7.8634 0.0000 -10486.8673 1352.2784 0.0000 0.0000 1756.9615 -7352.5037 302.1679 -9109.4652 -7386.2150 299.3793 -536.9064 -524.5810 30309.4175 -205.5270 -129.7035
TCL: Running FEP window  16: Lambda1 0.24999999999999967 Lambda2 0.19999999999999968 [dLambda -0.04999999999999999]
TCL: Setting parameter firsttimestep to 0
TCL: Setting parameter alchLambda to 0.24999999999999967
Info: NONBONDED TABLE R-SQUARED SPACING: 0.0625
Info: NONBONDED TABLE SIZE: 705 POINTS
TCL: Setting parameter alchLambda2 to 0.19999999999999968
Info: NONBONDED TABLE R-SQUARED SPACING: 0.0625
Info: NONBONDED TABLE SIZE: 705 POINTS
TCL: Running for 1500000 steps
ETITLE: TS BOND ANGLE DIHED IMPRP ELECT VDW BOUNDARY MISC KINETIC TOTAL TEMP POTENTIAL TOTALAVG TEMPAVG PRESSURE GPRESSURE VOLUME PRESSAVG GPRESSAVG
ENERGY: 0 1.7071 15.5532 7.8634 0.0000 -10486.8669 1352.5779 0.0000 0.0000 1756.0790 -7353.0864 302.0161 -9109.1654 -7353.0864 302.0161 -622.1279 -524.8876 30309.4175 -622.1279 -524.8876
ENERGY: 300000 2.0626 9.4923 9.2047 0.0000 -10621.7136 1436.0484 0.0000 0.0000 1780.9184 -7383.9872 306.2881 -9164.9056 -7389.5841 302.1650 45.2843 110.8924 29725.6358 -337.9058 -268.6238
ENERGY: 600000 0.7396 10.0136 10.3681 0.0000 -10504.1518 1368.6500 0.0000 0.0000 1716.3221 -7398.0584 295.1786 -9114.3806 -7403.2498 300.1232 -732.6666 -697.4179 30502.4771 -469.7214 -392.2722
ENERGY: 900000 1.4870 9.1420 8.1244 0.0000 -10505.3474 1304.4731 0.0000 0.0000 1673.8395 -7508.2813 287.8723 -9182.1208 -7409.0622 299.2535 -1180.5595 -1155.3893 30008.3902 -479.8419 -423.0103
ENERGY: 1200000 0.8600 10.3319 9.4753 0.0000 -10694.6605 1482.5095 0.0000 0.0000 1793.2094 -7398.2744 308.4019 -9191.4838 -7405.0327 299.1069 540.9504 618.3416 29691.2505 -470.4079 -417.3005
ENERGY: 1500000 1.1707 11.3623 8.9410 0.0000 -10688.7371 1486.5038 0.0000 0.0000 1723.0834 -7457.6760 296.3414 -9180.7594 -7404.7795 299.7410 484.1940 477.9241 29888.6494 -352.1242 -298.0566
TCL: Running FEP window  17: Lambda1 0.19999999999999968 Lambda2 0.1499999999999997 [dLambda -0.04999999999999999]
TCL: Setting parameter firsttimestep to 0
TCL: Setting parameter alchLambda to 0.19999999999999968
Info: NONBONDED TABLE R-SQUARED SPACING: 0.0625
Info: NONBONDED TABLE SIZE: 705 POINTS
TCL: Setting parameter alchLambda2 to 0.1499999999999997
Info: NONBONDED TABLE R-SQUARED SPACING: 0.0625
Info: NONBONDED TABLE SIZE: 705 POINTS
TCL: Running for 1500000 steps
ETITLE: TS BOND ANGLE DIHED IMPRP ELECT VDW BOUNDARY MISC KINETIC TOTAL TEMP POTENTIAL TOTALAVG TEMPAVG PRESSURE GPRESSURE VOLUME PRESSAVG GPRESSAVG
ENERGY: 0 1.1707 11.3623 8.9410 0.0000 -10688.7381 1486.3463 0.0000 0.0000 1722.2208 -7458.6970 296.1931 -9180.9178 -7458.6970 296.1931 390.5837 474.1745 29888.6494 390.5837 474.1745
ENERGY: 300000 0.8331 14.0150 9.5221 0.0000 -10431.0811 1347.1068 0.0000 0.0000 1672.1834 -7387.4207 287.5875 -9059.6042 -7404.6399 295.9451 -491.3577 -491.7081 30146.7212 338.2230 402.1057
ENERGY: 600000 0.9044 10.0685 9.2532 0.0000 -10496.3471 1371.1551 0.0000 0.0000 1749.7587 -7355.2072 300.9291 -9104.9659 -7389.1003 297.6922 -631.4434 -566.1729 30552.3781 220.7627 287.8933
ENERGY: 900000 0.0613 10.9964 9.9289 0.0000 -10503.5992 1357.9284 0.0000 0.0000 1785.4773 -7339.2068 307.0721 -9124.6841 -7376.8042 299.5332 -451.6187 -418.6477 30013.9817 83.1556 138.4341
ENERGY: 1200000 3.5240 11.8159 7.3160 0.0000 -10661.4849 1432.5939 0.0000 0.0000 1724.0260 -7482.2091 296.5035 -9206.2351 -7382.4598 299.4151 4.0407 43.1136 29583.5733 -21.5857 40.9944
ENERGY: 1500000 0.4902 9.4656 8.8032 0.0000 -10456.6817 1331.4889 0.0000 0.0000 1713.2739 -7393.1599 294.6544 -9106.4338 -7390.9936 299.0315 -792.9547 -687.6288 30298.3788 -45.0329 23.5184
TCL: Running FEP window  18: Lambda1 0.1499999999999997 Lambda2 0.09999999999999969 [dLambda -0.05 ]
TCL: Setting parameter firsttimestep to 0
TCL: Setting parameter alchLambda to 0.1499999999999997
Info: NONBONDED TABLE R-SQUARED SPACING: 0.0625
Info: NONBONDED TABLE SIZE: 705 POINTS
TCL: Setting parameter alchLambda2 to 0.09999999999999969
Info: NONBONDED TABLE R-SQUARED SPACING: 0.0625
Info: NONBONDED TABLE SIZE: 705 POINTS
TCL: Running for 1500000 steps
ETITLE: TS BOND ANGLE DIHED IMPRP ELECT VDW BOUNDARY MISC KINETIC TOTAL TEMP POTENTIAL TOTALAVG TEMPAVG PRESSURE GPRESSURE VOLUME PRESSAVG GPRESSAVG
ENERGY: 0 0.4902 9.4656 8.8032 0.0000 -10456.6811 1331.8032 0.0000 0.0000 1712.3972 -7393.7218 294.5036 -9106.1189 -7393.7218 294.5036 -769.2531 -690.5346 30298.3788 -769.2531 -690.5346
ENERGY: 300000 2.2822 11.4492 9.7490 0.0000 -10611.5270 1393.2746 0.0000 0.0000 1722.0450 -7472.7269 296.1628 -9194.7720 -7389.9548 301.4962 -327.7187 -261.8121 29834.9995 -125.7332 -88.0799
ENERGY: 600000 1.5034 8.3564 9.8151 0.0000 -10581.5879 1453.3478 0.0000 0.0000 1718.7435 -7389.8218 295.5950 -9108.5653 -7393.0014 302.0593 -104.8236 29.4745 30407.3717 -95.5269 -35.1300
ENERGY: 900000 0.5479 11.0271 9.6043 0.0000 -10547.7209 1346.1570 0.0000 0.0000 1749.8865 -7430.4979 300.9511 -9180.3844 -7402.4612 302.4211 -463.7339 -467.7655 29956.0909 -31.9484 24.5586
ENERGY: 1200000 3.0338 10.3483 9.3774 0.0000 -10558.3633 1390.7457 0.0000 0.0000 1781.9774 -7362.8807 306.4702 -9144.8581 -7386.6124 303.4575 -96.0347 -31.9119 29766.9618 -96.5632 -34.4107
ENERGY: 1500000 1.7208 9.6278 10.2186 0.0000 -10535.9270 1373.1514 0.0000 0.0000 1780.4775 -7360.7309 306.2123 -9141.2084 -7382.6065 303.5176 -481.6743 -397.5620 30011.3754 -72.5270 -10.2689
TCL: Running FEP window  19: Lambda1 0.09999999999999969 Lambda2 0.049999999999999684 [dLambda -0.05 ]
TCL: Setting parameter firsttimestep to 0
TCL: Setting parameter alchLambda to 0.09999999999999969
Info: NONBONDED TABLE R-SQUARED SPACING: 0.0625
Info: NONBONDED TABLE SIZE: 705 POINTS
TCL: Setting parameter alchLambda2 to 0.049999999999999684
Info: NONBONDED TABLE R-SQUARED SPACING: 0.0625
Info: NONBONDED TABLE SIZE: 705 POINTS
TCL: Running for 1500000 steps
ETITLE: TS BOND ANGLE DIHED IMPRP ELECT VDW BOUNDARY MISC KINETIC TOTAL TEMP POTENTIAL TOTALAVG TEMPAVG PRESSURE GPRESSURE VOLUME PRESSAVG GPRESSAVG
ENERGY: 0 1.7208 9.6278 10.2186 0.0000 -10535.9272 1372.4984 0.0000 0.0000 1779.6560 -7362.2056 306.0710 -9141.8616 -7362.2056 306.0710 -475.6845 -400.1682 30011.3754 -475.6845 -400.1682
ENERGY: 300000 1.5899 8.8778 10.7860 0.0000 -10704.8455 1440.5817 0.0000 0.0000 1691.7972 -7551.2128 290.9607 -9243.0100 -7462.7353 294.9108 -361.6512 -281.3487 30039.1898 -75.0586 -0.0307
ENERGY: 600000 4.0740 10.3970 8.4373 0.0000 -10592.1536 1424.4511 0.0000 0.0000 1764.5949 -7380.1993 303.4807 -9144.7942 -7432.2097 298.9730 -77.7465 -50.8850 29951.9216 -4.8644 71.3149
ENERGY: 900000 1.6586 8.4690 9.1420 0.0000 -10472.2275 1360.1438 0.0000 0.0000 1757.0635 -7335.7507 302.1854 -9092.8142 -7425.8182 299.5009 -492.0206 -461.9251 30521.9621 -152.9479 -91.6105
ENERGY: 1200000 1.2372 9.8968 9.5027 0.0000 -10715.1985 1456.7037 0.0000 0.0000 1774.2658 -7463.5922 305.1439 -9237.8580 -7434.2344 300.2844 255.7048 342.2600 29345.5478 -28.8121 37.5065
ENERGY: 1500000 3.4339 11.0372 9.0615 0.0000 -10509.1447 1387.7972 0.0000 0.0000 1783.4285 -7314.3865 306.7198 -9097.8150 -7427.7437 299.7824 -24.5458 141.2624 29629.2824 -19.2335 55.4065
TCL: Running FEP window  20: Lambda1 0.049999999999999684 Lambda2 0.0    [dLambda -0.049999999999999684]
TCL: Setting parameter firsttimestep to 0
TCL: Setting parameter alchLambda to 0.049999999999999684
Info: NONBONDED TABLE R-SQUARED SPACING: 0.0625
Info: NONBONDED TABLE SIZE: 705 POINTS
TCL: Setting parameter alchLambda2 to 0.0
Info: NONBONDED TABLE R-SQUARED SPACING: 0.0625
Info: NONBONDED TABLE SIZE: 705 POINTS
TCL: Running for 1500000 steps
ETITLE: TS BOND ANGLE DIHED IMPRP ELECT VDW BOUNDARY MISC KINETIC TOTAL TEMP POTENTIAL TOTALAVG TEMPAVG PRESSURE GPRESSURE VOLUME PRESSAVG GPRESSAVG
ENERGY: 0 3.4339 11.0372 9.0615 0.0000 -10509.1449 1386.9685 0.0000 0.0000 1782.5527 -7316.0912 306.5691 -9098.6439 -7316.0912 306.5691 58.9997 140.2580 29629.2824 58.9997 140.2580
ENERGY: 300000 0.7054 9.5243 12.7866 0.0000 -10744.1748 1509.0501 0.0000 0.0000 1679.4655 -7532.6429 288.8399 -9212.1084 -7401.1959 301.8724 338.0653 386.4763 29989.7102 116.3064 173.6714
ENERGY: 600000 1.1550 19.2725 7.3717 0.0000 -10546.5987 1382.3731 0.0000 0.0000 1741.4172 -7395.0091 299.4945 -9136.4264 -7413.4922 300.2531 -426.4317 -322.3178 29917.1509 -19.3387 37.5895
ENERGY: 900000 1.8346 8.8934 10.9043 0.0000 -10621.4329 1432.5191 0.0000 0.0000 1767.9550 -7399.3264 304.0586 -9167.2814 -7415.5517 299.7932 -213.6233 -65.6177 30002.0951 20.3747 87.4616
ENERGY: 1200000 0.4597 10.3394 11.9615 0.0000 -10488.0407 1360.9460 0.0000 0.0000 1754.2219 -7350.1122 301.6967 -9104.3340 -7413.5954 299.8612 -508.5318 -512.7766 30338.7022 -47.1040 14.7128
ENERGY: 1500000 0.7799 12.5339 9.8173 0.0000 -10467.3422 1395.7338 0.0000 0.0000 1738.4989 -7309.9785 298.9926 -9048.4773 -7393.7079 300.4015 12.7983 100.2166 29954.8236 -102.5394 -42.1217
TCL: Exiting due to exit command.
