Info: SIMULATION PARAMETERS:
Info: TIMESTEP               2
Info: NUMBER OF STEPS        0
Info: STEPS PER CYCLE        10
Info: PERIODIC CELL BASIS 1  32.3171 0 0
Info: PERIODIC CELL BASIS 2  0 30.2576 0
Info: PERIODIC CELL BASIS 3  0 0 31.5497
Info: PERIODIC CELL CENTER   0 0 0
Info: WRAPPING WATERS AROUND PERIODIC BOUNDARIES ON OUTPUT.
Info: WRAPPING ALL CLUSTERS AROUND PERIODIC BOUNDARIES ON OUTPUT.
Info: FIRST LDB TIMESTEP     50
Info: LAST LDB TIMESTEP     -1
Info: HOM BACKGROUND SCALING 1
Info: PME BACKGROUND SCALING 1
Info: MIN ATOMS PER PATCH    40
Info: EMPTY PATCH LOAD       40 ATOMS
Info: VELOCITY FILE          mobley_4553008_equil.vel
Info: CENTER OF MASS MOVING INITIALLY? NO
Info: DIELECTRIC             1
Info: EXCLUDE                SCALED ONE-FOUR
Info: 1-4 ELECTROSTATICS SCALED BY 0.833333
Info: MODIFIED 1-4 VDW PARAMETERS WILL BE USED
Info: DCD FILENAME           mobley_4553008_prod.dcd
Info: DCD FREQUENCY          100000
Info: DCD FIRST STEP         100000
Info: DCD FILE WILL CONTAIN UNIT CELL DATA
Info: XST FILENAME           mobley_4553008_prod.xst
Info: XST FREQUENCY          100000
Info: NO VELOCITY DCD OUTPUT
Info: NO FORCE DCD OUTPUT
Info: OUTPUT FILENAME        mobley_4553008_prod
Info: BINARY OUTPUT FILES WILL BE USED
Info: RESTART FILENAME       mobley_4553008_prod.restart
Info: RESTART FREQUENCY      100000
Info: BINARY RESTART FILES WILL BE USED
Info: CUTOFF                 9
Info: PAIRLIST DISTANCE      11
Info: PAIRLIST SHRINK RATE   0.01
Info: PAIRLIST GROW RATE     0.01
Info: PAIRLIST TRIGGER       0.3
Info: PAIRLISTS PER CYCLE    2
Info: PAIRLISTS ENABLED
Info: MARGIN                 2
Info: HYDROGEN GROUP CUTOFF  2.5
Info: PATCH DIMENSION        15.5
Info: ENERGY OUTPUT STEPS    100000
Info: ENERGY EVALUATION STEPS    100000
Info: OUTPUT ENERGY PRECISION 4
Info: CROSSTERM ENERGY INCLUDED IN DIHEDRAL
Info: TIMING OUTPUT STEPS    1000000
Info: PRESSURE OUTPUT STEPS  100000
Info: ALCHEMICAL FEP ON
Info: FEP CURRENT LAMBDA VALUE     1
Info: FEP COMPARISON LAMBDA VALUE  0.95
Info: FEP INTRA-ALCHEMICAL NON-BONDED INTERACTIONS WILL BE RETAINED
Info: FEP INTRA-ALCHEMICAL BONDED INTERACTIONS WILL BE RETAINED
Info: FEP VDW SHIFTING COEFFICIENT 5
Info: FEP ELEC. ACTIVE FOR ANNIHILATED PARTICLES BETWEEN LAMBDA = 0 AND LAMBDA = 0.5
Info: FEP ELEC. ACTIVE FOR EXNIHILATED PARTICLES BETWEEN LAMBDA = 0.5 AND LAMBDA = 1
Info: FEP VDW ACTIVE FOR ANNIHILATED PARTICLES BETWEEN LAMBDA = 0 AND LAMBDA = 1
Info: FEP VDW ACTIVE FOR EXNIHILATED PARTICLES BETWEEN LAMBDA = 0 AND LAMBDA = 1
Info: FEP BOND ACTIVE FOR ANNIHILATED PARTICLES BETWEEN LAMBDA = 1 AND LAMBDA = 1
Info: FEP BOND ACTIVE FOR EXNIHILATED PARTICLES BETWEEN LAMBDA = 0 AND LAMBDA = 0
Info: LANGEVIN DYNAMICS ACTIVE
Info: LANGEVIN TEMPERATURE   300
Info: LANGEVIN USING BBK INTEGRATOR
Info: LANGEVIN DAMPING COEFFICIENT IS 1 INVERSE PS
Info: LANGEVIN DYNAMICS APPLIED TO HYDROGENS
Info: LANGEVIN PISTON PRESSURE CONTROL ACTIVE
Info:        TARGET PRESSURE IS 1.01325 BAR
Info:     OSCILLATION PERIOD IS 50 FS
Info:             DECAY TIME IS 25 FS
Info:     PISTON TEMPERATURE IS 300 K
Info:       PRESSURE CONTROL IS GROUP-BASED
Info:    INITIAL STRAIN RATE IS 0.00068463 0.00068463 0.00068463
Info:       CELL FLUCTUATION IS ISOTROPIC
Info: PARTICLE MESH EWALD (PME) ACTIVE
Info: PME TOLERANCE               1e-06
Info: PME EWALD COEFFICIENT       0.348832
Info: PME INTERPOLATION ORDER     4
Info: PME GRID DIMENSIONS         36 32 32
Info: PME MAXIMUM GRID SPACING    1
Info: PME CALCULATION WILL BE PERFORMED ON GPU
Info: FULL ELECTROSTATIC EVALUATION FREQUENCY      2
Info: USING VERLET I (r-RESPA) MTS SCHEME.
Info: C1 SPLITTING OF LONG RANGE ELECTROSTATICS
Info: PLACING ATOMS IN PATCHES BY HYDROGEN GROUPS
Info: RIGID BONDS TO HYDROGEN : ALL
Info:         ERROR TOLERANCE : 1e-08
Info:          MAX ITERATIONS : 100
Info: RIGID WATER USING SETTLE ALGORITHM
Info: RANDOM NUMBER SEED     1743545216
Info: USE HYDROGEN BONDS?    NO
Info: Using AMBER format force field!
Info: AMBER PARM FILE        mobley_4553008.prmtop
Info: COORDINATE PDB         mobley_4553008.pdb
Info: Exclusions will be read from PARM file!
Info: SCNB (VDW SCALING)     2
Info: USING ARITHMETIC MEAN TO COMBINE L-J SIGMA PARAMETERS
Info: BINARY COORDINATES     mobley_4553008_equil.coor
Info: SUMMARY OF PARAMETERS:
Info: 5 BONDS
Info: 3 ANGLES
Info:   3 HARMONIC
Info:   0 COSINE-BASED
Info: 2 DIHEDRAL
Info: 0 IMPROPER
Info: 0 CROSSTERM
Info: 0 VDW
Info: 15 VDW_PAIRS
Info: 0 NBTHOLE_PAIRS
Info: To read alchdata from file: mobley_4553008.pdb
Info: To read alchflag data from column: 5
Info: STRUCTURE SUMMARY:
Info: 2979 ATOMS
Info: 2979 BONDS
Info: 18 ANGLES
Info: 30 DIHEDRALS
Info: 0 IMPROPERS
Info: 0 CROSSTERMS
Info: 3018 EXCLUSIONS
Info: 2971 RIGID BONDS
Info: ALCH: 0 ATOMS TO DISAPPEAR IN FINAL STATE
Info: ALCH: 12 ATOMS TO APPEAR IN FINAL STATE
Info: 5966 DEGREES OF FREEDOM
Info: 997 HYDROGEN GROUPS
Info: 3 ATOMS IN LARGEST HYDROGEN GROUP
Info: 997 MIGRATION GROUPS
Info: 3 ATOMS IN LARGEST MIGRATION GROUP
Info: TOTAL MASS = 17964.8 amu
Info: TOTAL CHARGE = 0.000300009 e
Info: MASS DENSITY = 0.966986 g/cm^3
Info: ATOM DENSITY = 0.0965625 atoms/A^3
Info: ADDED 0 IMPLICIT EXCLUSIONS
Info: NONBONDED TABLE R-SQUARED SPACING: 0.0625
Info: NONBONDED TABLE SIZE: 705 POINTS
Info: REMOVING COM VELOCITY 0.101979 -0.140578 0.00747208
Info: Use 3D box decompostion in PME FFT.
Info: Updated CUDA force table with 4096 elements.
Info: Updated CUDA LJ table with 5 x 5 elements.
Info: Found 14 unique exclusion lists needing 24 bytes
TCL: Running for 1500000 steps
ETITLE: TS BOND ANGLE DIHED IMPRP ELECT VDW BOUNDARY MISC KINETIC TOTAL TEMP POTENTIAL TOTALAVG TEMPAVG PRESSURE GPRESSURE VOLUME PRESSAVG GPRESSAVG
ENERGY: 0 5.5825 1.8574 2.2648 0.0000 -10808.2541 1420.5424 0.0000 0.0000 1785.9695 -7592.0375 301.2875 -9378.0070 -7592.0375 301.2875 -488.6111 -403.4257 30850.4842 -488.6111 -403.4257
ENERGY: 300000 3.7447 4.0126 2.1437 0.0000 -10755.1412 1455.8256 0.0000 0.0000 1795.9608 -7493.4538 302.9730 -9289.4146 -7584.7821 298.0736 83.8456 187.7297 30771.0741 -88.7267 -22.7990
ENERGY: 600000 2.0086 2.8004 2.4186 0.0000 -10870.1213 1522.3266 0.0000 0.0000 1843.1724 -7497.3946 310.9375 -9340.5670 -7567.1970 300.0315 443.3555 538.0443 31102.4662 89.4483 155.0614
ENERGY: 900000 1.5655 2.5180 3.5279 0.0000 -10767.4282 1421.9175 0.0000 0.0000 1761.7623 -7576.1370 297.2039 -9337.8993 -7572.7501 299.2710 -232.2591 -173.0022 30727.7955 97.4001 168.5056
ENERGY: 1200000 4.2765 2.9980 3.9953 0.0000 -10699.9687 1416.8992 0.0000 0.0000 1777.3543 -7494.4454 299.8342 -9271.7997 -7562.0397 299.5616 -219.3949 -188.5441 30854.5998 37.9568 107.1612
ENERGY: 1500000 1.9050 2.3172 0.6024 0.0000 -10739.8774 1435.4392 0.0000 0.0000 1803.4135 -7496.2002 304.2303 -9299.6137 -7561.4105 299.2281 159.8732 267.4403 31031.4784 91.3307 164.4827
TCL: Running FEP window   2: Lambda1 0.95   Lambda2 0.8999999999999999 [dLambda -0.050000000000000044]
TCL: Setting parameter firsttimestep to 0
TCL: Setting parameter alchLambda to 0.95
Info: NONBONDED TABLE R-SQUARED SPACING: 0.0625
Info: NONBONDED TABLE SIZE: 705 POINTS
TCL: Setting parameter alchLambda2 to 0.8999999999999999
Info: NONBONDED TABLE R-SQUARED SPACING: 0.0625
Info: NONBONDED TABLE SIZE: 705 POINTS
TCL: Running for 1500000 steps
ETITLE: TS BOND ANGLE DIHED IMPRP ELECT VDW BOUNDARY MISC KINETIC TOTAL TEMP POTENTIAL TOTALAVG TEMPAVG PRESSURE GPRESSURE VOLUME PRESSAVG GPRESSAVG
ENERGY: 0 1.9050 2.3172 0.6024 0.0000 -10739.6050 1435.8601 0.0000 0.0000 1802.5359 -7496.3844 304.0822 -9298.9203 -7496.3844 304.0822 161.8701 255.1824 31031.4784 161.8701 255.1824
ENERGY: 300000 2.4243 3.7344 2.6446 0.0000 -10828.6979 1463.5428 0.0000 0.0000 1786.0713 -7570.2804 301.3047 -9356.3517 -7544.5397 301.9934 142.6396 265.6278 30650.4008 39.6725 129.5700
ENERGY: 600000 1.7526 1.8250 3.0692 0.0000 -10774.0442 1406.9168 0.0000 0.0000 1800.4622 -7560.0183 303.7324 -9360.4805 -7552.5056 304.0127 -559.1641 -499.8408 30969.8135 -67.7095 8.5289
ENERGY: 900000 2.0815 5.6947 1.4491 0.0000 -10878.6300 1517.0081 0.0000 0.0000 1711.6401 -7640.7564 288.7484 -9352.3965 -7557.4979 303.1396 722.3639 797.4622 30239.8203 37.7585 113.0748
ENERGY: 1200000 1.4694 3.1936 3.5012 0.0000 -10782.5385 1449.7444 0.0000 0.0000 1786.3394 -7538.2905 301.3499 -9324.6299 -7549.7262 302.3467 17.0996 28.0926 30886.2856 -3.2167 55.1625
ENERGY: 1500000 0.8415 1.1902 4.8289 0.0000 -10979.3968 1532.0996 0.0000 0.0000 1764.1377 -7676.2989 297.6046 -9440.4366 -7561.0968 300.8938 302.0561 359.1091 30646.9696 27.6437 80.8176
TCL: Running FEP window   3: Lambda1 0.8999999999999999 Lambda2 0.8499999999999999 [dLambda -0.050000000000000044]
TCL: Setting parameter firsttimestep to 0
TCL: Setting parameter alchLambda to 0.8999999999999999
Info: NONBONDED TABLE R-SQUARED SPACING: 0.0625
Info: NONBONDED TABLE SIZE: 705 POINTS
TCL: Setting parameter alchLambda2 to 0.8499999999999999
Info: NONBONDED TABLE R-SQUARED SPACING: 0.0625
Info: NONBONDED TABLE SIZE: 705 POINTS
TCL: Running for 1500000 steps
ETITLE: TS BOND ANGLE DIHED IMPRP ELECT VDW BOUNDARY MISC KINETIC TOTAL TEMP POTENTIAL TOTALAVG TEMPAVG PRESSURE GPRESSURE VOLUME PRESSAVG GPRESSAVG
ENERGY: 0 0.8415 1.1902 4.8289 0.0000 -10979.0118 1532.0266 0.0000 0.0000 1763.2135 -7676.9111 297.4487 -9440.1246 -7676.9111 297.4487 259.6919 343.4934 30646.9696 259.6919 343.4934
ENERGY: 300000 1.6097 2.0794 5.6417 0.0000 -10889.1886 1472.1131 0.0000 0.0000 1799.3311 -7608.4137 303.5416 -9407.7448 -7607.6979 299.1481 80.1514 182.8719 30570.9583 84.4354 167.9957
ENERGY: 600000 1.5477 3.5082 2.6946 0.0000 -10702.4607 1368.5195 0.0000 0.0000 1786.5791 -7539.6116 301.3904 -9326.1907 -7587.5124 299.5594 -560.9136 -549.6659 30956.7781 -59.4956 16.3968
ENERGY: 900000 4.7087 1.9609 2.0962 0.0000 -10680.0835 1335.9917 0.0000 0.0000 1812.1182 -7523.2078 305.6987 -9335.3260 -7574.7038 298.9985 -1170.0902 -1154.4121 31517.9165 -109.1375 -36.5043
ENERGY: 1200000 1.5506 2.5261 2.6249 0.0000 -10884.1007 1468.1607 0.0000 0.0000 1752.4456 -7656.7928 295.6322 -9409.2384 -7575.4859 298.3452 86.9678 138.3075 30277.1828 -68.5380 -4.6296
ENERGY: 1500000 2.1174 4.6867 2.9992 0.0000 -10761.0042 1407.3786 0.0000 0.0000 1778.9592 -7564.8631 300.1049 -9343.8223 -7581.5619 298.7354 -560.0047 -493.4002 30930.2161 -129.0070 -70.7486
TCL: Running FEP window   4: Lambda1 0.8499999999999999 Lambda2 0.7999999999999998 [dLambda -0.050000000000000044]
TCL: Setting parameter firsttimestep to 0
TCL: Setting parameter alchLambda to 0.8499999999999999
Info: NONBONDED TABLE R-SQUARED SPACING: 0.0625
Info: NONBONDED TABLE SIZE: 705 POINTS
TCL: Setting parameter alchLambda2 to 0.7999999999999998
Info: NONBONDED TABLE R-SQUARED SPACING: 0.0625
Info: NONBONDED TABLE SIZE: 705 POINTS
TCL: Running for 1500000 steps
ETITLE: TS BOND ANGLE DIHED IMPRP ELECT VDW BOUNDARY MISC KINETIC TOTAL TEMP POTENTIAL TOTALAVG TEMPAVG PRESSURE GPRESSURE VOLUME PRESSAVG GPRESSAVG
ENERGY: 0 2.1174 4.6867 2.9992 0.0000 -10760.8339 1408.0162 0.0000 0.0000 1778.0868 -7564.9275 299.9578 -9343.0144 -7564.9275 299.9578 -573.6503 -495.6210 30930.2161 -573.6503 -495.6210
ENERGY: 300000 1.1492 3.1076 2.2552 0.0000 -10842.0614 1573.9380 0.0000 0.0000 1729.9402 -7531.6712 291.8356 -9261.6113 -7620.7503 292.0158 1019.6772 1145.4550 30595.2940 290.8981 361.2923
ENERGY: 600000 3.8360 2.1714 1.0729 0.0000 -10834.7881 1479.0785 0.0000 0.0000 1730.8392 -7617.7901 291.9872 -9348.6293 -7607.1184 294.3183 306.4287 388.2626 30586.5657 276.8279 352.7059
ENERGY: 900000 2.7154 3.0761 3.5099 0.0000 -10737.9451 1397.6500 0.0000 0.0000 1741.3021 -7589.6916 293.7523 -9330.9937 -7601.8656 295.6024 -465.7498 -397.7888 30914.4076 259.1936 334.4781
ENERGY: 1200000 1.4130 3.0397 4.6278 0.0000 -10710.5943 1366.6253 0.0000 0.0000 1799.5662 -7535.3223 303.5813 -9334.8884 -7596.5735 296.8229 -707.5065 -702.9149 30814.2286 220.7333 289.0902
ENERGY: 1500000 3.8432 2.9575 5.4440 0.0000 -10694.4958 1406.3227 0.0000 0.0000 1814.0465 -7461.8820 306.0240 -9275.9285 -7586.4019 298.0790 -296.5175 -225.7061 30853.6589 202.6713 272.4216
TCL: Running FEP window   5: Lambda1 0.7999999999999998 Lambda2 0.7499999999999998 [dLambda -0.050000000000000044]
TCL: Setting parameter firsttimestep to 0
TCL: Setting parameter alchLambda to 0.7999999999999998
Info: NONBONDED TABLE R-SQUARED SPACING: 0.0625
Info: NONBONDED TABLE SIZE: 705 POINTS
TCL: Setting parameter alchLambda2 to 0.7499999999999998
Info: NONBONDED TABLE R-SQUARED SPACING: 0.0625
Info: NONBONDED TABLE SIZE: 705 POINTS
TCL: Running for 1500000 steps
ETITLE: TS BOND ANGLE DIHED IMPRP ELECT VDW BOUNDARY MISC KINETIC TOTAL TEMP POTENTIAL TOTALAVG TEMPAVG PRESSURE GPRESSURE VOLUME PRESSAVG GPRESSAVG
ENERGY: 0 3.8432 2.9575 5.4440 0.0000 -10694.2453 1406.3696 0.0000 0.0000 1813.1750 -7462.4560 305.8770 -9275.6310 -7462.4560 305.8770 -319.7184 -233.9597 30853.6589 -319.7184 -233.9597
ENERGY: 300000 1.8498 5.0802 1.6815 0.0000 -10763.4736 1447.4298 0.0000 0.0000 1776.9713 -7530.4610 299.7696 -9307.4323 -7517.7168 302.4761 59.0942 72.5794 30594.2907 -170.1185 -117.9663
ENERGY: 600000 1.5566 2.0135 4.2479 0.0000 -10734.7003 1350.8547 0.0000 0.0000 1742.5872 -7633.4404 293.9691 -9376.0276 -7551.5506 300.5410 -976.9257 -969.0856 30554.6597 -254.7116 -212.4755
ENERGY: 900000 1.7714 2.8162 3.7298 0.0000 -10894.6162 1532.1587 0.0000 0.0000 1751.2909 -7602.8492 295.4374 -9354.1401 -7552.5696 300.6897 317.6498 457.8714 30904.7528 -133.0103 -80.4039
ENERGY: 1200000 3.2447 3.7093 3.9852 0.0000 -10776.4840 1413.0646 0.0000 0.0000 1806.9936 -7545.4866 304.8342 -9352.4802 -7556.2962 301.1361 -644.0788 -557.4544 30842.4612 -223.8623 -171.9707
ENERGY: 1500000 2.0111 1.5004 1.5460 0.0000 -10511.8788 1212.6970 0.0000 0.0000 1728.1500 -7565.9744 291.5336 -9294.1243 -7561.1298 300.8118 -2046.9669 -2014.9196 31632.5650 -246.4238 -189.3207
TCL: Running FEP window   6: Lambda1 0.7499999999999998 Lambda2 0.6999999999999997 [dLambda -0.050000000000000044]
TCL: Setting parameter firsttimestep to 0
TCL: Setting parameter alchLambda to 0.7499999999999998
Info: NONBONDED TABLE R-SQUARED SPACING: 0.0625
Info: NONBONDED TABLE SIZE: 705 POINTS
TCL: Setting parameter alchLambda2 to 0.6999999999999997
Info: NONBONDED TABLE R-SQUARED SPACING: 0.0625
Info: NONBONDED TABLE SIZE: 705 POINTS
TCL: Running for 1500000 steps
ETITLE: TS BOND ANGLE DIHED IMPRP ELECT VDW BOUNDARY MISC KINETIC TOTAL TEMP POTENTIAL TOTALAVG TEMPAVG PRESSURE GPRESSURE VOLUME PRESSAVG GPRESSAVG
ENERGY: 0 2.0111 1.5004 1.5460 0.0000 -10511.4274 1213.2508 0.0000 0.0000 1727.2483 -7565.8709 291.3815 -9293.1191 -7565.8709 291.3815 -2094.5180 -2017.1341 31632.5650 -2094.5180 -2017.1341
ENERGY: 300000 2.2020 2.7241 2.6930 0.0000 -10761.6930 1377.7320 0.0000 0.0000 1840.3376 -7536.0042 310.4593 -9376.3418 -7534.2092 301.5695 -795.5880 -693.0803 30853.8483 -921.1060 -824.0424
ENERGY: 600000 1.9907 0.7138 1.3623 0.0000 -10766.2441 1496.5321 0.0000 0.0000 1767.5801 -7498.0652 298.1853 -9265.6453 -7533.2053 300.3790 700.8338 806.4698 30498.7156 -356.1967 -258.2504
ENERGY: 900000 3.3660 4.6693 2.9674 0.0000 -10759.0810 1453.0268 0.0000 0.0000 1742.9380 -7552.1134 294.0283 -9295.0514 -7534.5168 300.5550 270.2891 302.8148 30661.7241 -178.7957 -99.9247
ENERGY: 1200000 2.6072 1.9364 3.3269 0.0000 -10560.9533 1321.8420 0.0000 0.0000 1779.2234 -7452.0174 300.1495 -9231.2408 -7524.9598 300.3624 -846.0446 -820.2284 31371.8281 -277.8780 -208.0716
ENERGY: 1500000 4.3136 7.8458 2.8431 0.0000 -10795.7013 1435.5006 0.0000 0.0000 1731.6558 -7613.5424 292.1250 -9345.1982 -7532.8287 299.8539 -67.2572 -71.1284 30718.4743 -298.1478 -236.3449
TCL: Running FEP window   7: Lambda1 0.6999999999999997 Lambda2 0.6499999999999997 [dLambda -0.050000000000000044]
TCL: Setting parameter firsttimestep to 0
TCL: Setting parameter alchLambda to 0.6999999999999997
Info: NONBONDED TABLE R-SQUARED SPACING: 0.0625
Info: NONBONDED TABLE SIZE: 705 POINTS
TCL: Setting parameter alchLambda2 to 0.6499999999999997
Info: NONBONDED TABLE R-SQUARED SPACING: 0.0625
Info: NONBONDED TABLE SIZE: 705 POINTS
TCL: Running for 1500000 steps
ETITLE: TS BOND ANGLE DIHED IMPRP ELECT VDW BOUNDARY MISC KINETIC TOTAL TEMP POTENTIAL TOTALAVG TEMPAVG PRESSURE GPRESSURE VOLUME PRESSAVG GPRESSAVG
ENERGY: 0 4.3136 7.8458 2.8431 0.0000 -10795.5098 1435.3345 0.0000 0.0000 1730.7357 -7614.4371 291.9698 -9345.1728 -7614.4371 291.9698 -168.8776 -80.8059 30718.4743 -168.8776 -80.8059
ENERGY: 300000 1.5906 1.6381 4.4227 0.0000 -10846.3804 1495.3681 0.0000 0.0000 1819.4678 -7523.8930 306.9386 -9343.3608 -7550.9913 298.5753 45.3427 108.9967 31288.5475 -157.7125 -90.8965
ENERGY: 600000 2.6303 2.1961 1.2050 0.0000 -10650.3814 1327.4545 0.0000 0.0000 1789.9030 -7526.9924 301.9511 -9316.8954 -7558.7337 300.5450 -843.2301 -767.6735 30457.8137 -112.7104 -58.3355
ENERGY: 900000 4.1026 2.4314 2.6758 0.0000 -10859.7521 1455.5238 0.0000 0.0000 1762.4528 -7632.5656 297.3204 -9395.0184 -7559.6724 301.8173 14.8720 50.1903 30485.8434 -59.3842 -6.2249
ENERGY: 1200000 3.3789 1.9616 3.2644 0.0000 -10789.4979 1428.6920 0.0000 0.0000 1734.7823 -7617.4187 292.6524 -9352.2010 -7555.8508 301.3756 -303.0888 -264.9230 30978.0122 -89.5938 -38.8658
ENERGY: 1500000 1.8265 2.3875 1.6267 0.0000 -10961.8635 1575.9494 0.0000 0.0000 1806.9185 -7573.1548 304.8216 -9380.0733 -7547.6287 301.4344 1034.0678 1136.9125 30340.4649 -30.5660 23.0309
TCL: Running FEP window   8: Lambda1 0.6499999999999997 Lambda2 0.5999999999999996 [dLambda -0.050000000000000044]
TCL: Setting parameter firsttimestep to 0
TCL: Setting parameter alchLambda to 0.6499999999999997
Info: NONBONDED TABLE R-SQUARED SPACING: 0.0625
Info: NONBONDED TABLE SIZE: 705 POINTS
TCL: Setting parameter alchLambda2 to 0.5999999999999996
Info: NONBONDED TABLE R-SQUARED SPACING: 0.0625
Info: NONBONDED TABLE SIZE: 705 POINTS
TCL: Running for 1500000 steps
ETITLE: TS BOND ANGLE DIHED IMPRP ELECT VDW BOUNDARY MISC KINETIC TOTAL TEMP POTENTIAL TOTALAVG TEMPAVG PRESSURE GPRESSURE VOLUME PRESSAVG GPRESSAVG
ENERGY: 0 1.8265 2.3875 1.6267 0.0000 -10961.8411 1575.6749 0.0000 0.0000 1805.9723 -7574.3532 304.6620 -9380.3255 -7574.3532 304.6620 1034.4452 1125.5716 30340.4649 1034.4452 1125.5716
ENERGY: 300000 1.8445 2.6115 3.2925 0.0000 -10662.3666 1368.8152 0.0000 0.0000 1769.4129 -7516.3899 298.4945 -9285.8028 -7560.4962 301.2910 -477.7851 -459.3880 30931.6057 217.9750 273.8206
ENERGY: 600000 2.1237 1.7178 1.4246 0.0000 -10796.2712 1475.1554 0.0000 0.0000 1820.1868 -7495.6630 307.0599 -9315.8498 -7557.0247 301.5894 300.9499 347.1396 30685.0356 174.9956 221.3899
ENERGY: 900000 1.6572 4.5130 2.1240 0.0000 -10802.8348 1522.0023 0.0000 0.0000 1813.9456 -7458.5927 306.0070 -9272.5383 -7534.6614 302.6456 809.8407 853.0005 30844.5963 58.6652 100.4833
ENERGY: 1200000 2.6541 3.8125 6.2243 0.0000 -10696.2621 1402.0528 0.0000 0.0000 1735.0546 -7546.4638 292.6984 -9281.5184 -7535.7113 301.7472 -621.8751 -516.4154 31159.5745 35.0496 79.1773
ENERGY: 1500000 1.4635 3.8400 2.4223 0.0000 -10755.8502 1443.8115 0.0000 0.0000 1746.7083 -7557.6046 294.6643 -9304.3129 -7538.9263 300.7614 -3.1832 37.0548 30971.7310 144.4436 194.4533
TCL: Running FEP window   9: Lambda1 0.5999999999999996 Lambda2 0.5499999999999996 [dLambda -0.050000000000000044]
TCL: Setting parameter firsttimestep to 0
TCL: Setting parameter alchLambda to 0.5999999999999996
Info: NONBONDED TABLE R-SQUARED SPACING: 0.0625
Info: NONBONDED TABLE SIZE: 705 POINTS
TCL: Setting parameter alchLambda2 to 0.5499999999999996
Info: NONBONDED TABLE R-SQUARED SPACING: 0.0625
Info: NONBONDED TABLE SIZE: 705 POINTS
TCL: Running for 1500000 steps
ETITLE: TS BOND ANGLE DIHED IMPRP ELECT VDW BOUNDARY MISC KINETIC TOTAL TEMP POTENTIAL TOTALAVG TEMPAVG PRESSURE GPRESSURE VOLUME PRESSAVG GPRESSAVG
ENERGY: 0 1.4635 3.8400 2.4223 0.0000 -10756.0364 1443.6613 0.0000 0.0000 1745.8369 -7558.8124 294.5173 -9304.6493 -7558.8124 294.5173 -55.5703 26.2893 30971.7310 -55.5703 26.2893
ENERGY: 300000 2.5413 0.4116 2.5296 0.0000 -10654.6947 1282.4539 0.0000 0.0000 1815.0615 -7551.6969 306.1953 -9366.7584 -7534.5978 299.8629 -1572.0153 -1503.2393 31034.5978 -155.8151 -105.3117
ENERGY: 600000 1.1211 3.7243 2.9579 0.0000 -10754.2645 1453.7849 0.0000 0.0000 1810.8571 -7481.8193 305.4860 -9292.6764 -7533.4847 299.1181 -215.1735 -168.8886 31641.2027 -105.8819 -47.4611
ENERGY: 900000 1.6978 3.3386 4.6991 0.0000 -10801.1961 1473.1011 0.0000 0.0000 1829.8103 -7488.5492 308.6833 -9318.3595 -7530.9608 300.0559 135.8198 183.6292 31255.1118 -39.0843 21.9259
ENERGY: 1200000 1.4041 2.2695 1.7877 0.0000 -10948.9811 1498.9502 0.0000 0.0000 1803.4355 -7641.1341 304.2340 -9444.5696 -7532.0385 301.1331 151.5166 219.3433 30601.6893 11.8164 76.0305
ENERGY: 1500000 3.2203 4.5821 2.1211 0.0000 -10795.6872 1491.4917 0.0000 0.0000 1826.7660 -7467.5060 308.1698 -9294.2720 -7520.7037 302.2252 663.5948 738.4930 30498.9706 40.9314 107.7190
TCL: Running FEP window  10: Lambda1 0.5499999999999996 Lambda2 0.4999999999999996 [dLambda -0.04999999999999999]
TCL: Setting parameter firsttimestep to 0
TCL: Setting parameter alchLambda to 0.5499999999999996
Info: NONBONDED TABLE R-SQUARED SPACING: 0.0625
Info: NONBONDED TABLE SIZE: 705 POINTS
TCL: Setting parameter alchLambda2 to 0.4999999999999996
Info: NONBONDED TABLE R-SQUARED SPACING: 0.0625
Info: NONBONDED TABLE SIZE: 705 POINTS
TCL: Running for 1500000 steps
ETITLE: TS BOND ANGLE DIHED IMPRP ELECT VDW BOUNDARY MISC KINETIC TOTAL TEMP POTENTIAL TOTALAVG TEMPAVG PRESSURE GPRESSURE VOLUME PRESSAVG GPRESSAVG
ENERGY: 0 3.2203 4.5821 2.1211 0.0000 -10795.4070 1491.8650 0.0000 0.0000 1825.8928 -7467.7258 308.0225 -9293.6185 -7467.7258 308.0225 630.4214 735.7506 30498.9706 630.4214 735.7506
ENERGY: 300000 1.8239 2.0695 3.1275 0.0000 -10861.8433 1490.4151 0.0000 0.0000 1801.2928 -7563.1145 303.8725 -9364.4073 -7520.9445 302.2375 417.3777 469.3313 30360.4703 347.4085 412.6015
ENERGY: 600000 1.1691 1.7022 3.6646 0.0000 -10790.2027 1457.1704 0.0000 0.0000 1823.0247 -7503.4716 307.5386 -9326.4963 -7539.5237 301.2276 205.6484 302.0454 30634.4974 222.8554 299.7003
ENERGY: 900000 2.2322 0.9767 2.0506 0.0000 -10835.6391 1491.2417 0.0000 0.0000 1739.9608 -7599.1772 293.5260 -9339.1380 -7544.8747 300.9013 492.2932 587.6007 30399.3137 298.5134 372.5625
ENERGY: 1200000 4.7653 1.6055 1.4626 0.0000 -10660.7546 1428.3940 0.0000 0.0000 1705.1851 -7519.3420 287.6595 -9224.5272 -7546.3917 299.5726 -87.0708 -22.9582 31078.7814 178.0619 255.9180
ENERGY: 1500000 2.0068 1.6170 3.5583 0.0000 -10735.6390 1432.8989 0.0000 0.0000 1735.8356 -7559.7223 292.8301 -9295.5579 -7547.7548 299.9514 -49.1782 49.5675 30607.5993 150.7396 227.9149
TCL: Running FEP window  11: Lambda1 0.4999999999999996 Lambda2 0.4499999999999996 [dLambda -0.04999999999999999]
TCL: Setting parameter firsttimestep to 0
TCL: Setting parameter alchLambda to 0.4999999999999996
Info: NONBONDED TABLE R-SQUARED SPACING: 0.0625
Info: NONBONDED TABLE SIZE: 705 POINTS
TCL: Setting parameter alchLambda2 to 0.4499999999999996
Info: NONBONDED TABLE R-SQUARED SPACING: 0.0625
Info: NONBONDED TABLE SIZE: 705 POINTS
TCL: Running for 1500000 steps
ETITLE: TS BOND ANGLE DIHED IMPRP ELECT VDW BOUNDARY MISC KINETIC TOTAL TEMP POTENTIAL TOTALAVG TEMPAVG PRESSURE GPRESSURE VOLUME PRESSAVG GPRESSAVG
ENERGY: 0 2.0068 1.6170 3.5583 0.0000 -10735.4027 1433.2249 0.0000 0.0000 1734.9432 -7560.0524 292.6796 -9294.9956 -7560.0524 292.6796 -36.7124 43.6168 30607.5993 -36.7124 43.6168
ENERGY: 300000 2.0745 2.7733 2.1230 0.0000 -10842.9413 1469.4193 0.0000 0.0000 1789.2536 -7577.2976 301.8416 -9366.5512 -7563.4609 296.0072 -101.8182 -53.0594 30742.7590 28.9948 81.8161
ENERGY: 600000 1.8070 2.4013 3.8019 0.0000 -10689.2398 1383.0962 0.0000 0.0000 1761.7421 -7536.3914 297.2004 -9298.1334 -7552.4899 297.9234 -576.4163 -546.9626 31031.9961 18.9025 73.7199
ENERGY: 900000 4.1638 3.4484 2.9244 0.0000 -10831.5485 1477.1495 0.0000 0.0000 1801.6705 -7542.1918 303.9363 -9343.8623 -7548.4683 299.3455 122.4986 149.9406 30648.4900 -14.0338 39.0096
ENERGY: 1200000 3.7183 1.0756 3.5029 0.0000 -10945.2362 1509.9249 0.0000 0.0000 1779.6695 -7647.3452 300.2247 -9427.0147 -7561.2522 299.8378 203.6566 249.7500 30469.5927 60.2502 102.1741
ENERGY: 1500000 1.5036 2.5887 4.7509 0.0000 -10895.6787 1515.5595 0.0000 0.0000 1787.1359 -7584.1401 301.4843 -9371.2760 -7570.0810 299.8299 648.8891 714.9501 30106.7811 130.3667 180.2229
TCL: Running FEP window  12: Lambda1 0.4499999999999996 Lambda2 0.39999999999999963 [dLambda -0.04999999999999999]
TCL: Setting parameter firsttimestep to 0
TCL: Setting parameter alchLambda to 0.4499999999999996
Info: NONBONDED TABLE R-SQUARED SPACING: 0.0625
Info: NONBONDED TABLE SIZE: 705 POINTS
TCL: Setting parameter alchLambda2 to 0.39999999999999963
Info: NONBONDED TABLE R-SQUARED SPACING: 0.0625
Info: NONBONDED TABLE SIZE: 705 POINTS
TCL: Running for 1500000 steps
ETITLE: TS BOND ANGLE DIHED IMPRP ELECT VDW BOUNDARY MISC KINETIC TOTAL TEMP POTENTIAL TOTALAVG TEMPAVG PRESSURE GPRESSURE VOLUME PRESSAVG GPRESSAVG
ENERGY: 0 1.5036 2.5887 4.7509 0.0000 -10895.6783 1515.4923 0.0000 0.0000 1786.2335 -7585.1093 301.3321 -9371.3429 -7585.1093 301.3321 630.4123 709.2632 30106.7811 630.4123 709.2632
ENERGY: 300000 3.6863 1.6731 0.9750 0.0000 -10798.2170 1426.8636 0.0000 0.0000 1745.8915 -7619.1275 294.5265 -9365.0190 -7567.6312 299.2079 -269.4936 -201.3898 30507.8691 -0.9698 46.8648
ENERGY: 600000 4.0089 3.1988 1.4259 0.0000 -10799.1093 1470.1215 0.0000 0.0000 1831.6237 -7488.7304 308.9893 -9320.3542 -7575.4481 297.9333 243.8269 348.5380 30289.0177 29.3423 84.8600
ENERGY: 900000 2.2921 2.2821 2.9899 0.0000 -10733.1834 1454.3521 0.0000 0.0000 1711.9296 -7559.3377 288.7972 -9271.2673 -7568.4565 296.9929 -71.8227 -8.1159 31038.3192 -66.4708 -12.4490
ENERGY: 1200000 3.6090 5.2340 1.0753 0.0000 -10852.3872 1508.5949 0.0000 0.0000 1790.8454 -7543.0286 302.1101 -9333.8740 -7566.9214 298.0054 83.2840 190.2779 31244.4530 -102.5126 -40.0011
ENERGY: 1500000 0.8972 2.7107 2.2205 0.0000 -10888.9071 1497.8611 0.0000 0.0000 1812.2390 -7572.9785 305.7191 -9385.2176 -7565.2772 298.4430 383.2287 392.7524 30228.8696 -195.4681 -136.3920
TCL: Running FEP window  13: Lambda1 0.39999999999999963 Lambda2 0.34999999999999964 [dLambda -0.04999999999999999]
TCL: Setting parameter firsttimestep to 0
TCL: Setting parameter alchLambda to 0.39999999999999963
Info: NONBONDED TABLE R-SQUARED SPACING: 0.0625
Info: NONBONDED TABLE SIZE: 705 POINTS
TCL: Setting parameter alchLambda2 to 0.34999999999999964
Info: NONBONDED TABLE R-SQUARED SPACING: 0.0625
Info: NONBONDED TABLE SIZE: 705 POINTS
TCL: Running for 1500000 steps
ETITLE: TS BOND ANGLE DIHED IMPRP ELECT VDW BOUNDARY MISC KINETIC TOTAL TEMP POTENTIAL TOTALAVG TEMPAVG PRESSURE GPRESSURE VOLUME PRESSAVG GPRESSAVG
ENERGY: 0 0.8972 2.7107 2.2205 0.0000 -10888.9117 1497.4646 0.0000 0.0000 1811.3690 -7574.2497 305.5724 -9385.6187 -7574.2497 305.5724 299.2402 381.2040 30228.8696 299.2402 381.2040
ENERGY: 300000 3.2384 1.5437 2.4424 0.0000 -10586.0671 1244.4019 0.0000 0.0000 1820.0224 -7514.4183 307.0322 -9334.4407 -7536.6371 302.5534 -1612.9865 -1598.4910 31038.3317 -490.8619 -435.4086
ENERGY: 600000 5.5676 1.6340 5.3415 0.0000 -10754.3910 1417.9832 0.0000 0.0000 1752.1007 -7571.7640 295.5740 -9323.8647 -7526.9391 300.3562 -32.8813 21.8726 30335.0572 -228.0043 -157.1768
ENERGY: 900000 2.7109 3.1856 2.8043 0.0000 -10787.9424 1524.9124 0.0000 0.0000 1786.6469 -7467.6823 301.4018 -9254.3292 -7529.4894 302.1379 589.4321 619.5659 30920.5056 66.7353 140.3487
ENERGY: 1200000 3.7187 2.4342 1.3694 0.0000 -10784.2035 1499.8084 0.0000 0.0000 1828.4054 -7448.4674 308.4463 -9276.8728 -7531.2331 302.8786 252.6369 240.2319 31196.7436 68.3470 126.3563
ENERGY: 1500000 1.8569 3.7523 4.6913 0.0000 -10774.8444 1422.4539 0.0000 0.0000 1766.0178 -7576.0723 297.9217 -9342.0901 -7533.8423 302.4778 -294.6772 -255.1924 30486.5069 106.9600 168.6453
TCL: Running FEP window  14: Lambda1 0.34999999999999964 Lambda2 0.29999999999999966 [dLambda -0.04999999999999999]
TCL: Setting parameter firsttimestep to 0
TCL: Setting parameter alchLambda to 0.34999999999999964
Info: NONBONDED TABLE R-SQUARED SPACING: 0.0625
Info: NONBONDED TABLE SIZE: 705 POINTS
TCL: Setting parameter alchLambda2 to 0.29999999999999966
Info: NONBONDED TABLE R-SQUARED SPACING: 0.0625
Info: NONBONDED TABLE SIZE: 705 POINTS
TCL: Running for 1500000 steps
ETITLE: TS BOND ANGLE DIHED IMPRP ELECT VDW BOUNDARY MISC KINETIC TOTAL TEMP POTENTIAL TOTALAVG TEMPAVG PRESSURE GPRESSURE VOLUME PRESSAVG GPRESSAVG
ENERGY: 0 1.8569 3.7523 4.6913 0.0000 -10774.8440 1422.2110 0.0000 0.0000 1765.1416 -7577.1908 297.7739 -9342.3325 -7577.1908 297.7739 -347.3380 -265.2164 30486.5069 -347.3380 -265.2164
ENERGY: 300000 2.4419 1.2201 2.5483 0.0000 -10978.1270 1595.7384 0.0000 0.0000 1795.5937 -7580.5846 302.9111 -9376.1783 -7588.6547 302.3187 1081.7991 1114.9623 30412.7689 370.3907 420.0381
ENERGY: 600000 1.7686 1.6037 2.1713 0.0000 -10818.4481 1443.3174 0.0000 0.0000 1753.7068 -7615.8803 295.8449 -9369.5871 -7592.8307 302.0103 -284.4238 -177.6236 30349.7958 133.9759 195.0078
ENERGY: 900000 0.8183 1.5752 2.4399 0.0000 -10718.4863 1432.7651 0.0000 0.0000 1759.4951 -7521.3928 296.8214 -9280.8878 -7577.3783 301.2480 -162.1413 -146.3947 31181.3359 50.0410 114.2624
ENERGY: 1200000 4.8450 3.3995 1.4659 0.0000 -10593.4725 1282.4450 0.0000 0.0000 1800.5768 -7500.7403 303.7517 -9301.3170 -7570.6294 300.5855 -1213.3708 -1176.4690 30644.0245 -119.3902 -56.5043
ENERGY: 1500000 2.0446 1.6539 2.2581 0.0000 -10853.7105 1468.5372 0.0000 0.0000 1749.4862 -7629.7304 295.1329 -9379.2166 -7571.7079 300.4741 -134.5670 26.5214 30566.4937 -143.5752 -77.4988
TCL: Running FEP window  15: Lambda1 0.29999999999999966 Lambda2 0.24999999999999967 [dLambda -0.04999999999999999]
TCL: Setting parameter firsttimestep to 0
TCL: Setting parameter alchLambda to 0.29999999999999966
Info: NONBONDED TABLE R-SQUARED SPACING: 0.0625
Info: NONBONDED TABLE SIZE: 705 POINTS
TCL: Setting parameter alchLambda2 to 0.24999999999999967
Info: NONBONDED TABLE R-SQUARED SPACING: 0.0625
Info: NONBONDED TABLE SIZE: 705 POINTS
TCL: Running for 1500000 steps
ETITLE: TS BOND ANGLE DIHED IMPRP ELECT VDW BOUNDARY MISC KINETIC TOTAL TEMP POTENTIAL TOTALAVG TEMPAVG PRESSURE GPRESSURE VOLUME PRESSAVG GPRESSAVG
ENERGY: 0 2.0446 1.6539 2.2581 0.0000 -10853.7094 1469.0658 0.0000 0.0000 1748.5788 -7630.1082 294.9798 -9378.6870 -7630.1082 294.9798 -72.4605 25.6801 30566.4937 -72.4605 25.6801
ENERGY: 300000 3.9817 2.5932 3.5984 0.0000 -10709.7484 1449.6548 0.0000 0.0000 1753.1661 -7496.7542 295.7537 -9249.9203 -7587.0931 298.4396 124.0155 150.5233 30680.6174 -341.6994 -270.3171
ENERGY: 600000 4.6839 1.3446 1.6667 0.0000 -10809.9070 1429.4824 0.0000 0.0000 1809.1703 -7563.5591 305.2014 -9372.7295 -7581.3802 300.3052 -253.5519 -157.1847 30229.1955 -387.5239 -317.0545
ENERGY: 900000 2.2525 2.5549 3.3103 0.0000 -10774.5190 1463.6092 0.0000 0.0000 1813.8757 -7488.9164 305.9952 -9302.7921 -7578.0307 300.7141 -83.7598 -32.4861 31003.5603 -355.8805 -291.0090
ENERGY: 1200000 2.3610 4.5309 3.9061 0.0000 -10800.0400 1447.9094 0.0000 0.0000 1779.6626 -7561.6700 300.2236 -9341.3326 -7573.0432 300.5382 -236.9521 -168.9907 30946.8114 -336.9967 -268.6070
ENERGY: 1500000 3.0509 0.8967 1.9343 0.0000 -10842.2587 1432.8737 0.0000 0.0000 1784.6606 -7618.8425 301.0667 -9403.5031 -7567.5877 300.5610 -237.6437 -200.9877 30719.8955 -307.5351 -237.6902
TCL: Running FEP window  16: Lambda1 0.24999999999999967 Lambda2 0.19999999999999968 [dLambda -0.04999999999999999]
TCL: Setting parameter firsttimestep to 0
TCL: Setting parameter alchLambda to 0.24999999999999967
Info: NONBONDED TABLE R-SQUARED SPACING: 0.0625
Info: NONBONDED TABLE SIZE: 705 POINTS
TCL: Setting parameter alchLambda2 to 0.19999999999999968
Info: NONBONDED TABLE R-SQUARED SPACING: 0.0625
Info: NONBONDED TABLE SIZE: 705 POINTS
TCL: Running for 1500000 steps
ETITLE: TS BOND ANGLE DIHED IMPRP ELECT VDW BOUNDARY MISC KINETIC TOTAL TEMP POTENTIAL TOTALAVG TEMPAVG PRESSURE GPRESSURE VOLUME PRESSAVG GPRESSAVG
ENERGY: 0 3.0509 0.8967 1.9343 0.0000 -10842.2600 1433.2486 0.0000 0.0000 1783.7905 -7619.3390 300.9200 -9403.1296 -7619.3390 300.9200 -283.3831 -202.3768 30719.8955 -283.3831 -202.3768
ENERGY: 300000 2.9886 2.3029 3.0465 0.0000 -10943.0086 1524.9389 0.0000 0.0000 1776.3755 -7633.3562 299.6691 -9409.7317 -7582.6195 302.1765 430.2746 447.2330 30709.0259 235.8061 282.1299
ENERGY: 600000 2.4991 3.6187 4.0356 0.0000 -10884.6767 1513.8637 0.0000 0.0000 1770.4488 -7590.2108 298.6693 -9360.6596 -7577.5366 300.3826 346.4968 394.9580 30643.4225 168.0796 224.7702
ENERGY: 900000 0.9343 1.7156 1.5916 0.0000 -10700.9758 1431.6567 0.0000 0.0000 1763.2477 -7501.8300 297.4544 -9265.0777 -7573.7938 299.2973 -105.1372 -25.8150 30717.4247 73.1911 132.2592
ENERGY: 1200000 2.1051 3.4199 2.6448 0.0000 -10785.6760 1386.2298 0.0000 0.0000 1782.8420 -7608.4343 300.7599 -9391.2763 -7582.2863 298.8278 -676.5692 -662.7806 30883.5351 65.0111 132.8804
ENERGY: 1500000 2.0652 3.2410 2.8259 0.0000 -10818.0137 1454.1985 0.0000 0.0000 1810.3069 -7545.3762 305.3932 -9355.6831 -7574.9647 299.2188 7.6123 49.2957 30624.2200 43.0982 106.6008
TCL: Running FEP window  17: Lambda1 0.19999999999999968 Lambda2 0.1499999999999997 [dLambda -0.04999999999999999]
TCL: Setting parameter firsttimestep to 0
TCL: Setting parameter alchLambda to 0.19999999999999968
Info: NONBONDED TABLE R-SQUARED SPACING: 0.0625
Info: NONBONDED TABLE SIZE: 705 POINTS
TCL: Setting parameter alchLambda2 to 0.1499999999999997
Info: NONBONDED TABLE R-SQUARED SPACING: 0.0625
Info: NONBONDED TABLE SIZE: 705 POINTS
TCL: Running for 1500000 steps
ETITLE: TS BOND ANGLE DIHED IMPRP ELECT VDW BOUNDARY MISC KINETIC TOTAL TEMP POTENTIAL TOTALAVG TEMPAVG PRESSURE GPRESSURE VOLUME PRESSAVG GPRESSAVG
ENERGY: 0 2.0652 3.2410 2.8259 0.0000 -10818.0137 1454.4499 0.0000 0.0000 1809.4214 -7546.0103 305.2438 -9355.4318 -7546.0103 305.2438 -34.9518 48.8706 30624.2200 -34.9518 48.8706
ENERGY: 300000 3.6634 1.6640 1.8491 0.0000 -10965.6296 1458.2151 0.0000 0.0000 1795.0790 -7705.1590 302.8243 -9500.2379 -7654.0172 298.2375 -519.2894 -466.6298 30565.0054 -153.1381 -96.4350
ENERGY: 600000 1.7910 4.6399 3.0413 0.0000 -10768.9761 1457.9061 0.0000 0.0000 1821.8649 -7479.7328 307.3430 -9301.5977 -7605.4811 298.7469 -241.3184 -206.0986 31185.2575 -266.5243 -195.1297
ENERGY: 900000 3.3033 2.4655 3.1886 0.0000 -10721.5687 1404.6535 0.0000 0.0000 1800.2223 -7507.7354 303.6920 -9307.9578 -7581.3179 300.6971 -488.0407 -432.9005 30867.9461 -227.5578 -160.6662
ENERGY: 1200000 1.0648 2.8548 1.0314 0.0000 -10775.2120 1416.9533 0.0000 0.0000 1797.5885 -7555.7192 303.2476 -9353.3077 -7581.0380 301.3804 -225.6043 -149.2638 30218.8036 -184.6226 -121.7196
ENERGY: 1500000 4.6884 1.7076 3.3008 0.0000 -10811.1929 1485.7735 0.0000 0.0000 1789.3350 -7526.3876 301.8553 -9315.7227 -7583.4016 300.5661 435.1450 440.5416 30284.4238 -127.5792 -67.9585
TCL: Running FEP window  18: Lambda1 0.1499999999999997 Lambda2 0.09999999999999969 [dLambda -0.05 ]
TCL: Setting parameter firsttimestep to 0
TCL: Setting parameter alchLambda to 0.1499999999999997
Info: NONBONDED TABLE R-SQUARED SPACING: 0.0625
Info: NONBONDED TABLE SIZE: 705 POINTS
TCL: Setting parameter alchLambda2 to 0.09999999999999969
Info: NONBONDED TABLE R-SQUARED SPACING: 0.0625
Info: NONBONDED TABLE SIZE: 705 POINTS
TCL: Running for 1500000 steps
ETITLE: TS BOND ANGLE DIHED IMPRP ELECT VDW BOUNDARY MISC KINETIC TOTAL TEMP POTENTIAL TOTALAVG TEMPAVG PRESSURE GPRESSURE VOLUME PRESSAVG GPRESSAVG
ENERGY: 0 4.6884 1.7076 3.3008 0.0000 -10811.1923 1486.0326 0.0000 0.0000 1788.3936 -7527.0694 301.6965 -9315.4630 -7527.0694 301.6965 372.5838 437.5143 30284.4238 372.5838 437.5143
ENERGY: 300000 1.8544 1.7797 1.8222 0.0000 -10784.4036 1420.1086 0.0000 0.0000 1773.3108 -7585.5278 299.1521 -9358.8386 -7579.2639 299.2874 -510.1759 -408.7902 30917.0449 -35.0313 20.2549
ENERGY: 600000 5.6894 2.5851 2.5977 0.0000 -10867.5596 1497.1240 0.0000 0.0000 1732.7300 -7626.8334 292.3062 -9359.5634 -7597.9862 298.7747 250.9268 281.2780 30224.8120 74.9415 122.6518
ENERGY: 900000 1.8395 3.8218 2.0430 0.0000 -10752.6204 1426.1988 0.0000 0.0000 1847.8606 -7470.8568 311.7284 -9318.7173 -7570.8526 300.1470 -172.0953 -138.2187 31095.2305 7.5548 47.3391
ENERGY: 1200000 5.3046 4.8181 1.6652 0.0000 -10766.3396 1462.5373 0.0000 0.0000 1784.4788 -7507.5357 301.0361 -9292.0145 -7564.2899 299.7800 203.1672 289.3924 30430.7217 -23.8680 25.9490
ENERGY: 1500000 3.0778 5.0188 1.4338 0.0000 -10816.6332 1451.8447 0.0000 0.0000 1773.2247 -7582.0334 299.1375 -9355.2581 -7565.2431 300.2944 -114.9305 -11.0195 30710.0613 -24.7535 28.1276
TCL: Running FEP window  19: Lambda1 0.09999999999999969 Lambda2 0.049999999999999684 [dLambda -0.05 ]
TCL: Setting parameter firsttimestep to 0
TCL: Setting parameter alchLambda to 0.09999999999999969
Info: NONBONDED TABLE R-SQUARED SPACING: 0.0625
Info: NONBONDED TABLE SIZE: 705 POINTS
TCL: Setting parameter alchLambda2 to 0.049999999999999684
Info: NONBONDED TABLE R-SQUARED SPACING: 0.0625
Info: NONBONDED TABLE SIZE: 705 POINTS
TCL: Running for 1500000 steps
ETITLE: TS BOND ANGLE DIHED IMPRP ELECT VDW BOUNDARY MISC KINETIC TOTAL TEMP POTENTIAL TOTALAVG TEMPAVG PRESSURE GPRESSURE VOLUME PRESSAVG GPRESSAVG
ENERGY: 0 3.0778 5.0188 1.4338 0.0000 -10816.6342 1450.8949 0.0000 0.0000 1772.3378 -7583.8712 298.9879 -9356.2090 -7583.8712 298.9879 -92.4831 -17.4745 30710.0613 -92.4831 -17.4745
ENERGY: 300000 1.4934 2.0257 4.1317 0.0000 -10689.2894 1429.9891 0.0000 0.0000 1799.9350 -7451.7145 303.6435 -9251.6495 -7563.4870 299.4950 27.4796 124.5398 30757.5109 29.1385 104.3077
ENERGY: 600000 2.0172 2.6970 1.1812 0.0000 -10851.5397 1560.5394 0.0000 0.0000 1829.2619 -7455.8430 308.5908 -9285.1049 -7558.1187 300.2783 1247.5088 1211.4331 30284.9267 129.0422 188.4657
ENERGY: 900000 2.3603 4.6929 8.3725 0.0000 -10900.3042 1559.2643 0.0000 0.0000 1803.1037 -7522.5105 304.1780 -9325.6142 -7541.8535 301.5151 448.9897 522.4568 30913.9181 143.5581 201.4978
ENERGY: 1200000 1.3859 0.8235 3.5244 0.0000 -10774.6498 1448.8095 0.0000 0.0000 1802.0019 -7518.1047 303.9922 -9320.1066 -7544.7063 302.5328 -35.1046 69.8020 30724.1202 138.5407 205.9595
ENERGY: 1500000 1.3124 1.6532 2.4638 0.0000 -10808.4023 1480.1453 0.0000 0.0000 1730.0104 -7592.8172 291.8474 -9322.8276 -7547.3727 301.5263 217.9878 255.5767 30241.5431 122.9762 185.9418
TCL: Running FEP window  20: Lambda1 0.049999999999999684 Lambda2 0.0    [dLambda -0.049999999999999684]
TCL: Setting parameter firsttimestep to 0
TCL: Setting parameter alchLambda to 0.049999999999999684
Info: NONBONDED TABLE R-SQUARED SPACING: 0.0625
Info: NONBONDED TABLE SIZE: 705 POINTS
TCL: Setting parameter alchLambda2 to 0.0
Info: NONBONDED TABLE R-SQUARED SPACING: 0.0625
Info: NONBONDED TABLE SIZE: 705 POINTS
TCL: Running for 1500000 steps
ETITLE: TS BOND ANGLE DIHED IMPRP ELECT VDW BOUNDARY MISC KINETIC TOTAL TEMP POTENTIAL TOTALAVG TEMPAVG PRESSURE GPRESSURE VOLUME PRESSAVG GPRESSAVG
ENERGY: 0 1.3123 1.6532 2.4638 0.0000 -10808.4024 1479.5082 0.0000 0.0000 1729.0822 -7594.3826 291.6908 -9323.4648 -7594.3826 291.6908 169.4020 250.7313 30241.5431 169.4020 250.7313
ENERGY: 300000 1.9628 1.3025 6.5835 0.0000 -10980.3899 1552.5371 0.0000 0.0000 1768.8140 -7649.1900 298.3935 -9418.0040 -7574.6315 301.1010 268.5642 349.8302 30824.2248 173.9000 244.6462
ENERGY: 600000 0.9378 1.7495 1.3425 0.0000 -10758.9748 1396.5636 0.0000 0.0000 1781.0026 -7577.3788 300.4496 -9358.3815 -7564.7096 303.6991 -386.7209 -375.3173 30404.7551 -98.4645 -36.5568
ENERGY: 900000 2.0865 1.0831 2.1202 0.0000 -10882.3351 1500.0364 0.0000 0.0000 1819.1247 -7557.8843 306.8807 -9377.0090 -7547.8611 304.8089 64.0977 99.8959 30882.6831 -11.3419 44.9559
ENERGY: 1200000 1.3732 2.5201 2.8105 0.0000 -10754.9832 1411.5347 0.0000 0.0000 1759.9415 -7576.8031 296.8967 -9336.7446 -7552.0579 304.1292 -290.8780 -220.4781 30696.9195 -14.0440 45.4420
ENERGY: 1500000 5.3759 1.3352 1.2680 0.0000 -10776.3513 1431.4837 0.0000 0.0000 1771.0408 -7565.8476 298.7691 -9336.8885 -7555.3948 302.5572 -67.1701 -41.7605 30615.6989 -13.3285 42.2661
TCL: Exiting due to exit command.
