Info: SIMULATION PARAMETERS:
Info: TIMESTEP               2
Info: NUMBER OF STEPS        0
Info: STEPS PER CYCLE        10
Info: PERIODIC CELL BASIS 1  30.7044 0 0
Info: PERIODIC CELL BASIS 2  0 30.951 0
Info: PERIODIC CELL BASIS 3  0 0 31.4679
Info: PERIODIC CELL CENTER   0 0 0
Info: WRAPPING WATERS AROUND PERIODIC BOUNDARIES ON OUTPUT.
Info: WRAPPING ALL CLUSTERS AROUND PERIODIC BOUNDARIES ON OUTPUT.
Info: FIRST LDB TIMESTEP     50
Info: LAST LDB TIMESTEP     -1
Info: HOM BACKGROUND SCALING 1
Info: PME BACKGROUND SCALING 1
Info: MIN ATOMS PER PATCH    40
Info: EMPTY PATCH LOAD       40 ATOMS
Info: VELOCITY FILE          mobley_8861672_equil.vel
Info: CENTER OF MASS MOVING INITIALLY? NO
Info: DIELECTRIC             1
Info: EXCLUDE                SCALED ONE-FOUR
Info: 1-4 ELECTROSTATICS SCALED BY 0.833333
Info: MODIFIED 1-4 VDW PARAMETERS WILL BE USED
Info: DCD FILENAME           mobley_8861672_prod.dcd
Info: DCD FREQUENCY          100000
Info: DCD FIRST STEP         100000
Info: DCD FILE WILL CONTAIN UNIT CELL DATA
Info: XST FILENAME           mobley_8861672_prod.xst
Info: XST FREQUENCY          100000
Info: NO VELOCITY DCD OUTPUT
Info: NO FORCE DCD OUTPUT
Info: OUTPUT FILENAME        mobley_8861672_prod
Info: BINARY OUTPUT FILES WILL BE USED
Info: RESTART FILENAME       mobley_8861672_prod.restart
Info: RESTART FREQUENCY      100000
Info: BINARY RESTART FILES WILL BE USED
Info: CUTOFF                 9
Info: PAIRLIST DISTANCE      11
Info: PAIRLIST SHRINK RATE   0.01
Info: PAIRLIST GROW RATE     0.01
Info: PAIRLIST TRIGGER       0.3
Info: PAIRLISTS PER CYCLE    2
Info: PAIRLISTS ENABLED
Info: MARGIN                 2
Info: HYDROGEN GROUP CUTOFF  2.5
Info: PATCH DIMENSION        15.5
Info: ENERGY OUTPUT STEPS    100000
Info: ENERGY EVALUATION STEPS    100000
Info: OUTPUT ENERGY PRECISION 4
Info: CROSSTERM ENERGY INCLUDED IN DIHEDRAL
Info: TIMING OUTPUT STEPS    1000000
Info: PRESSURE OUTPUT STEPS  100000
Info: ALCHEMICAL FEP ON
Info: FEP CURRENT LAMBDA VALUE     1
Info: FEP COMPARISON LAMBDA VALUE  0.95
Info: FEP INTRA-ALCHEMICAL NON-BONDED INTERACTIONS WILL BE RETAINED
Info: FEP INTRA-ALCHEMICAL BONDED INTERACTIONS WILL BE RETAINED
Info: FEP VDW SHIFTING COEFFICIENT 5
Info: FEP ELEC. ACTIVE FOR ANNIHILATED PARTICLES BETWEEN LAMBDA = 0 AND LAMBDA = 0.5
Info: FEP ELEC. ACTIVE FOR EXNIHILATED PARTICLES BETWEEN LAMBDA = 0.5 AND LAMBDA = 1
Info: FEP VDW ACTIVE FOR ANNIHILATED PARTICLES BETWEEN LAMBDA = 0 AND LAMBDA = 1
Info: FEP VDW ACTIVE FOR EXNIHILATED PARTICLES BETWEEN LAMBDA = 0 AND LAMBDA = 1
Info: FEP BOND ACTIVE FOR ANNIHILATED PARTICLES BETWEEN LAMBDA = 1 AND LAMBDA = 1
Info: FEP BOND ACTIVE FOR EXNIHILATED PARTICLES BETWEEN LAMBDA = 0 AND LAMBDA = 0
Info: LANGEVIN DYNAMICS ACTIVE
Info: LANGEVIN TEMPERATURE   300
Info: LANGEVIN USING BBK INTEGRATOR
Info: LANGEVIN DAMPING COEFFICIENT IS 1 INVERSE PS
Info: LANGEVIN DYNAMICS APPLIED TO HYDROGENS
Info: LANGEVIN PISTON PRESSURE CONTROL ACTIVE
Info:        TARGET PRESSURE IS 1.01325 BAR
Info:     OSCILLATION PERIOD IS 50 FS
Info:             DECAY TIME IS 25 FS
Info:     PISTON TEMPERATURE IS 300 K
Info:       PRESSURE CONTROL IS GROUP-BASED
Info:    INITIAL STRAIN RATE IS -8.94394e-05 -8.94394e-05 -8.94394e-05
Info:       CELL FLUCTUATION IS ISOTROPIC
Info: PARTICLE MESH EWALD (PME) ACTIVE
Info: PME TOLERANCE               1e-06
Info: PME EWALD COEFFICIENT       0.348832
Info: PME INTERPOLATION ORDER     4
Info: PME GRID DIMENSIONS         32 32 32
Info: PME MAXIMUM GRID SPACING    1
Info: PME CALCULATION WILL BE PERFORMED ON GPU
Info: FULL ELECTROSTATIC EVALUATION FREQUENCY      2
Info: USING VERLET I (r-RESPA) MTS SCHEME.
Info: C1 SPLITTING OF LONG RANGE ELECTROSTATICS
Info: PLACING ATOMS IN PATCHES BY HYDROGEN GROUPS
Info: RIGID BONDS TO HYDROGEN : ALL
Info:         ERROR TOLERANCE : 1e-08
Info:          MAX ITERATIONS : 100
Info: RIGID WATER USING SETTLE ALGORITHM
Info: RANDOM NUMBER SEED     1743610906
Info: USE HYDROGEN BONDS?    NO
Info: Using AMBER format force field!
Info: AMBER PARM FILE        mobley_8861672.prmtop
Info: COORDINATE PDB         mobley_8861672.pdb
Info: Exclusions will be read from PARM file!
Info: SCNB (VDW SCALING)     2
Info: USING ARITHMETIC MEAN TO COMBINE L-J SIGMA PARAMETERS
Info: BINARY COORDINATES     mobley_8861672_equil.coor
Info: SUMMARY OF PARAMETERS:
Info: 8 BONDS
Info: 10 ANGLES
Info:   10 HARMONIC
Info:   0 COSINE-BASED
Info: 4 DIHEDRAL
Info: 0 IMPROPER
Info: 0 CROSSTERM
Info: 0 VDW
Info: 36 VDW_PAIRS
Info: 0 NBTHOLE_PAIRS
Info: To read alchdata from file: mobley_8861672.pdb
Info: To read alchflag data from column: 5
Info: STRUCTURE SUMMARY:
Info: 2939 ATOMS
Info: 2939 BONDS
Info: 28 ANGLES
Info: 37 DIHEDRALS
Info: 0 IMPROPERS
Info: 0 CROSSTERMS
Info: 2996 EXCLUSIONS
Info: 2931 RIGID BONDS
Info: ALCH: 0 ATOMS TO DISAPPEAR IN FINAL STATE
Info: ALCH: 17 ATOMS TO APPEAR IN FINAL STATE
Info: 5886 DEGREES OF FREEDOM
Info: 982 HYDROGEN GROUPS
Info: 4 ATOMS IN LARGEST HYDROGEN GROUP
Info: 982 MIGRATION GROUPS
Info: 4 ATOMS IN LARGEST MIGRATION GROUP
Info: TOTAL MASS = 17654.7 amu
Info: TOTAL CHARGE = -9.99793e-05 e
Info: MASS DENSITY = 0.980344 g/cm^3
Info: ATOM DENSITY = 0.0982783 atoms/A^3
Info: ADDED 0 IMPLICIT EXCLUSIONS
Info: NONBONDED TABLE R-SQUARED SPACING: 0.0625
Info: NONBONDED TABLE SIZE: 705 POINTS
Info: REMOVING COM VELOCITY -0.129372 0.0220262 -0.0760939
Info: Use 3D box decompostion in PME FFT.
Info: Updated CUDA force table with 4096 elements.
Info: Updated CUDA LJ table with 8 x 8 elements.
Info: Found 19 unique exclusion lists needing 44 bytes
TCL: Running for 1500000 steps
ETITLE: TS BOND ANGLE DIHED IMPRP ELECT VDW BOUNDARY MISC KINETIC TOTAL TEMP POTENTIAL TOTALAVG TEMPAVG PRESSURE GPRESSURE VOLUME PRESSAVG GPRESSAVG
ENERGY: 0 4.3219 4.1011 1.3363 0.0000 -10733.3667 1447.8027 0.0000 0.0000 1809.6502 -7466.1544 309.4317 -9275.8046 -7466.1544 309.4317 439.6898 514.6680 29904.8630 439.6898 514.6680
ENERGY: 300000 5.1100 5.8691 1.0870 0.0000 -10533.2981 1329.0428 0.0000 0.0000 1765.8196 -7426.3696 301.9371 -9192.1892 -7489.3891 300.3153 -775.6937 -742.2058 30469.5772 -64.1972 -7.2258
ENERGY: 600000 2.0743 6.2581 3.0265 0.0000 -10692.0319 1421.3270 0.0000 0.0000 1735.3303 -7524.0157 296.7237 -9259.3460 -7514.2298 298.7082 -45.5867 -35.6839 30311.6372 -8.3379 39.4689
ENERGY: 900000 3.5565 6.6664 3.4890 0.0000 -10530.5254 1369.5282 0.0000 0.0000 1704.5380 -7442.7474 291.4586 -9147.2854 -7515.6493 298.8287 -501.0475 -450.2687 30699.5583 120.8952 169.3143
ENERGY: 1200000 2.9068 2.7544 3.6328 0.0000 -10737.5597 1432.0793 0.0000 0.0000 1784.7741 -7511.4123 305.1781 -9296.1864 -7512.7343 299.8307 -15.2647 47.8904 30325.4817 168.0038 225.9443
ENERGY: 1500000 2.1843 9.0244 2.7554 0.0000 -10723.0668 1393.8002 0.0000 0.0000 1771.9687 -7543.3337 302.9885 -9315.3024 -7518.4217 299.8728 -492.1583 -416.0806 30363.1055 86.8561 147.8890
TCL: Running FEP window   2: Lambda1 0.95   Lambda2 0.8999999999999999 [dLambda -0.050000000000000044]
TCL: Setting parameter firsttimestep to 0
TCL: Setting parameter alchLambda to 0.95
Info: NONBONDED TABLE R-SQUARED SPACING: 0.0625
Info: NONBONDED TABLE SIZE: 705 POINTS
TCL: Setting parameter alchLambda2 to 0.8999999999999999
Info: NONBONDED TABLE R-SQUARED SPACING: 0.0625
Info: NONBONDED TABLE SIZE: 705 POINTS
TCL: Running for 1500000 steps
ETITLE: TS BOND ANGLE DIHED IMPRP ELECT VDW BOUNDARY MISC KINETIC TOTAL TEMP POTENTIAL TOTALAVG TEMPAVG PRESSURE GPRESSURE VOLUME PRESSAVG GPRESSAVG
ENERGY: 0 2.1843 9.0245 2.7554 0.0000 -10722.0792 1393.7377 0.0000 0.0000 1771.1002 -7543.2771 302.8400 -9314.3773 -7543.2771 302.8400 -516.2548 -430.3521 30363.1055 -516.2548 -430.3521
ENERGY: 300000 2.3625 5.6683 1.6332 0.0000 -10643.7654 1447.9725 0.0000 0.0000 1751.4205 -7434.7084 299.4750 -9186.1289 -7480.2866 299.0129 66.7324 172.4620 30560.1660 -191.8129 -127.8622
ENERGY: 600000 2.5255 7.8759 1.7171 0.0000 -10762.5242 1503.3809 0.0000 0.0000 1701.8206 -7545.2041 290.9939 -9247.0247 -7500.5290 299.1414 792.9604 807.1170 30010.2683 -90.6097 -46.4493
ENERGY: 900000 2.6057 5.6804 3.7191 0.0000 -10681.2725 1408.7281 0.0000 0.0000 1763.8755 -7496.6636 301.6047 -9260.5391 -7489.9522 298.8399 -366.4215 -269.0390 30694.0002 -29.7510 26.3872
ENERGY: 1200000 1.1123 7.2083 0.9575 0.0000 -10596.8395 1395.6481 0.0000 0.0000 1770.6924 -7421.2210 302.7703 -9191.9134 -7495.4236 298.0641 -40.9131 63.8494 30209.7038 -47.5375 13.1033
ENERGY: 1500000 2.2180 4.4198 3.2378 0.0000 -10738.2203 1473.6310 0.0000 0.0000 1774.1107 -7480.6030 303.3548 -9254.7138 -7490.3077 299.4321 409.7138 529.9651 29996.6756 6.3865 72.0682
TCL: Running FEP window   3: Lambda1 0.8999999999999999 Lambda2 0.8499999999999999 [dLambda -0.050000000000000044]
TCL: Setting parameter firsttimestep to 0
TCL: Setting parameter alchLambda to 0.8999999999999999
Info: NONBONDED TABLE R-SQUARED SPACING: 0.0625
Info: NONBONDED TABLE SIZE: 705 POINTS
TCL: Setting parameter alchLambda2 to 0.8499999999999999
Info: NONBONDED TABLE R-SQUARED SPACING: 0.0625
Info: NONBONDED TABLE SIZE: 705 POINTS
TCL: Running for 1500000 steps
ETITLE: TS BOND ANGLE DIHED IMPRP ELECT VDW BOUNDARY MISC KINETIC TOTAL TEMP POTENTIAL TOTALAVG TEMPAVG PRESSURE GPRESSURE VOLUME PRESSAVG GPRESSAVG
ENERGY: 0 2.2180 4.4198 3.2378 0.0000 -10737.3865 1473.5838 0.0000 0.0000 1773.2238 -7480.7033 303.2031 -9253.9271 -7480.7033 303.2031 428.2126 518.2583 29996.6756 428.2126 518.2583
ENERGY: 300000 3.4647 8.6228 1.9796 0.0000 -10778.6914 1494.2111 0.0000 0.0000 1713.8703 -7556.5428 293.0543 -9270.4131 -7490.7597 301.7861 205.5876 202.1284 30296.7784 89.0821 127.1733
ENERGY: 600000 1.5603 8.1324 1.3872 0.0000 -10614.4655 1410.3220 0.0000 0.0000 1801.6134 -7391.4501 308.0575 -9193.0635 -7472.1848 303.5641 155.0889 200.4603 29953.4382 -6.3056 48.4602
ENERGY: 900000 2.1146 5.8251 2.5003 0.0000 -10732.5665 1507.2158 0.0000 0.0000 1740.6461 -7474.2646 297.6327 -9214.9107 -7468.2990 303.2489 561.4856 591.7532 30336.9534 17.7711 70.5842
ENERGY: 1200000 0.9116 4.7332 2.0751 0.0000 -10518.2155 1329.7871 0.0000 0.0000 1759.8429 -7420.8657 300.9151 -9180.7086 -7466.2311 302.8095 -560.4438 -547.2251 30523.3413 41.7529 101.5132
ENERGY: 1500000 3.8760 6.3481 3.9015 0.0000 -10768.8570 1474.9482 0.0000 0.0000 1767.1505 -7512.6327 302.1647 -9279.7832 -7468.3134 302.6139 341.4793 415.5523 30076.1522 42.3015 101.9561
TCL: Running FEP window   4: Lambda1 0.8499999999999999 Lambda2 0.7999999999999998 [dLambda -0.050000000000000044]
TCL: Setting parameter firsttimestep to 0
TCL: Setting parameter alchLambda to 0.8499999999999999
Info: NONBONDED TABLE R-SQUARED SPACING: 0.0625
Info: NONBONDED TABLE SIZE: 705 POINTS
TCL: Setting parameter alchLambda2 to 0.7999999999999998
Info: NONBONDED TABLE R-SQUARED SPACING: 0.0625
Info: NONBONDED TABLE SIZE: 705 POINTS
TCL: Running for 1500000 steps
ETITLE: TS BOND ANGLE DIHED IMPRP ELECT VDW BOUNDARY MISC KINETIC TOTAL TEMP POTENTIAL TOTALAVG TEMPAVG PRESSURE GPRESSURE VOLUME PRESSAVG GPRESSAVG
ENERGY: 0 3.8760 6.3481 3.9015 0.0000 -10767.8968 1475.1444 0.0000 0.0000 1766.2650 -7512.3618 302.0132 -9278.6268 -7512.3618 302.0132 329.2417 405.2617 30076.1522 329.2417 405.2617
ENERGY: 300000 3.1358 5.5194 0.5424 0.0000 -10725.7567 1453.5676 0.0000 0.0000 1813.5081 -7449.4835 310.0913 -9262.9916 -7449.1556 305.7853 -124.6773 -60.7324 30394.4914 -348.3261 -269.9748
ENERGY: 600000 4.6631 5.8820 1.8804 0.0000 -10740.6555 1438.7994 0.0000 0.0000 1694.1732 -7595.2574 289.6863 -9289.4306 -7473.4647 301.8955 -138.4513 -54.9529 30330.8601 -184.9985 -107.9812
ENERGY: 900000 3.9983 6.5475 1.1945 0.0000 -10716.3145 1406.3771 0.0000 0.0000 1762.8223 -7535.3749 301.4246 -9298.1971 -7479.1273 301.5532 -373.4380 -282.8647 30249.2331 -132.0199 -51.7823
ENERGY: 1200000 0.6470 3.6369 1.8847 0.0000 -10611.4889 1385.5790 0.0000 0.0000 1777.3410 -7442.4003 303.9071 -9219.7413 -7468.8543 301.3496 -365.2630 -271.5578 30597.6100 -129.5724 -55.4453
ENERGY: 1500000 2.6719 6.0329 4.1983 0.0000 -10706.3589 1438.5777 0.0000 0.0000 1771.5499 -7483.3282 302.9169 -9254.8781 -7474.9276 301.2864 -36.1146 -35.0469 30466.4111 -86.5298 -19.2795
TCL: Running FEP window   5: Lambda1 0.7999999999999998 Lambda2 0.7499999999999998 [dLambda -0.050000000000000044]
TCL: Setting parameter firsttimestep to 0
TCL: Setting parameter alchLambda to 0.7999999999999998
Info: NONBONDED TABLE R-SQUARED SPACING: 0.0625
Info: NONBONDED TABLE SIZE: 705 POINTS
TCL: Setting parameter alchLambda2 to 0.7499999999999998
Info: NONBONDED TABLE R-SQUARED SPACING: 0.0625
Info: NONBONDED TABLE SIZE: 705 POINTS
TCL: Running for 1500000 steps
ETITLE: TS BOND ANGLE DIHED IMPRP ELECT VDW BOUNDARY MISC KINETIC TOTAL TEMP POTENTIAL TOTALAVG TEMPAVG PRESSURE GPRESSURE VOLUME PRESSAVG GPRESSAVG
ENERGY: 0 2.6719 6.0329 4.1983 0.0000 -10705.0282 1438.8381 0.0000 0.0000 1770.7249 -7482.5620 302.7758 -9253.2869 -7482.5620 302.7758 -104.6819 -38.9169 30466.4111 -104.6819 -38.9169
ENERGY: 300000 0.9498 4.4402 2.9238 0.0000 -10548.1967 1395.0378 0.0000 0.0000 1763.9151 -7380.9299 301.6114 -9144.8450 -7482.5816 301.2420 48.7792 146.4617 30049.9697 -92.7237 -1.6607
ENERGY: 600000 2.4138 4.3602 5.2059 0.0000 -10726.2401 1488.2699 0.0000 0.0000 1736.3368 -7489.6535 296.8958 -9225.9903 -7474.3709 302.2424 720.0838 720.1048 29914.6809 -28.4752 43.3947
ENERGY: 900000 3.3583 2.7056 3.9672 0.0000 -10627.3768 1343.3141 0.0000 0.0000 1736.4601 -7537.5715 296.9169 -9274.0317 -7467.0431 302.0999 -748.4045 -732.5393 30125.0435 -199.9994 -129.1642
ENERGY: 1200000 2.0756 5.9822 2.3410 0.0000 -10753.2027 1517.8421 0.0000 0.0000 1749.3308 -7475.6310 299.1177 -9224.9619 -7471.2454 300.9866 489.3368 575.5231 30572.1412 -62.7786 4.4481
ENERGY: 1500000 1.8062 6.2263 2.1692 0.0000 -10591.7141 1394.5580 0.0000 0.0000 1762.4450 -7424.5095 301.3601 -9186.9544 -7466.9048 300.2216 -173.7020 -101.0864 30479.7094 -57.7567 13.8065
TCL: Running FEP window   6: Lambda1 0.7499999999999998 Lambda2 0.6999999999999997 [dLambda -0.050000000000000044]
TCL: Setting parameter firsttimestep to 0
TCL: Setting parameter alchLambda to 0.7499999999999998
Info: NONBONDED TABLE R-SQUARED SPACING: 0.0625
Info: NONBONDED TABLE SIZE: 705 POINTS
TCL: Setting parameter alchLambda2 to 0.6999999999999997
Info: NONBONDED TABLE R-SQUARED SPACING: 0.0625
Info: NONBONDED TABLE SIZE: 705 POINTS
TCL: Running for 1500000 steps
ETITLE: TS BOND ANGLE DIHED IMPRP ELECT VDW BOUNDARY MISC KINETIC TOTAL TEMP POTENTIAL TOTALAVG TEMPAVG PRESSURE GPRESSURE VOLUME PRESSAVG GPRESSAVG
ENERGY: 0 1.8062 6.2263 2.1692 0.0000 -10590.3017 1394.8389 0.0000 0.0000 1761.6058 -7423.6553 301.2166 -9185.2611 -7423.6553 301.2166 -214.2191 -103.4766 30479.7094 -214.2191 -103.4766
ENERGY: 300000 1.9357 10.2634 2.3170 0.0000 -10577.8805 1390.8919 0.0000 0.0000 1730.6496 -7441.8230 295.9234 -9172.4725 -7445.0022 300.1975 -172.1606 -71.6178 30566.4606 -38.5143 53.2858
ENERGY: 600000 3.1249 4.1444 2.6628 0.0000 -10698.8714 1386.5040 0.0000 0.0000 1766.9158 -7535.5195 302.1245 -9302.4353 -7451.9862 299.8160 -544.6395 -501.2560 30488.5758 -124.5942 -49.5532
ENERGY: 900000 1.1611 2.6479 2.7287 0.0000 -10654.9134 1426.6474 0.0000 0.0000 1746.3745 -7475.3539 298.6122 -9221.7284 -7454.5110 300.4788 -195.1037 -139.6582 30714.7923 -146.0715 -64.5978
ENERGY: 1200000 2.3594 4.2031 6.1141 0.0000 -10595.0579 1454.0143 0.0000 0.0000 1770.0359 -7358.3311 302.6580 -9128.3670 -7447.8472 300.2991 479.9661 561.2056 30325.9448 -63.4625 17.3865
ENERGY: 1500000 4.2250 3.4280 3.0965 0.0000 -10687.8447 1426.8979 0.0000 0.0000 1748.4338 -7501.7634 298.9643 -9250.1972 -7457.8805 299.8150 -50.2468 -33.6373 30001.1044 -155.5737 -80.4816
TCL: Running FEP window   7: Lambda1 0.6999999999999997 Lambda2 0.6499999999999997 [dLambda -0.050000000000000044]
TCL: Setting parameter firsttimestep to 0
TCL: Setting parameter alchLambda to 0.6999999999999997
Info: NONBONDED TABLE R-SQUARED SPACING: 0.0625
Info: NONBONDED TABLE SIZE: 705 POINTS
TCL: Setting parameter alchLambda2 to 0.6499999999999997
Info: NONBONDED TABLE R-SQUARED SPACING: 0.0625
Info: NONBONDED TABLE SIZE: 705 POINTS
TCL: Running for 1500000 steps
ETITLE: TS BOND ANGLE DIHED IMPRP ELECT VDW BOUNDARY MISC KINETIC TOTAL TEMP POTENTIAL TOTALAVG TEMPAVG PRESSURE GPRESSURE VOLUME PRESSAVG GPRESSAVG
ENERGY: 0 4.2250 3.4280 3.0965 0.0000 -10686.8572 1426.7063 0.0000 0.0000 1747.5491 -7501.8523 298.8130 -9249.4014 -7501.8523 298.8130 -121.3004 -42.6157 30001.1044 -121.3004 -42.6157
ENERGY: 300000 2.7012 6.1128 3.1663 0.0000 -10568.6817 1353.2719 0.0000 0.0000 1741.2604 -7462.1691 297.7377 -9203.4295 -7472.5512 300.9281 -535.9600 -583.5425 30502.1267 171.6598 209.9385
ENERGY: 600000 2.5072 5.3046 0.7468 0.0000 -10612.6584 1368.0075 0.0000 0.0000 1797.3417 -7438.7508 307.3270 -9236.0924 -7461.3589 301.1825 -519.6800 -443.5698 30468.6288 4.2180 54.6738
ENERGY: 900000 1.3549 4.8396 0.8995 0.0000 -10767.3912 1511.1148 0.0000 0.0000 1819.8366 -7429.3458 311.1734 -9249.1824 -7463.3709 302.0837 449.9348 515.4987 30315.7375 46.6062 105.4078
ENERGY: 1200000 2.2997 5.7186 3.3952 0.0000 -10559.1636 1330.0060 0.0000 0.0000 1781.7511 -7435.9930 304.6612 -9217.7440 -7481.0277 300.6500 -878.1118 -866.7806 30685.2817 -9.4478 43.1508
ENERGY: 1500000 0.3243 2.9810 1.6381 0.0000 -10535.9397 1367.3998 0.0000 0.0000 1769.4214 -7394.1752 302.5529 -9163.5965 -7477.8164 300.2822 -266.5513 -229.1551 30500.2607 5.9148 56.2279
TCL: Running FEP window   8: Lambda1 0.6499999999999997 Lambda2 0.5999999999999996 [dLambda -0.050000000000000044]
TCL: Setting parameter firsttimestep to 0
TCL: Setting parameter alchLambda to 0.6499999999999997
Info: NONBONDED TABLE R-SQUARED SPACING: 0.0625
Info: NONBONDED TABLE SIZE: 705 POINTS
TCL: Setting parameter alchLambda2 to 0.5999999999999996
Info: NONBONDED TABLE R-SQUARED SPACING: 0.0625
Info: NONBONDED TABLE SIZE: 705 POINTS
TCL: Running for 1500000 steps
ETITLE: TS BOND ANGLE DIHED IMPRP ELECT VDW BOUNDARY MISC KINETIC TOTAL TEMP POTENTIAL TOTALAVG TEMPAVG PRESSURE GPRESSURE VOLUME PRESSAVG GPRESSAVG
ENERGY: 0 0.3243 2.9810 1.6381 0.0000 -10535.3302 1367.8878 0.0000 0.0000 1768.5508 -7393.9482 302.4041 -9162.4990 -7393.9482 302.4041 -305.2026 -228.6594 30500.2607 -305.2026 -228.6594
ENERGY: 300000 2.9694 3.8620 3.2054 0.0000 -10617.0659 1386.7975 0.0000 0.0000 1812.6428 -7407.5889 309.9434 -9220.2317 -7452.9409 303.4463 -438.1230 -373.0942 30199.6003 -355.7857 -274.5914
ENERGY: 600000 2.2703 7.8905 4.2099 0.0000 -10669.0039 1415.6479 0.0000 0.0000 1766.6917 -7472.2934 302.0862 -9238.9851 -7451.4859 302.8799 -279.6138 -207.6569 30150.1402 -160.1853 -81.4338
ENERGY: 900000 2.1375 6.2791 2.5617 0.0000 -10729.1948 1492.2018 0.0000 0.0000 1740.4493 -7485.5653 297.5990 -9226.0147 -7458.1581 302.2074 197.3251 370.7657 30315.4763 -141.9961 -58.5042
ENERGY: 1200000 2.3477 4.9725 2.6816 0.0000 -10686.8177 1424.1605 0.0000 0.0000 1752.5389 -7500.1164 299.6662 -9252.6553 -7458.8041 302.8028 160.2492 212.8023 29901.1104 -65.2912 9.0588
ENERGY: 1500000 1.4498 3.5576 0.4474 0.0000 -10667.5728 1430.5108 0.0000 0.0000 1723.3076 -7508.2995 294.6680 -9231.6071 -7469.1095 302.2854 299.3344 402.9500 29517.9184 -110.2940 -30.1272
TCL: Running FEP window   9: Lambda1 0.5999999999999996 Lambda2 0.5499999999999996 [dLambda -0.050000000000000044]
TCL: Setting parameter firsttimestep to 0
TCL: Setting parameter alchLambda to 0.5999999999999996
Info: NONBONDED TABLE R-SQUARED SPACING: 0.0625
Info: NONBONDED TABLE SIZE: 705 POINTS
TCL: Setting parameter alchLambda2 to 0.5499999999999996
Info: NONBONDED TABLE R-SQUARED SPACING: 0.0625
Info: NONBONDED TABLE SIZE: 705 POINTS
TCL: Running for 1500000 steps
ETITLE: TS BOND ANGLE DIHED IMPRP ELECT VDW BOUNDARY MISC KINETIC TOTAL TEMP POTENTIAL TOTALAVG TEMPAVG PRESSURE GPRESSURE VOLUME PRESSAVG GPRESSAVG
ENERGY: 0 1.4498 3.5576 0.4474 0.0000 -10667.1928 1430.8009 0.0000 0.0000 1722.4122 -7508.5248 294.5149 -9230.9370 -7508.5248 294.5149 311.5126 398.2832 29517.9184 311.5126 398.2832
ENERGY: 300000 2.5641 6.8808 3.1516 0.0000 -10729.8063 1400.9736 0.0000 0.0000 1764.7136 -7551.5227 301.7480 -9316.2363 -7495.2647 298.9336 -415.5962 -343.2466 30009.1144 489.5719 544.5996
ENERGY: 600000 2.0270 6.3093 1.6262 0.0000 -10635.0352 1390.3255 0.0000 0.0000 1761.0745 -7473.6727 301.1257 -9234.7472 -7513.6162 299.3617 -632.2242 -572.2629 30500.2489 55.9423 100.4289
ENERGY: 900000 1.2895 5.6048 1.3697 0.0000 -10620.1995 1441.3368 0.0000 0.0000 1782.0728 -7388.5259 304.7162 -9170.5987 -7502.3897 299.6403 373.9151 452.1728 30012.2916 -6.9928 41.8633
ENERGY: 1200000 4.4638 5.5866 0.5802 0.0000 -10584.5889 1379.1860 0.0000 0.0000 1687.2262 -7507.5462 288.4984 -9194.7723 -7503.5139 299.7642 -497.0113 -371.3874 30090.1585 -131.7629 -75.8518
ENERGY: 1500000 6.4572 5.6824 1.0972 0.0000 -10562.0519 1356.8236 0.0000 0.0000 1771.4299 -7420.5617 302.8964 -9191.9916 -7491.9459 300.1488 -647.0945 -649.7133 30465.8737 -179.7302 -124.3394
TCL: Running FEP window  10: Lambda1 0.5499999999999996 Lambda2 0.4999999999999996 [dLambda -0.04999999999999999]
TCL: Setting parameter firsttimestep to 0
TCL: Setting parameter alchLambda to 0.5499999999999996
Info: NONBONDED TABLE R-SQUARED SPACING: 0.0625
Info: NONBONDED TABLE SIZE: 705 POINTS
TCL: Setting parameter alchLambda2 to 0.4999999999999996
Info: NONBONDED TABLE R-SQUARED SPACING: 0.0625
Info: NONBONDED TABLE SIZE: 705 POINTS
TCL: Running for 1500000 steps
ETITLE: TS BOND ANGLE DIHED IMPRP ELECT VDW BOUNDARY MISC KINETIC TOTAL TEMP POTENTIAL TOTALAVG TEMPAVG PRESSURE GPRESSURE VOLUME PRESSAVG GPRESSAVG
ENERGY: 0 6.4571 5.6824 1.0972 0.0000 -10560.9186 1356.2938 0.0000 0.0000 1770.5791 -7420.8090 302.7509 -9191.3881 -7420.8090 302.7509 -738.7219 -659.6602 30465.8737 -738.7219 -659.6602
ENERGY: 300000 0.5865 4.5028 0.7519 0.0000 -10805.5648 1529.1635 0.0000 0.0000 1799.2601 -7471.3000 307.6551 -9270.5602 -7469.5863 302.4494 791.9351 811.2835 29917.9832 -150.7476 -99.2858
ENERGY: 600000 5.1462 5.9987 1.8339 0.0000 -10564.4287 1369.6067 0.0000 0.0000 1723.6691 -7458.1741 294.7298 -9181.8432 -7475.8306 298.1093 -653.0064 -613.7850 30476.3529 -159.3426 -118.5738
ENERGY: 900000 1.6519 6.3510 4.9801 0.0000 -10527.2698 1351.7868 0.0000 0.0000 1704.3076 -7458.1924 291.4192 -9162.5000 -7490.1354 296.9400 -389.3187 -388.2112 30498.7534 -135.6386 -91.4041
ENERGY: 1200000 3.3971 8.4599 0.7671 0.0000 -10604.3175 1388.0960 0.0000 0.0000 1760.4032 -7443.1942 301.0109 -9203.5974 -7491.5363 297.4604 13.3032 11.2593 29926.3637 -176.4089 -137.9476
ENERGY: 1500000 1.0706 6.3971 1.6346 0.0000 -10567.7921 1398.4348 0.0000 0.0000 1737.6682 -7422.5868 297.1235 -9160.2550 -7480.3677 297.6653 -248.2977 -187.2675 30266.9268 -167.5869 -122.1169
TCL: Running FEP window  11: Lambda1 0.4999999999999996 Lambda2 0.4499999999999996 [dLambda -0.04999999999999999]
TCL: Setting parameter firsttimestep to 0
TCL: Setting parameter alchLambda to 0.4999999999999996
Info: NONBONDED TABLE R-SQUARED SPACING: 0.0625
Info: NONBONDED TABLE SIZE: 705 POINTS
TCL: Setting parameter alchLambda2 to 0.4499999999999996
Info: NONBONDED TABLE R-SQUARED SPACING: 0.0625
Info: NONBONDED TABLE SIZE: 705 POINTS
TCL: Running for 1500000 steps
ETITLE: TS BOND ANGLE DIHED IMPRP ELECT VDW BOUNDARY MISC KINETIC TOTAL TEMP POTENTIAL TOTALAVG TEMPAVG PRESSURE GPRESSURE VOLUME PRESSAVG GPRESSAVG
ENERGY: 0 1.0706 6.3971 1.6346 0.0000 -10567.7993 1398.8803 0.0000 0.0000 1736.8192 -7422.9975 296.9783 -9159.8168 -7422.9975 296.9783 -266.1761 -190.6555 30266.9268 -266.1761 -190.6555
ENERGY: 300000 2.7673 5.9322 2.1579 0.0000 -10713.1078 1487.9423 0.0000 0.0000 1717.1728 -7497.1354 293.6190 -9214.3082 -7483.0373 296.8613 427.5904 493.2462 29895.4129 -434.0001 -364.9043
ENERGY: 600000 1.3938 5.2661 2.1726 0.0000 -10653.5933 1428.5316 0.0000 0.0000 1725.6604 -7490.5687 295.0703 -9216.2291 -7455.8589 299.9348 -274.6719 -163.9782 30588.3650 -135.3821 -76.1306
ENERGY: 900000 4.5910 6.3162 3.4948 0.0000 -10604.2194 1379.3505 0.0000 0.0000 1763.3627 -7447.1042 301.5170 -9210.4669 -7455.0910 300.6688 -588.4492 -566.5699 30242.8871 -232.4878 -178.2357
ENERGY: 1200000 5.4387 3.8211 1.0169 0.0000 -10594.6073 1363.7312 0.0000 0.0000 1793.1491 -7427.4502 306.6102 -9220.5994 -7444.4085 302.0197 -808.5413 -708.1642 30564.9778 -160.9573 -101.9932
ENERGY: 1500000 0.8561 9.8586 0.6826 0.0000 -10712.6073 1462.6883 0.0000 0.0000 1767.5808 -7470.9409 302.2382 -9238.5217 -7452.6133 301.4965 302.5008 396.6982 30181.2011 -27.9842 35.2967
TCL: Running FEP window  12: Lambda1 0.4499999999999996 Lambda2 0.39999999999999963 [dLambda -0.04999999999999999]
TCL: Setting parameter firsttimestep to 0
TCL: Setting parameter alchLambda to 0.4499999999999996
Info: NONBONDED TABLE R-SQUARED SPACING: 0.0625
Info: NONBONDED TABLE SIZE: 705 POINTS
TCL: Setting parameter alchLambda2 to 0.39999999999999963
Info: NONBONDED TABLE R-SQUARED SPACING: 0.0625
Info: NONBONDED TABLE SIZE: 705 POINTS
TCL: Running for 1500000 steps
ETITLE: TS BOND ANGLE DIHED IMPRP ELECT VDW BOUNDARY MISC KINETIC TOTAL TEMP POTENTIAL TOTALAVG TEMPAVG PRESSURE GPRESSURE VOLUME PRESSAVG GPRESSAVG
ENERGY: 0 0.8561 9.8586 0.6826 0.0000 -10712.6095 1463.2793 0.0000 0.0000 1766.6836 -7471.2492 302.0848 -9237.9329 -7471.2492 302.0848 321.3824 397.7132 30181.2011 321.3824 397.7132
ENERGY: 300000 1.5637 4.7013 2.2189 0.0000 -10785.6818 1464.1702 0.0000 0.0000 1812.7840 -7500.2437 309.9675 -9313.0277 -7464.5058 303.0707 291.0145 406.2386 29560.0259 222.2251 298.5595
ENERGY: 600000 7.6892 5.9579 2.2627 0.0000 -10581.3055 1365.3478 0.0000 0.0000 1758.2230 -7441.8250 300.6381 -9200.0480 -7453.2598 302.7458 -607.9878 -505.0188 30450.6626 82.1885 173.9833
ENERGY: 900000 4.4148 5.3483 1.4948 0.0000 -10679.4007 1460.3924 0.0000 0.0000 1781.0764 -7426.6740 304.5458 -9207.7504 -7461.2207 303.2699 595.2057 660.1365 29945.8641 65.8274 139.7220
ENERGY: 1200000 2.5197 8.3250 2.2230 0.0000 -10708.6526 1445.7297 0.0000 0.0000 1733.4395 -7516.4159 296.4004 -9249.8553 -7453.2835 302.8766 109.6979 123.0747 30117.8065 182.8595 243.2896
ENERGY: 1500000 3.5958 4.3281 2.4616 0.0000 -10758.9210 1479.7452 0.0000 0.0000 1748.6344 -7520.1558 298.9986 -9268.7902 -7463.7964 302.5276 133.5775 148.6533 30276.3550 105.4067 164.2985
TCL: Running FEP window  13: Lambda1 0.39999999999999963 Lambda2 0.34999999999999964 [dLambda -0.04999999999999999]
TCL: Setting parameter firsttimestep to 0
TCL: Setting parameter alchLambda to 0.39999999999999963
Info: NONBONDED TABLE R-SQUARED SPACING: 0.0625
Info: NONBONDED TABLE SIZE: 705 POINTS
TCL: Setting parameter alchLambda2 to 0.34999999999999964
Info: NONBONDED TABLE R-SQUARED SPACING: 0.0625
Info: NONBONDED TABLE SIZE: 705 POINTS
TCL: Running for 1500000 steps
ETITLE: TS BOND ANGLE DIHED IMPRP ELECT VDW BOUNDARY MISC KINETIC TOTAL TEMP POTENTIAL TOTALAVG TEMPAVG PRESSURE GPRESSURE VOLUME PRESSAVG GPRESSAVG
ENERGY: 0 3.5958 4.3281 2.4616 0.0000 -10758.9209 1479.9890 0.0000 0.0000 1747.7747 -7520.7716 298.8516 -9268.5463 -7520.7716 298.8516 64.0046 148.9571 30276.3550 64.0046 148.9571
ENERGY: 300000 2.2357 2.9497 3.6437 0.0000 -10698.8644 1450.0240 0.0000 0.0000 1714.9226 -7525.0887 293.2342 -9240.0113 -7479.4683 295.7753 15.8029 89.8602 30099.7702 240.2747 305.7326
ENERGY: 600000 4.4686 6.7329 5.3534 0.0000 -10691.0522 1427.4459 0.0000 0.0000 1711.2924 -7535.7591 292.6135 -9247.0515 -7485.9462 297.3135 -83.7293 -45.8796 30093.5235 39.1639 101.2316
ENERGY: 900000 1.9766 7.4149 2.3218 0.0000 -10517.0545 1335.5650 0.0000 0.0000 1775.0626 -7394.7136 303.5175 -9169.7762 -7472.9189 298.0382 -721.4588 -649.0553 30508.6673 -33.0201 21.7573
ENERGY: 1200000 3.8527 5.6129 3.3846 0.0000 -10608.7585 1390.7632 0.0000 0.0000 1750.6368 -7454.5083 299.3410 -9205.1452 -7477.8288 297.6821 -423.3725 -388.0744 30285.3344 -107.9024 -51.4932
ENERGY: 1500000 2.8129 3.9238 2.8778 0.0000 -10664.9969 1413.5855 0.0000 0.0000 1765.8208 -7475.9761 301.9373 -9241.7969 -7484.5548 298.5124 -531.7049 -429.5205 30506.1061 -52.1176 11.3679
TCL: Running FEP window  14: Lambda1 0.34999999999999964 Lambda2 0.29999999999999966 [dLambda -0.04999999999999999]
TCL: Setting parameter firsttimestep to 0
TCL: Setting parameter alchLambda to 0.34999999999999964
Info: NONBONDED TABLE R-SQUARED SPACING: 0.0625
Info: NONBONDED TABLE SIZE: 705 POINTS
TCL: Setting parameter alchLambda2 to 0.29999999999999966
Info: NONBONDED TABLE R-SQUARED SPACING: 0.0625
Info: NONBONDED TABLE SIZE: 705 POINTS
TCL: Running for 1500000 steps
ETITLE: TS BOND ANGLE DIHED IMPRP ELECT VDW BOUNDARY MISC KINETIC TOTAL TEMP POTENTIAL TOTALAVG TEMPAVG PRESSURE GPRESSURE VOLUME PRESSAVG GPRESSAVG
ENERGY: 0 2.8129 3.9238 2.8778 0.0000 -10664.9970 1413.8088 0.0000 0.0000 1764.9314 -7476.6424 301.7852 -9241.5738 -7476.6424 301.7852 -518.5607 -431.7461 30506.1061 -518.5607 -431.7461
ENERGY: 300000 2.9696 6.1702 2.0139 0.0000 -10685.3350 1417.8513 0.0000 0.0000 1763.8623 -7492.4677 301.6024 -9256.3300 -7474.5143 299.4119 -182.0463 -113.8988 30441.5039 -319.0239 -225.5942
ENERGY: 600000 4.5132 10.1805 1.2509 0.0000 -10614.4042 1403.8872 0.0000 0.0000 1843.9615 -7350.6109 315.2985 -9194.5724 -7441.5565 301.8568 -192.1246 -131.8733 30242.1481 -209.4528 -139.7682
ENERGY: 900000 0.5474 10.5057 0.8468 0.0000 -10875.6333 1525.5318 0.0000 0.0000 1754.4078 -7583.7938 299.9858 -9338.2016 -7460.6696 300.6993 380.0158 420.8025 29867.0681 -43.5043 16.4114
ENERGY: 1200000 3.8896 7.5496 1.6479 0.0000 -10609.3289 1463.8286 0.0000 0.0000 1701.4807 -7430.9324 290.9358 -9132.4132 -7460.4557 299.9662 587.6717 695.7746 29933.4058 -30.4338 27.3915
ENERGY: 1500000 1.4402 6.7081 2.5935 0.0000 -10652.8924 1391.6756 0.0000 0.0000 1778.0062 -7472.4688 304.0209 -9250.4750 -7457.6512 300.9388 -398.9827 -315.0677 30425.7571 5.0128 66.0344
TCL: Running FEP window  15: Lambda1 0.29999999999999966 Lambda2 0.24999999999999967 [dLambda -0.04999999999999999]
TCL: Setting parameter firsttimestep to 0
TCL: Setting parameter alchLambda to 0.29999999999999966
Info: NONBONDED TABLE R-SQUARED SPACING: 0.0625
Info: NONBONDED TABLE SIZE: 705 POINTS
TCL: Setting parameter alchLambda2 to 0.24999999999999967
Info: NONBONDED TABLE R-SQUARED SPACING: 0.0625
Info: NONBONDED TABLE SIZE: 705 POINTS
TCL: Running for 1500000 steps
ETITLE: TS BOND ANGLE DIHED IMPRP ELECT VDW BOUNDARY MISC KINETIC TOTAL TEMP POTENTIAL TOTALAVG TEMPAVG PRESSURE GPRESSURE VOLUME PRESSAVG GPRESSAVG
ENERGY: 0 1.4402 6.7081 2.5935 0.0000 -10652.8937 1392.2673 0.0000 0.0000 1777.1327 -7472.7519 303.8715 -9249.8846 -7472.7519 303.8715 -396.4236 -314.6868 30425.7571 -396.4236 -314.6868
ENERGY: 300000 5.3854 3.8262 2.1556 0.0000 -10649.7173 1475.7598 0.0000 0.0000 1774.3248 -7388.2654 303.3914 -9162.5903 -7453.3496 301.8512 281.5286 366.5605 30419.8593 -262.8431 -177.6034
ENERGY: 600000 2.8643 4.7455 4.2449 0.0000 -10687.2705 1490.2453 0.0000 0.0000 1785.7698 -7399.4008 305.3484 -9185.1706 -7456.8336 301.0391 580.6288 686.3501 30049.4186 -113.6092 -21.0731
ENERGY: 900000 2.9371 9.6555 1.8142 0.0000 -10644.1862 1451.6465 0.0000 0.0000 1767.7432 -7410.3896 302.2660 -9178.1329 -7469.2342 300.8609 23.5895 53.7138 30520.8299 -163.2341 -71.5527
ENERGY: 1200000 3.2766 5.9826 3.2646 0.0000 -10626.4384 1392.4364 0.0000 0.0000 1744.6418 -7476.8364 298.3159 -9221.4781 -7468.6137 301.0049 -102.2075 -63.8132 29811.3992 -158.8623 -70.8099
ENERGY: 1500000 2.4769 3.1167 2.2745 0.0000 -10718.5814 1453.7525 0.0000 0.0000 1803.6330 -7453.3278 308.4028 -9256.9607 -7469.8821 301.6002 100.6927 167.7718 29997.8339 -136.3898 -55.6806
TCL: Running FEP window  16: Lambda1 0.24999999999999967 Lambda2 0.19999999999999968 [dLambda -0.04999999999999999]
TCL: Setting parameter firsttimestep to 0
TCL: Setting parameter alchLambda to 0.24999999999999967
Info: NONBONDED TABLE R-SQUARED SPACING: 0.0625
Info: NONBONDED TABLE SIZE: 705 POINTS
TCL: Setting parameter alchLambda2 to 0.19999999999999968
Info: NONBONDED TABLE R-SQUARED SPACING: 0.0625
Info: NONBONDED TABLE SIZE: 705 POINTS
TCL: Running for 1500000 steps
ETITLE: TS BOND ANGLE DIHED IMPRP ELECT VDW BOUNDARY MISC KINETIC TOTAL TEMP POTENTIAL TOTALAVG TEMPAVG PRESSURE GPRESSURE VOLUME PRESSAVG GPRESSAVG
ENERGY: 0 2.4769 3.1167 2.2745 0.0000 -10718.5805 1453.3309 0.0000 0.0000 1802.7552 -7454.6262 308.2527 -9257.3814 -7454.6262 308.2527 74.1468 162.8216 29997.8339 74.1468 162.8216
ENERGY: 300000 4.8573 5.9316 2.8912 0.0000 -10656.3887 1415.4010 0.0000 0.0000 1768.8359 -7458.4717 302.4528 -9227.3076 -7436.9621 304.6734 -547.1987 -437.1307 30786.8092 -172.5926 -92.5897
ENERGY: 600000 1.5759 2.5200 1.2960 0.0000 -10595.6154 1371.8378 0.0000 0.0000 1739.7281 -7478.6577 297.4757 -9218.3858 -7452.2803 302.1929 -331.9819 -247.8443 29925.2570 -237.9589 -154.7750
ENERGY: 900000 4.6514 11.7320 1.6331 0.0000 -10646.1769 1419.1379 0.0000 0.0000 1739.4865 -7469.5361 297.4344 -9209.0226 -7452.5991 301.5290 -154.9661 -74.7440 30321.4682 -183.7686 -104.7807
ENERGY: 1200000 3.1210 6.6144 3.8407 0.0000 -10737.3208 1423.0965 0.0000 0.0000 1696.4907 -7604.1575 290.0826 -9300.6483 -7473.8012 300.7350 -483.1638 -363.6279 30319.5298 -238.3802 -154.6189
ENERGY: 1500000 5.1719 7.2809 1.7832 0.0000 -10612.7347 1424.2192 0.0000 0.0000 1728.8203 -7445.4593 295.6106 -9174.2795 -7480.4787 300.3117 -90.8639 -29.4268 30464.0677 -264.3683 -186.6856
TCL: Running FEP window  17: Lambda1 0.19999999999999968 Lambda2 0.1499999999999997 [dLambda -0.04999999999999999]
TCL: Setting parameter firsttimestep to 0
TCL: Setting parameter alchLambda to 0.19999999999999968
Info: NONBONDED TABLE R-SQUARED SPACING: 0.0625
Info: NONBONDED TABLE SIZE: 705 POINTS
TCL: Setting parameter alchLambda2 to 0.1499999999999997
Info: NONBONDED TABLE R-SQUARED SPACING: 0.0625
Info: NONBONDED TABLE SIZE: 705 POINTS
TCL: Running for 1500000 steps
ETITLE: TS BOND ANGLE DIHED IMPRP ELECT VDW BOUNDARY MISC KINETIC TOTAL TEMP POTENTIAL TOTALAVG TEMPAVG PRESSURE GPRESSURE VOLUME PRESSAVG GPRESSAVG
ENERGY: 0 5.1719 7.2809 1.7832 0.0000 -10612.7359 1424.6066 0.0000 0.0000 1727.9188 -7445.9745 295.4564 -9173.8933 -7445.9745 295.4564 -108.0005 -30.6990 30464.0677 -108.0005 -30.6990
ENERGY: 300000 1.8798 5.5138 4.0894 0.0000 -10666.0947 1404.6293 0.0000 0.0000 1771.0044 -7478.9779 302.8236 -9249.9823 -7498.2982 300.5306 -310.9678 -226.3213 30075.4544 155.3569 224.3174
ENERGY: 600000 4.8434 5.5246 6.5415 0.0000 -10721.6873 1426.3052 0.0000 0.0000 1714.6119 -7563.8607 293.1811 -9278.4726 -7515.9139 298.0304 -207.0643 -171.0770 29991.9323 243.7724 299.4419
ENERGY: 900000 1.5227 4.1785 0.7467 0.0000 -10712.8303 1453.7472 0.0000 0.0000 1693.5894 -7559.0458 289.5865 -9252.6352 -7512.8385 296.7288 204.9113 255.8364 29889.9883 254.0308 318.7758
ENERGY: 1200000 4.3771 7.2880 4.9564 0.0000 -10540.9616 1378.3279 0.0000 0.0000 1772.9899 -7373.0223 303.1631 -9146.0122 -7500.0632 297.2444 -461.4444 -378.0759 30346.6169 177.4640 242.3422
ENERGY: 1500000 1.2637 5.3941 3.5040 0.0000 -10674.8559 1429.3527 0.0000 0.0000 1756.2084 -7479.1330 300.2937 -9235.3414 -7492.0728 296.9599 -254.9669 -187.8137 30408.5212 143.7800 211.4079
TCL: Running FEP window  18: Lambda1 0.1499999999999997 Lambda2 0.09999999999999969 [dLambda -0.05 ]
TCL: Setting parameter firsttimestep to 0
TCL: Setting parameter alchLambda to 0.1499999999999997
Info: NONBONDED TABLE R-SQUARED SPACING: 0.0625
Info: NONBONDED TABLE SIZE: 705 POINTS
TCL: Setting parameter alchLambda2 to 0.09999999999999969
Info: NONBONDED TABLE R-SQUARED SPACING: 0.0625
Info: NONBONDED TABLE SIZE: 705 POINTS
TCL: Running for 1500000 steps
ETITLE: TS BOND ANGLE DIHED IMPRP ELECT VDW BOUNDARY MISC KINETIC TOTAL TEMP POTENTIAL TOTALAVG TEMPAVG PRESSURE GPRESSURE VOLUME PRESSAVG GPRESSAVG
ENERGY: 0 1.2637 5.3941 3.5040 0.0000 -10674.8555 1429.3498 0.0000 0.0000 1755.3539 -7479.9900 300.1476 -9235.3439 -7479.9900 300.1476 -269.4386 -190.7884 30408.5212 -269.4386 -190.7884
ENERGY: 300000 1.4638 6.2227 3.3686 0.0000 -10570.1998 1355.0587 0.0000 0.0000 1701.9259 -7502.1601 291.0119 -9204.0861 -7459.6083 299.2031 -506.1089 -434.8644 30135.4370 -66.2695 -9.1043
ENERGY: 600000 1.3037 3.0655 1.3014 0.0000 -10678.5194 1422.5131 0.0000 0.0000 1698.6720 -7551.6637 290.4555 -9250.3357 -7478.8945 297.3537 -12.2788 19.1249 29886.7483 -153.8437 -80.5307
ENERGY: 900000 4.2860 5.9042 1.7814 0.0000 -10764.6753 1472.4758 0.0000 0.0000 1755.8526 -7524.3754 300.2328 -9280.2280 -7485.3365 297.9235 -107.4154 -15.5225 30369.5324 -161.3552 -83.8761
ENERGY: 1200000 2.8614 6.4054 1.5811 0.0000 -10804.5747 1550.0424 0.0000 0.0000 1755.7975 -7487.8869 300.2234 -9243.6844 -7487.7674 297.6040 1288.5575 1364.8834 29660.8816 4.4697 80.7096
ENERGY: 1500000 4.2595 3.7213 3.3382 0.0000 -10478.2849 1260.8797 0.0000 0.0000 1731.5567 -7474.5296 296.0785 -9206.0863 -7488.8313 297.1969 -1043.0928 -1057.9467 29904.0570 -86.3918 -16.6946
TCL: Running FEP window  19: Lambda1 0.09999999999999969 Lambda2 0.049999999999999684 [dLambda -0.05 ]
TCL: Setting parameter firsttimestep to 0
TCL: Setting parameter alchLambda to 0.09999999999999969
Info: NONBONDED TABLE R-SQUARED SPACING: 0.0625
Info: NONBONDED TABLE SIZE: 705 POINTS
TCL: Setting parameter alchLambda2 to 0.049999999999999684
Info: NONBONDED TABLE R-SQUARED SPACING: 0.0625
Info: NONBONDED TABLE SIZE: 705 POINTS
TCL: Running for 1500000 steps
ETITLE: TS BOND ANGLE DIHED IMPRP ELECT VDW BOUNDARY MISC KINETIC TOTAL TEMP POTENTIAL TOTALAVG TEMPAVG PRESSURE GPRESSURE VOLUME PRESSAVG GPRESSAVG
ENERGY: 0 4.2595 3.7213 3.3382 0.0000 -10478.2861 1260.5952 0.0000 0.0000 1730.6748 -7475.6971 295.9277 -9206.3720 -7475.6971 295.9277 -1157.8570 -1062.6841 29904.0570 -1157.8570 -1062.6841
ENERGY: 300000 3.5676 6.3283 3.1954 0.0000 -10631.1467 1455.5983 0.0000 0.0000 1829.5882 -7332.8688 312.8409 -9162.4571 -7459.0745 297.4562 366.4175 391.3320 29988.1544 -231.8318 -197.8618
ENERGY: 600000 2.7802 3.6468 1.3632 0.0000 -10753.3126 1489.9274 0.0000 0.0000 1691.8975 -7563.6974 289.2972 -9255.5949 -7489.0762 296.9216 259.9010 253.2180 29959.3767 -146.4217 -112.0316
ENERGY: 900000 4.9095 5.9535 2.8721 0.0000 -10717.8087 1474.4244 0.0000 0.0000 1722.5833 -7507.0660 294.5441 -9229.6493 -7482.9374 297.1797 207.9131 313.9589 30141.2004 -146.7295 -103.2413
ENERGY: 1200000 3.1402 5.6371 3.5639 0.0000 -10495.9173 1335.8489 0.0000 0.0000 1722.9428 -7424.7844 294.6056 -9147.7271 -7481.6769 297.1213 -788.9594 -712.6833 30386.6088 -154.8771 -106.9936
ENERGY: 1500000 3.8866 5.9851 1.4521 0.0000 -10707.9207 1436.6360 0.0000 0.0000 1802.3244 -7457.6364 308.1790 -9259.9609 -7479.1739 297.9999 3.0360 36.5447 30197.1609 -201.1480 -151.8784
TCL: Running FEP window  20: Lambda1 0.049999999999999684 Lambda2 0.0    [dLambda -0.049999999999999684]
TCL: Setting parameter firsttimestep to 0
TCL: Setting parameter alchLambda to 0.049999999999999684
Info: NONBONDED TABLE R-SQUARED SPACING: 0.0625
Info: NONBONDED TABLE SIZE: 705 POINTS
TCL: Setting parameter alchLambda2 to 0.0
Info: NONBONDED TABLE R-SQUARED SPACING: 0.0625
Info: NONBONDED TABLE SIZE: 705 POINTS
TCL: Running for 1500000 steps
ETITLE: TS BOND ANGLE DIHED IMPRP ELECT VDW BOUNDARY MISC KINETIC TOTAL TEMP POTENTIAL TOTALAVG TEMPAVG PRESSURE GPRESSURE VOLUME PRESSAVG GPRESSAVG
ENERGY: 0 3.8866 5.9851 1.4521 0.0000 -10707.9192 1435.9404 0.0000 0.0000 1801.5169 -7459.1380 308.0410 -9260.6550 -7459.1380 308.0410 -56.3325 29.9525 30197.1609 -56.3325 29.9525
ENERGY: 300000 3.4856 4.7704 1.4562 0.0000 -10657.2940 1467.5741 0.0000 0.0000 1734.3256 -7445.6821 296.5519 -9180.0077 -7474.4848 298.6299 461.5814 542.2333 30286.4822 24.4820 128.0493
ENERGY: 600000 1.4336 6.7763 2.4155 0.0000 -10787.9452 1503.0926 0.0000 0.0000 1754.5114 -7519.7159 300.0035 -9274.2272 -7487.0196 299.0579 308.6070 295.4117 30298.6182 -86.0554 -19.4486
ENERGY: 900000 1.9152 4.8808 3.3092 0.0000 -10745.4342 1462.3249 0.0000 0.0000 1774.3469 -7498.6572 303.3952 -9273.0041 -7482.0185 299.4004 9.1508 45.5280 30224.6144 -74.1978 -11.6738
ENERGY: 1200000 2.6844 8.0553 2.8602 0.0000 -10778.6903 1499.8243 0.0000 0.0000 1746.5788 -7518.6874 298.6471 -9265.2662 -7485.8302 299.4612 431.4446 448.0997 30029.3502 -27.6571 34.2971
ENERGY: 1500000 2.6465 8.8638 1.9141 0.0000 -10624.4599 1413.9503 0.0000 0.0000 1746.7035 -7450.3817 298.6684 -9197.0853 -7483.3533 298.6468 -95.0574 -95.0230 30305.3347 -74.7203 -22.8106
TCL: Exiting due to exit command.
