Info: SIMULATION PARAMETERS:
Info: TIMESTEP               2
Info: NUMBER OF STEPS        0
Info: STEPS PER CYCLE        10
Info: PERIODIC CELL BASIS 1  31.6299 0 0
Info: PERIODIC CELL BASIS 2  0 31.2515 0
Info: PERIODIC CELL BASIS 3  0 0 30.2341
Info: PERIODIC CELL CENTER   0 0 0
Info: WRAPPING WATERS AROUND PERIODIC BOUNDARIES ON OUTPUT.
Info: WRAPPING ALL CLUSTERS AROUND PERIODIC BOUNDARIES ON OUTPUT.
Info: FIRST LDB TIMESTEP     50
Info: LAST LDB TIMESTEP     -1
Info: HOM BACKGROUND SCALING 1
Info: PME BACKGROUND SCALING 1
Info: MIN ATOMS PER PATCH    40
Info: EMPTY PATCH LOAD       40 ATOMS
Info: VELOCITY FILE          mobley_8885088_equil.vel
Info: CENTER OF MASS MOVING INITIALLY? NO
Info: DIELECTRIC             1
Info: EXCLUDE                SCALED ONE-FOUR
Info: 1-4 ELECTROSTATICS SCALED BY 0.833333
Info: MODIFIED 1-4 VDW PARAMETERS WILL BE USED
Info: DCD FILENAME           mobley_8885088_prod.dcd
Info: DCD FREQUENCY          100000
Info: DCD FIRST STEP         100000
Info: DCD FILE WILL CONTAIN UNIT CELL DATA
Info: XST FILENAME           mobley_8885088_prod.xst
Info: XST FREQUENCY          100000
Info: NO VELOCITY DCD OUTPUT
Info: NO FORCE DCD OUTPUT
Info: OUTPUT FILENAME        mobley_8885088_prod
Info: BINARY OUTPUT FILES WILL BE USED
Info: RESTART FILENAME       mobley_8885088_prod.restart
Info: RESTART FREQUENCY      100000
Info: BINARY RESTART FILES WILL BE USED
Info: CUTOFF                 9
Info: PAIRLIST DISTANCE      11
Info: PAIRLIST SHRINK RATE   0.01
Info: PAIRLIST GROW RATE     0.01
Info: PAIRLIST TRIGGER       0.3
Info: PAIRLISTS PER CYCLE    2
Info: PAIRLISTS ENABLED
Info: MARGIN                 2
Info: HYDROGEN GROUP CUTOFF  2.5
Info: PATCH DIMENSION        15.5
Info: ENERGY OUTPUT STEPS    100000
Info: ENERGY EVALUATION STEPS    100000
Info: OUTPUT ENERGY PRECISION 4
Info: CROSSTERM ENERGY INCLUDED IN DIHEDRAL
Info: TIMING OUTPUT STEPS    1000000
Info: PRESSURE OUTPUT STEPS  100000
Info: ALCHEMICAL FEP ON
Info: FEP CURRENT LAMBDA VALUE     0
Info: FEP COMPARISON LAMBDA VALUE  0.05
Info: FEP INTRA-ALCHEMICAL NON-BONDED INTERACTIONS WILL BE RETAINED
Info: FEP INTRA-ALCHEMICAL BONDED INTERACTIONS WILL BE RETAINED
Info: FEP VDW SHIFTING COEFFICIENT 5
Info: FEP ELEC. ACTIVE FOR ANNIHILATED PARTICLES BETWEEN LAMBDA = 0 AND LAMBDA = 0.5
Info: FEP ELEC. ACTIVE FOR EXNIHILATED PARTICLES BETWEEN LAMBDA = 0.5 AND LAMBDA = 1
Info: FEP VDW ACTIVE FOR ANNIHILATED PARTICLES BETWEEN LAMBDA = 0 AND LAMBDA = 1
Info: FEP VDW ACTIVE FOR EXNIHILATED PARTICLES BETWEEN LAMBDA = 0 AND LAMBDA = 1
Info: FEP BOND ACTIVE FOR ANNIHILATED PARTICLES BETWEEN LAMBDA = 1 AND LAMBDA = 1
Info: FEP BOND ACTIVE FOR EXNIHILATED PARTICLES BETWEEN LAMBDA = 0 AND LAMBDA = 0
Info: LANGEVIN DYNAMICS ACTIVE
Info: LANGEVIN TEMPERATURE   300
Info: LANGEVIN USING BBK INTEGRATOR
Info: LANGEVIN DAMPING COEFFICIENT IS 1 INVERSE PS
Info: LANGEVIN DYNAMICS APPLIED TO HYDROGENS
Info: LANGEVIN PISTON PRESSURE CONTROL ACTIVE
Info:        TARGET PRESSURE IS 1.01325 BAR
Info:     OSCILLATION PERIOD IS 50 FS
Info:             DECAY TIME IS 25 FS
Info:     PISTON TEMPERATURE IS 300 K
Info:       PRESSURE CONTROL IS GROUP-BASED
Info:    INITIAL STRAIN RATE IS -7.24225e-05 -7.24225e-05 -7.24225e-05
Info:       CELL FLUCTUATION IS ISOTROPIC
Info: PARTICLE MESH EWALD (PME) ACTIVE
Info: PME TOLERANCE               1e-06
Info: PME EWALD COEFFICIENT       0.348832
Info: PME INTERPOLATION ORDER     4
Info: PME GRID DIMENSIONS         32 32 32
Info: PME MAXIMUM GRID SPACING    1
Info: PME CALCULATION WILL BE PERFORMED ON GPU
Info: FULL ELECTROSTATIC EVALUATION FREQUENCY      2
Info: USING VERLET I (r-RESPA) MTS SCHEME.
Info: C1 SPLITTING OF LONG RANGE ELECTROSTATICS
Info: PLACING ATOMS IN PATCHES BY HYDROGEN GROUPS
Info: RIGID BONDS TO HYDROGEN : ALL
Info:         ERROR TOLERANCE : 1e-08
Info:          MAX ITERATIONS : 100
Info: RIGID WATER USING SETTLE ALGORITHM
Info: RANDOM NUMBER SEED     1743552914
Info: USE HYDROGEN BONDS?    NO
Info: Using AMBER format force field!
Info: AMBER PARM FILE        mobley_8885088.prmtop
Info: COORDINATE PDB         mobley_8885088.pdb
Info: Exclusions will be read from PARM file!
Info: SCNB (VDW SCALING)     2
Info: USING ARITHMETIC MEAN TO COMBINE L-J SIGMA PARAMETERS
Info: BINARY COORDINATES     mobley_8885088_equil.coor
Info: SUMMARY OF PARAMETERS:
Info: 7 BONDS
Info: 8 ANGLES
Info:   8 HARMONIC
Info:   0 COSINE-BASED
Info: 9 DIHEDRAL
Info: 0 IMPROPER
Info: 0 CROSSTERM
Info: 0 VDW
Info: 21 VDW_PAIRS
Info: 0 NBTHOLE_PAIRS
Info: To read alchdata from file: mobley_8885088.pdb
Info: To read alchflag data from column: 5
Info: STRUCTURE SUMMARY:
Info: 2959 ATOMS
Info: 2959 BONDS
Info: 24 ANGLES
Info: 45 DIHEDRALS
Info: 0 IMPROPERS
Info: 0 CROSSTERMS
Info: 3012 EXCLUSIONS
Info: 2954 RIGID BONDS
Info: ALCH: 0 ATOMS TO DISAPPEAR IN FINAL STATE
Info: ALCH: 13 ATOMS TO APPEAR IN FINAL STATE
Info: 5923 DEGREES OF FREEDOM
Info: 987 HYDROGEN GROUPS
Info: 3 ATOMS IN LARGEST HYDROGEN GROUP
Info: 987 MIGRATION GROUPS
Info: 3 ATOMS IN LARGEST MIGRATION GROUP
Info: TOTAL MASS = 17759.8 amu
Info: TOTAL CHARGE = -0.000200003 e
Info: MASS DENSITY = 0.986807 g/cm^3
Info: ATOM DENSITY = 0.09901 atoms/A^3
Info: ADDED 0 IMPLICIT EXCLUSIONS
Info: NONBONDED TABLE R-SQUARED SPACING: 0.0625
Info: NONBONDED TABLE SIZE: 705 POINTS
Info: REDUCING NUMBER OF PATCHES TO IMPROVE LOAD BALANCE
Info: REMOVING COM VELOCITY 0.1588 -0.0587885 -0.171155
Info: Use 3D box decompostion in PME FFT.
Info: Updated CUDA force table with 4096 elements.
Info: Updated CUDA LJ table with 6 x 6 elements.
Info: Found 15 unique exclusion lists needing 32 bytes
TCL: Running for 1500000 steps
ETITLE: TS BOND ANGLE DIHED IMPRP ELECT VDW BOUNDARY MISC KINETIC TOTAL TEMP POTENTIAL TOTALAVG TEMPAVG PRESSURE GPRESSURE VOLUME PRESSAVG GPRESSAVG
ENERGY: 0 2.7960 15.7754 9.3533 0.0000 -10830.3900 1490.9081 0.0000 0.0000 1765.1421 -7546.4151 299.9358 -9311.5572 -7546.4151 299.9358 269.5201 356.1517 29885.8690 269.5201 356.1517
ENERGY: 300000 0.2095 13.8133 8.1401 0.0000 -10718.4198 1461.4353 0.0000 0.0000 1839.0827 -7395.7388 312.4999 -9234.8215 -7481.5511 306.2344 182.5769 290.4192 30360.2452 109.5831 180.4890
ENERGY: 600000 1.9708 12.5295 9.7111 0.0000 -10741.3820 1414.5313 0.0000 0.0000 1794.1081 -7508.5311 304.8578 -9302.6392 -7493.1357 303.8195 -295.1345 -255.2922 30424.2696 162.9565 213.4633
ENERGY: 900000 1.1962 17.8842 5.9159 0.0000 -10903.0869 1506.4372 0.0000 0.0000 1762.5140 -7609.1394 299.4892 -9371.6534 -7492.7711 303.7374 673.2148 711.2690 29500.2714 190.1330 238.9625
ENERGY: 1200000 1.1784 14.1317 8.0406 0.0000 -10753.0479 1460.9803 0.0000 0.0000 1734.6424 -7534.0746 294.7533 -9268.7170 -7499.0860 302.3338 -41.3413 82.6545 30119.1968 18.5581 67.6486
ENERGY: 1500000 0.6537 13.5918 8.0753 0.0000 -10543.3121 1298.0896 0.0000 0.0000 1734.5987 -7488.3031 294.7458 -9222.9018 -7495.4897 301.7994 -1219.5948 -1183.6964 30744.2510 -124.6986 -71.2539
TCL: Running FEP window   2: Lambda1 0.05   Lambda2 0.1    [dLambda 0.05  ]
TCL: Setting parameter firsttimestep to 0
TCL: Setting parameter alchLambda to 0.05
Info: NONBONDED TABLE R-SQUARED SPACING: 0.0625
Info: NONBONDED TABLE SIZE: 705 POINTS
TCL: Setting parameter alchLambda2 to 0.1
Info: NONBONDED TABLE R-SQUARED SPACING: 0.0625
Info: NONBONDED TABLE SIZE: 705 POINTS
TCL: Running for 1500000 steps
ETITLE: TS BOND ANGLE DIHED IMPRP ELECT VDW BOUNDARY MISC KINETIC TOTAL TEMP POTENTIAL TOTALAVG TEMPAVG PRESSURE GPRESSURE VOLUME PRESSAVG GPRESSAVG
ENERGY: 0 0.6537 13.5918 8.0753 0.0000 -10543.3118 1301.1939 0.0000 0.0000 1733.7234 -7486.0737 294.5971 -9219.7972 -7486.0737 294.5971 -1263.9044 -1177.9465 30744.2510 -1263.9044 -1177.9465
ENERGY: 300000 3.1863 15.7383 7.8735 0.0000 -10722.9401 1455.9301 0.0000 0.0000 1718.6280 -7521.5840 292.0321 -9240.2120 -7481.3109 294.8366 -140.7435 -39.5159 30556.9149 -456.6715 -369.9414
ENERGY: 600000 0.7867 12.9009 8.4310 0.0000 -10885.3750 1488.5510 0.0000 0.0000 1765.4996 -7609.2057 299.9966 -9374.7054 -7512.2375 296.5143 -73.2984 -11.0807 30188.8589 -419.4380 -344.1877
ENERGY: 900000 1.2833 16.6763 8.3425 0.0000 -10798.9575 1445.7966 0.0000 0.0000 1746.6664 -7580.1924 296.7964 -9326.8587 -7517.2802 296.5910 -424.9289 -338.0624 30501.9698 -413.3914 -345.2771
ENERGY: 1200000 1.2656 13.7231 8.5730 0.0000 -10763.9751 1560.6364 0.0000 0.0000 1728.6957 -7451.0813 293.7428 -9179.7770 -7507.6870 297.0946 822.3380 950.4111 30720.6241 -314.7469 -240.9527
ENERGY: 1500000 3.2240 16.5342 7.3319 0.0000 -10814.7312 1408.3536 0.0000 0.0000 1770.9577 -7608.3298 300.9240 -9379.2875 -7509.7823 297.5441 -596.5084 -539.7817 30090.3025 -190.3059 -120.9059
TCL: Running FEP window   3: Lambda1 0.1    Lambda2 0.15000000000000002 [dLambda 0.05000000000000002]
TCL: Setting parameter firsttimestep to 0
TCL: Setting parameter alchLambda to 0.1
Info: NONBONDED TABLE R-SQUARED SPACING: 0.0625
Info: NONBONDED TABLE SIZE: 705 POINTS
TCL: Setting parameter alchLambda2 to 0.15000000000000002
Info: NONBONDED TABLE R-SQUARED SPACING: 0.0625
Info: NONBONDED TABLE SIZE: 705 POINTS
TCL: Running for 1500000 steps
ETITLE: TS BOND ANGLE DIHED IMPRP ELECT VDW BOUNDARY MISC KINETIC TOTAL TEMP POTENTIAL TOTALAVG TEMPAVG PRESSURE GPRESSURE VOLUME PRESSAVG GPRESSAVG
ENERGY: 0 3.2240 16.5342 7.3319 0.0000 -10814.7312 1408.2820 0.0000 0.0000 1770.0991 -7609.2600 300.7781 -9379.3591 -7609.2600 300.7781 -601.1446 -537.3947 30090.3025 -601.1446 -537.3947
ENERGY: 300000 2.8111 13.3418 9.3444 0.0000 -10777.5120 1505.9557 0.0000 0.0000 1739.7901 -7506.2688 295.6280 -9246.0589 -7527.0796 297.7298 631.1496 662.2170 30114.7441 -244.4052 -201.2459
ENERGY: 600000 0.1020 15.8234 9.8325 0.0000 -10859.7470 1462.3927 0.0000 0.0000 1792.7567 -7578.8396 304.6281 -9371.5964 -7535.1181 298.3564 -69.8784 17.3423 30266.7833 -121.5461 -78.9986
ENERGY: 900000 0.8322 15.3351 8.7493 0.0000 -10557.6219 1338.4038 0.0000 0.0000 1751.4875 -7442.8140 297.6156 -9194.3015 -7500.6331 299.2651 -586.2669 -523.3396 30239.5662 -194.2960 -143.1831
ENERGY: 1200000 2.9869 14.3406 7.2293 0.0000 -10762.8229 1462.7509 0.0000 0.0000 1767.5235 -7507.9917 300.3405 -9275.5153 -7507.7807 297.9803 -115.3297 -113.2079 30328.9853 -155.8561 -105.6567
ENERGY: 1500000 2.4412 15.2850 8.0701 0.0000 -10718.5664 1451.7236 0.0000 0.0000 1728.7042 -7512.3423 293.7442 -9241.0465 -7503.6287 298.3359 176.2493 266.0058 30003.3900 -104.0149 -44.6730
TCL: Running FEP window   4: Lambda1 0.15000000000000002 Lambda2 0.2    [dLambda 0.04999999999999999]
TCL: Setting parameter firsttimestep to 0
TCL: Setting parameter alchLambda to 0.15000000000000002
Info: NONBONDED TABLE R-SQUARED SPACING: 0.0625
Info: NONBONDED TABLE SIZE: 705 POINTS
TCL: Setting parameter alchLambda2 to 0.2
Info: NONBONDED TABLE R-SQUARED SPACING: 0.0625
Info: NONBONDED TABLE SIZE: 705 POINTS
TCL: Running for 1500000 steps
ETITLE: TS BOND ANGLE DIHED IMPRP ELECT VDW BOUNDARY MISC KINETIC TOTAL TEMP POTENTIAL TOTALAVG TEMPAVG PRESSURE GPRESSURE VOLUME PRESSAVG GPRESSAVG
ENERGY: 0 2.4412 15.2849 8.0701 0.0000 -10718.5686 1451.7447 0.0000 0.0000 1727.7954 -7513.2322 293.5898 -9241.0277 -7513.2322 293.5898 173.4255 268.5839 30003.3900 173.4255 268.5839
ENERGY: 300000 3.2747 15.4712 8.1463 0.0000 -10597.0993 1398.7455 0.0000 0.0000 1779.2496 -7392.2119 302.3330 -9171.4615 -7453.9109 300.0688 -232.8424 -219.9935 30844.9931 -49.6891 30.0731
ENERGY: 600000 0.2702 15.9426 7.7714 0.0000 -10596.4853 1381.0063 0.0000 0.0000 1796.3593 -7395.1354 305.2403 -9191.4947 -7458.1374 300.4934 -213.2872 -185.7321 30428.6368 -214.6157 -146.5473
ENERGY: 900000 0.6427 17.5276 10.6942 0.0000 -10749.5671 1434.7902 0.0000 0.0000 1749.1399 -7536.7726 297.2167 -9285.9125 -7496.7374 298.7967 -293.6711 -268.0134 30553.7580 -292.6404 -234.3233
ENERGY: 1200000 1.3805 12.6226 8.4725 0.0000 -10661.8223 1397.4671 0.0000 0.0000 1829.0411 -7412.8384 310.7936 -9241.8795 -7492.2460 299.3790 -375.7786 -217.3624 30272.6275 -330.3838 -263.3217
ENERGY: 1500000 3.5668 16.8226 8.6711 0.0000 -10485.2782 1343.3200 0.0000 0.0000 1774.0399 -7338.8579 301.4477 -9112.8978 -7492.8353 299.0942 -630.8849 -561.5151 30732.6855 -254.8661 -186.1718
TCL: Running FEP window   5: Lambda1 0.2    Lambda2 0.25   [dLambda 0.04999999999999999]
TCL: Setting parameter firsttimestep to 0
TCL: Setting parameter alchLambda to 0.2
Info: NONBONDED TABLE R-SQUARED SPACING: 0.0625
Info: NONBONDED TABLE SIZE: 705 POINTS
TCL: Setting parameter alchLambda2 to 0.25
Info: NONBONDED TABLE R-SQUARED SPACING: 0.0625
Info: NONBONDED TABLE SIZE: 705 POINTS
TCL: Running for 1500000 steps
ETITLE: TS BOND ANGLE DIHED IMPRP ELECT VDW BOUNDARY MISC KINETIC TOTAL TEMP POTENTIAL TOTALAVG TEMPAVG PRESSURE GPRESSURE VOLUME PRESSAVG GPRESSAVG
ENERGY: 0 3.5668 16.8226 8.6711 0.0000 -10485.2795 1343.8073 0.0000 0.0000 1773.1545 -7339.2572 301.2973 -9112.4117 -7339.2572 301.2973 -636.2178 -555.8153 30732.6855 -636.2178 -555.8153
ENERGY: 300000 1.3872 14.3318 8.0415 0.0000 -10760.0184 1482.5891 0.0000 0.0000 1756.1521 -7497.5168 298.4082 -9253.6689 -7454.9674 299.6689 56.6767 109.3423 30453.3858 -124.7749 -68.3824
ENERGY: 600000 0.8699 13.2347 7.6264 0.0000 -10708.8955 1457.3850 0.0000 0.0000 1766.4595 -7463.3200 300.1597 -9229.7795 -7465.0871 300.0050 87.5977 96.8713 30561.4525 -178.7954 -125.0076
ENERGY: 900000 1.3203 16.3368 8.9111 0.0000 -10721.9743 1428.9274 0.0000 0.0000 1772.6183 -7493.8603 301.2062 -9266.4785 -7480.2980 298.6757 22.5821 69.4669 30168.2939 -160.0435 -106.7084
ENERGY: 1200000 1.6038 15.6691 8.5712 0.0000 -10862.2236 1504.6835 0.0000 0.0000 1831.8039 -7499.8920 311.2631 -9331.6960 -7481.1555 300.4590 758.5514 768.6347 29581.0516 -137.6404 -89.2884
ENERGY: 1500000 1.1127 15.9490 7.7546 0.0000 -10542.4496 1332.4128 0.0000 0.0000 1707.1364 -7478.0842 290.0794 -9185.2205 -7476.0847 299.6057 -642.5217 -507.8618 30300.6630 -147.0794 -92.9494
TCL: Running FEP window   6: Lambda1 0.25   Lambda2 0.3    [dLambda 0.04999999999999999]
TCL: Setting parameter firsttimestep to 0
TCL: Setting parameter alchLambda to 0.25
Info: NONBONDED TABLE R-SQUARED SPACING: 0.0625
Info: NONBONDED TABLE SIZE: 705 POINTS
TCL: Setting parameter alchLambda2 to 0.3
Info: NONBONDED TABLE R-SQUARED SPACING: 0.0625
Info: NONBONDED TABLE SIZE: 705 POINTS
TCL: Running for 1500000 steps
ETITLE: TS BOND ANGLE DIHED IMPRP ELECT VDW BOUNDARY MISC KINETIC TOTAL TEMP POTENTIAL TOTALAVG TEMPAVG PRESSURE GPRESSURE VOLUME PRESSAVG GPRESSAVG
ENERGY: 0 1.1127 15.9490 7.7546 0.0000 -10542.4496 1332.8113 0.0000 0.0000 1706.2483 -7478.5736 289.9285 -9184.8219 -7478.5736 289.9285 -607.9836 -503.1115 30300.6630 -607.9836 -503.1115
ENERGY: 300000 1.1891 15.0550 7.7699 0.0000 -10760.5775 1484.4932 0.0000 0.0000 1804.1956 -7447.8747 306.5718 -9252.0702 -7439.4572 300.5969 388.3897 411.5587 30151.5966 13.0822 75.6967
ENERGY: 600000 1.6489 12.0606 8.6361 0.0000 -10801.7471 1495.1750 0.0000 0.0000 1710.0927 -7574.1339 290.5817 -9284.2265 -7469.3524 300.8607 231.4639 256.7172 30521.4200 42.3275 111.6577
ENERGY: 900000 1.9007 13.1536 8.6524 0.0000 -10630.3192 1331.2579 0.0000 0.0000 1762.9182 -7512.4364 299.5579 -9275.3546 -7472.1268 300.8709 -1128.5440 -1089.3653 30599.7349 -90.1508 -31.9913
ENERGY: 1200000 0.8336 17.0491 6.4750 0.0000 -10617.7869 1332.4961 0.0000 0.0000 1754.8319 -7506.1011 298.1839 -9260.9330 -7477.8494 300.2677 -601.4819 -611.5627 30021.2363 -84.4200 -31.7511
ENERGY: 1500000 0.4733 15.3925 6.7913 0.0000 -10684.5132 1384.7542 0.0000 0.0000 1719.7992 -7557.3026 292.2311 -9277.1018 -7490.6283 299.5872 -398.5303 -329.4476 30102.9529 -31.0178 26.0543
TCL: Running FEP window   7: Lambda1 0.3    Lambda2 0.35   [dLambda 0.04999999999999999]
TCL: Setting parameter firsttimestep to 0
TCL: Setting parameter alchLambda to 0.3
Info: NONBONDED TABLE R-SQUARED SPACING: 0.0625
Info: NONBONDED TABLE SIZE: 705 POINTS
TCL: Setting parameter alchLambda2 to 0.35
Info: NONBONDED TABLE R-SQUARED SPACING: 0.0625
Info: NONBONDED TABLE SIZE: 705 POINTS
TCL: Running for 1500000 steps
ETITLE: TS BOND ANGLE DIHED IMPRP ELECT VDW BOUNDARY MISC KINETIC TOTAL TEMP POTENTIAL TOTALAVG TEMPAVG PRESSURE GPRESSURE VOLUME PRESSAVG GPRESSAVG
ENERGY: 0 0.4733 15.3925 6.7913 0.0000 -10684.5118 1384.8424 0.0000 0.0000 1718.9094 -7558.1029 292.0799 -9277.0123 -7558.1029 292.0799 -416.9836 -325.0739 30102.9529 -416.9836 -325.0739
ENERGY: 300000 0.5785 13.9848 7.4140 0.0000 -10697.8800 1499.7018 0.0000 0.0000 1790.3746 -7385.8263 304.2234 -9176.2009 -7532.1496 298.2377 384.2310 465.6050 31010.6513 -83.1965 -23.0052
ENERGY: 600000 1.6922 14.4766 10.2373 0.0000 -10703.2989 1413.7884 0.0000 0.0000 1740.6147 -7522.4896 295.7681 -9263.1044 -7528.6888 297.1322 -206.1884 -161.0967 30388.5674 -142.7616 -77.2085
ENERGY: 900000 2.0180 12.2409 8.0627 0.0000 -10702.5232 1375.6441 0.0000 0.0000 1774.2591 -7530.2985 301.4850 -9304.5576 -7511.8134 299.0547 -351.7732 -305.2596 29920.2977 -211.0984 -147.4695
ENERGY: 1200000 0.6102 17.9384 6.5551 0.0000 -10794.7365 1521.6785 0.0000 0.0000 1796.2204 -7451.7339 305.2167 -9247.9543 -7508.0194 299.7731 713.0935 746.1793 30326.4976 -221.5092 -164.5438
ENERGY: 1500000 1.4578 13.1595 8.3735 0.0000 -10563.4744 1351.8160 0.0000 0.0000 1829.7132 -7358.9543 310.9078 -9188.6675 -7497.8502 300.2752 -660.1022 -573.9165 30770.5739 -203.5369 -147.8508
TCL: Running FEP window   8: Lambda1 0.35   Lambda2 0.39999999999999997 [dLambda 0.04999999999999999]
TCL: Setting parameter firsttimestep to 0
TCL: Setting parameter alchLambda to 0.35
Info: NONBONDED TABLE R-SQUARED SPACING: 0.0625
Info: NONBONDED TABLE SIZE: 705 POINTS
TCL: Setting parameter alchLambda2 to 0.39999999999999997
Info: NONBONDED TABLE R-SQUARED SPACING: 0.0625
Info: NONBONDED TABLE SIZE: 705 POINTS
TCL: Running for 1500000 steps
ETITLE: TS BOND ANGLE DIHED IMPRP ELECT VDW BOUNDARY MISC KINETIC TOTAL TEMP POTENTIAL TOTALAVG TEMPAVG PRESSURE GPRESSURE VOLUME PRESSAVG GPRESSAVG
ENERGY: 0 1.4578 13.1595 8.3735 0.0000 -10563.4755 1351.4966 0.0000 0.0000 1828.8335 -7360.1546 310.7584 -9188.9881 -7360.1546 310.7584 -656.2668 -574.2360 30770.5739 -656.2668 -574.2360
ENERGY: 300000 0.5358 14.9787 8.9310 0.0000 -10815.2708 1482.8823 0.0000 0.0000 1738.6337 -7569.3093 295.4315 -9307.9430 -7470.2203 304.8346 27.5816 100.8970 30424.6115 -186.8633 -129.6231
ENERGY: 600000 3.4147 13.9108 8.8043 0.0000 -10887.0855 1543.6889 0.0000 0.0000 1772.5149 -7544.7520 301.1886 -9317.2668 -7489.3429 301.2542 562.7140 622.5820 30449.4266 -30.3071 33.3007
ENERGY: 900000 1.1391 17.4768 8.8690 0.0000 -10736.2908 1462.3224 0.0000 0.0000 1777.9798 -7468.5036 302.1172 -9246.4834 -7477.1510 301.4306 -40.3376 4.0213 30522.1226 -35.1366 34.2301
ENERGY: 1200000 2.2106 14.1311 9.2904 0.0000 -10656.2235 1430.3137 0.0000 0.0000 1793.1356 -7407.1422 304.6925 -9200.2777 -7479.6685 300.6179 -164.1283 -123.1263 30998.3296 -69.2082 -10.5074
ENERGY: 1500000 1.6834 12.5587 7.9594 0.0000 -10755.5443 1437.8544 0.0000 0.0000 1797.7609 -7497.7275 305.4784 -9295.4884 -7485.8236 300.3923 -135.5590 -82.6418 30216.8103 -45.9667 16.2917
TCL: Running FEP window   9: Lambda1 0.39999999999999997 Lambda2 0.44999999999999996 [dLambda 0.04999999999999999]
TCL: Setting parameter firsttimestep to 0
TCL: Setting parameter alchLambda to 0.39999999999999997
Info: NONBONDED TABLE R-SQUARED SPACING: 0.0625
Info: NONBONDED TABLE SIZE: 705 POINTS
TCL: Setting parameter alchLambda2 to 0.44999999999999996
Info: NONBONDED TABLE R-SQUARED SPACING: 0.0625
Info: NONBONDED TABLE SIZE: 705 POINTS
TCL: Running for 1500000 steps
ETITLE: TS BOND ANGLE DIHED IMPRP ELECT VDW BOUNDARY MISC KINETIC TOTAL TEMP POTENTIAL TOTALAVG TEMPAVG PRESSURE GPRESSURE VOLUME PRESSAVG GPRESSAVG
ENERGY: 0 1.6834 12.5587 7.9594 0.0000 -10755.5441 1438.1954 0.0000 0.0000 1796.8988 -7498.2484 305.3320 -9295.1472 -7498.2484 305.3320 -158.7510 -78.8861 30216.8103 -158.7510 -78.8861
ENERGY: 300000 1.2005 16.5056 8.3266 0.0000 -10724.9650 1452.8513 0.0000 0.0000 1745.4642 -7500.6167 296.5921 -9246.0809 -7480.2861 303.4401 82.1606 92.7633 30399.1506 200.8814 255.9826
ENERGY: 600000 0.5163 12.4286 9.2124 0.0000 -10970.5360 1566.6995 0.0000 0.0000 1789.5740 -7592.1053 304.0873 -9381.6793 -7505.6368 300.2852 761.8599 818.1954 30179.4478 78.5950 131.9393
ENERGY: 900000 1.6485 15.1890 8.9329 0.0000 -10885.0009 1553.5202 0.0000 0.0000 1736.8022 -7568.9080 295.1203 -9305.7103 -7506.7883 299.8737 832.0954 912.8978 29820.7312 146.7183 205.0208
ENERGY: 1200000 3.1637 13.9204 8.4793 0.0000 -10785.1496 1431.4967 0.0000 0.0000 1696.2389 -7631.8506 288.2277 -9328.0894 -7507.0137 299.3617 -213.0308 -219.8426 30227.8732 104.3224 165.7909
ENERGY: 1500000 0.4804 16.1431 8.1444 0.0000 -10615.2798 1389.3362 0.0000 0.0000 1747.6800 -7453.4957 296.9686 -9201.1756 -7506.4069 299.3234 -309.3803 -243.5480 30324.8135 21.9260 82.7920
TCL: Running FEP window  10: Lambda1 0.44999999999999996 Lambda2 0.49999999999999994 [dLambda 0.04999999999999999]
TCL: Setting parameter firsttimestep to 0
TCL: Setting parameter alchLambda to 0.44999999999999996
Info: NONBONDED TABLE R-SQUARED SPACING: 0.0625
Info: NONBONDED TABLE SIZE: 705 POINTS
TCL: Setting parameter alchLambda2 to 0.49999999999999994
Info: NONBONDED TABLE R-SQUARED SPACING: 0.0625
Info: NONBONDED TABLE SIZE: 705 POINTS
TCL: Running for 1500000 steps
ETITLE: TS BOND ANGLE DIHED IMPRP ELECT VDW BOUNDARY MISC KINETIC TOTAL TEMP POTENTIAL TOTALAVG TEMPAVG PRESSURE GPRESSURE VOLUME PRESSAVG GPRESSAVG
ENERGY: 0 0.4804 16.1431 8.1444 0.0000 -10615.2807 1389.5041 0.0000 0.0000 1746.7692 -7454.2396 296.8139 -9201.0087 -7454.2396 296.8139 -339.3606 -240.0498 30324.8135 -339.3606 -240.0498
ENERGY: 300000 3.0393 15.1568 7.5924 0.0000 -10693.8724 1457.0605 0.0000 0.0000 1720.3338 -7490.6897 292.3219 -9211.0235 -7512.2340 294.6194 11.7115 151.2902 30601.7092 -442.4253 -345.6921
ENERGY: 600000 1.6692 15.2845 8.5144 0.0000 -10602.3301 1387.3253 0.0000 0.0000 1775.4813 -7414.0555 301.6927 -9189.5368 -7492.6575 297.0577 -443.4819 -336.6531 30889.4902 -298.3427 -206.2081
ENERGY: 900000 2.6543 12.6112 7.7001 0.0000 -10589.7277 1339.6482 0.0000 0.0000 1807.4165 -7419.6974 307.1191 -9227.1139 -7486.1853 297.2115 -920.8343 -815.1284 30737.1746 -253.4465 -165.4815
ENERGY: 1200000 3.3034 12.5852 8.4393 0.0000 -10652.7116 1406.5088 0.0000 0.0000 1788.0863 -7433.7887 303.8345 -9221.8750 -7489.1881 298.0203 -190.3785 -118.7839 30499.4194 -285.2466 -197.0455
ENERGY: 1500000 0.2642 20.2117 6.1957 0.0000 -10756.8930 1499.9610 0.0000 0.0000 1774.1457 -7456.1146 301.4657 -9230.2604 -7477.7768 299.6738 653.0971 670.6792 30286.6060 -206.8603 -129.6290
TCL: Running FEP window  11: Lambda1 0.49999999999999994 Lambda2 0.5499999999999999 [dLambda 0.04999999999999999]
TCL: Setting parameter firsttimestep to 0
TCL: Setting parameter alchLambda to 0.49999999999999994
Info: NONBONDED TABLE R-SQUARED SPACING: 0.0625
Info: NONBONDED TABLE SIZE: 705 POINTS
TCL: Setting parameter alchLambda2 to 0.5499999999999999
Info: NONBONDED TABLE R-SQUARED SPACING: 0.0625
Info: NONBONDED TABLE SIZE: 705 POINTS
TCL: Running for 1500000 steps
ETITLE: TS BOND ANGLE DIHED IMPRP ELECT VDW BOUNDARY MISC KINETIC TOTAL TEMP POTENTIAL TOTALAVG TEMPAVG PRESSURE GPRESSURE VOLUME PRESSAVG GPRESSAVG
ENERGY: 0 0.2642 20.2117 6.1957 0.0000 -10756.8939 1499.5046 0.0000 0.0000 1773.2854 -7457.4323 301.3195 -9230.7176 -7457.4323 301.3195 606.5801 675.2635 30286.6060 606.5801 675.2635
ENERGY: 300000 2.7740 17.1879 6.9607 0.0000 -10664.1949 1437.8244 0.0000 0.0000 1810.9695 -7388.4785 307.7229 -9199.4480 -7443.2074 303.4079 425.8659 473.3529 30495.9192 258.5385 323.6566
ENERGY: 600000 0.6229 15.4093 8.6042 0.0000 -10756.1712 1538.6714 0.0000 0.0000 1802.1587 -7390.7047 306.2257 -9192.8634 -7459.6314 302.4035 766.8834 874.0517 30587.8924 226.3113 287.4428
ENERGY: 900000 4.1242 12.7374 9.4539 0.0000 -10849.2458 1473.0844 0.0000 0.0000 1724.7318 -7625.1142 293.0692 -9349.8460 -7466.7606 301.9904 -156.4067 -82.2366 30004.9466 127.2639 188.9184
ENERGY: 1200000 1.1924 14.7743 8.6788 0.0000 -10673.0732 1447.4641 0.0000 0.0000 1762.5621 -7438.4015 299.4974 -9200.9636 -7467.7696 302.4885 160.7179 191.9090 30492.0524 63.2931 128.7978
ENERGY: 1500000 4.0794 15.2000 7.8321 0.0000 -10839.0917 1537.9118 0.0000 0.0000 1727.3396 -7546.7289 293.5123 -9274.0684 -7469.2301 301.6650 981.0905 1047.7269 29702.7979 143.3364 203.2759
TCL: Running FEP window  12: Lambda1 0.5499999999999999 Lambda2 0.6    [dLambda 0.050000000000000044]
TCL: Setting parameter firsttimestep to 0
TCL: Setting parameter alchLambda to 0.5499999999999999
Info: NONBONDED TABLE R-SQUARED SPACING: 0.0625
Info: NONBONDED TABLE SIZE: 705 POINTS
TCL: Setting parameter alchLambda2 to 0.6
Info: NONBONDED TABLE R-SQUARED SPACING: 0.0625
Info: NONBONDED TABLE SIZE: 705 POINTS
TCL: Running for 1500000 steps
ETITLE: TS BOND ANGLE DIHED IMPRP ELECT VDW BOUNDARY MISC KINETIC TOTAL TEMP POTENTIAL TOTALAVG TEMPAVG PRESSURE GPRESSURE VOLUME PRESSAVG GPRESSAVG
ENERGY: 0 4.0794 15.2000 7.8321 0.0000 -10839.1021 1537.9067 0.0000 0.0000 1726.4838 -7547.6002 293.3669 -9274.0839 -7547.6002 293.3669 961.3209 1051.3038 29702.7979 961.3209 1051.3038
ENERGY: 300000 2.0362 14.6470 8.2139 0.0000 -10770.6325 1470.1248 0.0000 0.0000 1779.5319 -7496.0787 302.3810 -9275.6106 -7504.7044 301.2788 261.1004 366.2420 30221.1230 53.9090 149.1656
ENERGY: 600000 2.0637 13.5167 7.9039 0.0000 -10683.1929 1453.4209 0.0000 0.0000 1775.2331 -7431.0546 301.6505 -9206.2877 -7481.8176 303.1201 140.6542 151.5187 30589.8091 -77.2198 -8.9455
ENERGY: 900000 1.2440 17.1284 9.1126 0.0000 -10749.2618 1448.6977 0.0000 0.0000 1822.8369 -7450.2422 309.7394 -9273.0791 -7489.1843 301.9156 -5.2720 39.8449 30358.7138 -18.5952 45.1713
ENERGY: 1200000 3.2014 10.6424 11.3412 0.0000 -10671.4676 1404.8760 0.0000 0.0000 1743.3313 -7498.0754 296.2297 -9241.4067 -7485.7002 301.1399 -362.3410 -267.9166 30294.9464 58.7186 132.4490
ENERGY: 1500000 1.2864 14.0303 7.3843 0.0000 -10701.2342 1410.4126 0.0000 0.0000 1740.7624 -7527.3582 295.7932 -9268.1206 -7490.4200 300.7645 -513.8757 -468.0537 30573.0329 -17.1518 57.6648
TCL: Running FEP window  13: Lambda1 0.6    Lambda2 0.65   [dLambda 0.050000000000000044]
TCL: Setting parameter firsttimestep to 0
TCL: Setting parameter alchLambda to 0.6
Info: NONBONDED TABLE R-SQUARED SPACING: 0.0625
Info: NONBONDED TABLE SIZE: 705 POINTS
TCL: Setting parameter alchLambda2 to 0.65
Info: NONBONDED TABLE R-SQUARED SPACING: 0.0625
Info: NONBONDED TABLE SIZE: 705 POINTS
TCL: Running for 1500000 steps
ETITLE: TS BOND ANGLE DIHED IMPRP ELECT VDW BOUNDARY MISC KINETIC TOTAL TEMP POTENTIAL TOTALAVG TEMPAVG PRESSURE GPRESSURE VOLUME PRESSAVG GPRESSAVG
ENERGY: 0 1.2864 14.0303 7.3843 0.0000 -10701.1952 1410.6251 0.0000 0.0000 1739.9244 -7527.9446 295.6508 -9267.8690 -7527.9446 295.6508 -552.3698 -461.9159 30573.0329 -552.3698 -461.9159
ENERGY: 300000 2.4542 14.0059 8.2051 0.0000 -10700.7580 1378.5732 0.0000 0.0000 1725.8205 -7571.6991 293.2542 -9297.5196 -7521.3820 296.1478 -798.8774 -795.1024 30611.5438 -400.0294 -337.6562
ENERGY: 600000 1.0903 22.9589 7.0386 0.0000 -10549.0005 1337.2504 0.0000 0.0000 1720.4440 -7460.2182 292.3406 -9180.6622 -7508.3706 295.0392 -594.9803 -541.5650 30396.8428 -285.2983 -232.8312
ENERGY: 900000 3.7186 15.2735 8.7800 0.0000 -10696.6108 1435.0990 0.0000 0.0000 1704.6459 -7529.0937 289.6562 -9233.7396 -7488.4732 296.7657 -418.8613 -323.2076 30841.6262 -293.2728 -239.1265
ENERGY: 1200000 1.2313 13.6881 8.8008 0.0000 -10705.5010 1480.9276 0.0000 0.0000 1742.4654 -7458.3878 296.0826 -9200.8532 -7489.3335 296.1186 407.8988 454.6325 30600.5819 -175.9815 -122.8713
ENERGY: 1500000 1.7883 15.2679 8.3073 0.0000 -10631.9542 1396.9654 0.0000 0.0000 1777.3273 -7432.2979 302.0063 -9209.6252 -7483.7896 296.7585 -137.0382 -61.2113 30457.6176 -168.1291 -109.9819
TCL: Running FEP window  14: Lambda1 0.65   Lambda2 0.7000000000000001 [dLambda 0.050000000000000044]
TCL: Setting parameter firsttimestep to 0
TCL: Setting parameter alchLambda to 0.65
Info: NONBONDED TABLE R-SQUARED SPACING: 0.0625
Info: NONBONDED TABLE SIZE: 705 POINTS
TCL: Setting parameter alchLambda2 to 0.7000000000000001
Info: NONBONDED TABLE R-SQUARED SPACING: 0.0625
Info: NONBONDED TABLE SIZE: 705 POINTS
TCL: Running for 1500000 steps
ETITLE: TS BOND ANGLE DIHED IMPRP ELECT VDW BOUNDARY MISC KINETIC TOTAL TEMP POTENTIAL TOTALAVG TEMPAVG PRESSURE GPRESSURE VOLUME PRESSAVG GPRESSAVG
ENERGY: 0 1.7883 15.2679 8.3073 0.0000 -10631.7926 1396.7016 0.0000 0.0000 1776.4169 -7433.3106 301.8516 -9209.7275 -7433.3106 301.8516 -129.2277 -56.7529 30457.6176 -129.2277 -56.7529
ENERGY: 300000 1.5877 12.8299 8.4062 0.0000 -10731.9622 1411.6859 0.0000 0.0000 1781.5270 -7515.9254 302.7200 -9297.4524 -7489.4616 300.2587 -377.0916 -336.4010 30588.8896 -90.4818 -6.1785
ENERGY: 600000 1.0605 12.1918 9.2565 0.0000 -10766.6314 1517.7095 0.0000 0.0000 1759.6389 -7466.7741 299.0007 -9226.4130 -7501.3885 298.8296 897.3433 877.7241 30054.5438 12.2836 76.7439
ENERGY: 900000 1.1906 16.2740 8.9719 0.0000 -10725.5375 1443.2470 0.0000 0.0000 1831.8259 -7424.0281 311.2668 -9255.8540 -7501.7213 300.1341 74.0576 149.4693 30522.4149 -51.5418 13.9841
ENERGY: 1200000 1.0203 16.5532 8.1309 0.0000 -10778.4012 1503.1695 0.0000 0.0000 1805.4449 -7444.0824 306.7841 -9249.5273 -7480.4413 301.4293 717.1357 783.6475 30045.0165 -56.5121 3.9919
ENERGY: 1500000 1.4216 15.1459 8.2463 0.0000 -10754.8692 1476.4723 0.0000 0.0000 1816.1306 -7437.4526 308.5999 -9253.5832 -7480.8890 301.2299 82.0136 237.7157 30367.5243 -13.1314 53.4066
TCL: Running FEP window  15: Lambda1 0.7000000000000001 Lambda2 0.7500000000000001 [dLambda 0.050000000000000044]
TCL: Setting parameter firsttimestep to 0
TCL: Setting parameter alchLambda to 0.7000000000000001
Info: NONBONDED TABLE R-SQUARED SPACING: 0.0625
Info: NONBONDED TABLE SIZE: 705 POINTS
TCL: Setting parameter alchLambda2 to 0.7500000000000001
Info: NONBONDED TABLE R-SQUARED SPACING: 0.0625
Info: NONBONDED TABLE SIZE: 705 POINTS
TCL: Running for 1500000 steps
ETITLE: TS BOND ANGLE DIHED IMPRP ELECT VDW BOUNDARY MISC KINETIC TOTAL TEMP POTENTIAL TOTALAVG TEMPAVG PRESSURE GPRESSURE VOLUME PRESSAVG GPRESSAVG
ENERGY: 0 1.4216 15.1459 8.2463 0.0000 -10754.8860 1476.5013 0.0000 0.0000 1815.2930 -7438.2779 308.4575 -9253.5710 -7438.2779 308.4575 149.8449 242.5674 30367.5243 149.8449 242.5674
ENERGY: 300000 3.0208 12.9150 8.8657 0.0000 -10655.6544 1401.4574 0.0000 0.0000 1777.3591 -7452.0363 302.0118 -9229.3955 -7450.6130 305.2076 -272.3565 -216.8021 30657.5957 -120.7996 -81.1858
ENERGY: 600000 3.2925 12.5376 10.1417 0.0000 -10755.3779 1417.7167 0.0000 0.0000 1771.2245 -7540.4650 300.9693 -9311.6894 -7473.8173 303.8640 -311.1137 -270.7433 30298.6684 -58.9953 -16.3295
ENERGY: 900000 0.9552 14.8906 8.7145 0.0000 -10751.4110 1423.7835 0.0000 0.0000 1737.9329 -7565.1345 295.3124 -9303.0673 -7495.1366 303.4705 -412.5367 -355.5459 30492.4121 -194.0068 -156.5690
ENERGY: 1200000 1.0076 11.9538 8.3725 0.0000 -10845.6540 1509.7971 0.0000 0.0000 1782.0427 -7532.4803 302.8076 -9314.5230 -7497.7410 302.6471 158.8614 268.6835 30714.5834 -189.0189 -141.1048
ENERGY: 1500000 1.9180 12.5624 8.1485 0.0000 -10644.2597 1435.9692 0.0000 0.0000 1767.2969 -7418.3648 300.3020 -9185.6617 -7494.0367 301.9123 136.1149 148.9831 30562.6342 -200.8691 -151.3989
TCL: Running FEP window  16: Lambda1 0.7500000000000001 Lambda2 0.8000000000000002 [dLambda 0.050000000000000044]
TCL: Setting parameter firsttimestep to 0
TCL: Setting parameter alchLambda to 0.7500000000000001
Info: NONBONDED TABLE R-SQUARED SPACING: 0.0625
Info: NONBONDED TABLE SIZE: 705 POINTS
TCL: Setting parameter alchLambda2 to 0.8000000000000002
Info: NONBONDED TABLE R-SQUARED SPACING: 0.0625
Info: NONBONDED TABLE SIZE: 705 POINTS
TCL: Running for 1500000 steps
ETITLE: TS BOND ANGLE DIHED IMPRP ELECT VDW BOUNDARY MISC KINETIC TOTAL TEMP POTENTIAL TOTALAVG TEMPAVG PRESSURE GPRESSURE VOLUME PRESSAVG GPRESSAVG
ENERGY: 0 1.9180 12.5624 8.1485 0.0000 -10644.2717 1436.0705 0.0000 0.0000 1766.3421 -7419.2303 300.1397 -9185.5723 -7419.2303 300.1397 72.5496 154.7394 30562.6342 72.5496 154.7394
ENERGY: 300000 4.0279 18.4458 7.6917 0.0000 -10774.1090 1450.7330 0.0000 0.0000 1752.4172 -7540.7935 297.7736 -9293.2107 -7507.6956 296.5122 -88.9359 -86.5241 30510.4875 47.3521 90.0808
ENERGY: 600000 3.5651 18.8146 7.9566 0.0000 -10473.5950 1252.2056 0.0000 0.0000 1807.9848 -7383.0683 307.2157 -9191.0530 -7491.7790 299.7823 -1383.1438 -1368.6031 30863.5890 81.3316 131.7168
ENERGY: 900000 1.1985 16.4363 8.6000 0.0000 -10753.6830 1480.8210 0.0000 0.0000 1747.8046 -7498.8225 296.9898 -9246.6271 -7493.5590 299.3391 185.2314 261.6732 30453.5133 18.8624 79.1159
ENERGY: 1200000 0.8118 12.4854 8.0834 0.0000 -10781.1329 1516.2118 0.0000 0.0000 1690.6530 -7552.8876 287.2785 -9243.5406 -7490.2353 299.4110 447.0584 456.6766 30735.8689 -13.2192 35.4446
ENERGY: 1500000 1.6322 16.5650 6.7686 0.0000 -10818.8106 1508.6933 0.0000 0.0000 1788.4430 -7496.7085 303.8951 -9285.1515 -7480.8731 299.9836 495.4215 624.2995 30328.7273 35.5248 86.8347
TCL: Running FEP window  17: Lambda1 0.8000000000000002 Lambda2 0.8500000000000002 [dLambda 0.050000000000000044]
TCL: Setting parameter firsttimestep to 0
TCL: Setting parameter alchLambda to 0.8000000000000002
Info: NONBONDED TABLE R-SQUARED SPACING: 0.0625
Info: NONBONDED TABLE SIZE: 705 POINTS
TCL: Setting parameter alchLambda2 to 0.8500000000000002
Info: NONBONDED TABLE R-SQUARED SPACING: 0.0625
Info: NONBONDED TABLE SIZE: 705 POINTS
TCL: Running for 1500000 steps
ETITLE: TS BOND ANGLE DIHED IMPRP ELECT VDW BOUNDARY MISC KINETIC TOTAL TEMP POTENTIAL TOTALAVG TEMPAVG PRESSURE GPRESSURE VOLUME PRESSAVG GPRESSAVG
ENERGY: 0 1.6322 16.5650 6.7686 0.0000 -10818.8427 1508.8177 0.0000 0.0000 1787.5455 -7497.5137 303.7426 -9285.0592 -7497.5137 303.7426 534.5635 631.5697 30328.7273 534.5635 631.5697
ENERGY: 300000 1.4162 16.2364 9.7176 0.0000 -10736.2792 1397.8680 0.0000 0.0000 1827.5909 -7483.4501 310.5472 -9311.0410 -7482.0297 301.8983 -427.7376 -325.2895 30322.6187 -158.2818 -71.9647
ENERGY: 600000 1.8664 13.4111 7.9134 0.0000 -10863.9388 1484.8287 0.0000 0.0000 1738.2749 -7617.6442 295.3705 -9355.9191 -7510.9955 298.8633 35.5231 105.5324 30466.1445 -147.1593 -56.1874
ENERGY: 900000 1.2323 16.3616 8.1720 0.0000 -10831.8268 1538.0460 0.0000 0.0000 1820.0343 -7447.9807 309.2632 -9268.0150 -7508.6890 300.2296 846.2149 917.2175 30344.9881 -66.8502 15.8411
ENERGY: 1200000 1.1115 14.1432 6.1790 0.0000 -10852.9065 1540.6280 0.0000 0.0000 1811.6968 -7479.1479 307.8465 -9290.8448 -7508.7000 300.2041 703.7172 745.3590 30254.2293 33.6142 112.2199
ENERGY: 1500000 1.5532 17.7756 8.5009 0.0000 -10614.7381 1364.9621 0.0000 0.0000 1805.8144 -7416.1319 306.8469 -9221.9463 -7502.9307 300.5203 -462.7930 -451.1981 30725.4421 36.5151 109.3514
TCL: Running FEP window  18: Lambda1 0.8500000000000002 Lambda2 0.9000000000000002 [dLambda 0.050000000000000044]
TCL: Setting parameter firsttimestep to 0
TCL: Setting parameter alchLambda to 0.8500000000000002
Info: NONBONDED TABLE R-SQUARED SPACING: 0.0625
Info: NONBONDED TABLE SIZE: 705 POINTS
TCL: Setting parameter alchLambda2 to 0.9000000000000002
Info: NONBONDED TABLE R-SQUARED SPACING: 0.0625
Info: NONBONDED TABLE SIZE: 705 POINTS
TCL: Running for 1500000 steps
ETITLE: TS BOND ANGLE DIHED IMPRP ELECT VDW BOUNDARY MISC KINETIC TOTAL TEMP POTENTIAL TOTALAVG TEMPAVG PRESSURE GPRESSURE VOLUME PRESSAVG GPRESSAVG
ENERGY: 0 1.5532 17.7756 8.5009 0.0000 -10614.9087 1365.2197 0.0000 0.0000 1804.9318 -7416.9276 306.6969 -9221.8593 -7416.9276 306.6969 -507.0127 -436.7620 30725.4421 -507.0127 -436.7620
ENERGY: 300000 0.4879 14.1837 7.5477 0.0000 -10855.0674 1501.6871 0.0000 0.0000 1717.1273 -7614.0337 291.7771 -9331.1610 -7499.6227 301.1277 305.1370 313.8281 30194.2684 -172.9019 -125.3575
ENERGY: 600000 2.1995 15.0947 7.3904 0.0000 -10727.2553 1444.4273 0.0000 0.0000 1772.8307 -7485.3127 301.2423 -9258.1434 -7495.5013 299.4623 38.7202 83.3047 30445.0810 -156.8346 -107.0123
ENERGY: 900000 0.6452 13.3514 8.4628 0.0000 -10627.5568 1350.5926 0.0000 0.0000 1829.1947 -7425.3100 310.8197 -9254.5047 -7492.9451 299.3340 -851.7905 -751.9265 30691.1402 -177.5844 -129.5530
ENERGY: 1200000 2.5829 16.7546 7.7432 0.0000 -10648.0127 1370.5850 0.0000 0.0000 1780.4291 -7469.9178 302.5334 -9250.3469 -7502.6490 298.3512 -718.1733 -681.6243 30880.1860 -135.2695 -90.8955
ENERGY: 1500000 0.4614 13.2807 8.5955 0.0000 -10822.8818 1473.9779 0.0000 0.0000 1768.6356 -7557.9307 300.5294 -9326.5662 -7509.2690 297.9277 245.4271 316.4748 30212.2459 -167.8590 -124.6109
TCL: Running FEP window  19: Lambda1 0.9000000000000002 Lambda2 0.9500000000000003 [dLambda 0.050000000000000044]
TCL: Setting parameter firsttimestep to 0
TCL: Setting parameter alchLambda to 0.9000000000000002
Info: NONBONDED TABLE R-SQUARED SPACING: 0.0625
Info: NONBONDED TABLE SIZE: 705 POINTS
TCL: Setting parameter alchLambda2 to 0.9500000000000003
Info: NONBONDED TABLE R-SQUARED SPACING: 0.0625
Info: NONBONDED TABLE SIZE: 705 POINTS
TCL: Running for 1500000 steps
ETITLE: TS BOND ANGLE DIHED IMPRP ELECT VDW BOUNDARY MISC KINETIC TOTAL TEMP POTENTIAL TOTALAVG TEMPAVG PRESSURE GPRESSURE VOLUME PRESSAVG GPRESSAVG
ENERGY: 0 0.4614 13.2807 8.5955 0.0000 -10823.0910 1473.9727 0.0000 0.0000 1767.7266 -7559.0540 300.3750 -9326.7806 -7559.0540 300.3750 259.6419 325.9884 30212.2459 259.6419 325.9884
ENERGY: 300000 1.6921 13.7705 7.4450 0.0000 -10696.9649 1418.2664 0.0000 0.0000 1769.7979 -7485.9931 300.7269 -9255.7909 -7451.1076 302.5087 -259.9771 -237.4862 30767.7058 -396.9696 -318.5634
ENERGY: 600000 1.5366 13.6658 7.7465 0.0000 -10711.8101 1404.4772 0.0000 0.0000 1777.1098 -7507.2742 301.9694 -9284.3840 -7475.9429 301.2468 -194.7089 -158.4898 30395.9902 -256.8003 -186.7856
ENERGY: 900000 1.6217 15.7315 8.0841 0.0000 -10871.3493 1538.9951 0.0000 0.0000 1775.1694 -7531.7475 301.6397 -9306.9169 -7482.7032 300.9151 730.4043 766.3234 30473.5204 -204.2351 -140.4180
ENERGY: 1200000 2.5148 16.8078 8.2002 0.0000 -10654.4954 1349.0405 0.0000 0.0000 1772.1138 -7505.8183 301.1204 -9277.9321 -7485.8466 300.6433 -1134.7289 -1036.5883 30875.3649 -199.8688 -132.8487
ENERGY: 1500000 0.5878 14.4162 8.4931 0.0000 -10826.1656 1434.0789 0.0000 0.0000 1845.6920 -7522.8977 313.6230 -9368.5897 -7491.7528 301.0765 -200.1434 -208.6388 30137.5772 -162.3517 -102.6993
TCL: Running FEP window  20: Lambda1 0.9500000000000003 Lambda2 1.0    [dLambda 0.04999999999999971]
TCL: Setting parameter firsttimestep to 0
TCL: Setting parameter alchLambda to 0.9500000000000003
Info: NONBONDED TABLE R-SQUARED SPACING: 0.0625
Info: NONBONDED TABLE SIZE: 705 POINTS
TCL: Setting parameter alchLambda2 to 1.0
Info: NONBONDED TABLE R-SQUARED SPACING: 0.0625
Info: NONBONDED TABLE SIZE: 705 POINTS
TCL: Running for 1500000 steps
ETITLE: TS BOND ANGLE DIHED IMPRP ELECT VDW BOUNDARY MISC KINETIC TOTAL TEMP POTENTIAL TOTALAVG TEMPAVG PRESSURE GPRESSURE VOLUME PRESSAVG GPRESSAVG
ENERGY: 0 0.5878 14.4162 8.4931 0.0000 -10826.1423 1434.6475 0.0000 0.0000 1844.8057 -7523.1921 313.4724 -9367.9978 -7523.1921 313.4724 -270.4828 -191.9392 30137.5772 -270.4828 -191.9392
ENERGY: 300000 2.8172 15.6850 9.2674 0.0000 -10742.0992 1416.2936 0.0000 0.0000 1771.1270 -7526.9090 300.9528 -9298.0360 -7478.9166 304.8151 -271.6490 -146.0930 30311.2960 -162.2461 -84.7258
ENERGY: 600000 1.6571 12.9044 9.6796 0.0000 -10705.6679 1413.3973 0.0000 0.0000 1787.1815 -7480.8481 303.6808 -9268.0296 -7473.0456 304.1296 100.6128 45.5307 30082.8852 93.4601 146.1306
ENERGY: 900000 1.7983 13.7467 7.7213 0.0000 -10739.4531 1514.0037 0.0000 0.0000 1732.6878 -7469.4953 294.4211 -9202.1832 -7486.8384 301.1519 652.3421 797.8844 30501.4437 18.1824 77.8743
ENERGY: 1200000 2.8654 13.0074 7.5681 0.0000 -10733.4412 1416.3279 0.0000 0.0000 1769.1440 -7524.5285 300.6158 -9293.6725 -7496.1545 300.6873 -241.5011 -197.8603 30363.4300 -51.9274 0.6269
ENERGY: 1500000 1.9620 14.5817 8.7052 0.0000 -10659.8252 1415.1025 0.0000 0.0000 1719.4582 -7500.0157 292.1731 -9219.4738 -7491.6748 300.0764 -198.6442 -153.5053 30866.8148 -20.0239 33.5304
TCL: Exiting due to exit command.
