Info: SIMULATION PARAMETERS:
Info: TIMESTEP               2
Info: NUMBER OF STEPS        0
Info: STEPS PER CYCLE        10
Info: PERIODIC CELL BASIS 1  30.947 0 0
Info: PERIODIC CELL BASIS 2  0 31.6485 0
Info: PERIODIC CELL BASIS 3  0 0 31.599
Info: PERIODIC CELL CENTER   0 0 0
Info: WRAPPING WATERS AROUND PERIODIC BOUNDARIES ON OUTPUT.
Info: WRAPPING ALL CLUSTERS AROUND PERIODIC BOUNDARIES ON OUTPUT.
Info: FIRST LDB TIMESTEP     50
Info: LAST LDB TIMESTEP     -1
Info: HOM BACKGROUND SCALING 1
Info: PME BACKGROUND SCALING 1
Info: MIN ATOMS PER PATCH    40
Info: EMPTY PATCH LOAD       40 ATOMS
Info: VELOCITY FILE          mobley_9100956_equil.vel
Info: CENTER OF MASS MOVING INITIALLY? NO
Info: DIELECTRIC             1
Info: EXCLUDE                SCALED ONE-FOUR
Info: 1-4 ELECTROSTATICS SCALED BY 0.833333
Info: MODIFIED 1-4 VDW PARAMETERS WILL BE USED
Info: DCD FILENAME           mobley_9100956_prod.dcd
Info: DCD FREQUENCY          100000
Info: DCD FIRST STEP         100000
Info: DCD FILE WILL CONTAIN UNIT CELL DATA
Info: XST FILENAME           mobley_9100956_prod.xst
Info: XST FREQUENCY          100000
Info: NO VELOCITY DCD OUTPUT
Info: NO FORCE DCD OUTPUT
Info: OUTPUT FILENAME        mobley_9100956_prod
Info: BINARY OUTPUT FILES WILL BE USED
Info: RESTART FILENAME       mobley_9100956_prod.restart
Info: RESTART FREQUENCY      100000
Info: BINARY RESTART FILES WILL BE USED
Info: CUTOFF                 9
Info: PAIRLIST DISTANCE      11
Info: PAIRLIST SHRINK RATE   0.01
Info: PAIRLIST GROW RATE     0.01
Info: PAIRLIST TRIGGER       0.3
Info: PAIRLISTS PER CYCLE    2
Info: PAIRLISTS ENABLED
Info: MARGIN                 2
Info: HYDROGEN GROUP CUTOFF  2.5
Info: PATCH DIMENSION        15.5
Info: ENERGY OUTPUT STEPS    100000
Info: ENERGY EVALUATION STEPS    100000
Info: OUTPUT ENERGY PRECISION 4
Info: CROSSTERM ENERGY INCLUDED IN DIHEDRAL
Info: TIMING OUTPUT STEPS    1000000
Info: PRESSURE OUTPUT STEPS  100000
Info: ALCHEMICAL FEP ON
Info: FEP CURRENT LAMBDA VALUE     0
Info: FEP COMPARISON LAMBDA VALUE  0.05
Info: FEP INTRA-ALCHEMICAL NON-BONDED INTERACTIONS WILL BE RETAINED
Info: FEP INTRA-ALCHEMICAL BONDED INTERACTIONS WILL BE RETAINED
Info: FEP VDW SHIFTING COEFFICIENT 5
Info: FEP ELEC. ACTIVE FOR ANNIHILATED PARTICLES BETWEEN LAMBDA = 0 AND LAMBDA = 0.5
Info: FEP ELEC. ACTIVE FOR EXNIHILATED PARTICLES BETWEEN LAMBDA = 0.5 AND LAMBDA = 1
Info: FEP VDW ACTIVE FOR ANNIHILATED PARTICLES BETWEEN LAMBDA = 0 AND LAMBDA = 1
Info: FEP VDW ACTIVE FOR EXNIHILATED PARTICLES BETWEEN LAMBDA = 0 AND LAMBDA = 1
Info: FEP BOND ACTIVE FOR ANNIHILATED PARTICLES BETWEEN LAMBDA = 1 AND LAMBDA = 1
Info: FEP BOND ACTIVE FOR EXNIHILATED PARTICLES BETWEEN LAMBDA = 0 AND LAMBDA = 0
Info: LANGEVIN DYNAMICS ACTIVE
Info: LANGEVIN TEMPERATURE   300
Info: LANGEVIN USING BBK INTEGRATOR
Info: LANGEVIN DAMPING COEFFICIENT IS 1 INVERSE PS
Info: LANGEVIN DYNAMICS APPLIED TO HYDROGENS
Info: LANGEVIN PISTON PRESSURE CONTROL ACTIVE
Info:        TARGET PRESSURE IS 1.01325 BAR
Info:     OSCILLATION PERIOD IS 50 FS
Info:             DECAY TIME IS 25 FS
Info:     PISTON TEMPERATURE IS 300 K
Info:       PRESSURE CONTROL IS GROUP-BASED
Info:    INITIAL STRAIN RATE IS 0.000170215 0.000170215 0.000170215
Info:       CELL FLUCTUATION IS ISOTROPIC
Info: PARTICLE MESH EWALD (PME) ACTIVE
Info: PME TOLERANCE               1e-06
Info: PME EWALD COEFFICIENT       0.348832
Info: PME INTERPOLATION ORDER     4
Info: PME GRID DIMENSIONS         32 32 32
Info: PME MAXIMUM GRID SPACING    1
Info: PME CALCULATION WILL BE PERFORMED ON GPU
Info: FULL ELECTROSTATIC EVALUATION FREQUENCY      2
Info: USING VERLET I (r-RESPA) MTS SCHEME.
Info: C1 SPLITTING OF LONG RANGE ELECTROSTATICS
Info: PLACING ATOMS IN PATCHES BY HYDROGEN GROUPS
Info: RIGID BONDS TO HYDROGEN : ALL
Info:         ERROR TOLERANCE : 1e-08
Info:          MAX ITERATIONS : 100
Info: RIGID WATER USING SETTLE ALGORITHM
Info: RANDOM NUMBER SEED     1743624013
Info: USE HYDROGEN BONDS?    NO
Info: Using AMBER format force field!
Info: AMBER PARM FILE        mobley_9100956.prmtop
Info: COORDINATE PDB         mobley_9100956.pdb
Info: Exclusions will be read from PARM file!
Info: SCNB (VDW SCALING)     2
Info: USING ARITHMETIC MEAN TO COMBINE L-J SIGMA PARAMETERS
Info: BINARY COORDINATES     mobley_9100956_equil.coor
Info: SUMMARY OF PARAMETERS:
Info: 4 BONDS
Info: 3 ANGLES
Info:   3 HARMONIC
Info:   0 COSINE-BASED
Info: 5 DIHEDRAL
Info: 0 IMPROPER
Info: 0 CROSSTERM
Info: 0 VDW
Info: 10 VDW_PAIRS
Info: 0 NBTHOLE_PAIRS
Info: To read alchdata from file: mobley_9100956.pdb
Info: To read alchflag data from column: 5
Info: STRUCTURE SUMMARY:
Info: 2988 ATOMS
Info: 2988 BONDS
Info: 42 ANGLES
Info: 79 DIHEDRALS
Info: 0 IMPROPERS
Info: 0 CROSSTERMS
Info: 3090 EXCLUSIONS
Info: 2981 RIGID BONDS
Info: ALCH: 0 ATOMS TO DISAPPEAR IN FINAL STATE
Info: ALCH: 21 ATOMS TO APPEAR IN FINAL STATE
Info: 5983 DEGREES OF FREEDOM
Info: 996 HYDROGEN GROUPS
Info: 4 ATOMS IN LARGEST HYDROGEN GROUP
Info: 996 MIGRATION GROUPS
Info: 4 ATOMS IN LARGEST MIGRATION GROUP
Info: TOTAL MASS = 17916 amu
Info: TOTAL CHARGE = 0.000199977 e
Info: MASS DENSITY = 0.961292 g/cm^3
Info: ATOM DENSITY = 0.0965462 atoms/A^3
Info: ADDED 0 IMPLICIT EXCLUSIONS
Info: NONBONDED TABLE R-SQUARED SPACING: 0.0625
Info: NONBONDED TABLE SIZE: 705 POINTS
Info: REMOVING COM VELOCITY 0.0962577 0.137242 -0.00238405
Info: Use 3D box decompostion in PME FFT.
Info: Updated CUDA force table with 4096 elements.
Info: Updated CUDA LJ table with 4 x 4 elements.
Info: Found 24 unique exclusion lists needing 72 bytes
TCL: Running for 1500000 steps
ETITLE: TS BOND ANGLE DIHED IMPRP ELECT VDW BOUNDARY MISC KINETIC TOTAL TEMP POTENTIAL TOTALAVG TEMPAVG PRESSURE GPRESSURE VOLUME PRESSAVG GPRESSAVG
ENERGY: 0 1.1012 12.2859 4.3303 0.0000 -10739.6684 1372.1772 0.0000 0.0000 1811.2830 -7538.4909 304.6896 -9349.7738 -7538.4909 304.6896 -988.8545 -892.5143 30948.9056 -988.8545 -892.5143
ENERGY: 300000 4.1710 10.1938 5.1825 0.0000 -10774.9429 1409.4218 0.0000 0.0000 1798.5342 -7547.4395 302.5451 -9345.9737 -7543.5997 301.8531 -678.7898 -527.0375 30411.6983 -480.8555 -399.9612
ENERGY: 600000 1.1190 11.8516 4.5621 0.0000 -10793.6272 1439.9502 0.0000 0.0000 1812.1385 -7524.0057 304.8336 -9336.1442 -7551.9433 301.7408 -193.9475 -165.4673 30918.3207 -199.6427 -141.8395
ENERGY: 900000 2.6408 10.7215 4.9117 0.0000 -10826.5271 1489.4318 0.0000 0.0000 1777.9409 -7540.8804 299.0809 -9318.8213 -7550.0806 300.4978 316.1786 392.8830 30439.5291 -53.4043 5.2652
ENERGY: 1200000 1.4692 11.5351 4.1880 0.0000 -10773.6814 1423.7987 0.0000 0.0000 1806.9268 -7525.7636 303.9568 -9332.6904 -7542.2105 301.5976 -66.3603 -82.9477 30431.5865 19.6054 77.7614
ENERGY: 1500000 2.3264 13.0978 4.3274 0.0000 -10626.1657 1366.5470 0.0000 0.0000 1751.3303 -7488.5369 294.6045 -9239.8672 -7537.2659 301.9322 -633.0220 -540.0055 31142.3919 -29.8208 29.4546
TCL: Running FEP window   2: Lambda1 0.05   Lambda2 0.1    [dLambda 0.05  ]
TCL: Setting parameter firsttimestep to 0
TCL: Setting parameter alchLambda to 0.05
Info: NONBONDED TABLE R-SQUARED SPACING: 0.0625
Info: NONBONDED TABLE SIZE: 705 POINTS
TCL: Setting parameter alchLambda2 to 0.1
Info: NONBONDED TABLE R-SQUARED SPACING: 0.0625
Info: NONBONDED TABLE SIZE: 705 POINTS
TCL: Running for 1500000 steps
ETITLE: TS BOND ANGLE DIHED IMPRP ELECT VDW BOUNDARY MISC KINETIC TOTAL TEMP POTENTIAL TOTALAVG TEMPAVG PRESSURE GPRESSURE VOLUME PRESSAVG GPRESSAVG
ENERGY: 0 2.3264 13.0978 4.3274 0.0000 -10626.1675 1371.6726 0.0000 0.0000 1750.4581 -7484.2853 294.4578 -9234.7434 -7484.2853 294.4578 -620.2914 -535.2559 31142.3919 -620.2914 -535.2559
ENERGY: 300000 1.8296 9.3630 4.9693 0.0000 -10855.0555 1408.3403 0.0000 0.0000 1794.1201 -7636.4330 301.8025 -9430.5532 -7564.0675 298.8931 -683.8052 -598.0489 30670.2938 -389.4183 -308.1852
ENERGY: 600000 5.2922 8.9524 4.8979 0.0000 -10873.8134 1494.0651 0.0000 0.0000 1793.7708 -7566.8350 301.7438 -9360.6058 -7570.8186 299.2049 399.2541 503.5689 30079.3038 -316.6568 -241.8010
ENERGY: 900000 0.2637 13.9213 4.1800 0.0000 -10848.2628 1542.8179 0.0000 0.0000 1764.8293 -7522.2507 296.8753 -9287.0800 -7565.2840 297.8419 817.4054 862.1767 30412.9584 -122.7739 -58.0883
ENERGY: 1200000 5.3125 9.2333 4.6613 0.0000 -10956.3525 1536.2389 0.0000 0.0000 1768.3693 -7632.5372 297.4708 -9400.9065 -7574.1635 298.1062 315.7881 402.5801 30441.9707 -101.4795 -40.7155
ENERGY: 1500000 5.7113 8.0518 4.3077 0.0000 -10853.0837 1473.5343 0.0000 0.0000 1810.9091 -7550.5696 304.6268 -9361.4787 -7571.1366 298.3410 189.4565 220.5939 30248.0838 -42.5320 16.7680
TCL: Running FEP window   3: Lambda1 0.1    Lambda2 0.15000000000000002 [dLambda 0.05000000000000002]
TCL: Setting parameter firsttimestep to 0
TCL: Setting parameter alchLambda to 0.1
Info: NONBONDED TABLE R-SQUARED SPACING: 0.0625
Info: NONBONDED TABLE SIZE: 705 POINTS
TCL: Setting parameter alchLambda2 to 0.15000000000000002
Info: NONBONDED TABLE R-SQUARED SPACING: 0.0625
Info: NONBONDED TABLE SIZE: 705 POINTS
TCL: Running for 1500000 steps
ETITLE: TS BOND ANGLE DIHED IMPRP ELECT VDW BOUNDARY MISC KINETIC TOTAL TEMP POTENTIAL TOTALAVG TEMPAVG PRESSURE GPRESSURE VOLUME PRESSAVG GPRESSAVG
ENERGY: 0 5.7113 8.0518 4.3077 0.0000 -10853.0836 1475.7820 0.0000 0.0000 1809.9979 -7549.2329 304.4735 -9359.2308 -7549.2329 304.4735 143.7044 224.4182 30248.0838 143.7044 224.4182
ENERGY: 300000 2.5460 11.5155 4.9063 0.0000 -10766.2379 1479.6285 0.0000 0.0000 1801.4945 -7466.1471 303.0430 -9267.6416 -7504.3034 302.9560 163.5000 208.7357 30884.4082 147.1311 214.3271
ENERGY: 600000 1.1262 8.4209 4.9303 0.0000 -10677.5763 1372.7566 0.0000 0.0000 1716.4244 -7573.9179 288.7328 -9290.3423 -7523.8873 299.7398 -566.3780 -441.6708 30352.2706 -18.0600 51.2139
ENERGY: 900000 1.5219 12.9497 5.2463 0.0000 -10761.4286 1362.2818 0.0000 0.0000 1784.6591 -7594.7699 300.2110 -9379.4289 -7540.9402 299.3028 -730.2579 -703.1064 30312.4223 29.6038 104.2908
ENERGY: 1200000 1.4837 10.7671 3.7697 0.0000 -10958.7234 1518.0273 0.0000 0.0000 1801.3000 -7623.3756 303.0103 -9424.6756 -7548.2181 299.6260 297.4217 337.5036 30349.3690 27.5439 98.8624
ENERGY: 1500000 2.3337 11.2949 4.1060 0.0000 -10781.1987 1459.2908 0.0000 0.0000 1834.8950 -7469.2783 308.6616 -9304.1733 -7552.6681 299.0903 -26.1138 105.9449 30885.5239 41.7497 104.9494
TCL: Running FEP window   4: Lambda1 0.15000000000000002 Lambda2 0.2    [dLambda 0.04999999999999999]
TCL: Setting parameter firsttimestep to 0
TCL: Setting parameter alchLambda to 0.15000000000000002
Info: NONBONDED TABLE R-SQUARED SPACING: 0.0625
Info: NONBONDED TABLE SIZE: 705 POINTS
TCL: Setting parameter alchLambda2 to 0.2
Info: NONBONDED TABLE R-SQUARED SPACING: 0.0625
Info: NONBONDED TABLE SIZE: 705 POINTS
TCL: Running for 1500000 steps
ETITLE: TS BOND ANGLE DIHED IMPRP ELECT VDW BOUNDARY MISC KINETIC TOTAL TEMP POTENTIAL TOTALAVG TEMPAVG PRESSURE GPRESSURE VOLUME PRESSAVG GPRESSAVG
ENERGY: 0 2.3337 11.2949 4.1060 0.0000 -10781.1976 1461.7913 0.0000 0.0000 1834.0185 -7467.6533 308.5142 -9301.6718 -7467.6533 308.5142 25.7607 116.4592 30885.5239 25.7607 116.4592
ENERGY: 300000 2.8981 8.2351 4.3318 0.0000 -10916.2473 1517.5565 0.0000 0.0000 1792.1068 -7591.1190 301.4639 -9383.2257 -7548.1095 302.9223 229.7352 254.9468 30532.4640 -202.9084 -177.2347
ENERGY: 600000 1.8166 10.7895 3.9725 0.0000 -10887.7634 1504.5557 0.0000 0.0000 1757.7174 -7608.9118 295.6790 -9366.6292 -7542.4329 301.1643 67.9410 182.1051 30539.2792 -235.6701 -190.8771
ENERGY: 900000 3.1872 9.0408 5.6006 0.0000 -10712.3573 1381.1808 0.0000 0.0000 1786.1052 -7527.2428 300.4543 -9313.3480 -7552.1848 300.5583 -852.0139 -825.5177 31201.9801 -312.2461 -261.6325
ENERGY: 1200000 0.7705 10.0784 4.0072 0.0000 -10665.3409 1407.1404 0.0000 0.0000 1749.5142 -7493.8302 294.2990 -9243.3444 -7549.6468 299.5163 -262.2192 -230.2090 31080.7394 -192.2696 -141.0613
ENERGY: 1500000 3.7121 9.7996 5.2753 0.0000 -10736.1356 1349.3480 0.0000 0.0000 1699.2909 -7668.7098 285.8506 -9368.0006 -7553.2762 298.5597 -934.2591 -836.9102 30413.0000 -203.5631 -153.5406
TCL: Running FEP window   5: Lambda1 0.2    Lambda2 0.25   [dLambda 0.04999999999999999]
TCL: Setting parameter firsttimestep to 0
TCL: Setting parameter alchLambda to 0.2
Info: NONBONDED TABLE R-SQUARED SPACING: 0.0625
Info: NONBONDED TABLE SIZE: 705 POINTS
TCL: Setting parameter alchLambda2 to 0.25
Info: NONBONDED TABLE R-SQUARED SPACING: 0.0625
Info: NONBONDED TABLE SIZE: 705 POINTS
TCL: Running for 1500000 steps
ETITLE: TS BOND ANGLE DIHED IMPRP ELECT VDW BOUNDARY MISC KINETIC TOTAL TEMP POTENTIAL TOTALAVG TEMPAVG PRESSURE GPRESSURE VOLUME PRESSAVG GPRESSAVG
ENERGY: 0 3.7121 9.7996 5.2753 0.0000 -10736.1364 1349.4070 0.0000 0.0000 1698.4586 -7669.4838 285.7106 -9367.9424 -7669.4838 285.7106 -936.5604 -836.0817 30413.0000 -936.5604 -836.0817
ENERGY: 300000 0.9430 9.2169 3.9622 0.0000 -10886.4479 1532.0648 0.0000 0.0000 1766.6815 -7573.5795 297.1869 -9340.2610 -7575.6177 294.3659 585.2625 645.8311 30450.3100 -240.7032 -159.1270
ENERGY: 600000 4.1522 6.3210 5.2241 0.0000 -10814.9689 1496.5045 0.0000 0.0000 1804.6800 -7498.0870 303.5789 -9302.7669 -7563.1324 297.0044 -29.3360 84.5562 31183.8518 -186.0995 -102.9350
ENERGY: 900000 2.1001 7.9210 3.9856 0.0000 -10727.1129 1467.5746 0.0000 0.0000 1820.8570 -7424.6745 306.3002 -9245.5315 -7545.7878 299.3724 81.1588 140.6183 31127.2505 -223.7364 -150.0244
ENERGY: 1200000 1.6108 10.1588 4.0676 0.0000 -10833.1148 1479.6862 0.0000 0.0000 1765.0658 -7572.5256 296.9151 -9337.5914 -7547.7251 299.4241 123.4242 222.9254 30465.4250 -238.6092 -165.5029
ENERGY: 1500000 2.2240 12.3396 4.2022 0.0000 -10796.0361 1419.0681 0.0000 0.0000 1781.3646 -7576.8376 299.6568 -9358.2022 -7548.6235 299.2164 -576.5267 -540.2478 31051.5898 -220.7899 -155.2836
TCL: Running FEP window   6: Lambda1 0.25   Lambda2 0.3    [dLambda 0.04999999999999999]
TCL: Setting parameter firsttimestep to 0
TCL: Setting parameter alchLambda to 0.25
Info: NONBONDED TABLE R-SQUARED SPACING: 0.0625
Info: NONBONDED TABLE SIZE: 705 POINTS
TCL: Setting parameter alchLambda2 to 0.3
Info: NONBONDED TABLE R-SQUARED SPACING: 0.0625
Info: NONBONDED TABLE SIZE: 705 POINTS
TCL: Running for 1500000 steps
ETITLE: TS BOND ANGLE DIHED IMPRP ELECT VDW BOUNDARY MISC KINETIC TOTAL TEMP POTENTIAL TOTALAVG TEMPAVG PRESSURE GPRESSURE VOLUME PRESSAVG GPRESSAVG
ENERGY: 0 2.2239 12.3396 4.2022 0.0000 -10796.0361 1420.8216 0.0000 0.0000 1780.4739 -7575.9748 299.5070 -9356.4487 -7575.9748 299.5070 -617.5612 -528.4929 31051.5898 -617.5612 -528.4929
ENERGY: 300000 1.8308 10.0060 4.6911 0.0000 -10756.0702 1429.8561 0.0000 0.0000 1793.9299 -7515.7563 301.7705 -9309.6862 -7558.8805 298.4387 -384.3175 -327.3679 31156.4025 -238.9708 -165.5961
ENERGY: 600000 2.1194 6.5987 4.5672 0.0000 -10675.4474 1383.8676 0.0000 0.0000 1760.8421 -7517.4523 296.2046 -9278.2944 -7543.9218 299.6274 -429.3431 -348.9779 30634.0803 -324.4367 -261.5879
ENERGY: 900000 1.0643 9.7870 3.9219 0.0000 -10857.7316 1552.1610 0.0000 0.0000 1732.0169 -7558.7806 291.3557 -9290.7975 -7533.3727 300.0207 979.8924 969.0252 30220.9990 -228.4059 -170.6859
ENERGY: 1200000 1.3019 9.0166 3.5769 0.0000 -10866.4576 1487.6787 0.0000 0.0000 1785.0856 -7579.7978 300.2828 -9364.8835 -7535.4235 300.2125 108.6880 117.2436 30918.5779 -145.1656 -91.2074
ENERGY: 1500000 3.8585 6.3870 4.1039 0.0000 -10736.2158 1374.9951 0.0000 0.0000 1734.0150 -7612.8564 291.6918 -9346.8714 -7542.7716 299.5536 -740.8654 -729.5770 30876.2346 -200.0454 -153.7802
TCL: Running FEP window   7: Lambda1 0.3    Lambda2 0.35   [dLambda 0.04999999999999999]
TCL: Setting parameter firsttimestep to 0
TCL: Setting parameter alchLambda to 0.3
Info: NONBONDED TABLE R-SQUARED SPACING: 0.0625
Info: NONBONDED TABLE SIZE: 705 POINTS
TCL: Setting parameter alchLambda2 to 0.35
Info: NONBONDED TABLE R-SQUARED SPACING: 0.0625
Info: NONBONDED TABLE SIZE: 705 POINTS
TCL: Running for 1500000 steps
ETITLE: TS BOND ANGLE DIHED IMPRP ELECT VDW BOUNDARY MISC KINETIC TOTAL TEMP POTENTIAL TOTALAVG TEMPAVG PRESSURE GPRESSURE VOLUME PRESSAVG GPRESSAVG
ENERGY: 0 3.8585 6.3870 4.1039 0.0000 -10736.2156 1375.6128 0.0000 0.0000 1733.0845 -7613.1689 291.5353 -9346.2534 -7613.1689 291.5353 -791.5153 -719.4274 30876.2346 -791.5153 -719.4274
ENERGY: 300000 0.8139 8.1850 5.2424 0.0000 -10720.1117 1384.5509 0.0000 0.0000 1755.3715 -7565.9480 295.2843 -9321.3195 -7591.9057 297.0706 -244.9200 -157.6424 30163.3436 -586.9615 -513.0512
ENERGY: 600000 1.5921 10.5870 4.4274 0.0000 -10928.8317 1517.0564 0.0000 0.0000 1784.9719 -7610.1970 300.2636 -9395.1688 -7567.4623 299.2591 543.4480 639.9217 29936.0560 -186.9217 -117.4643
ENERGY: 900000 2.1524 9.8504 5.1682 0.0000 -10730.3580 1393.8110 0.0000 0.0000 1751.9292 -7567.4467 294.7053 -9319.3759 -7553.0716 298.9960 -498.6826 -389.2099 30744.2333 -72.1929 -2.4050
ENERGY: 1200000 0.6294 7.6920 4.3406 0.0000 -10905.9000 1586.6208 0.0000 0.0000 1752.5572 -7554.0599 294.8109 -9306.6171 -7557.9944 298.6016 1286.5588 1332.6590 30219.9760 47.3450 116.1936
ENERGY: 1500000 3.7401 5.8295 3.9842 0.0000 -10886.3020 1511.0697 0.0000 0.0000 1738.2298 -7623.4487 292.4008 -9361.6785 -7554.3286 298.9907 116.7353 184.6733 30477.6706 34.0654 96.8456
TCL: Running FEP window   8: Lambda1 0.35   Lambda2 0.39999999999999997 [dLambda 0.04999999999999999]
TCL: Setting parameter firsttimestep to 0
TCL: Setting parameter alchLambda to 0.35
Info: NONBONDED TABLE R-SQUARED SPACING: 0.0625
Info: NONBONDED TABLE SIZE: 705 POINTS
TCL: Setting parameter alchLambda2 to 0.39999999999999997
Info: NONBONDED TABLE R-SQUARED SPACING: 0.0625
Info: NONBONDED TABLE SIZE: 705 POINTS
TCL: Running for 1500000 steps
ETITLE: TS BOND ANGLE DIHED IMPRP ELECT VDW BOUNDARY MISC KINETIC TOTAL TEMP POTENTIAL TOTALAVG TEMPAVG PRESSURE GPRESSURE VOLUME PRESSAVG GPRESSAVG
ENERGY: 0 3.7401 5.8295 3.9842 0.0000 -10886.3009 1511.6099 0.0000 0.0000 1737.3177 -7623.8195 292.2474 -9361.1372 -7623.8195 292.2474 97.1281 192.1938 30477.6706 97.1281 192.1938
ENERGY: 300000 2.9470 11.2162 3.8395 0.0000 -10762.3598 1444.4347 0.0000 0.0000 1831.9862 -7467.9362 308.1723 -9299.9223 -7551.7913 302.5595 75.5870 88.5616 30408.7076 121.6335 171.5598
ENERGY: 600000 2.8126 10.8299 4.2391 0.0000 -10789.0320 1425.9095 0.0000 0.0000 1754.3274 -7590.9135 295.1087 -9345.2409 -7566.1627 298.9573 -190.6996 -123.8601 30717.0021 65.5332 127.9368
ENERGY: 900000 1.5022 7.0061 3.8490 0.0000 -10933.1332 1549.3716 0.0000 0.0000 1805.7075 -7565.6967 303.7517 -9371.4042 -7559.9796 299.6877 1046.8808 1067.3299 29981.5376 174.3323 229.9025
ENERGY: 1200000 2.3235 9.6554 5.4843 0.0000 -10779.5388 1434.2774 0.0000 0.0000 1769.7504 -7558.0478 297.7031 -9327.7982 -7564.5508 299.7998 -240.9294 -186.4112 30626.2558 250.1171 300.4036
ENERGY: 1500000 3.3588 8.1035 4.9156 0.0000 -10825.9426 1466.6417 0.0000 0.0000 1819.0401 -7523.8828 305.9945 -9342.9230 -7567.2955 299.7985 43.7777 125.7307 30409.0403 222.2301 279.5043
TCL: Running FEP window   9: Lambda1 0.39999999999999997 Lambda2 0.44999999999999996 [dLambda 0.04999999999999999]
TCL: Setting parameter firsttimestep to 0
TCL: Setting parameter alchLambda to 0.39999999999999997
Info: NONBONDED TABLE R-SQUARED SPACING: 0.0625
Info: NONBONDED TABLE SIZE: 705 POINTS
TCL: Setting parameter alchLambda2 to 0.44999999999999996
Info: NONBONDED TABLE R-SQUARED SPACING: 0.0625
Info: NONBONDED TABLE SIZE: 705 POINTS
TCL: Running for 1500000 steps
ETITLE: TS BOND ANGLE DIHED IMPRP ELECT VDW BOUNDARY MISC KINETIC TOTAL TEMP POTENTIAL TOTALAVG TEMPAVG PRESSURE GPRESSURE VOLUME PRESSAVG GPRESSAVG
ENERGY: 0 3.3588 8.1035 4.9156 0.0000 -10825.9426 1466.7893 0.0000 0.0000 1818.0914 -7524.6839 305.8349 -9342.7753 -7524.6839 305.8349 47.4857 132.4233 30409.0403 47.4857 132.4233
ENERGY: 300000 1.7268 6.3905 4.1858 0.0000 -10802.6785 1459.8267 0.0000 0.0000 1857.7469 -7472.8018 312.5057 -9330.5487 -7497.8598 307.1203 74.8491 117.4856 30762.3063 274.9730 322.4962
ENERGY: 600000 3.8206 9.9196 4.2457 0.0000 -10801.4508 1516.5004 0.0000 0.0000 1770.3183 -7496.6462 297.7987 -9266.9645 -7500.6530 304.3080 554.7512 610.8031 30784.1006 216.5012 265.5802
ENERGY: 900000 0.4534 10.9519 4.0150 0.0000 -10806.3195 1428.0763 0.0000 0.0000 1742.5044 -7620.3186 293.1199 -9362.8229 -7514.8501 302.9282 -324.0304 -241.3429 30664.2134 146.8860 194.5860
ENERGY: 1200000 1.3784 9.1935 4.4664 0.0000 -10913.6159 1506.0787 0.0000 0.0000 1834.9519 -7557.5471 308.6712 -9392.4989 -7519.8707 302.8493 292.8314 301.3779 30755.7910 75.9099 128.3855
ENERGY: 1500000 2.7431 11.4881 4.5070 0.0000 -10783.3890 1463.0854 0.0000 0.0000 1733.8680 -7567.6972 291.6671 -9301.5653 -7526.6325 301.9422 25.4050 103.1302 30789.8140 10.5439 64.4442
TCL: Running FEP window  10: Lambda1 0.44999999999999996 Lambda2 0.49999999999999994 [dLambda 0.04999999999999999]
TCL: Setting parameter firsttimestep to 0
TCL: Setting parameter alchLambda to 0.44999999999999996
Info: NONBONDED TABLE R-SQUARED SPACING: 0.0625
Info: NONBONDED TABLE SIZE: 705 POINTS
TCL: Setting parameter alchLambda2 to 0.49999999999999994
Info: NONBONDED TABLE R-SQUARED SPACING: 0.0625
Info: NONBONDED TABLE SIZE: 705 POINTS
TCL: Running for 1500000 steps
ETITLE: TS BOND ANGLE DIHED IMPRP ELECT VDW BOUNDARY MISC KINETIC TOTAL TEMP POTENTIAL TOTALAVG TEMPAVG PRESSURE GPRESSURE VOLUME PRESSAVG GPRESSAVG
ENERGY: 0 2.7431 11.4881 4.5070 0.0000 -10783.3884 1463.1115 0.0000 0.0000 1733.0035 -7568.5352 291.5217 -9301.5387 -7568.5352 291.5217 21.6932 108.3821 30789.8140 21.6932 108.3821
ENERGY: 300000 1.0374 10.9277 5.4338 0.0000 -10822.4316 1421.3023 0.0000 0.0000 1778.2554 -7605.4751 299.1338 -9383.7304 -7550.9144 297.0748 -183.9680 -155.0702 30529.8820 -372.6925 -324.8863
ENERGY: 600000 1.6817 6.7424 5.1318 0.0000 -10958.9273 1549.8256 0.0000 0.0000 1739.6661 -7655.8797 292.6424 -9395.5458 -7591.5239 296.6233 477.4476 479.9851 30568.5193 -360.5323 -296.9756
ENERGY: 900000 1.4979 8.2508 4.5240 0.0000 -10918.3397 1468.4185 0.0000 0.0000 1766.1489 -7669.4996 297.0973 -9435.6485 -7573.2595 298.9189 -149.6862 -117.4985 30439.2873 -322.7504 -257.5676
ENERGY: 1200000 1.6032 9.2488 4.4759 0.0000 -10534.0710 1353.7086 0.0000 0.0000 1788.4000 -7376.6345 300.8403 -9165.0345 -7558.4111 299.0026 -522.6874 -421.5010 31040.6008 -304.5645 -236.2603
ENERGY: 1500000 1.8851 10.7419 4.8143 0.0000 -10977.6776 1517.1681 0.0000 0.0000 1794.8800 -7648.1882 301.9304 -9443.0682 -7562.7539 299.4431 428.6443 546.2009 30087.6594 -158.3083 -85.8588
TCL: Running FEP window  11: Lambda1 0.49999999999999994 Lambda2 0.5499999999999999 [dLambda 0.04999999999999999]
TCL: Setting parameter firsttimestep to 0
TCL: Setting parameter alchLambda to 0.49999999999999994
Info: NONBONDED TABLE R-SQUARED SPACING: 0.0625
Info: NONBONDED TABLE SIZE: 705 POINTS
TCL: Setting parameter alchLambda2 to 0.5499999999999999
Info: NONBONDED TABLE R-SQUARED SPACING: 0.0625
Info: NONBONDED TABLE SIZE: 705 POINTS
TCL: Running for 1500000 steps
ETITLE: TS BOND ANGLE DIHED IMPRP ELECT VDW BOUNDARY MISC KINETIC TOTAL TEMP POTENTIAL TOTALAVG TEMPAVG PRESSURE GPRESSURE VOLUME PRESSAVG GPRESSAVG
ENERGY: 0 1.8851 10.7419 4.8143 0.0000 -10977.6777 1517.6188 0.0000 0.0000 1794.0058 -7648.6118 301.7833 -9442.6176 -7648.6118 301.7833 476.3040 556.2992 30087.6594 476.3040 556.2992
ENERGY: 300000 3.7547 12.8363 5.3600 0.0000 -10919.0675 1590.5483 0.0000 0.0000 1733.1046 -7573.4635 291.5387 -9306.5681 -7606.8104 297.3544 913.9358 919.0034 30672.7039 363.6544 405.7150
ENERGY: 600000 2.5711 8.8493 4.8882 0.0000 -10857.0209 1421.3496 0.0000 0.0000 1781.6597 -7637.7031 299.7065 -9419.3628 -7606.7178 298.6932 -258.5871 -207.4474 30199.5800 280.6603 318.7703
ENERGY: 900000 1.8425 10.2834 3.9334 0.0000 -10691.4023 1373.3731 0.0000 0.0000 1776.5844 -7525.3855 298.8527 -9301.9699 -7582.9263 298.6558 -356.4273 -374.0102 30713.0304 141.0499 185.7604
ENERGY: 1200000 1.0966 9.3730 4.2949 0.0000 -10802.2154 1484.5996 0.0000 0.0000 1842.3410 -7460.5104 309.9141 -9302.8514 -7569.7158 299.2696 506.3417 606.8613 30462.0742 89.9905 136.2165
ENERGY: 1500000 2.4216 12.6470 4.5829 0.0000 -10763.2051 1443.3519 0.0000 0.0000 1744.2163 -7555.9854 293.4078 -9300.2017 -7563.0122 299.8019 -444.0631 -352.5787 31289.3439 14.4391 68.2136
TCL: Running FEP window  12: Lambda1 0.5499999999999999 Lambda2 0.6    [dLambda 0.050000000000000044]
TCL: Setting parameter firsttimestep to 0
TCL: Setting parameter alchLambda to 0.5499999999999999
Info: NONBONDED TABLE R-SQUARED SPACING: 0.0625
Info: NONBONDED TABLE SIZE: 705 POINTS
TCL: Setting parameter alchLambda2 to 0.6
Info: NONBONDED TABLE R-SQUARED SPACING: 0.0625
Info: NONBONDED TABLE SIZE: 705 POINTS
TCL: Running for 1500000 steps
ETITLE: TS BOND ANGLE DIHED IMPRP ELECT VDW BOUNDARY MISC KINETIC TOTAL TEMP POTENTIAL TOTALAVG TEMPAVG PRESSURE GPRESSURE VOLUME PRESSAVG GPRESSAVG
ENERGY: 0 2.4216 12.6470 4.5829 0.0000 -10763.1232 1443.1452 0.0000 0.0000 1743.2686 -7557.0579 293.2484 -9300.3265 -7557.0579 293.2484 -424.6659 -347.2174 31289.3439 -424.6659 -347.2174
ENERGY: 300000 1.1687 8.2334 5.0818 0.0000 -10729.8408 1456.4638 0.0000 0.0000 1773.1674 -7485.7256 298.2779 -9258.8930 -7527.9359 299.2291 294.1980 395.4113 30582.5483 -69.5278 8.9269
ENERGY: 600000 2.5925 6.9119 4.6019 0.0000 -10805.0074 1437.3441 0.0000 0.0000 1771.8566 -7581.7004 298.0574 -9353.5571 -7536.0911 298.8644 -440.9941 -342.5463 30774.8379 -94.4711 -16.7207
ENERGY: 900000 1.0971 7.2848 5.3854 0.0000 -10762.6032 1427.3199 0.0000 0.0000 1692.4007 -7629.1152 284.6916 -9321.5159 -7553.6741 297.9287 -101.3672 -98.1330 30688.1406 -174.6742 -104.0420
ENERGY: 1200000 1.6549 9.6231 4.1433 0.0000 -10778.2466 1475.7634 0.0000 0.0000 1731.0912 -7555.9706 291.2000 -9287.0618 -7557.6998 297.8557 238.2659 334.2374 30596.5625 -212.4303 -131.7746
ENERGY: 1500000 2.3835 10.6076 4.3840 0.0000 -10752.3649 1382.4372 0.0000 0.0000 1803.5412 -7549.0115 303.3873 -9352.5526 -7552.6090 298.4089 -576.9283 -482.9623 30583.0817 -139.3148 -57.8740
TCL: Running FEP window  13: Lambda1 0.6    Lambda2 0.65   [dLambda 0.050000000000000044]
TCL: Setting parameter firsttimestep to 0
TCL: Setting parameter alchLambda to 0.6
Info: NONBONDED TABLE R-SQUARED SPACING: 0.0625
Info: NONBONDED TABLE SIZE: 705 POINTS
TCL: Setting parameter alchLambda2 to 0.65
Info: NONBONDED TABLE R-SQUARED SPACING: 0.0625
Info: NONBONDED TABLE SIZE: 705 POINTS
TCL: Running for 1500000 steps
ETITLE: TS BOND ANGLE DIHED IMPRP ELECT VDW BOUNDARY MISC KINETIC TOTAL TEMP POTENTIAL TOTALAVG TEMPAVG PRESSURE GPRESSURE VOLUME PRESSAVG GPRESSAVG
ENERGY: 0 2.3835 10.6077 4.3840 0.0000 -10752.3609 1382.6541 0.0000 0.0000 1802.6255 -7549.7062 303.2333 -9352.3317 -7549.7062 303.2333 -567.4568 -473.4583 30583.0817 -567.4568 -473.4583
ENERGY: 300000 2.9360 6.5963 4.8630 0.0000 -10840.9697 1523.7637 0.0000 0.0000 1746.4209 -7556.3898 293.7787 -9302.8107 -7579.1652 299.2341 540.2320 576.3700 30604.4189 123.8820 171.4196
ENERGY: 600000 2.3796 19.5652 5.8119 0.0000 -10902.5712 1497.8988 0.0000 0.0000 1738.3166 -7638.5990 292.4154 -9376.9156 -7585.5645 297.8427 99.7934 199.2303 30577.4305 69.7579 132.0523
ENERGY: 900000 1.5182 11.5856 4.2904 0.0000 -10703.1065 1403.0506 0.0000 0.0000 1726.4901 -7556.1717 290.4260 -9282.6617 -7581.0997 298.1340 -291.0955 -204.8365 30758.0239 109.3019 176.3734
ENERGY: 1200000 1.8889 9.2433 4.5262 0.0000 -10859.5832 1540.1530 0.0000 0.0000 1714.0332 -7589.7387 288.3305 -9303.7719 -7577.1883 297.4960 703.1575 821.4998 30816.9064 142.9834 216.6253
ENERGY: 1500000 1.8008 11.2984 4.7868 0.0000 -10783.3338 1426.7952 0.0000 0.0000 1766.6755 -7571.9771 297.1859 -9338.6525 -7575.4703 298.2617 -310.9681 -249.3202 30699.6968 127.5580 200.5593
TCL: Running FEP window  14: Lambda1 0.65   Lambda2 0.7000000000000001 [dLambda 0.050000000000000044]
TCL: Setting parameter firsttimestep to 0
TCL: Setting parameter alchLambda to 0.65
Info: NONBONDED TABLE R-SQUARED SPACING: 0.0625
Info: NONBONDED TABLE SIZE: 705 POINTS
TCL: Setting parameter alchLambda2 to 0.7000000000000001
Info: NONBONDED TABLE R-SQUARED SPACING: 0.0625
Info: NONBONDED TABLE SIZE: 705 POINTS
TCL: Running for 1500000 steps
ETITLE: TS BOND ANGLE DIHED IMPRP ELECT VDW BOUNDARY MISC KINETIC TOTAL TEMP POTENTIAL TOTALAVG TEMPAVG PRESSURE GPRESSURE VOLUME PRESSAVG GPRESSAVG
ENERGY: 0 1.8008 11.2984 4.7868 0.0000 -10783.2923 1426.2686 0.0000 0.0000 1765.7882 -7573.3494 297.0366 -9339.1377 -7573.3494 297.0366 -344.9543 -246.1988 30699.6968 -344.9543 -246.1988
ENERGY: 300000 5.4413 12.2838 4.3034 0.0000 -10871.7362 1528.1265 0.0000 0.0000 1774.2946 -7547.2866 298.4675 -9321.5812 -7532.0489 300.3092 421.7383 408.4695 30956.0311 -270.2033 -228.3934
ENERGY: 600000 0.4285 9.9551 4.8534 0.0000 -10763.6670 1428.1064 0.0000 0.0000 1814.3266 -7505.9970 305.2016 -9320.3236 -7532.9083 299.1469 -143.8258 -63.2033 30878.0303 -38.5203 14.0045
ENERGY: 900000 1.3633 9.5671 4.0416 0.0000 -10860.6347 1507.2570 0.0000 0.0000 1785.7714 -7552.6342 300.3981 -9338.4057 -7532.2595 299.3764 338.7356 312.0929 30625.4530 -56.1106 -6.1168
ENERGY: 1200000 1.8818 9.4314 5.0337 0.0000 -10920.3930 1531.8019 0.0000 0.0000 1797.0479 -7575.1963 302.2951 -9372.2442 -7541.8375 300.0464 873.2664 920.8587 30084.1897 82.4762 144.6580
ENERGY: 1500000 1.6107 9.7026 5.6623 0.0000 -10756.5621 1398.2335 0.0000 0.0000 1798.3728 -7542.9802 302.5179 -9341.3530 -7543.2490 300.7047 -329.8174 -290.6186 30637.0375 101.7652 157.8967
TCL: Running FEP window  15: Lambda1 0.7000000000000001 Lambda2 0.7500000000000001 [dLambda 0.050000000000000044]
TCL: Setting parameter firsttimestep to 0
TCL: Setting parameter alchLambda to 0.7000000000000001
Info: NONBONDED TABLE R-SQUARED SPACING: 0.0625
Info: NONBONDED TABLE SIZE: 705 POINTS
TCL: Setting parameter alchLambda2 to 0.7500000000000001
Info: NONBONDED TABLE R-SQUARED SPACING: 0.0625
Info: NONBONDED TABLE SIZE: 705 POINTS
TCL: Running for 1500000 steps
ETITLE: TS BOND ANGLE DIHED IMPRP ELECT VDW BOUNDARY MISC KINETIC TOTAL TEMP POTENTIAL TOTALAVG TEMPAVG PRESSURE GPRESSURE VOLUME PRESSAVG GPRESSAVG
ENERGY: 0 1.6107 9.7026 5.6623 0.0000 -10756.5556 1398.1387 0.0000 0.0000 1797.4714 -7543.9698 302.3663 -9341.4413 -7543.9698 302.3663 -360.8027 -283.8185 30637.0375 -360.8027 -283.8185
ENERGY: 300000 3.0365 12.8317 4.0870 0.0000 -10693.4231 1378.6126 0.0000 0.0000 1812.2504 -7482.6050 304.8524 -9294.8554 -7503.3962 304.3104 -486.3427 -437.6420 30795.0692 -340.0063 -273.5956
ENERGY: 600000 3.8938 11.8979 4.1840 0.0000 -10910.3587 1474.6091 0.0000 0.0000 1788.0657 -7627.7083 300.7841 -9415.7740 -7527.4618 301.4102 109.9496 152.1856 30414.5848 10.0472 73.6507
ENERGY: 900000 1.7938 8.5139 4.6808 0.0000 -10924.6496 1586.1731 0.0000 0.0000 1832.4126 -7491.0754 308.2440 -9323.4880 -7526.3001 303.3135 1181.8312 1229.0275 30534.4055 188.8669 250.0645
ENERGY: 1200000 2.5767 15.1283 4.0952 0.0000 -10730.1297 1405.5888 0.0000 0.0000 1791.7377 -7511.0030 301.4018 -9302.7407 -7523.1324 303.0753 -185.2052 -188.7007 30647.1549 172.3614 228.6664
ENERGY: 1500000 6.2362 9.6806 4.7532 0.0000 -10801.8067 1398.6714 0.0000 0.0000 1806.9120 -7575.5533 303.9544 -9382.4652 -7525.7685 303.2117 -785.4069 -675.4819 30858.9759 60.7888 125.9901
TCL: Running FEP window  16: Lambda1 0.7500000000000001 Lambda2 0.8000000000000002 [dLambda 0.050000000000000044]
TCL: Setting parameter firsttimestep to 0
TCL: Setting parameter alchLambda to 0.7500000000000001
Info: NONBONDED TABLE R-SQUARED SPACING: 0.0625
Info: NONBONDED TABLE SIZE: 705 POINTS
TCL: Setting parameter alchLambda2 to 0.8000000000000002
Info: NONBONDED TABLE R-SQUARED SPACING: 0.0625
Info: NONBONDED TABLE SIZE: 705 POINTS
TCL: Running for 1500000 steps
ETITLE: TS BOND ANGLE DIHED IMPRP ELECT VDW BOUNDARY MISC KINETIC TOTAL TEMP POTENTIAL TOTALAVG TEMPAVG PRESSURE GPRESSURE VOLUME PRESSAVG GPRESSAVG
ENERGY: 0 6.2362 9.6806 4.7532 0.0000 -10801.8532 1398.5424 0.0000 0.0000 1806.0327 -7576.6080 303.8065 -9382.6407 -7576.6080 303.8065 -756.7014 -672.8624 30858.9759 -756.7014 -672.8624
ENERGY: 300000 1.5661 7.2356 5.6564 0.0000 -10774.4838 1413.1357 0.0000 0.0000 1759.4411 -7587.4489 295.9689 -9346.8900 -7547.9036 304.4158 -336.0105 -280.4186 30619.1300 -580.8581 -513.1256
ENERGY: 600000 2.0450 8.9982 4.3887 0.0000 -10886.7375 1482.9023 0.0000 0.0000 1818.5735 -7569.8298 305.9160 -9388.4033 -7529.9421 304.1550 390.3812 401.5017 30450.4537 -267.2312 -205.7653
ENERGY: 900000 3.1865 14.5241 4.5540 0.0000 -10953.7129 1617.0417 0.0000 0.0000 1748.9233 -7565.4833 294.1996 -9314.4066 -7546.3714 302.6286 1332.3900 1426.1304 30636.3509 -7.5720 59.6356
ENERGY: 1200000 1.4737 8.2189 4.4691 0.0000 -10758.8023 1457.8273 0.0000 0.0000 1754.0841 -7532.7291 295.0678 -9286.8133 -7543.3919 301.5165 141.2964 176.1601 30739.2705 19.8137 87.1373
ENERGY: 1500000 2.8589 9.7775 4.5717 0.0000 -10935.7173 1519.6259 0.0000 0.0000 1771.1399 -7627.7433 297.9369 -9398.8833 -7541.3992 301.3704 78.8872 124.9489 30927.8808 6.7904 69.8247
TCL: Running FEP window  17: Lambda1 0.8000000000000002 Lambda2 0.8500000000000002 [dLambda 0.050000000000000044]
TCL: Setting parameter firsttimestep to 0
TCL: Setting parameter alchLambda to 0.8000000000000002
Info: NONBONDED TABLE R-SQUARED SPACING: 0.0625
Info: NONBONDED TABLE SIZE: 705 POINTS
TCL: Setting parameter alchLambda2 to 0.8500000000000002
Info: NONBONDED TABLE R-SQUARED SPACING: 0.0625
Info: NONBONDED TABLE SIZE: 705 POINTS
TCL: Running for 1500000 steps
ETITLE: TS BOND ANGLE DIHED IMPRP ELECT VDW BOUNDARY MISC KINETIC TOTAL TEMP POTENTIAL TOTALAVG TEMPAVG PRESSURE GPRESSURE VOLUME PRESSAVG GPRESSAVG
ENERGY: 0 2.8589 9.7775 4.5717 0.0000 -10935.6933 1519.3981 0.0000 0.0000 1770.2939 -7628.7931 297.7946 -9399.0870 -7628.7931 297.7946 39.7648 132.6181 30927.8808 39.7648 132.6181
ENERGY: 300000 1.8811 7.8134 4.2856 0.0000 -10749.7460 1418.4637 0.0000 0.0000 1808.2169 -7509.0853 304.1739 -9317.3022 -7576.4988 299.3194 -344.3281 -229.7636 30899.3929 -319.4896 -254.4951
ENERGY: 600000 1.8271 13.6080 4.3781 0.0000 -10915.3406 1537.2424 0.0000 0.0000 1700.0584 -7658.2266 285.9797 -9358.2850 -7582.2395 298.3794 559.1057 554.7079 30607.5514 -208.1714 -154.3396
ENERGY: 900000 2.3839 12.7151 4.7317 0.0000 -10718.8955 1382.3611 0.0000 0.0000 1760.7696 -7555.9341 296.1924 -9316.7038 -7578.1679 298.8871 -539.1624 -529.7505 31101.6945 -291.5775 -226.0975
ENERGY: 1200000 1.6378 7.7720 4.8704 0.0000 -10901.3412 1540.7676 0.0000 0.0000 1825.9744 -7520.3191 307.1610 -9346.2935 -7573.0015 299.9383 722.1297 773.8296 30657.4521 -263.2142 -199.2592
ENERGY: 1500000 1.9809 10.7719 3.8237 0.0000 -10874.7752 1483.5178 0.0000 0.0000 1696.8953 -7677.7857 285.4476 -9374.6810 -7566.3162 300.0022 200.6068 260.9199 30332.0301 -196.2380 -130.3188
TCL: Running FEP window  18: Lambda1 0.8500000000000002 Lambda2 0.9000000000000002 [dLambda 0.050000000000000044]
TCL: Setting parameter firsttimestep to 0
TCL: Setting parameter alchLambda to 0.8500000000000002
Info: NONBONDED TABLE R-SQUARED SPACING: 0.0625
Info: NONBONDED TABLE SIZE: 705 POINTS
TCL: Setting parameter alchLambda2 to 0.9000000000000002
Info: NONBONDED TABLE R-SQUARED SPACING: 0.0625
Info: NONBONDED TABLE SIZE: 705 POINTS
TCL: Running for 1500000 steps
ETITLE: TS BOND ANGLE DIHED IMPRP ELECT VDW BOUNDARY MISC KINETIC TOTAL TEMP POTENTIAL TOTALAVG TEMPAVG PRESSURE GPRESSURE VOLUME PRESSAVG GPRESSAVG
ENERGY: 0 1.9809 10.7719 3.8237 0.0000 -10874.7755 1483.6942 0.0000 0.0000 1696.0169 -7678.4880 285.2999 -9374.5049 -7678.4880 285.2999 182.4254 273.1298 30332.0301 182.4254 273.1298
ENERGY: 300000 1.9135 9.1964 5.0106 0.0000 -10884.7446 1415.6139 0.0000 0.0000 1784.6466 -7668.3635 300.2089 -9453.0102 -7592.7424 297.3261 -531.3652 -546.4033 30554.3061 -15.7516 37.9662
ENERGY: 600000 4.6670 9.3213 4.8348 0.0000 -10773.8753 1441.6360 0.0000 0.0000 1796.1639 -7517.2522 302.1464 -9313.4162 -7576.6057 299.8402 -216.8850 -158.7625 30826.1178 -149.7509 -92.0808
ENERGY: 900000 1.2918 9.9176 4.5914 0.0000 -10718.4086 1380.4415 0.0000 0.0000 1791.2828 -7530.8834 301.3253 -9322.1663 -7559.5662 300.2142 -171.9423 -160.3720 30319.4618 -188.8765 -136.7882
ENERGY: 1200000 1.7731 13.4334 4.4916 0.0000 -10755.3471 1421.1769 0.0000 0.0000 1787.1696 -7527.3025 300.6333 -9314.4721 -7560.1341 300.4332 -103.6881 -88.4091 30773.5817 -76.7702 -24.3479
ENERGY: 1500000 2.6608 11.1033 4.3540 0.0000 -10795.2274 1441.3619 0.0000 0.0000 1832.8786 -7502.8688 308.3224 -9335.7474 -7551.6977 300.8611 189.9072 240.4062 30328.7026 -5.2304 51.2048
TCL: Running FEP window  19: Lambda1 0.9000000000000002 Lambda2 0.9500000000000003 [dLambda 0.050000000000000044]
TCL: Setting parameter firsttimestep to 0
TCL: Setting parameter alchLambda to 0.9000000000000002
Info: NONBONDED TABLE R-SQUARED SPACING: 0.0625
Info: NONBONDED TABLE SIZE: 705 POINTS
TCL: Setting parameter alchLambda2 to 0.9500000000000003
Info: NONBONDED TABLE R-SQUARED SPACING: 0.0625
Info: NONBONDED TABLE SIZE: 705 POINTS
TCL: Running for 1500000 steps
ETITLE: TS BOND ANGLE DIHED IMPRP ELECT VDW BOUNDARY MISC KINETIC TOTAL TEMP POTENTIAL TOTALAVG TEMPAVG PRESSURE GPRESSURE VOLUME PRESSAVG GPRESSAVG
ENERGY: 0 2.6608 11.1033 4.3540 0.0000 -10795.2210 1440.7275 0.0000 0.0000 1831.9953 -7504.3801 308.1738 -9336.3754 -7504.3801 308.1738 152.7912 242.1980 30328.7026 152.7912 242.1980
ENERGY: 300000 1.1984 9.5546 4.4977 0.0000 -10758.3058 1409.9002 0.0000 0.0000 1775.7465 -7557.4083 298.7118 -9333.1549 -7518.3781 304.4834 -351.3580 -284.4840 30782.0050 -133.0327 -75.7379
ENERGY: 600000 2.2332 7.1265 4.1152 0.0000 -10750.5940 1375.4645 0.0000 0.0000 1807.0558 -7554.5988 303.9785 -9361.6546 -7517.9047 303.5872 -514.5846 -565.3338 30758.3372 -174.5352 -130.0966
ENERGY: 900000 2.0053 16.0719 5.2291 0.0000 -10947.1123 1529.4649 0.0000 0.0000 1797.4791 -7596.8619 302.3676 -9394.3410 -7529.0517 302.9309 374.2719 468.2348 30763.5298 -120.8172 -65.2816
ENERGY: 1200000 2.6013 8.1965 4.5095 0.0000 -10854.6885 1458.4041 0.0000 0.0000 1766.0979 -7614.8792 297.0887 -9380.9772 -7535.6780 302.6002 145.7331 238.5677 30388.1035 -196.1470 -133.9463
ENERGY: 1500000 1.6660 6.6581 4.0956 0.0000 -10808.5166 1473.2898 0.0000 0.0000 1785.4464 -7537.3607 300.3435 -9322.8071 -7528.0409 303.0990 222.1605 293.3831 30754.5137 -118.1737 -53.7042
TCL: Running FEP window  20: Lambda1 0.9500000000000003 Lambda2 1.0    [dLambda 0.04999999999999971]
TCL: Setting parameter firsttimestep to 0
TCL: Setting parameter alchLambda to 0.9500000000000003
Info: NONBONDED TABLE R-SQUARED SPACING: 0.0625
Info: NONBONDED TABLE SIZE: 705 POINTS
TCL: Setting parameter alchLambda2 to 1.0
Info: NONBONDED TABLE R-SQUARED SPACING: 0.0625
Info: NONBONDED TABLE SIZE: 705 POINTS
TCL: Running for 1500000 steps
ETITLE: TS BOND ANGLE DIHED IMPRP ELECT VDW BOUNDARY MISC KINETIC TOTAL TEMP POTENTIAL TOTALAVG TEMPAVG PRESSURE GPRESSURE VOLUME PRESSAVG GPRESSAVG
ENERGY: 0 1.6660 6.6581 4.0956 0.0000 -10808.4957 1473.7095 0.0000 0.0000 1784.5926 -7537.7739 300.1999 -9322.3666 -7537.7739 300.1999 222.6512 317.4361 30754.5137 222.6512 317.4361
ENERGY: 300000 2.6391 6.1227 4.1984 0.0000 -10864.2041 1495.8241 0.0000 0.0000 1732.0708 -7623.3489 291.3648 -9355.4197 -7576.3018 299.1547 202.4487 279.1628 30707.2353 -49.9926 15.7066
ENERGY: 600000 1.0145 9.2754 4.0695 0.0000 -10754.5427 1423.9418 0.0000 0.0000 1805.7157 -7510.5258 303.7531 -9316.2415 -7549.0140 299.6839 93.1450 209.9538 30414.5424 -91.1086 -15.6587
ENERGY: 900000 7.1687 9.1710 4.4888 0.0000 -10869.8207 1493.7495 0.0000 0.0000 1752.6143 -7602.6283 294.8205 -9355.2426 -7554.4023 299.2958 268.2189 282.2889 30560.0878 12.9879 80.4625
ENERGY: 1200000 2.3490 11.9857 4.4224 0.0000 -10856.0821 1464.3392 0.0000 0.0000 1768.2303 -7604.7555 297.4474 -9372.9858 -7567.3748 298.8934 -118.8523 -80.8635 30786.4187 -20.4033 41.7213
ENERGY: 1500000 1.4977 9.2530 4.3841 0.0000 -10746.9568 1393.9339 0.0000 0.0000 1758.7000 -7579.1880 295.8443 -9337.8880 -7563.0918 299.8993 -562.4017 -546.1893 30912.7167 -13.8227 43.3270
TCL: Exiting due to exit command.
