Info: SIMULATION PARAMETERS:
Info: TIMESTEP               2
Info: NUMBER OF STEPS        0
Info: STEPS PER CYCLE        10
Info: PERIODIC CELL BASIS 1  30.8615 0 0
Info: PERIODIC CELL BASIS 2  0 31.2364 0
Info: PERIODIC CELL BASIS 3  0 0 31.5116
Info: PERIODIC CELL CENTER   0 0 0
Info: WRAPPING WATERS AROUND PERIODIC BOUNDARIES ON OUTPUT.
Info: WRAPPING ALL CLUSTERS AROUND PERIODIC BOUNDARIES ON OUTPUT.
Info: FIRST LDB TIMESTEP     50
Info: LAST LDB TIMESTEP     -1
Info: HOM BACKGROUND SCALING 1
Info: PME BACKGROUND SCALING 1
Info: MIN ATOMS PER PATCH    40
Info: EMPTY PATCH LOAD       40 ATOMS
Info: VELOCITY FILE          mobley_8578590_equil.vel
Info: CENTER OF MASS MOVING INITIALLY? NO
Info: DIELECTRIC             1
Info: EXCLUDE                SCALED ONE-FOUR
Info: 1-4 ELECTROSTATICS SCALED BY 0.833333
Info: MODIFIED 1-4 VDW PARAMETERS WILL BE USED
Info: DCD FILENAME           mobley_8578590_prod.dcd
Info: DCD FREQUENCY          100000
Info: DCD FIRST STEP         100000
Info: DCD FILE WILL CONTAIN UNIT CELL DATA
Info: XST FILENAME           mobley_8578590_prod.xst
Info: XST FREQUENCY          100000
Info: NO VELOCITY DCD OUTPUT
Info: NO FORCE DCD OUTPUT
Info: OUTPUT FILENAME        mobley_8578590_prod
Info: BINARY OUTPUT FILES WILL BE USED
Info: RESTART FILENAME       mobley_8578590_prod.restart
Info: RESTART FREQUENCY      100000
Info: BINARY RESTART FILES WILL BE USED
Info: CUTOFF                 9
Info: PAIRLIST DISTANCE      11
Info: PAIRLIST SHRINK RATE   0.01
Info: PAIRLIST GROW RATE     0.01
Info: PAIRLIST TRIGGER       0.3
Info: PAIRLISTS PER CYCLE    2
Info: PAIRLISTS ENABLED
Info: MARGIN                 2
Info: HYDROGEN GROUP CUTOFF  2.5
Info: PATCH DIMENSION        15.5
Info: ENERGY OUTPUT STEPS    100000
Info: ENERGY EVALUATION STEPS    100000
Info: OUTPUT ENERGY PRECISION 4
Info: CROSSTERM ENERGY INCLUDED IN DIHEDRAL
Info: TIMING OUTPUT STEPS    1000000
Info: PRESSURE OUTPUT STEPS  100000
Info: ALCHEMICAL FEP ON
Info: FEP CURRENT LAMBDA VALUE     1
Info: FEP COMPARISON LAMBDA VALUE  0.95
Info: FEP INTRA-ALCHEMICAL NON-BONDED INTERACTIONS WILL BE RETAINED
Info: FEP INTRA-ALCHEMICAL BONDED INTERACTIONS WILL BE RETAINED
Info: FEP VDW SHIFTING COEFFICIENT 5
Info: FEP ELEC. ACTIVE FOR ANNIHILATED PARTICLES BETWEEN LAMBDA = 0 AND LAMBDA = 0.5
Info: FEP ELEC. ACTIVE FOR EXNIHILATED PARTICLES BETWEEN LAMBDA = 0.5 AND LAMBDA = 1
Info: FEP VDW ACTIVE FOR ANNIHILATED PARTICLES BETWEEN LAMBDA = 0 AND LAMBDA = 1
Info: FEP VDW ACTIVE FOR EXNIHILATED PARTICLES BETWEEN LAMBDA = 0 AND LAMBDA = 1
Info: FEP BOND ACTIVE FOR ANNIHILATED PARTICLES BETWEEN LAMBDA = 1 AND LAMBDA = 1
Info: FEP BOND ACTIVE FOR EXNIHILATED PARTICLES BETWEEN LAMBDA = 0 AND LAMBDA = 0
Info: LANGEVIN DYNAMICS ACTIVE
Info: LANGEVIN TEMPERATURE   300
Info: LANGEVIN USING BBK INTEGRATOR
Info: LANGEVIN DAMPING COEFFICIENT IS 1 INVERSE PS
Info: LANGEVIN DYNAMICS APPLIED TO HYDROGENS
Info: LANGEVIN PISTON PRESSURE CONTROL ACTIVE
Info:        TARGET PRESSURE IS 1.01325 BAR
Info:     OSCILLATION PERIOD IS 50 FS
Info:             DECAY TIME IS 25 FS
Info:     PISTON TEMPERATURE IS 300 K
Info:       PRESSURE CONTROL IS GROUP-BASED
Info:    INITIAL STRAIN RATE IS -0.000318926 -0.000318926 -0.000318926
Info:       CELL FLUCTUATION IS ISOTROPIC
Info: PARTICLE MESH EWALD (PME) ACTIVE
Info: PME TOLERANCE               1e-06
Info: PME EWALD COEFFICIENT       0.348832
Info: PME INTERPOLATION ORDER     4
Info: PME GRID DIMENSIONS         32 32 32
Info: PME MAXIMUM GRID SPACING    1
Info: PME CALCULATION WILL BE PERFORMED ON GPU
Info: FULL ELECTROSTATIC EVALUATION FREQUENCY      2
Info: USING VERLET I (r-RESPA) MTS SCHEME.
Info: C1 SPLITTING OF LONG RANGE ELECTROSTATICS
Info: PLACING ATOMS IN PATCHES BY HYDROGEN GROUPS
Info: RIGID BONDS TO HYDROGEN : ALL
Info:         ERROR TOLERANCE : 1e-08
Info:          MAX ITERATIONS : 100
Info: RIGID WATER USING SETTLE ALGORITHM
Info: RANDOM NUMBER SEED     1743523463
Info: USE HYDROGEN BONDS?    NO
Info: Using AMBER format force field!
Info: AMBER PARM FILE        mobley_8578590.prmtop
Info: COORDINATE PDB         mobley_8578590.pdb
Info: Exclusions will be read from PARM file!
Info: SCNB (VDW SCALING)     2
Info: USING ARITHMETIC MEAN TO COMBINE L-J SIGMA PARAMETERS
Info: BINARY COORDINATES     mobley_8578590_equil.coor
Info: SUMMARY OF PARAMETERS:
Info: 5 BONDS
Info: 4 ANGLES
Info:   4 HARMONIC
Info:   0 COSINE-BASED
Info: 1 DIHEDRAL
Info: 0 IMPROPER
Info: 0 CROSSTERM
Info: 0 VDW
Info: 21 VDW_PAIRS
Info: 0 NBTHOLE_PAIRS
Info: To read alchdata from file: mobley_8578590.pdb
Info: To read alchflag data from column: 5
Info: STRUCTURE SUMMARY:
Info: 2962 ATOMS
Info: 2961 BONDS
Info: 15 ANGLES
Info: 12 DIHEDRALS
Info: 0 IMPROPERS
Info: 0 CROSSTERMS
Info: 2988 EXCLUSIONS
Info: 2958 RIGID BONDS
Info: ALCH: 0 ATOMS TO DISAPPEAR IN FINAL STATE
Info: ALCH: 10 ATOMS TO APPEAR IN FINAL STATE
Info: 5928 DEGREES OF FREEDOM
Info: 988 HYDROGEN GROUPS
Info: 4 ATOMS IN LARGEST HYDROGEN GROUP
Info: 988 MIGRATION GROUPS
Info: 4 ATOMS IN LARGEST MIGRATION GROUP
Info: TOTAL MASS = 17805.9 amu
Info: TOTAL CHARGE = 0.00030005 e
Info: MASS DENSITY = 0.973363 g/cm^3
Info: ATOM DENSITY = 0.0975073 atoms/A^3
Info: ADDED 0 IMPLICIT EXCLUSIONS
Info: NONBONDED TABLE R-SQUARED SPACING: 0.0625
Info: NONBONDED TABLE SIZE: 705 POINTS
Info: REMOVING COM VELOCITY 0.0982548 0.118699 -0.130851
Info: Use 3D box decompostion in PME FFT.
Info: Updated CUDA force table with 4096 elements.
Info: Updated CUDA LJ table with 6 x 6 elements.
Info: Found 13 unique exclusion lists needing 20 bytes
TCL: Running for 1500000 steps
ETITLE: TS BOND ANGLE DIHED IMPRP ELECT VDW BOUNDARY MISC KINETIC TOTAL TEMP POTENTIAL TOTALAVG TEMPAVG PRESSURE GPRESSURE VOLUME PRESSAVG GPRESSAVG
ENERGY: 0 1.6102 3.7428 0.8918 0.0000 -10770.4423 1475.3703 0.0000 0.0000 1792.9300 -7495.8972 304.4006 -9288.8272 -7495.8972 304.4006 529.3106 609.4259 30377.2048 529.3106 609.4259
ENERGY: 300000 0.0337 4.9964 0.1960 0.0000 -10883.4452 1561.2337 0.0000 0.0000 1779.1883 -7537.7971 302.0676 -9316.9854 -7551.7758 301.7481 1041.2215 1087.5049 30510.1489 397.5715 434.3061
ENERGY: 600000 0.1182 6.3979 0.8663 0.0000 -10797.8040 1417.7049 0.0000 0.0000 1712.6409 -7660.0758 290.7693 -9372.7167 -7571.8713 301.5007 -341.3326 -254.6316 30338.0849 155.2414 200.4858
ENERGY: 900000 0.5965 4.4231 2.3402 0.0000 -10692.8972 1408.6949 0.0000 0.0000 1779.8021 -7497.0405 302.1718 -9276.8426 -7557.5768 302.5302 -39.4333 90.5451 30409.8180 141.9115 191.5923
ENERGY: 1200000 1.8395 6.7346 0.2648 0.0000 -10612.7727 1326.7251 0.0000 0.0000 1788.6370 -7488.5717 303.6718 -9277.2086 -7557.5447 302.2988 -1002.3704 -910.7395 30647.8827 64.0615 119.3403
ENERGY: 1500000 0.7079 3.0886 0.8403 0.0000 -10865.0456 1425.9892 0.0000 0.0000 1750.8661 -7683.5534 297.2591 -9434.4196 -7554.0680 302.3538 -268.7164 -193.1944 30270.2746 38.3714 101.9739
TCL: Running FEP window   2: Lambda1 0.95   Lambda2 0.8999999999999999 [dLambda -0.050000000000000044]
TCL: Setting parameter firsttimestep to 0
TCL: Setting parameter alchLambda to 0.95
Info: NONBONDED TABLE R-SQUARED SPACING: 0.0625
Info: NONBONDED TABLE SIZE: 705 POINTS
TCL: Setting parameter alchLambda2 to 0.8999999999999999
Info: NONBONDED TABLE R-SQUARED SPACING: 0.0625
Info: NONBONDED TABLE SIZE: 705 POINTS
TCL: Running for 1500000 steps
ETITLE: TS BOND ANGLE DIHED IMPRP ELECT VDW BOUNDARY MISC KINETIC TOTAL TEMP POTENTIAL TOTALAVG TEMPAVG PRESSURE GPRESSURE VOLUME PRESSAVG GPRESSAVG
ENERGY: 0 0.7079 3.0886 0.8403 0.0000 -10862.7578 1425.7751 0.0000 0.0000 1749.9857 -7682.3602 297.1096 -9432.3458 -7682.3602 297.1096 -296.8884 -199.0590 30270.2746 -296.8884 -199.0590
ENERGY: 300000 0.6282 4.8158 0.7617 0.0000 -10763.6258 1468.9529 0.0000 0.0000 1801.1580 -7487.3093 305.7975 -9288.4673 -7592.4378 300.0798 193.2291 276.3126 30712.3525 -64.2195 -1.9337
ENERGY: 600000 1.0139 5.4298 1.8291 0.0000 -10881.9046 1503.7386 0.0000 0.0000 1734.1367 -7635.7567 294.4188 -9369.8933 -7557.3945 301.0623 323.3655 366.7092 30422.9875 -54.4072 2.4304
ENERGY: 900000 0.2130 3.1643 1.1734 0.0000 -10708.7538 1427.3753 0.0000 0.0000 1796.8091 -7480.0187 305.0592 -9276.8278 -7558.7259 300.1481 51.9840 108.7128 30259.3285 -187.9450 -124.5522
ENERGY: 1200000 0.8757 5.3268 0.2006 0.0000 -10829.9840 1485.9875 0.0000 0.0000 1707.4734 -7630.1200 289.8919 -9337.5934 -7570.8658 299.5580 479.0917 532.0729 30263.3275 -100.6256 -32.3007
ENERGY: 1500000 1.1342 4.5626 0.2124 0.0000 -10742.5311 1405.8231 0.0000 0.0000 1857.7295 -7473.0693 315.4022 -9330.7988 -7557.7178 300.5204 -353.6408 -229.2259 30697.4891 -183.2767 -109.1595
TCL: Running FEP window   3: Lambda1 0.8999999999999999 Lambda2 0.8499999999999999 [dLambda -0.050000000000000044]
TCL: Setting parameter firsttimestep to 0
TCL: Setting parameter alchLambda to 0.8999999999999999
Info: NONBONDED TABLE R-SQUARED SPACING: 0.0625
Info: NONBONDED TABLE SIZE: 705 POINTS
TCL: Setting parameter alchLambda2 to 0.8499999999999999
Info: NONBONDED TABLE R-SQUARED SPACING: 0.0625
Info: NONBONDED TABLE SIZE: 705 POINTS
TCL: Running for 1500000 steps
ETITLE: TS BOND ANGLE DIHED IMPRP ELECT VDW BOUNDARY MISC KINETIC TOTAL TEMP POTENTIAL TOTALAVG TEMPAVG PRESSURE GPRESSURE VOLUME PRESSAVG GPRESSAVG
ENERGY: 0 1.1342 4.5626 0.2124 0.0000 -10740.8643 1405.5013 0.0000 0.0000 1856.8470 -7472.6068 315.2523 -9329.4538 -7472.6068 315.2523 -307.9735 -237.9935 30697.4891 -307.9735 -237.9935
ENERGY: 300000 0.0365 2.0544 2.7241 0.0000 -10743.6409 1378.2034 0.0000 0.0000 1800.3993 -7560.2231 305.6687 -9360.6225 -7550.2918 302.8968 -633.1274 -563.8033 30776.5451 -232.2834 -154.0178
ENERGY: 600000 0.2212 2.1607 0.5740 0.0000 -10860.0574 1513.1158 0.0000 0.0000 1788.3446 -7555.6411 303.6221 -9343.9857 -7536.6350 303.7815 846.6907 913.3944 30026.8950 -239.3957 -161.4824
ENERGY: 900000 0.4988 6.2040 0.9287 0.0000 -10631.9394 1314.3136 0.0000 0.0000 1742.0905 -7567.9038 295.7692 -9309.9943 -7539.6476 302.9823 -1077.9229 -1073.7902 30824.5363 -240.5222 -166.8989
ENERGY: 1200000 1.3578 4.7608 1.7344 0.0000 -10694.1835 1370.8608 0.0000 0.0000 1759.7356 -7555.7340 298.7649 -9315.4697 -7537.6512 302.5037 -461.1020 -411.2867 30405.3999 -260.1312 -185.7467
ENERGY: 1500000 0.1350 6.0419 1.9554 0.0000 -10680.9053 1406.2143 0.0000 0.0000 1790.9890 -7475.5698 304.0711 -9266.5588 -7529.9768 302.5506 -191.3877 -134.6646 30803.6220 -162.8781 -94.1776
TCL: Running FEP window   4: Lambda1 0.8499999999999999 Lambda2 0.7999999999999998 [dLambda -0.050000000000000044]
TCL: Setting parameter firsttimestep to 0
TCL: Setting parameter alchLambda to 0.8499999999999999
Info: NONBONDED TABLE R-SQUARED SPACING: 0.0625
Info: NONBONDED TABLE SIZE: 705 POINTS
TCL: Setting parameter alchLambda2 to 0.7999999999999998
Info: NONBONDED TABLE R-SQUARED SPACING: 0.0625
Info: NONBONDED TABLE SIZE: 705 POINTS
TCL: Running for 1500000 steps
ETITLE: TS BOND ANGLE DIHED IMPRP ELECT VDW BOUNDARY MISC KINETIC TOTAL TEMP POTENTIAL TOTALAVG TEMPAVG PRESSURE GPRESSURE VOLUME PRESSAVG GPRESSAVG
ENERGY: 0 0.1350 6.0419 1.9554 0.0000 -10679.0460 1406.2038 0.0000 0.0000 1790.0927 -7474.6173 303.9189 -9264.7100 -7474.6173 303.9189 -213.2143 -137.3322 30803.6220 -213.2143 -137.3322
ENERGY: 300000 0.0459 2.1090 0.4133 0.0000 -10792.2770 1510.4104 0.0000 0.0000 1763.1828 -7516.1155 299.3502 -9279.2983 -7569.0534 296.6830 729.6498 810.4515 30286.6605 171.0769 231.8264
ENERGY: 600000 1.1820 4.3092 0.9105 0.0000 -10708.8521 1389.3602 0.0000 0.0000 1746.5200 -7566.5702 296.5212 -9313.0902 -7550.7776 299.4735 -537.7900 -498.7376 30677.0551 41.2167 96.7715
ENERGY: 900000 1.2191 3.5248 0.2434 0.0000 -10643.6821 1394.4108 0.0000 0.0000 1730.7996 -7513.4843 293.8522 -9244.2839 -7551.7375 298.7646 -234.5580 -147.8138 30634.5251 -22.0423 40.2517
ENERGY: 1200000 0.2290 5.1170 0.2154 0.0000 -10629.8864 1335.5238 0.0000 0.0000 1780.5581 -7508.2431 302.3001 -9288.8012 -7548.9242 298.9105 -763.7966 -745.5700 30873.8579 -130.6038 -74.4391
ENERGY: 1500000 0.1025 8.3995 1.1035 0.0000 -10934.8443 1502.1729 0.0000 0.0000 1749.3332 -7673.7327 296.9988 -9423.0659 -7556.6474 298.1876 272.1441 328.7961 30095.2229 -160.0772 -99.9825
TCL: Running FEP window   5: Lambda1 0.7999999999999998 Lambda2 0.7499999999999998 [dLambda -0.050000000000000044]
TCL: Setting parameter firsttimestep to 0
TCL: Setting parameter alchLambda to 0.7999999999999998
Info: NONBONDED TABLE R-SQUARED SPACING: 0.0625
Info: NONBONDED TABLE SIZE: 705 POINTS
TCL: Setting parameter alchLambda2 to 0.7499999999999998
Info: NONBONDED TABLE R-SQUARED SPACING: 0.0625
Info: NONBONDED TABLE SIZE: 705 POINTS
TCL: Running for 1500000 steps
ETITLE: TS BOND ANGLE DIHED IMPRP ELECT VDW BOUNDARY MISC KINETIC TOTAL TEMP POTENTIAL TOTALAVG TEMPAVG PRESSURE GPRESSURE VOLUME PRESSAVG GPRESSAVG
ENERGY: 0 0.1025 8.3995 1.1035 0.0000 -10933.2736 1501.6503 0.0000 0.0000 1748.4263 -7673.5916 296.8448 -9422.0179 -7673.5916 296.8448 235.7903 317.1339 30095.2229 235.7903 317.1339
ENERGY: 300000 1.1226 4.2308 1.3615 0.0000 -10759.4230 1408.0934 0.0000 0.0000 1767.5411 -7577.0737 300.0901 -9344.6148 -7602.7174 300.7045 -325.4632 -245.6845 30225.7558 136.4384 191.5277
ENERGY: 600000 0.3805 2.3135 0.3062 0.0000 -10820.0555 1439.6266 0.0000 0.0000 1742.6328 -7634.7960 295.8612 -9377.4288 -7592.3599 299.5306 -237.5656 -174.1771 30475.2534 67.5863 115.5527
ENERGY: 900000 0.3664 7.4879 0.7174 0.0000 -10721.4226 1421.7910 0.0000 0.0000 1792.0385 -7499.0214 304.2493 -9291.0599 -7565.4647 300.4938 -90.9117 -26.7311 30457.7604 -11.1863 42.2574
ENERGY: 1200000 1.5107 5.8563 0.2860 0.0000 -10603.4807 1356.5493 0.0000 0.0000 1771.4325 -7467.8458 300.7508 -9239.2783 -7549.5720 301.0058 -534.0967 -480.5883 30941.2163 -124.5017 -68.2152
ENERGY: 1500000 0.4260 3.1210 0.3656 0.0000 -10883.0983 1513.3030 0.0000 0.0000 1699.6710 -7666.2117 288.5673 -9365.8828 -7556.9743 300.8879 268.5032 313.3259 30655.3452 -6.6281 52.4238
TCL: Running FEP window   6: Lambda1 0.7499999999999998 Lambda2 0.6999999999999997 [dLambda -0.050000000000000044]
TCL: Setting parameter firsttimestep to 0
TCL: Setting parameter alchLambda to 0.7499999999999998
Info: NONBONDED TABLE R-SQUARED SPACING: 0.0625
Info: NONBONDED TABLE SIZE: 705 POINTS
TCL: Setting parameter alchLambda2 to 0.6999999999999997
Info: NONBONDED TABLE R-SQUARED SPACING: 0.0625
Info: NONBONDED TABLE SIZE: 705 POINTS
TCL: Running for 1500000 steps
ETITLE: TS BOND ANGLE DIHED IMPRP ELECT VDW BOUNDARY MISC KINETIC TOTAL TEMP POTENTIAL TOTALAVG TEMPAVG PRESSURE GPRESSURE VOLUME PRESSAVG GPRESSAVG
ENERGY: 0 0.4260 3.1210 0.3656 0.0000 -10880.9001 1513.0141 0.0000 0.0000 1698.7328 -7665.2406 288.4080 -9363.9734 -7665.2406 288.4080 231.2369 310.8777 30655.3452 231.2369 310.8777
ENERGY: 300000 0.1791 2.8231 0.2511 0.0000 -10812.9433 1493.5810 0.0000 0.0000 1808.1507 -7507.9583 306.9848 -9316.1090 -7558.1768 300.6731 452.7539 507.2365 30488.9519 6.4355 74.7456
ENERGY: 600000 0.9289 3.6132 0.3795 0.0000 -10833.2819 1465.9704 0.0000 0.0000 1781.6114 -7580.7784 302.4790 -9362.3898 -7546.6037 302.5024 25.6923 62.5895 30415.8492 -2.6435 58.7368
ENERGY: 900000 4.5421 4.5317 0.5169 0.0000 -10834.9489 1518.2905 0.0000 0.0000 1804.9631 -7502.1046 306.4436 -9307.0677 -7546.6704 303.1648 344.9512 464.5735 30816.5946 -18.6700 44.5514
ENERGY: 1200000 0.7345 4.2306 1.0795 0.0000 -10813.2299 1487.7687 0.0000 0.0000 1703.2402 -7616.1764 289.1732 -9319.4166 -7551.6587 301.3890 400.0628 546.5309 30090.2941 -18.9814 52.9957
ENERGY: 1500000 1.3683 6.4139 0.6876 0.0000 -10752.7605 1376.0212 0.0000 0.0000 1778.6717 -7589.5977 301.9799 -9368.2695 -7551.0104 301.1415 -575.4481 -495.3006 30318.0238 -100.9835 -30.6943
TCL: Running FEP window   7: Lambda1 0.6999999999999997 Lambda2 0.6499999999999997 [dLambda -0.050000000000000044]
TCL: Setting parameter firsttimestep to 0
TCL: Setting parameter alchLambda to 0.6999999999999997
Info: NONBONDED TABLE R-SQUARED SPACING: 0.0625
Info: NONBONDED TABLE SIZE: 705 POINTS
TCL: Setting parameter alchLambda2 to 0.6499999999999997
Info: NONBONDED TABLE R-SQUARED SPACING: 0.0625
Info: NONBONDED TABLE SIZE: 705 POINTS
TCL: Running for 1500000 steps
ETITLE: TS BOND ANGLE DIHED IMPRP ELECT VDW BOUNDARY MISC KINETIC TOTAL TEMP POTENTIAL TOTALAVG TEMPAVG PRESSURE GPRESSURE VOLUME PRESSAVG GPRESSAVG
ENERGY: 0 1.3683 6.4139 0.6876 0.0000 -10750.4622 1375.2976 0.0000 0.0000 1777.7920 -7588.9027 301.8305 -9366.6947 -7588.9027 301.8305 -581.5247 -505.9437 30318.0238 -581.5247 -505.9437
ENERGY: 300000 1.1326 5.8041 0.1587 0.0000 -10818.1041 1488.7763 0.0000 0.0000 1762.8173 -7559.4151 299.2881 -9322.2324 -7553.2374 299.1370 350.5346 407.7730 30440.4339 102.7395 166.3572
ENERGY: 600000 0.4206 6.7243 1.2181 0.0000 -10654.5765 1424.1418 0.0000 0.0000 1778.0626 -7444.0091 301.8765 -9222.0717 -7547.7194 297.9356 -196.5122 -77.4532 31080.7439 -108.7853 -25.0970
ENERGY: 900000 1.7697 3.0857 1.2580 0.0000 -10803.9201 1415.0086 0.0000 0.0000 1792.5452 -7590.2530 304.3353 -9382.7982 -7551.5655 298.8340 -164.9034 -156.4199 30214.4486 -127.6773 -60.3981
ENERGY: 1200000 0.4788 4.0538 0.1252 0.0000 -10700.7032 1386.8924 0.0000 0.0000 1741.5357 -7567.6173 295.6750 -9309.1529 -7549.9779 299.3588 -539.0018 -438.3835 30650.5744 -117.2408 -45.7727
ENERGY: 1500000 0.0716 3.5184 0.2572 0.0000 -10808.8860 1421.2706 0.0000 0.0000 1782.0140 -7601.7543 302.5473 -9383.7682 -7558.2224 299.0365 -9.3218 76.4379 29775.6458 -65.2020 10.7857
TCL: Running FEP window   8: Lambda1 0.6499999999999997 Lambda2 0.5999999999999996 [dLambda -0.050000000000000044]
TCL: Setting parameter firsttimestep to 0
TCL: Setting parameter alchLambda to 0.6499999999999997
Info: NONBONDED TABLE R-SQUARED SPACING: 0.0625
Info: NONBONDED TABLE SIZE: 705 POINTS
TCL: Setting parameter alchLambda2 to 0.5999999999999996
Info: NONBONDED TABLE R-SQUARED SPACING: 0.0625
Info: NONBONDED TABLE SIZE: 705 POINTS
TCL: Running for 1500000 steps
ETITLE: TS BOND ANGLE DIHED IMPRP ELECT VDW BOUNDARY MISC KINETIC TOTAL TEMP POTENTIAL TOTALAVG TEMPAVG PRESSURE GPRESSURE VOLUME PRESSAVG GPRESSAVG
ENERGY: 0 0.0716 3.5184 0.2572 0.0000 -10807.6449 1421.3659 0.0000 0.0000 1781.1712 -7601.2606 302.4042 -9382.4318 -7601.2606 302.4042 -17.6169 73.4368 29775.6458 -17.6169 73.4368
ENERGY: 300000 2.0023 8.8250 0.4100 0.0000 -10836.7719 1486.3015 0.0000 0.0000 1767.2439 -7571.9892 300.0397 -9339.2331 -7577.2962 301.6571 265.5785 337.3922 30362.4671 280.1303 359.4277
ENERGY: 600000 1.8416 7.2903 0.3093 0.0000 -10904.0456 1559.2611 0.0000 0.0000 1789.6399 -7545.7033 303.8420 -9335.3432 -7556.8225 302.3192 1175.4583 1260.7549 29785.3394 310.9836 393.0217
ENERGY: 900000 0.5999 5.3296 1.5169 0.0000 -10670.7489 1379.5761 0.0000 0.0000 1795.4493 -7488.2771 304.8283 -9283.7264 -7568.2033 301.1165 -337.3692 -286.6706 30395.5501 163.9641 238.4631
ENERGY: 1200000 1.0406 4.3321 0.3114 0.0000 -10797.3223 1473.5572 0.0000 0.0000 1751.9477 -7566.1333 297.4427 -9318.0810 -7567.3613 300.2943 132.0421 173.7512 30406.5141 18.4599 93.5641
ENERGY: 1500000 0.7190 4.4392 0.6122 0.0000 -10668.1385 1362.0910 0.0000 0.0000 1790.3730 -7509.9041 303.9665 -9300.2771 -7556.9497 300.5301 -727.5059 -621.0342 30694.5053 -23.5634 52.6861
TCL: Running FEP window   9: Lambda1 0.5999999999999996 Lambda2 0.5499999999999996 [dLambda -0.050000000000000044]
TCL: Setting parameter firsttimestep to 0
TCL: Setting parameter alchLambda to 0.5999999999999996
Info: NONBONDED TABLE R-SQUARED SPACING: 0.0625
Info: NONBONDED TABLE SIZE: 705 POINTS
TCL: Setting parameter alchLambda2 to 0.5499999999999996
Info: NONBONDED TABLE R-SQUARED SPACING: 0.0625
Info: NONBONDED TABLE SIZE: 705 POINTS
TCL: Running for 1500000 steps
ETITLE: TS BOND ANGLE DIHED IMPRP ELECT VDW BOUNDARY MISC KINETIC TOTAL TEMP POTENTIAL TOTALAVG TEMPAVG PRESSURE GPRESSURE VOLUME PRESSAVG GPRESSAVG
ENERGY: 0 0.7190 4.4392 0.6122 0.0000 -10666.9067 1361.7611 0.0000 0.0000 1789.5177 -7509.8574 303.8213 -9299.3752 -7509.8574 303.8213 -698.8562 -625.1711 30694.5053 -698.8562 -625.1711
ENERGY: 300000 1.4448 4.5374 0.2233 0.0000 -10799.7604 1476.4499 0.0000 0.0000 1773.8591 -7543.2459 301.1628 -9317.1050 -7534.8240 302.3228 -64.2633 8.8236 30871.9908 9.9709 51.6476
ENERGY: 600000 0.6322 7.7442 2.4210 0.0000 -10915.9439 1520.0236 0.0000 0.0000 1777.9716 -7607.1514 301.8610 -9385.1230 -7558.7303 299.6273 469.6802 525.9404 30103.1355 137.1103 189.6573
ENERGY: 900000 1.3589 6.4580 0.5841 0.0000 -10754.1010 1434.3046 0.0000 0.0000 1691.4599 -7619.9355 287.1732 -9311.3954 -7563.8118 299.7236 -19.7838 48.8093 30355.4777 103.3814 160.1161
ENERGY: 1200000 1.4259 6.1371 0.1350 0.0000 -10693.1887 1466.9451 0.0000 0.0000 1742.6560 -7475.8895 295.8652 -9218.5456 -7560.2461 299.3536 328.1046 360.3627 30655.2354 138.1903 190.2746
ENERGY: 1500000 2.0956 6.5561 0.0824 0.0000 -10688.7884 1382.5912 0.0000 0.0000 1705.7684 -7591.6947 289.6025 -9297.4631 -7561.1727 299.1341 -372.7990 -361.2801 30376.0261 58.0915 111.8859
TCL: Running FEP window  10: Lambda1 0.5499999999999996 Lambda2 0.4999999999999996 [dLambda -0.04999999999999999]
TCL: Setting parameter firsttimestep to 0
TCL: Setting parameter alchLambda to 0.5499999999999996
Info: NONBONDED TABLE R-SQUARED SPACING: 0.0625
Info: NONBONDED TABLE SIZE: 705 POINTS
TCL: Setting parameter alchLambda2 to 0.4999999999999996
Info: NONBONDED TABLE R-SQUARED SPACING: 0.0625
Info: NONBONDED TABLE SIZE: 705 POINTS
TCL: Running for 1500000 steps
ETITLE: TS BOND ANGLE DIHED IMPRP ELECT VDW BOUNDARY MISC KINETIC TOTAL TEMP POTENTIAL TOTALAVG TEMPAVG PRESSURE GPRESSURE VOLUME PRESSAVG GPRESSAVG
ENERGY: 0 2.0956 6.5561 0.0824 0.0000 -10688.1182 1382.6351 0.0000 0.0000 1704.8292 -7591.9199 289.4430 -9296.7491 -7591.9199 289.4430 -447.4563 -367.0801 30376.0261 -447.4563 -367.0801
ENERGY: 300000 1.1361 4.9989 0.6019 0.0000 -10773.9390 1439.3588 0.0000 0.0000 1711.1562 -7616.6871 290.5172 -9327.8433 -7542.8799 299.7457 -491.3074 -365.4639 30829.5427 -353.4319 -294.3157
ENERGY: 600000 0.3705 5.3528 0.5904 0.0000 -10709.8765 1415.7065 0.0000 0.0000 1776.4725 -7511.3837 301.6065 -9287.8562 -7544.3610 301.4103 -294.6604 -117.8865 30618.8263 -203.7371 -131.0791
ENERGY: 900000 1.1880 1.9339 0.2988 0.0000 -10907.2744 1505.1584 0.0000 0.0000 1747.5142 -7651.1812 296.6900 -9398.6954 -7562.7656 300.4036 352.1742 392.2577 30319.5766 -64.4351 -11.1978
ENERGY: 1200000 1.6345 4.0355 0.1939 0.0000 -10804.8197 1391.5124 0.0000 0.0000 1732.3727 -7675.0707 294.1193 -9407.4433 -7573.2670 298.8023 -691.1382 -628.0206 30394.5027 -142.6638 -80.9944
ENERGY: 1500000 1.0289 3.6073 0.0984 0.0000 -10692.8252 1357.9330 0.0000 0.0000 1793.9188 -7536.2387 304.5685 -9330.1575 -7574.5653 299.0134 -768.7644 -718.6681 30205.3463 -158.7077 -100.9676
TCL: Running FEP window  11: Lambda1 0.4999999999999996 Lambda2 0.4499999999999996 [dLambda -0.04999999999999999]
TCL: Setting parameter firsttimestep to 0
TCL: Setting parameter alchLambda to 0.4999999999999996
Info: NONBONDED TABLE R-SQUARED SPACING: 0.0625
Info: NONBONDED TABLE SIZE: 705 POINTS
TCL: Setting parameter alchLambda2 to 0.4499999999999996
Info: NONBONDED TABLE R-SQUARED SPACING: 0.0625
Info: NONBONDED TABLE SIZE: 705 POINTS
TCL: Running for 1500000 steps
ETITLE: TS BOND ANGLE DIHED IMPRP ELECT VDW BOUNDARY MISC KINETIC TOTAL TEMP POTENTIAL TOTALAVG TEMPAVG PRESSURE GPRESSURE VOLUME PRESSAVG GPRESSAVG
ENERGY: 0 1.0289 3.6073 0.0984 0.0000 -10692.0426 1357.5723 0.0000 0.0000 1792.9625 -7536.7732 304.4061 -9329.7357 -7536.7732 304.4061 -802.1016 -721.2990 30205.3463 -802.1016 -721.2990
ENERGY: 300000 1.1469 3.5083 0.2400 0.0000 -10686.8974 1358.9605 0.0000 0.0000 1695.7228 -7627.3189 287.8969 -9323.0416 -7547.2512 299.8676 -1020.6887 -922.3932 30887.1119 -458.6068 -376.4382
ENERGY: 600000 0.8256 7.8536 1.6750 0.0000 -10805.8381 1502.9166 0.0000 0.0000 1788.7753 -7503.7921 303.6952 -9292.5674 -7531.1408 303.9219 641.0326 666.1449 30368.6748 -209.2972 -166.0459
ENERGY: 900000 0.0810 4.2047 0.2912 0.0000 -10866.8796 1534.1021 0.0000 0.0000 1725.5353 -7602.6653 292.9585 -9328.2006 -7548.8404 302.4074 422.1454 499.3554 30711.5595 -254.5927 -203.6827
ENERGY: 1200000 2.4098 1.9952 0.3480 0.0000 -10746.1593 1433.0476 0.0000 0.0000 1822.2338 -7486.1248 309.3758 -9308.3587 -7542.2883 302.7651 -10.1371 39.6520 30422.4092 -223.9830 -169.6632
ENERGY: 1500000 0.0995 3.6797 0.1571 0.0000 -10794.5402 1401.3159 0.0000 0.0000 1791.9455 -7597.3426 304.2335 -9389.2880 -7546.5010 302.6439 -627.7761 -526.0425 30595.7156 -248.3464 -191.8760
TCL: Running FEP window  12: Lambda1 0.4499999999999996 Lambda2 0.39999999999999963 [dLambda -0.04999999999999999]
TCL: Setting parameter firsttimestep to 0
TCL: Setting parameter alchLambda to 0.4499999999999996
Info: NONBONDED TABLE R-SQUARED SPACING: 0.0625
Info: NONBONDED TABLE SIZE: 705 POINTS
TCL: Setting parameter alchLambda2 to 0.39999999999999963
Info: NONBONDED TABLE R-SQUARED SPACING: 0.0625
Info: NONBONDED TABLE SIZE: 705 POINTS
TCL: Running for 1500000 steps
ETITLE: TS BOND ANGLE DIHED IMPRP ELECT VDW BOUNDARY MISC KINETIC TOTAL TEMP POTENTIAL TOTALAVG TEMPAVG PRESSURE GPRESSURE VOLUME PRESSAVG GPRESSAVG
ENERGY: 0 0.0995 3.6797 0.1571 0.0000 -10794.5407 1401.3532 0.0000 0.0000 1791.0779 -7598.1734 304.0862 -9389.2512 -7598.1734 304.0862 -617.9824 -527.7773 30595.7156 -617.9824 -527.7773
ENERGY: 300000 0.0915 5.2256 0.9214 0.0000 -10651.0670 1408.1989 0.0000 0.0000 1771.9137 -7464.7158 300.8325 -9236.6296 -7532.2123 302.5308 76.4556 89.3330 30120.6371 -254.9105 -199.6035
ENERGY: 600000 1.7425 3.6406 1.5972 0.0000 -10761.5032 1477.0464 0.0000 0.0000 1775.4273 -7502.0491 301.4290 -9277.4764 -7509.0307 302.7012 271.5129 327.5544 30388.9351 43.6382 90.5748
ENERGY: 900000 0.1398 3.1932 0.1717 0.0000 -10690.5320 1375.9951 0.0000 0.0000 1736.5149 -7574.5174 294.8226 -9311.0323 -7526.3383 301.7188 -685.2106 -593.0161 30864.1502 -67.9515 -12.5761
ENERGY: 1200000 0.7321 6.8646 0.5205 0.0000 -10836.5713 1496.2657 0.0000 0.0000 1853.4677 -7478.7206 314.6786 -9332.1883 -7533.3025 301.2444 536.8228 574.5808 30147.5447 -58.2208 -7.2314
ENERGY: 1500000 1.8633 4.8209 0.8164 0.0000 -10753.5142 1424.6252 0.0000 0.0000 1737.1560 -7584.2323 294.9314 -9321.3883 -7527.0836 301.9595 -549.8849 -429.2819 30794.2215 -147.4985 -86.1040
TCL: Running FEP window  13: Lambda1 0.39999999999999963 Lambda2 0.34999999999999964 [dLambda -0.04999999999999999]
TCL: Setting parameter firsttimestep to 0
TCL: Setting parameter alchLambda to 0.39999999999999963
Info: NONBONDED TABLE R-SQUARED SPACING: 0.0625
Info: NONBONDED TABLE SIZE: 705 POINTS
TCL: Setting parameter alchLambda2 to 0.34999999999999964
Info: NONBONDED TABLE R-SQUARED SPACING: 0.0625
Info: NONBONDED TABLE SIZE: 705 POINTS
TCL: Running for 1500000 steps
ETITLE: TS BOND ANGLE DIHED IMPRP ELECT VDW BOUNDARY MISC KINETIC TOTAL TEMP POTENTIAL TOTALAVG TEMPAVG PRESSURE GPRESSURE VOLUME PRESSAVG GPRESSAVG
ENERGY: 0 1.8633 4.8209 0.8164 0.0000 -10753.5146 1424.7456 0.0000 0.0000 1736.3081 -7584.9603 294.7874 -9321.2684 -7584.9603 294.7874 -532.3539 -434.5979 30794.2215 -532.3539 -434.5979
ENERGY: 300000 0.2404 2.6682 0.4330 0.0000 -10728.4596 1413.1669 0.0000 0.0000 1747.2672 -7564.6839 296.6481 -9311.9511 -7572.6256 295.2750 -326.2986 -288.6852 30564.5827 -342.6276 -266.7677
ENERGY: 600000 0.2594 7.8215 2.1467 0.0000 -10768.9772 1476.3934 0.0000 0.0000 1760.8976 -7521.4585 298.9622 -9282.3562 -7567.0076 296.2402 562.2154 601.7826 30126.4599 -259.7561 -202.1981
ENERGY: 900000 0.6879 4.9372 0.2940 0.0000 -10773.3923 1450.8683 0.0000 0.0000 1819.7848 -7496.8203 308.9600 -9316.6050 -7552.1632 297.9606 -103.9017 -4.0282 30483.6764 -116.8441 -47.8549
ENERGY: 1200000 0.9683 3.4355 0.2729 0.0000 -10790.7123 1453.4738 0.0000 0.0000 1737.8085 -7594.7533 295.0422 -9332.5618 -7561.5224 297.2060 -98.5757 -91.9845 30658.1946 -58.5630 8.5049
ENERGY: 1500000 0.2599 3.3489 0.6190 0.0000 -10789.3583 1431.4159 0.0000 0.0000 1830.8835 -7522.8311 310.8443 -9353.7146 -7568.5293 298.2651 -312.5723 -184.1560 30469.8463 -86.4949 -13.8245
TCL: Running FEP window  14: Lambda1 0.34999999999999964 Lambda2 0.29999999999999966 [dLambda -0.04999999999999999]
TCL: Setting parameter firsttimestep to 0
TCL: Setting parameter alchLambda to 0.34999999999999964
Info: NONBONDED TABLE R-SQUARED SPACING: 0.0625
Info: NONBONDED TABLE SIZE: 705 POINTS
TCL: Setting parameter alchLambda2 to 0.29999999999999966
Info: NONBONDED TABLE R-SQUARED SPACING: 0.0625
Info: NONBONDED TABLE SIZE: 705 POINTS
TCL: Running for 1500000 steps
ETITLE: TS BOND ANGLE DIHED IMPRP ELECT VDW BOUNDARY MISC KINETIC TOTAL TEMP POTENTIAL TOTALAVG TEMPAVG PRESSURE GPRESSURE VOLUME PRESSAVG GPRESSAVG
ENERGY: 0 0.2599 3.3488 0.6190 0.0000 -10789.3575 1431.8075 0.0000 0.0000 1829.9775 -7523.3447 310.6905 -9353.3222 -7523.3447 310.6905 -279.7746 -186.0241 30469.8463 -279.7746 -186.0241
ENERGY: 300000 1.2641 3.7356 0.2503 0.0000 -10789.4319 1442.7787 0.0000 0.0000 1701.9002 -7639.5030 288.9457 -9341.4032 -7589.0075 301.5070 151.5359 185.0252 30091.3523 -51.9660 38.1552
ENERGY: 600000 0.1320 2.7286 0.3077 0.0000 -10832.0364 1419.4637 0.0000 0.0000 1757.5410 -7651.8634 298.3923 -9409.4044 -7567.6218 303.0190 -549.7853 -423.3185 30609.5463 -177.7374 -97.9321
ENERGY: 900000 0.0209 4.8794 0.3907 0.0000 -10711.6502 1421.1669 0.0000 0.0000 1817.5033 -7467.6891 308.5726 -9285.1924 -7566.5026 302.7158 -237.3297 -170.0669 30753.6220 -192.3066 -116.1057
ENERGY: 1200000 0.5118 3.6343 0.4656 0.0000 -10831.4389 1489.4293 0.0000 0.0000 1781.7383 -7555.6597 302.5005 -9337.3980 -7567.5008 302.5886 384.6525 394.4249 30420.0331 -110.3238 -42.9112
ENERGY: 1500000 0.2497 3.1587 1.7941 0.0000 -10764.7485 1454.0384 0.0000 0.0000 1814.3922 -7491.1153 308.0444 -9305.5075 -7561.1222 302.4543 386.4760 394.4017 30133.4441 -68.4029 -9.7463
TCL: Running FEP window  15: Lambda1 0.29999999999999966 Lambda2 0.24999999999999967 [dLambda -0.04999999999999999]
TCL: Setting parameter firsttimestep to 0
TCL: Setting parameter alchLambda to 0.29999999999999966
Info: NONBONDED TABLE R-SQUARED SPACING: 0.0625
Info: NONBONDED TABLE SIZE: 705 POINTS
TCL: Setting parameter alchLambda2 to 0.24999999999999967
Info: NONBONDED TABLE R-SQUARED SPACING: 0.0625
Info: NONBONDED TABLE SIZE: 705 POINTS
TCL: Running for 1500000 steps
ETITLE: TS BOND ANGLE DIHED IMPRP ELECT VDW BOUNDARY MISC KINETIC TOTAL TEMP POTENTIAL TOTALAVG TEMPAVG PRESSURE GPRESSURE VOLUME PRESSAVG GPRESSAVG
ENERGY: 0 0.2497 3.1587 1.7941 0.0000 -10764.7480 1454.3901 0.0000 0.0000 1813.5325 -7491.6228 307.8985 -9305.1552 -7491.6228 307.8985 314.6268 394.4221 30133.4441 314.6268 394.4221
ENERGY: 300000 0.2956 4.5446 0.5341 0.0000 -10800.8364 1468.1121 0.0000 0.0000 1738.7052 -7588.6448 295.1944 -9327.3500 -7549.6675 302.0904 -17.0220 44.6188 30537.1116 69.7336 112.2635
ENERGY: 600000 0.8112 1.2860 1.3651 0.0000 -10983.3728 1560.7469 0.0000 0.0000 1842.7162 -7576.4472 312.8532 -9419.1634 -7546.0068 303.0119 812.2393 882.1143 30139.6862 113.5425 169.7897
ENERGY: 900000 2.9081 5.4762 0.8772 0.0000 -10691.2664 1399.6783 0.0000 0.0000 1739.2521 -7543.0745 295.2873 -9282.3266 -7546.4548 301.8765 -148.3348 -121.3306 30334.2769 34.0990 99.6727
ENERGY: 1200000 0.3840 5.5737 0.4215 0.0000 -10713.0451 1448.8234 0.0000 0.0000 1800.0138 -7457.8285 305.6033 -9257.8424 -7551.5394 301.4458 153.5858 299.9511 30208.7676 1.4153 70.4771
ENERGY: 1500000 2.3279 3.8219 0.7379 0.0000 -10716.7581 1432.9887 0.0000 0.0000 1743.0428 -7533.8389 295.9309 -9276.8817 -7542.7898 301.6254 424.0176 507.4673 29673.2222 8.1114 79.7802
TCL: Running FEP window  16: Lambda1 0.24999999999999967 Lambda2 0.19999999999999968 [dLambda -0.04999999999999999]
TCL: Setting parameter firsttimestep to 0
TCL: Setting parameter alchLambda to 0.24999999999999967
Info: NONBONDED TABLE R-SQUARED SPACING: 0.0625
Info: NONBONDED TABLE SIZE: 705 POINTS
TCL: Setting parameter alchLambda2 to 0.19999999999999968
Info: NONBONDED TABLE R-SQUARED SPACING: 0.0625
Info: NONBONDED TABLE SIZE: 705 POINTS
TCL: Running for 1500000 steps
ETITLE: TS BOND ANGLE DIHED IMPRP ELECT VDW BOUNDARY MISC KINETIC TOTAL TEMP POTENTIAL TOTALAVG TEMPAVG PRESSURE GPRESSURE VOLUME PRESSAVG GPRESSAVG
ENERGY: 0 2.3279 3.8219 0.7379 0.0000 -10716.7566 1432.8059 0.0000 0.0000 1742.1420 -7534.9211 295.7779 -9277.0630 -7534.9211 295.7779 415.8591 504.4936 29673.2222 415.8591 504.4936
ENERGY: 300000 1.5000 3.8472 0.2455 0.0000 -10828.4600 1524.3323 0.0000 0.0000 1755.0900 -7543.4449 297.9762 -9298.5349 -7558.2024 296.9779 924.3078 907.4785 30072.9374 402.6516 430.2790
ENERGY: 600000 0.1107 6.0867 0.3123 0.0000 -10908.4845 1435.9658 0.0000 0.0000 1856.5169 -7609.4922 315.1963 -9466.0090 -7580.1842 300.9744 -416.8133 -399.7529 30309.2887 95.4072 122.9541
ENERGY: 900000 0.1481 3.8270 0.7978 0.0000 -10564.3633 1312.2841 0.0000 0.0000 1756.4012 -7490.9051 298.1988 -9247.3063 -7590.6912 299.7333 -975.2266 -920.3383 30881.7584 51.6573 94.1497
ENERGY: 1200000 0.3298 4.9732 0.5508 0.0000 -10683.5999 1439.9156 0.0000 0.0000 1794.5532 -7443.2773 304.6762 -9237.8305 -7565.8165 300.3913 261.0618 316.1815 30325.7889 68.0598 112.1174
ENERGY: 1500000 0.7352 4.0549 0.3284 0.0000 -10712.4061 1411.9310 0.0000 0.0000 1751.5873 -7543.7693 297.3815 -9295.3566 -7562.9302 299.6967 -447.0721 -331.1245 30581.8222 64.7762 121.9503
TCL: Running FEP window  17: Lambda1 0.19999999999999968 Lambda2 0.1499999999999997 [dLambda -0.04999999999999999]
TCL: Setting parameter firsttimestep to 0
TCL: Setting parameter alchLambda to 0.19999999999999968
Info: NONBONDED TABLE R-SQUARED SPACING: 0.0625
Info: NONBONDED TABLE SIZE: 705 POINTS
TCL: Setting parameter alchLambda2 to 0.1499999999999997
Info: NONBONDED TABLE R-SQUARED SPACING: 0.0625
Info: NONBONDED TABLE SIZE: 705 POINTS
TCL: Running for 1500000 steps
ETITLE: TS BOND ANGLE DIHED IMPRP ELECT VDW BOUNDARY MISC KINETIC TOTAL TEMP POTENTIAL TOTALAVG TEMPAVG PRESSURE GPRESSURE VOLUME PRESSAVG GPRESSAVG
ENERGY: 0 0.7352 4.0549 0.3284 0.0000 -10712.4052 1411.4257 0.0000 0.0000 1750.6671 -7545.1940 297.2253 -9295.8610 -7545.1940 297.2253 -427.0900 -338.1748 30581.8222 -427.0900 -338.1748
ENERGY: 300000 0.1390 3.6044 0.4676 0.0000 -10842.8316 1542.7741 0.0000 0.0000 1751.3960 -7544.4504 297.3490 -9295.8464 -7538.2390 300.4967 707.7117 799.6949 30427.0457 121.7891 184.3031
ENERGY: 600000 0.9220 5.6087 2.5304 0.0000 -10817.6139 1399.3176 0.0000 0.0000 1790.6727 -7618.5625 304.0174 -9409.2351 -7548.2979 300.5594 -495.6845 -474.4842 30514.7803 114.1954 171.9730
ENERGY: 900000 0.4785 4.6529 0.7862 0.0000 -10741.0103 1390.9616 0.0000 0.0000 1758.2651 -7585.8658 298.5153 -9344.1309 -7550.3946 300.9768 -626.4487 -566.8050 30732.6758 51.3166 111.5655
ENERGY: 1200000 0.2718 3.4403 0.7317 0.0000 -10685.1254 1411.2677 0.0000 0.0000 1748.5415 -7520.8722 296.8644 -9269.4138 -7547.7326 300.2485 -218.9974 -128.7206 30356.3377 123.6080 185.4498
ENERGY: 1500000 0.5803 2.0422 0.2468 0.0000 -10714.5871 1422.1598 0.0000 0.0000 1818.8804 -7470.6776 308.8064 -9289.5581 -7551.5108 299.8390 -362.9140 -251.8820 30992.7762 12.9260 75.8428
TCL: Running FEP window  18: Lambda1 0.1499999999999997 Lambda2 0.09999999999999969 [dLambda -0.05 ]
TCL: Setting parameter firsttimestep to 0
TCL: Setting parameter alchLambda to 0.1499999999999997
Info: NONBONDED TABLE R-SQUARED SPACING: 0.0625
Info: NONBONDED TABLE SIZE: 705 POINTS
TCL: Setting parameter alchLambda2 to 0.09999999999999969
Info: NONBONDED TABLE R-SQUARED SPACING: 0.0625
Info: NONBONDED TABLE SIZE: 705 POINTS
TCL: Running for 1500000 steps
ETITLE: TS BOND ANGLE DIHED IMPRP ELECT VDW BOUNDARY MISC KINETIC TOTAL TEMP POTENTIAL TOTALAVG TEMPAVG PRESSURE GPRESSURE VOLUME PRESSAVG GPRESSAVG
ENERGY: 0 0.5803 2.0422 0.2468 0.0000 -10714.5862 1422.2581 0.0000 0.0000 1818.0105 -7471.4483 308.6587 -9289.4588 -7471.4483 308.6587 -343.0991 -253.2512 30992.7762 -343.0991 -253.2512
ENERGY: 300000 1.6470 5.1717 0.2655 0.0000 -10669.4185 1486.1464 0.0000 0.0000 1800.8453 -7375.3426 305.7445 -9176.1879 -7472.6503 304.1294 955.8085 982.2144 30257.1147 541.4770 566.3460
ENERGY: 600000 0.6611 2.8239 1.0516 0.0000 -10619.4850 1395.4234 0.0000 0.0000 1767.5745 -7451.9506 300.0958 -9219.5250 -7501.4506 302.2354 -128.7336 -107.4076 30403.0650 264.9224 300.4760
ENERGY: 900000 0.3024 5.7828 0.4040 0.0000 -10882.1192 1564.2085 0.0000 0.0000 1761.0807 -7550.3409 298.9933 -9311.4216 -7513.3636 302.0203 971.0881 989.7671 30280.1154 314.5353 347.2009
ENERGY: 1200000 0.3649 4.6441 1.1606 0.0000 -10809.1314 1520.0059 0.0000 0.0000 1808.7663 -7474.1897 307.0893 -9282.9560 -7509.0738 302.9564 397.6913 456.8183 30787.0656 246.4438 293.8683
ENERGY: 1500000 0.2166 5.7821 1.8963 0.0000 -10561.2725 1286.2597 0.0000 0.0000 1771.9327 -7495.1852 300.8357 -9267.1179 -7511.3898 303.0807 -1356.9145 -1256.8481 30936.5484 183.4339 234.8408
TCL: Running FEP window  19: Lambda1 0.09999999999999969 Lambda2 0.049999999999999684 [dLambda -0.05 ]
TCL: Setting parameter firsttimestep to 0
TCL: Setting parameter alchLambda to 0.09999999999999969
Info: NONBONDED TABLE R-SQUARED SPACING: 0.0625
Info: NONBONDED TABLE SIZE: 705 POINTS
TCL: Setting parameter alchLambda2 to 0.049999999999999684
Info: NONBONDED TABLE R-SQUARED SPACING: 0.0625
Info: NONBONDED TABLE SIZE: 705 POINTS
TCL: Running for 1500000 steps
ETITLE: TS BOND ANGLE DIHED IMPRP ELECT VDW BOUNDARY MISC KINETIC TOTAL TEMP POTENTIAL TOTALAVG TEMPAVG PRESSURE GPRESSURE VOLUME PRESSAVG GPRESSAVG
ENERGY: 0 0.2166 5.7821 1.8963 0.0000 -10561.2713 1285.6207 0.0000 0.0000 1771.0479 -7496.7078 300.6855 -9267.7557 -7496.7078 300.6855 -1336.9886 -1262.9151 30936.5484 -1336.9886 -1262.9151
ENERGY: 300000 0.0539 4.0483 0.1915 0.0000 -10807.7779 1456.4094 0.0000 0.0000 1730.5656 -7616.5093 293.8125 -9347.0748 -7548.4316 297.6333 -381.9055 -288.3848 31012.6428 -781.0742 -705.6667
ENERGY: 600000 0.4341 4.4034 1.1465 0.0000 -10787.7920 1492.7353 0.0000 0.0000 1768.9197 -7520.1531 300.3242 -9289.0727 -7544.8459 297.5661 559.4791 586.1943 30362.7418 -321.9386 -255.5595
ENERGY: 900000 0.9628 3.1317 1.1924 0.0000 -10571.6553 1327.9763 0.0000 0.0000 1804.4876 -7433.9044 306.3628 -9238.3921 -7529.3213 299.3489 -752.4263 -645.9363 30779.0646 -272.4300 -204.9889
ENERGY: 1200000 1.7047 5.9144 0.5558 0.0000 -10778.4680 1458.3287 0.0000 0.0000 1764.2363 -7547.7280 299.5291 -9311.9643 -7538.1411 299.2575 366.2891 434.3764 30039.9500 -222.8864 -158.9462
ENERGY: 1500000 0.6637 2.0156 1.5514 0.0000 -10760.7937 1429.6744 0.0000 0.0000 1838.1855 -7488.7031 312.0840 -9326.8886 -7530.3621 301.0563 -151.5308 -56.7789 30420.4119 -233.0615 -166.7438
TCL: Running FEP window  20: Lambda1 0.049999999999999684 Lambda2 0.0    [dLambda -0.049999999999999684]
TCL: Setting parameter firsttimestep to 0
TCL: Setting parameter alchLambda to 0.049999999999999684
Info: NONBONDED TABLE R-SQUARED SPACING: 0.0625
Info: NONBONDED TABLE SIZE: 705 POINTS
TCL: Setting parameter alchLambda2 to 0.0
Info: NONBONDED TABLE R-SQUARED SPACING: 0.0625
Info: NONBONDED TABLE SIZE: 705 POINTS
TCL: Running for 1500000 steps
ETITLE: TS BOND ANGLE DIHED IMPRP ELECT VDW BOUNDARY MISC KINETIC TOTAL TEMP POTENTIAL TOTALAVG TEMPAVG PRESSURE GPRESSURE VOLUME PRESSAVG GPRESSAVG
ENERGY: 0 0.6637 2.0156 1.5514 0.0000 -10760.7936 1429.7378 0.0000 0.0000 1837.2688 -7489.5562 311.9284 -9326.8250 -7489.5562 311.9284 -152.8696 -60.8783 30420.4119 -152.8696 -60.8783
ENERGY: 300000 0.2031 5.2209 0.3559 0.0000 -10766.6959 1416.1847 0.0000 0.0000 1788.0129 -7556.7184 303.5658 -9344.7313 -7555.8655 303.1154 -404.8715 -419.2897 30557.1803 -11.7268 44.5906
ENERGY: 600000 0.1953 1.9228 0.1390 0.0000 -10851.4887 1517.4887 0.0000 0.0000 1760.3965 -7571.3463 298.8771 -9331.7428 -7555.0362 300.8740 582.1954 611.8295 30020.3400 175.9153 235.5844
ENERGY: 900000 0.4509 3.5346 0.1997 0.0000 -10730.5582 1464.2500 0.0000 0.0000 1771.1799 -7490.9432 300.7079 -9262.1231 -7549.3098 300.8130 420.1102 430.3251 30152.5759 113.0148 167.0052
ENERGY: 1200000 0.9600 3.3351 1.3768 0.0000 -10641.6217 1388.1729 0.0000 0.0000 1758.3298 -7489.4470 298.5263 -9247.7769 -7539.1675 301.0460 -305.2661 -290.7125 30346.9148 49.1921 106.0716
ENERGY: 1500000 0.3928 3.3058 0.5858 0.0000 -10680.4649 1425.6185 0.0000 0.0000 1791.0278 -7459.5342 304.0777 -9250.5620 -7528.0666 301.7184 -127.0002 -62.8782 30716.3059 17.2337 76.9786
TCL: Exiting due to exit command.
