Info: SIMULATION PARAMETERS:
Info: TIMESTEP               2
Info: NUMBER OF STEPS        0
Info: STEPS PER CYCLE        10
Info: PERIODIC CELL BASIS 1  32.1405 0 0
Info: PERIODIC CELL BASIS 2  0 30.3501 0
Info: PERIODIC CELL BASIS 3  0 0 32.0678
Info: PERIODIC CELL CENTER   0 0 0
Info: WRAPPING WATERS AROUND PERIODIC BOUNDARIES ON OUTPUT.
Info: WRAPPING ALL CLUSTERS AROUND PERIODIC BOUNDARIES ON OUTPUT.
Info: FIRST LDB TIMESTEP     50
Info: LAST LDB TIMESTEP     -1
Info: HOM BACKGROUND SCALING 1
Info: PME BACKGROUND SCALING 1
Info: MIN ATOMS PER PATCH    40
Info: EMPTY PATCH LOAD       40 ATOMS
Info: VELOCITY FILE          mobley_8723116_equil.vel
Info: CENTER OF MASS MOVING INITIALLY? NO
Info: DIELECTRIC             1
Info: EXCLUDE                SCALED ONE-FOUR
Info: 1-4 ELECTROSTATICS SCALED BY 0.833333
Info: MODIFIED 1-4 VDW PARAMETERS WILL BE USED
Info: DCD FILENAME           mobley_8723116_prod.dcd
Info: DCD FREQUENCY          100000
Info: DCD FIRST STEP         100000
Info: DCD FILE WILL CONTAIN UNIT CELL DATA
Info: XST FILENAME           mobley_8723116_prod.xst
Info: XST FREQUENCY          100000
Info: NO VELOCITY DCD OUTPUT
Info: NO FORCE DCD OUTPUT
Info: OUTPUT FILENAME        mobley_8723116_prod
Info: BINARY OUTPUT FILES WILL BE USED
Info: RESTART FILENAME       mobley_8723116_prod.restart
Info: RESTART FREQUENCY      100000
Info: BINARY RESTART FILES WILL BE USED
Info: CUTOFF                 9
Info: PAIRLIST DISTANCE      11
Info: PAIRLIST SHRINK RATE   0.01
Info: PAIRLIST GROW RATE     0.01
Info: PAIRLIST TRIGGER       0.3
Info: PAIRLISTS PER CYCLE    2
Info: PAIRLISTS ENABLED
Info: MARGIN                 2
Info: HYDROGEN GROUP CUTOFF  2.5
Info: PATCH DIMENSION        15.5
Info: ENERGY OUTPUT STEPS    100000
Info: ENERGY EVALUATION STEPS    100000
Info: OUTPUT ENERGY PRECISION 4
Info: CROSSTERM ENERGY INCLUDED IN DIHEDRAL
Info: TIMING OUTPUT STEPS    1000000
Info: PRESSURE OUTPUT STEPS  100000
Info: ALCHEMICAL FEP ON
Info: FEP CURRENT LAMBDA VALUE     0
Info: FEP COMPARISON LAMBDA VALUE  0.05
Info: FEP INTRA-ALCHEMICAL NON-BONDED INTERACTIONS WILL BE RETAINED
Info: FEP INTRA-ALCHEMICAL BONDED INTERACTIONS WILL BE RETAINED
Info: FEP VDW SHIFTING COEFFICIENT 5
Info: FEP ELEC. ACTIVE FOR ANNIHILATED PARTICLES BETWEEN LAMBDA = 0 AND LAMBDA = 0.5
Info: FEP ELEC. ACTIVE FOR EXNIHILATED PARTICLES BETWEEN LAMBDA = 0.5 AND LAMBDA = 1
Info: FEP VDW ACTIVE FOR ANNIHILATED PARTICLES BETWEEN LAMBDA = 0 AND LAMBDA = 1
Info: FEP VDW ACTIVE FOR EXNIHILATED PARTICLES BETWEEN LAMBDA = 0 AND LAMBDA = 1
Info: FEP BOND ACTIVE FOR ANNIHILATED PARTICLES BETWEEN LAMBDA = 1 AND LAMBDA = 1
Info: FEP BOND ACTIVE FOR EXNIHILATED PARTICLES BETWEEN LAMBDA = 0 AND LAMBDA = 0
Info: LANGEVIN DYNAMICS ACTIVE
Info: LANGEVIN TEMPERATURE   300
Info: LANGEVIN USING BBK INTEGRATOR
Info: LANGEVIN DAMPING COEFFICIENT IS 1 INVERSE PS
Info: LANGEVIN DYNAMICS APPLIED TO HYDROGENS
Info: LANGEVIN PISTON PRESSURE CONTROL ACTIVE
Info:        TARGET PRESSURE IS 1.01325 BAR
Info:     OSCILLATION PERIOD IS 50 FS
Info:             DECAY TIME IS 25 FS
Info:     PISTON TEMPERATURE IS 300 K
Info:       PRESSURE CONTROL IS GROUP-BASED
Info:    INITIAL STRAIN RATE IS 0.000145527 0.000145527 0.000145527
Info:       CELL FLUCTUATION IS ISOTROPIC
Info: PARTICLE MESH EWALD (PME) ACTIVE
Info: PME TOLERANCE               1e-06
Info: PME EWALD COEFFICIENT       0.348832
Info: PME INTERPOLATION ORDER     4
Info: PME GRID DIMENSIONS         36 32 36
Info: PME MAXIMUM GRID SPACING    1
Info: PME CALCULATION WILL BE PERFORMED ON GPU
Info: FULL ELECTROSTATIC EVALUATION FREQUENCY      2
Info: USING VERLET I (r-RESPA) MTS SCHEME.
Info: C1 SPLITTING OF LONG RANGE ELECTROSTATICS
Info: PLACING ATOMS IN PATCHES BY HYDROGEN GROUPS
Info: RIGID BONDS TO HYDROGEN : ALL
Info:         ERROR TOLERANCE : 1e-08
Info:          MAX ITERATIONS : 100
Info: RIGID WATER USING SETTLE ALGORITHM
Info: RANDOM NUMBER SEED     1743569884
Info: USE HYDROGEN BONDS?    NO
Info: Using AMBER format force field!
Info: AMBER PARM FILE        mobley_8723116.prmtop
Info: COORDINATE PDB         mobley_8723116.pdb
Info: Exclusions will be read from PARM file!
Info: SCNB (VDW SCALING)     2
Info: USING ARITHMETIC MEAN TO COMBINE L-J SIGMA PARAMETERS
Info: BINARY COORDINATES     mobley_8723116_equil.coor
Info: SUMMARY OF PARAMETERS:
Info: 7 BONDS
Info: 6 ANGLES
Info:   6 HARMONIC
Info:   0 COSINE-BASED
Info: 3 DIHEDRAL
Info: 0 IMPROPER
Info: 0 CROSSTERM
Info: 0 VDW
Info: 28 VDW_PAIRS
Info: 0 NBTHOLE_PAIRS
Info: To read alchdata from file: mobley_8723116.pdb
Info: To read alchflag data from column: 5
Info: STRUCTURE SUMMARY:
Info: 2987 ATOMS
Info: 2987 BONDS
Info: 21 ANGLES
Info: 35 DIHEDRALS
Info: 0 IMPROPERS
Info: 0 CROSSTERMS
Info: 3033 EXCLUSIONS
Info: 2979 RIGID BONDS
Info: ALCH: 0 ATOMS TO DISAPPEAR IN FINAL STATE
Info: ALCH: 14 ATOMS TO APPEAR IN FINAL STATE
Info: 5982 DEGREES OF FREEDOM
Info: 999 HYDROGEN GROUPS
Info: 3 ATOMS IN LARGEST HYDROGEN GROUP
Info: 999 MIGRATION GROUPS
Info: 3 ATOMS IN LARGEST MIGRATION GROUP
Info: TOTAL MASS = 17981.4 amu
Info: TOTAL CHARGE = -2.6077e-08 e
Info: MASS DENSITY = 0.954555 g/cm^3
Info: ATOM DENSITY = 0.0954889 atoms/A^3
Info: ADDED 0 IMPLICIT EXCLUSIONS
Info: NONBONDED TABLE R-SQUARED SPACING: 0.0625
Info: NONBONDED TABLE SIZE: 705 POINTS
Info: REMOVING COM VELOCITY 0.0342425 -0.0799911 -0.077327
Info: Use 3D box decompostion in PME FFT.
Info: Updated CUDA force table with 4096 elements.
Info: Updated CUDA LJ table with 7 x 7 elements.
Info: Found 16 unique exclusion lists needing 32 bytes
TCL: Running for 1500000 steps
ETITLE: TS BOND ANGLE DIHED IMPRP ELECT VDW BOUNDARY MISC KINETIC TOTAL TEMP POTENTIAL TOTALAVG TEMPAVG PRESSURE GPRESSURE VOLUME PRESSAVG GPRESSAVG
ENERGY: 0 1.2955 4.6017 4.1861 0.0000 -10762.2366 1459.7438 0.0000 0.0000 1768.8929 -7523.5167 297.6086 -9292.4096 -7523.5167 297.6086 108.9709 187.8815 31281.1322 108.9709 187.8815
ENERGY: 300000 1.2568 2.6474 2.5141 0.0000 -10887.4715 1506.7542 0.0000 0.0000 1779.7310 -7594.5681 299.4321 -9374.2990 -7596.9545 297.2265 357.7926 397.6129 30646.5565 17.5035 74.7350
ENERGY: 600000 2.1061 1.7355 3.5669 0.0000 -10899.4821 1464.4481 0.0000 0.0000 1747.7917 -7679.8338 294.0584 -9427.6256 -7635.7246 296.5137 9.0925 13.9058 30164.7959 -0.1860 65.8093
ENERGY: 900000 1.8880 2.4777 6.3607 0.0000 -10977.7068 1550.3105 0.0000 0.0000 1754.6043 -7662.0656 295.2046 -9416.6698 -7628.7528 297.2947 670.8564 809.7979 30300.3291 18.8359 93.5173
ENERGY: 1200000 2.2366 6.2160 5.3590 0.0000 -11003.2326 1588.5012 0.0000 0.0000 1756.9297 -7643.9901 295.5959 -9400.9198 -7633.0509 296.3708 1009.1268 1048.9017 30131.3931 134.1830 201.6315
ENERGY: 1500000 3.3466 1.7906 4.7036 0.0000 -10734.0458 1354.8601 0.0000 0.0000 1775.8239 -7593.5210 298.7747 -9369.3449 -7631.7249 297.2502 -1235.2372 -1177.9981 31440.0855 -11.7469 55.9951
TCL: Running FEP window   2: Lambda1 0.05   Lambda2 0.1    [dLambda 0.05  ]
TCL: Setting parameter firsttimestep to 0
TCL: Setting parameter alchLambda to 0.05
Info: NONBONDED TABLE R-SQUARED SPACING: 0.0625
Info: NONBONDED TABLE SIZE: 705 POINTS
TCL: Setting parameter alchLambda2 to 0.1
Info: NONBONDED TABLE R-SQUARED SPACING: 0.0625
Info: NONBONDED TABLE SIZE: 705 POINTS
TCL: Running for 1500000 steps
ETITLE: TS BOND ANGLE DIHED IMPRP ELECT VDW BOUNDARY MISC KINETIC TOTAL TEMP POTENTIAL TOTALAVG TEMPAVG PRESSURE GPRESSURE VOLUME PRESSAVG GPRESSAVG
ENERGY: 0 3.3466 1.7906 4.7036 0.0000 -10734.0456 1357.4261 0.0000 0.0000 1774.9339 -7591.8447 298.6250 -9366.7786 -7591.8447 298.6250 -1255.5728 -1171.2797 31440.0855 -1255.5728 -1171.2797
ENERGY: 300000 1.0699 4.0752 3.1155 0.0000 -10973.4147 1563.3245 0.0000 0.0000 1859.3897 -7542.4399 312.8343 -9401.8296 -7602.4394 301.9857 827.0744 885.6924 30422.7972 -59.1043 22.5164
ENERGY: 600000 1.9285 3.1428 3.7979 0.0000 -10886.7143 1464.9816 0.0000 0.0000 1782.1366 -7630.7269 299.8368 -9412.8636 -7623.6140 299.8338 62.1175 98.4108 30500.6088 -38.9541 42.1549
ENERGY: 900000 2.6222 3.8535 3.1964 0.0000 -10856.6144 1515.7661 0.0000 0.0000 1771.0533 -7560.1230 297.9721 -9331.1763 -7602.3580 299.7328 723.3061 820.5729 30437.1677 31.9553 115.3648
ENERGY: 1200000 1.9719 5.9123 2.9904 0.0000 -10971.7832 1519.7125 0.0000 0.0000 1810.8858 -7630.3103 304.6737 -9441.1961 -7610.9593 299.8711 521.9820 619.3475 30192.3414 37.1033 127.7721
ENERGY: 1500000 3.1843 3.7157 5.5112 0.0000 -10894.4265 1451.6287 0.0000 0.0000 1775.0199 -7655.3668 298.6395 -9430.3866 -7613.9052 298.9274 -243.6000 -223.1817 30720.5074 -31.5532 59.7004
TCL: Running FEP window   3: Lambda1 0.1    Lambda2 0.15000000000000002 [dLambda 0.05000000000000002]
TCL: Setting parameter firsttimestep to 0
TCL: Setting parameter alchLambda to 0.1
Info: NONBONDED TABLE R-SQUARED SPACING: 0.0625
Info: NONBONDED TABLE SIZE: 705 POINTS
TCL: Setting parameter alchLambda2 to 0.15000000000000002
Info: NONBONDED TABLE R-SQUARED SPACING: 0.0625
Info: NONBONDED TABLE SIZE: 705 POINTS
TCL: Running for 1500000 steps
ETITLE: TS BOND ANGLE DIHED IMPRP ELECT VDW BOUNDARY MISC KINETIC TOTAL TEMP POTENTIAL TOTALAVG TEMPAVG PRESSURE GPRESSURE VOLUME PRESSAVG GPRESSAVG
ENERGY: 0 3.1843 3.7157 5.5113 0.0000 -10894.4267 1453.8355 0.0000 0.0000 1774.1068 -7654.0732 298.4858 -9428.1800 -7654.0732 298.4858 -285.8482 -214.7490 30720.5074 -285.8482 -214.7490
ENERGY: 300000 1.2436 3.9300 2.7832 0.0000 -10830.6496 1396.0097 0.0000 0.0000 1803.3059 -7623.3772 303.3985 -9426.6831 -7614.5402 300.2932 -554.0993 -506.4023 30669.8003 -356.0427 -291.9133
ENERGY: 600000 4.4469 3.0968 2.9223 0.0000 -10824.2653 1399.3744 0.0000 0.0000 1774.2294 -7640.1955 298.5065 -9414.4249 -7630.2251 299.7129 -717.4165 -674.5874 30737.8926 -468.2273 -408.8072
ENERGY: 900000 1.4545 3.1353 3.6643 0.0000 -10729.0967 1361.7581 0.0000 0.0000 1813.4090 -7545.6756 305.0983 -9359.0846 -7627.3170 300.2660 -638.9354 -611.9080 30764.1897 -479.8396 -421.8429
ENERGY: 1200000 3.9453 3.2037 3.3783 0.0000 -11053.8164 1574.8603 0.0000 0.0000 1778.0854 -7690.3435 299.1552 -9468.4288 -7627.1192 299.4327 332.5961 430.8454 30868.7936 -280.2660 -213.2076
ENERGY: 1500000 1.6670 1.1641 7.7735 0.0000 -10795.6371 1480.3988 0.0000 0.0000 1772.2092 -7532.4246 298.1666 -9304.6337 -7620.0781 298.0930 246.5664 273.1554 30585.6385 -274.7692 -212.9752
TCL: Running FEP window   4: Lambda1 0.15000000000000002 Lambda2 0.2    [dLambda 0.04999999999999999]
TCL: Setting parameter firsttimestep to 0
TCL: Setting parameter alchLambda to 0.15000000000000002
Info: NONBONDED TABLE R-SQUARED SPACING: 0.0625
Info: NONBONDED TABLE SIZE: 705 POINTS
TCL: Setting parameter alchLambda2 to 0.2
Info: NONBONDED TABLE R-SQUARED SPACING: 0.0625
Info: NONBONDED TABLE SIZE: 705 POINTS
TCL: Running for 1500000 steps
ETITLE: TS BOND ANGLE DIHED IMPRP ELECT VDW BOUNDARY MISC KINETIC TOTAL TEMP POTENTIAL TOTALAVG TEMPAVG PRESSURE GPRESSURE VOLUME PRESSAVG GPRESSAVG
ENERGY: 0 1.6670 1.1641 7.7735 0.0000 -10795.6373 1480.8763 0.0000 0.0000 1771.2726 -7532.8838 298.0090 -9304.1565 -7532.8838 298.0090 199.9063 279.3623 30585.6385 199.9063 279.3623
ENERGY: 300000 6.4612 2.8042 3.2904 0.0000 -10900.9721 1427.4463 0.0000 0.0000 1828.4406 -7632.5293 307.6273 -9460.9699 -7603.5890 299.9298 -225.6264 -154.0298 30378.7230 87.9136 151.5672
ENERGY: 600000 3.7758 3.7215 2.9597 0.0000 -10901.9111 1502.1726 0.0000 0.0000 1801.6708 -7587.6107 303.1234 -9389.2815 -7592.7191 301.4777 270.3457 338.8919 30368.0111 91.8059 142.1566
ENERGY: 900000 1.5619 2.1776 2.0728 0.0000 -10841.8801 1450.8025 0.0000 0.0000 1774.8615 -7610.4039 298.6128 -9385.2654 -7589.5491 301.6195 -194.7519 -153.8939 30828.7675 37.8792 89.6533
ENERGY: 1200000 4.9886 3.0214 2.8227 0.0000 -10965.0727 1517.0468 0.0000 0.0000 1849.6266 -7587.5666 311.1917 -9437.1932 -7587.3286 303.4154 421.3375 458.5915 30218.3570 88.7231 145.4450
ENERGY: 1500000 3.2560 4.3221 2.0966 0.0000 -10897.9419 1498.5966 0.0000 0.0000 1766.9253 -7622.7452 297.2776 -9389.6705 -7594.1444 302.4779 96.9806 199.0746 30791.1960 26.6825 90.3307
TCL: Running FEP window   5: Lambda1 0.2    Lambda2 0.25   [dLambda 0.04999999999999999]
TCL: Setting parameter firsttimestep to 0
TCL: Setting parameter alchLambda to 0.2
Info: NONBONDED TABLE R-SQUARED SPACING: 0.0625
Info: NONBONDED TABLE SIZE: 705 POINTS
TCL: Setting parameter alchLambda2 to 0.25
Info: NONBONDED TABLE R-SQUARED SPACING: 0.0625
Info: NONBONDED TABLE SIZE: 705 POINTS
TCL: Running for 1500000 steps
ETITLE: TS BOND ANGLE DIHED IMPRP ELECT VDW BOUNDARY MISC KINETIC TOTAL TEMP POTENTIAL TOTALAVG TEMPAVG PRESSURE GPRESSURE VOLUME PRESSAVG GPRESSAVG
ENERGY: 0 3.2560 4.3221 2.0966 0.0000 -10897.9430 1503.6352 0.0000 0.0000 1766.0421 -7618.5909 297.1290 -9384.6330 -7618.5909 297.1290 119.9782 221.7880 30791.1960 119.9782 221.7880
ENERGY: 300000 3.1356 2.1287 4.6043 0.0000 -11007.2092 1562.1231 0.0000 0.0000 1818.1585 -7617.0590 305.8973 -9435.2175 -7636.8026 298.7557 431.2736 512.9934 30654.6501 370.7334 438.6160
ENERGY: 600000 2.0766 3.3890 3.5039 0.0000 -11042.4152 1539.8999 0.0000 0.0000 1806.5745 -7686.9712 303.9484 -9493.5457 -7640.1039 300.8880 300.9240 355.4736 30477.0738 324.3654 376.5199
ENERGY: 900000 0.5384 1.8904 3.5942 0.0000 -10832.7567 1418.1942 0.0000 0.0000 1757.1552 -7651.3842 295.6338 -9408.5394 -7612.1691 300.4960 40.7149 94.3509 30143.4546 225.6840 281.3211
ENERGY: 1200000 1.9485 5.7729 4.4891 0.0000 -10777.8225 1412.1407 0.0000 0.0000 1825.6048 -7527.8665 307.1502 -9353.4713 -7601.2868 301.0852 -322.7740 -257.8975 30569.0764 146.9360 201.1950
ENERGY: 1500000 1.6485 3.6082 3.7965 0.0000 -10954.9669 1511.7439 0.0000 0.0000 1782.2884 -7651.8814 299.8624 -9434.1698 -7599.8290 301.4899 489.7891 471.7038 30435.0243 125.3347 182.1990
TCL: Running FEP window   6: Lambda1 0.25   Lambda2 0.3    [dLambda 0.04999999999999999]
TCL: Setting parameter firsttimestep to 0
TCL: Setting parameter alchLambda to 0.25
Info: NONBONDED TABLE R-SQUARED SPACING: 0.0625
Info: NONBONDED TABLE SIZE: 705 POINTS
TCL: Setting parameter alchLambda2 to 0.3
Info: NONBONDED TABLE R-SQUARED SPACING: 0.0625
Info: NONBONDED TABLE SIZE: 705 POINTS
TCL: Running for 1500000 steps
ETITLE: TS BOND ANGLE DIHED IMPRP ELECT VDW BOUNDARY MISC KINETIC TOTAL TEMP POTENTIAL TOTALAVG TEMPAVG PRESSURE GPRESSURE VOLUME PRESSAVG GPRESSAVG
ENERGY: 0 1.6485 3.6082 3.7965 0.0000 -10954.9666 1512.3249 0.0000 0.0000 1781.4181 -7652.1704 299.7159 -9433.5885 -7652.1704 299.7159 408.2395 478.8927 30435.0243 408.2395 478.8927
ENERGY: 300000 3.4761 6.3716 4.0623 0.0000 -10903.3872 1419.0281 0.0000 0.0000 1726.2277 -7744.2215 290.4304 -9470.4492 -7630.8705 299.0470 -608.0700 -584.0762 30730.9557 -25.7210 38.9734
ENERGY: 600000 1.2507 6.4331 4.7783 0.0000 -10803.4122 1422.9056 0.0000 0.0000 1772.6600 -7595.3846 298.2424 -9368.0446 -7608.2628 298.0966 -229.6469 -184.0982 30983.0963 -60.0414 10.9999
ENERGY: 900000 1.3051 2.7518 4.9153 0.0000 -10850.9531 1458.8404 0.0000 0.0000 1741.3765 -7641.7640 292.9791 -9383.1405 -7609.7348 296.7870 -251.1685 -154.9500 30828.8295 -180.5703 -111.1324
ENERGY: 1200000 2.6241 2.4875 2.7497 0.0000 -10891.4990 1434.6432 0.0000 0.0000 1767.0941 -7681.9004 297.3060 -9448.9945 -7612.1949 296.5407 -557.4487 -495.0080 30832.2285 -127.8492 -60.8909
ENERGY: 1500000 4.9918 4.5687 2.0652 0.0000 -10818.6568 1438.8286 0.0000 0.0000 1759.1109 -7609.0915 295.9629 -9368.2025 -7611.4343 296.7793 -320.0062 -305.4265 30821.9607 -198.6560 -129.6785
TCL: Running FEP window   7: Lambda1 0.3    Lambda2 0.35   [dLambda 0.04999999999999999]
TCL: Setting parameter firsttimestep to 0
TCL: Setting parameter alchLambda to 0.3
Info: NONBONDED TABLE R-SQUARED SPACING: 0.0625
Info: NONBONDED TABLE SIZE: 705 POINTS
TCL: Setting parameter alchLambda2 to 0.35
Info: NONBONDED TABLE R-SQUARED SPACING: 0.0625
Info: NONBONDED TABLE SIZE: 705 POINTS
TCL: Running for 1500000 steps
ETITLE: TS BOND ANGLE DIHED IMPRP ELECT VDW BOUNDARY MISC KINETIC TOTAL TEMP POTENTIAL TOTALAVG TEMPAVG PRESSURE GPRESSURE VOLUME PRESSAVG GPRESSAVG
ENERGY: 0 4.9918 4.5687 2.0652 0.0000 -10818.6568 1438.9042 0.0000 0.0000 1758.2507 -7609.8762 295.8181 -9368.1269 -7609.8762 295.8181 -363.6519 -300.8458 30821.9607 -363.6519 -300.8458
ENERGY: 300000 2.1714 3.3471 6.7972 0.0000 -10715.8204 1390.0777 0.0000 0.0000 1774.5053 -7538.9218 298.5529 -9313.4270 -7597.1844 297.1029 -442.5724 -387.5209 31064.2552 -335.8088 -267.1852
ENERGY: 600000 1.8556 2.7969 2.7930 0.0000 -10817.7518 1453.8067 0.0000 0.0000 1806.7103 -7549.7893 303.9712 -9356.4996 -7605.5177 298.4923 -59.5572 -66.7981 31064.2940 -321.7068 -268.2764
ENERGY: 900000 3.0590 2.9262 2.7779 0.0000 -10748.8907 1375.2012 0.0000 0.0000 1726.2221 -7638.7044 290.4294 -9364.9265 -7602.8904 297.2618 -753.8022 -638.9886 30942.3656 -232.5068 -169.1432
ENERGY: 1200000 2.8600 2.3125 4.0378 0.0000 -10754.3983 1353.0000 0.0000 0.0000 1780.0218 -7612.1662 299.4810 -9392.1880 -7610.9287 297.4139 -1069.7440 -892.7241 30777.7388 -369.4190 -294.2519
ENERGY: 1500000 1.4004 3.2740 2.9748 0.0000 -10757.9085 1416.7185 0.0000 0.0000 1738.6882 -7594.8525 292.5268 -9333.5407 -7607.8436 297.3985 -472.1220 -416.7079 31038.1852 -379.0921 -307.5176
TCL: Running FEP window   8: Lambda1 0.35   Lambda2 0.39999999999999997 [dLambda 0.04999999999999999]
TCL: Setting parameter firsttimestep to 0
TCL: Setting parameter alchLambda to 0.35
Info: NONBONDED TABLE R-SQUARED SPACING: 0.0625
Info: NONBONDED TABLE SIZE: 705 POINTS
TCL: Setting parameter alchLambda2 to 0.39999999999999997
Info: NONBONDED TABLE R-SQUARED SPACING: 0.0625
Info: NONBONDED TABLE SIZE: 705 POINTS
TCL: Running for 1500000 steps
ETITLE: TS BOND ANGLE DIHED IMPRP ELECT VDW BOUNDARY MISC KINETIC TOTAL TEMP POTENTIAL TOTALAVG TEMPAVG PRESSURE GPRESSURE VOLUME PRESSAVG GPRESSAVG
ENERGY: 0 1.4004 3.2740 2.9748 0.0000 -10757.9070 1417.7858 0.0000 0.0000 1737.7623 -7594.7097 292.3710 -9332.4720 -7594.7097 292.3710 -477.3201 -407.8022 31038.1852 -477.3201 -407.8022
ENERGY: 300000 1.7802 5.7711 3.5851 0.0000 -10905.0294 1513.1728 0.0000 0.0000 1794.8591 -7585.8611 301.9773 -9380.7202 -7598.4038 300.1215 661.9378 691.0313 30604.0869 -169.1418 -100.9620
ENERGY: 600000 1.7773 2.7841 3.3046 0.0000 -10785.7023 1382.2253 0.0000 0.0000 1770.9377 -7624.6733 297.9527 -9395.6110 -7592.0658 299.6884 -499.3064 -433.3216 30479.8814 -234.3895 -163.0056
ENERGY: 900000 1.8871 2.9979 3.0936 0.0000 -10747.8668 1433.0166 0.0000 0.0000 1764.0464 -7542.8251 296.7932 -9306.8715 -7591.6475 299.5077 -227.1266 -215.0441 31422.6180 -267.6542 -206.5260
ENERGY: 1200000 4.2303 2.2574 6.4128 0.0000 -10909.4809 1484.5579 0.0000 0.0000 1769.0015 -7643.0210 297.6269 -9412.0225 -7591.9038 299.1211 307.2604 355.2903 30244.6069 -208.6163 -153.1800
ENERGY: 1500000 1.0067 3.9643 3.7859 0.0000 -10763.3915 1349.4009 0.0000 0.0000 1815.9590 -7589.2746 305.5273 -9405.2336 -7589.0461 299.5554 -929.2674 -878.6958 30770.3071 -185.6973 -131.2299
TCL: Running FEP window   9: Lambda1 0.39999999999999997 Lambda2 0.44999999999999996 [dLambda 0.04999999999999999]
TCL: Setting parameter firsttimestep to 0
TCL: Setting parameter alchLambda to 0.39999999999999997
Info: NONBONDED TABLE R-SQUARED SPACING: 0.0625
Info: NONBONDED TABLE SIZE: 705 POINTS
TCL: Setting parameter alchLambda2 to 0.44999999999999996
Info: NONBONDED TABLE R-SQUARED SPACING: 0.0625
Info: NONBONDED TABLE SIZE: 705 POINTS
TCL: Running for 1500000 steps
ETITLE: TS BOND ANGLE DIHED IMPRP ELECT VDW BOUNDARY MISC KINETIC TOTAL TEMP POTENTIAL TOTALAVG TEMPAVG PRESSURE GPRESSURE VOLUME PRESSAVG GPRESSAVG
ENERGY: 0 1.0067 3.9643 3.7859 0.0000 -10763.3918 1349.8958 0.0000 0.0000 1815.1160 -7589.6231 305.3855 -9404.7390 -7589.6231 305.3855 -963.7161 -871.0951 30770.3071 -963.7161 -871.0951
ENERGY: 300000 4.6659 4.2162 1.0632 0.0000 -10881.5376 1453.4643 0.0000 0.0000 1736.6923 -7681.4356 292.1910 -9418.1279 -7643.2964 298.3659 -444.1723 -351.5166 30772.9100 -138.3117 -51.7054
ENERGY: 600000 1.6552 3.0533 4.4927 0.0000 -10829.7092 1451.1578 0.0000 0.0000 1815.4017 -7553.9484 305.4335 -9369.3501 -7620.8075 299.8499 -160.6186 -94.2628 30849.9014 -212.3469 -138.0890
ENERGY: 900000 3.8879 3.7251 4.1047 0.0000 -11017.4621 1563.8910 0.0000 0.0000 1768.8337 -7673.0197 297.5987 -9441.8534 -7613.8915 299.8580 761.5402 854.5170 30328.9340 -102.2687 -30.0069
ENERGY: 1200000 3.2464 3.1493 4.6529 0.0000 -10771.2555 1415.8889 0.0000 0.0000 1837.3178 -7507.0002 309.1208 -9344.3180 -7608.6349 300.3066 -372.3119 -328.8026 31292.5504 -118.6732 -51.8457
ENERGY: 1500000 1.9432 4.7650 2.5697 0.0000 -10853.6365 1408.5150 0.0000 0.0000 1779.3266 -7656.5170 299.3640 -9435.8436 -7609.1981 299.7198 -362.2017 -318.3971 30578.8328 -216.3455 -151.1724
TCL: Running FEP window  10: Lambda1 0.44999999999999996 Lambda2 0.49999999999999994 [dLambda 0.04999999999999999]
TCL: Setting parameter firsttimestep to 0
TCL: Setting parameter alchLambda to 0.44999999999999996
Info: NONBONDED TABLE R-SQUARED SPACING: 0.0625
Info: NONBONDED TABLE SIZE: 705 POINTS
TCL: Setting parameter alchLambda2 to 0.49999999999999994
Info: NONBONDED TABLE R-SQUARED SPACING: 0.0625
Info: NONBONDED TABLE SIZE: 705 POINTS
TCL: Running for 1500000 steps
ETITLE: TS BOND ANGLE DIHED IMPRP ELECT VDW BOUNDARY MISC KINETIC TOTAL TEMP POTENTIAL TOTALAVG TEMPAVG PRESSURE GPRESSURE VOLUME PRESSAVG GPRESSAVG
ENERGY: 0 1.9432 4.7650 2.5697 0.0000 -10853.6385 1408.6203 0.0000 0.0000 1778.4360 -7657.3042 299.2142 -9435.7402 -7657.3042 299.2142 -403.8712 -314.1913 30578.8328 -403.8712 -314.1913
ENERGY: 300000 4.9155 5.3930 1.1978 0.0000 -10713.3818 1344.8006 0.0000 0.0000 1797.7593 -7559.3155 302.4653 -9357.0748 -7613.3275 301.5095 -934.4665 -825.6942 30447.8771 -543.6300 -468.2302
ENERGY: 600000 2.5353 2.1575 4.3681 0.0000 -10836.1569 1457.1398 0.0000 0.0000 1723.9942 -7645.9620 290.0546 -9369.9562 -7596.3032 299.9035 1.8035 97.1965 30681.3821 -279.9535 -200.5171
ENERGY: 900000 2.0905 3.8935 2.3361 0.0000 -10769.4931 1453.0143 0.0000 0.0000 1756.6553 -7551.5034 295.5497 -9308.1588 -7586.8613 299.5282 54.4715 85.2202 30965.9715 -213.8900 -142.0481
ENERGY: 1200000 4.4139 2.2363 3.4229 0.0000 -10844.8419 1498.7733 0.0000 0.0000 1821.7220 -7514.2734 306.4969 -9335.9954 -7588.0348 299.8725 521.1251 622.8991 30422.9074 -142.7747 -67.0146
ENERGY: 1500000 2.0362 8.2023 3.4617 0.0000 -10864.2792 1520.6782 0.0000 0.0000 1716.6033 -7613.2975 288.8111 -9329.9008 -7587.5933 299.7694 891.6462 939.9253 30140.8616 -111.5913 -38.8521
TCL: Running FEP window  11: Lambda1 0.49999999999999994 Lambda2 0.5499999999999999 [dLambda 0.04999999999999999]
TCL: Setting parameter firsttimestep to 0
TCL: Setting parameter alchLambda to 0.49999999999999994
Info: NONBONDED TABLE R-SQUARED SPACING: 0.0625
Info: NONBONDED TABLE SIZE: 705 POINTS
TCL: Setting parameter alchLambda2 to 0.5499999999999999
Info: NONBONDED TABLE R-SQUARED SPACING: 0.0625
Info: NONBONDED TABLE SIZE: 705 POINTS
TCL: Running for 1500000 steps
ETITLE: TS BOND ANGLE DIHED IMPRP ELECT VDW BOUNDARY MISC KINETIC TOTAL TEMP POTENTIAL TOTALAVG TEMPAVG PRESSURE GPRESSURE VOLUME PRESSAVG GPRESSAVG
ENERGY: 0 2.0362 8.2023 3.4617 0.0000 -10864.2781 1520.4403 0.0000 0.0000 1715.7265 -7614.4111 288.6636 -9330.1376 -7614.4111 288.6636 848.6003 940.9333 30140.8616 848.6003 940.9333
ENERGY: 300000 1.9744 1.5618 5.8786 0.0000 -10948.8901 1513.9386 0.0000 0.0000 1736.6499 -7688.8867 292.1839 -9425.5367 -7612.2938 296.1266 559.9563 617.3511 30305.9301 518.2654 607.0552
ENERGY: 600000 1.2143 4.2018 1.5438 0.0000 -10764.2197 1405.0412 0.0000 0.0000 1717.6049 -7634.6138 288.9796 -9352.2187 -7605.5842 297.1339 -549.4032 -457.8637 31136.1551 211.3368 305.0659
ENERGY: 900000 1.9026 7.2836 3.1134 0.0000 -10899.7224 1459.2705 0.0000 0.0000 1805.9028 -7622.2495 303.8354 -9428.1522 -7598.5289 298.0960 -131.5290 -81.5327 30654.7954 122.6212 202.9299
ENERGY: 1200000 4.6783 4.3161 2.7794 0.0000 -10937.5700 1527.8329 0.0000 0.0000 1761.1098 -7636.8535 296.2991 -9397.9633 -7598.1692 298.3852 647.8990 693.3080 30124.1741 87.2598 164.3030
ENERGY: 1500000 2.3431 2.9800 3.8928 0.0000 -10873.7871 1401.8815 0.0000 0.0000 1766.3299 -7696.3597 297.1774 -9462.6896 -7611.4336 298.1653 -796.1883 -778.4760 30916.8841 -13.3597 58.7493
TCL: Running FEP window  12: Lambda1 0.5499999999999999 Lambda2 0.6    [dLambda 0.050000000000000044]
TCL: Setting parameter firsttimestep to 0
TCL: Setting parameter alchLambda to 0.5499999999999999
Info: NONBONDED TABLE R-SQUARED SPACING: 0.0625
Info: NONBONDED TABLE SIZE: 705 POINTS
TCL: Setting parameter alchLambda2 to 0.6
Info: NONBONDED TABLE R-SQUARED SPACING: 0.0625
Info: NONBONDED TABLE SIZE: 705 POINTS
TCL: Running for 1500000 steps
ETITLE: TS BOND ANGLE DIHED IMPRP ELECT VDW BOUNDARY MISC KINETIC TOTAL TEMP POTENTIAL TOTALAVG TEMPAVG PRESSURE GPRESSURE VOLUME PRESSAVG GPRESSAVG
ENERGY: 0 2.3431 2.9800 3.8928 0.0000 -10873.8791 1401.5355 0.0000 0.0000 1765.4388 -7697.6889 297.0275 -9463.1277 -7697.6889 297.0275 -867.4542 -776.0732 30916.8841 -867.4542 -776.0732
ENERGY: 300000 5.0601 2.5241 1.6307 0.0000 -10903.9572 1502.6678 0.0000 0.0000 1760.8869 -7631.1877 296.2616 -9392.0746 -7654.5345 297.3236 -80.1104 77.0758 31034.7274 -355.6717 -272.6234
ENERGY: 600000 5.1465 2.6838 5.3092 0.0000 -10880.6781 1519.4985 0.0000 0.0000 1785.5620 -7562.4782 300.4131 -9348.0402 -7622.6791 299.4595 514.5211 608.5413 30631.1690 -88.4975 -19.6657
ENERGY: 900000 3.8234 5.6918 3.5541 0.0000 -10832.0740 1440.5554 0.0000 0.0000 1784.6954 -7593.7539 300.2673 -9378.4493 -7616.0966 299.8097 -213.1123 -159.2932 30846.8368 -84.9663 -7.8500
ENERGY: 1200000 2.3019 2.1246 1.0717 0.0000 -10927.2300 1475.0353 0.0000 0.0000 1769.0915 -7677.6049 297.6420 -9446.6964 -7620.8677 298.9618 -39.5082 -33.4112 30423.1180 -5.0862 70.0673
ENERGY: 1500000 3.2447 2.3123 3.8280 0.0000 -10857.3349 1465.3625 0.0000 0.0000 1801.6168 -7580.9706 303.1143 -9382.5874 -7618.8327 299.2972 153.6355 245.0239 30537.2846 -25.0470 50.1261
TCL: Running FEP window  13: Lambda1 0.6    Lambda2 0.65   [dLambda 0.050000000000000044]
TCL: Setting parameter firsttimestep to 0
TCL: Setting parameter alchLambda to 0.6
Info: NONBONDED TABLE R-SQUARED SPACING: 0.0625
Info: NONBONDED TABLE SIZE: 705 POINTS
TCL: Setting parameter alchLambda2 to 0.65
Info: NONBONDED TABLE R-SQUARED SPACING: 0.0625
Info: NONBONDED TABLE SIZE: 705 POINTS
TCL: Running for 1500000 steps
ETITLE: TS BOND ANGLE DIHED IMPRP ELECT VDW BOUNDARY MISC KINETIC TOTAL TEMP POTENTIAL TOTALAVG TEMPAVG PRESSURE GPRESSURE VOLUME PRESSAVG GPRESSAVG
ENERGY: 0 3.2447 2.3123 3.8280 0.0000 -10857.7129 1465.7093 0.0000 0.0000 1800.7307 -7581.8878 302.9652 -9382.6185 -7581.8878 302.9652 177.8262 257.4950 30537.2846 177.8262 257.4950
ENERGY: 300000 8.0552 3.9535 6.6422 0.0000 -10679.4121 1355.7500 0.0000 0.0000 1856.2095 -7448.8017 312.2993 -9305.0111 -7542.4994 306.1791 -690.3557 -657.1630 30957.6675 160.0950 234.2305
ENERGY: 600000 1.9971 2.8242 4.8854 0.0000 -10699.8242 1375.1402 0.0000 0.0000 1808.8698 -7506.1074 304.3346 -9314.9772 -7555.0489 304.9893 -741.6156 -689.6752 31346.5177 42.3353 102.8466
ENERGY: 900000 1.1210 4.1573 2.9468 0.0000 -10852.7712 1429.3272 0.0000 0.0000 1813.5403 -7601.6786 305.1204 -9415.2189 -7588.7691 303.5250 -252.6552 -247.4062 30873.7322 -47.2046 9.9459
ENERGY: 1200000 1.6590 3.6583 3.2027 0.0000 -10853.9266 1489.2035 0.0000 0.0000 1805.3505 -7550.8525 303.7425 -9356.2031 -7592.2863 302.3872 514.2071 562.6264 30314.9532 -20.0186 38.0534
ENERGY: 1500000 1.7562 2.3203 2.4396 0.0000 -11004.5666 1493.2492 0.0000 0.0000 1751.4657 -7753.3354 294.6766 -9504.8012 -7599.2562 301.9972 -75.6662 -14.3734 30562.0933 7.4689 66.5629
TCL: Running FEP window  14: Lambda1 0.65   Lambda2 0.7000000000000001 [dLambda 0.050000000000000044]
TCL: Setting parameter firsttimestep to 0
TCL: Setting parameter alchLambda to 0.65
Info: NONBONDED TABLE R-SQUARED SPACING: 0.0625
Info: NONBONDED TABLE SIZE: 705 POINTS
TCL: Setting parameter alchLambda2 to 0.7000000000000001
Info: NONBONDED TABLE R-SQUARED SPACING: 0.0625
Info: NONBONDED TABLE SIZE: 705 POINTS
TCL: Running for 1500000 steps
ETITLE: TS BOND ANGLE DIHED IMPRP ELECT VDW BOUNDARY MISC KINETIC TOTAL TEMP POTENTIAL TOTALAVG TEMPAVG PRESSURE GPRESSURE VOLUME PRESSAVG GPRESSAVG
ENERGY: 0 1.7562 2.3203 2.4396 0.0000 -11005.0524 1493.1443 0.0000 0.0000 1750.5582 -7754.8337 294.5239 -9505.3919 -7754.8337 294.5239 -92.4632 -7.1379 30562.0933 -92.4632 -7.1379
ENERGY: 300000 2.0598 3.6800 2.7027 0.0000 -10960.1421 1528.6450 0.0000 0.0000 1807.4273 -7615.6274 304.0919 -9423.0547 -7619.8376 301.2150 499.5289 523.6749 30678.4281 19.5471 55.7521
ENERGY: 600000 3.4116 4.0904 0.8642 0.0000 -10875.7335 1502.7850 0.0000 0.0000 1811.0648 -7553.5176 304.7039 -9364.5823 -7611.3112 302.0661 657.8793 707.0628 30243.2795 160.2154 211.0980
ENERGY: 900000 1.7800 5.4259 5.7841 0.0000 -10871.6262 1383.8776 0.0000 0.0000 1748.7880 -7725.9705 294.2261 -9474.7586 -7624.3645 300.7315 -794.7842 -750.8641 30715.0782 0.8163 43.1628
ENERGY: 1200000 4.3292 2.0471 5.1701 0.0000 -10907.3174 1454.9256 0.0000 0.0000 1792.1848 -7648.6606 301.5274 -9440.8454 -7615.1221 301.0244 -50.3982 -16.7595 30323.2835 3.8807 45.3416
ENERGY: 1500000 2.1170 3.2094 5.3290 0.0000 -10864.6641 1451.8735 0.0000 0.0000 1774.5999 -7627.5353 298.5688 -9402.1352 -7610.2351 301.2448 -119.9894 -20.5691 30937.5118 -50.9332 -4.0248
TCL: Running FEP window  15: Lambda1 0.7000000000000001 Lambda2 0.7500000000000001 [dLambda 0.050000000000000044]
TCL: Setting parameter firsttimestep to 0
TCL: Setting parameter alchLambda to 0.7000000000000001
Info: NONBONDED TABLE R-SQUARED SPACING: 0.0625
Info: NONBONDED TABLE SIZE: 705 POINTS
TCL: Setting parameter alchLambda2 to 0.7500000000000001
Info: NONBONDED TABLE R-SQUARED SPACING: 0.0625
Info: NONBONDED TABLE SIZE: 705 POINTS
TCL: Running for 1500000 steps
ETITLE: TS BOND ANGLE DIHED IMPRP ELECT VDW BOUNDARY MISC KINETIC TOTAL TEMP POTENTIAL TOTALAVG TEMPAVG PRESSURE GPRESSURE VOLUME PRESSAVG GPRESSAVG
ENERGY: 0 2.1170 3.2094 5.3290 0.0000 -10866.1210 1454.3601 0.0000 0.0000 1773.6855 -7627.4199 298.4150 -9401.1054 -7627.4199 298.4150 -71.8499 10.9888 30937.5118 -71.8499 10.9888
ENERGY: 300000 4.5594 3.4943 4.5312 0.0000 -10661.0569 1335.0679 0.0000 0.0000 1786.4247 -7526.9794 300.5583 -9313.4041 -7583.5630 301.7980 -713.4366 -729.9416 31051.6807 -349.1787 -331.8854
ENERGY: 600000 1.1537 3.6603 5.5900 0.0000 -10703.3388 1340.4647 0.0000 0.0000 1770.2141 -7582.2561 297.8309 -9352.4702 -7602.6722 299.9731 -678.5683 -605.8014 30855.0018 -163.7110 -129.4451
ENERGY: 900000 2.9837 4.9315 4.2760 0.0000 -10840.3822 1447.6435 0.0000 0.0000 1779.7156 -7600.8319 299.4295 -9380.5476 -7603.1071 300.5840 116.6728 110.5644 30712.8559 -60.2065 -28.5556
ENERGY: 1200000 1.3757 2.7449 6.3187 0.0000 -10711.3422 1363.4282 0.0000 0.0000 1792.2820 -7545.1927 301.5437 -9337.4747 -7591.6404 300.9363 -570.5865 -545.6295 31133.8455 -26.7465 12.1547
ENERGY: 1500000 0.6543 5.4745 0.9015 0.0000 -10898.0654 1430.7449 0.0000 0.0000 1799.3599 -7660.9303 302.7346 -9460.2902 -7592.7506 301.2197 -86.3768 -60.2559 30356.6046 24.6023 61.4066
TCL: Running FEP window  16: Lambda1 0.7500000000000001 Lambda2 0.8000000000000002 [dLambda 0.050000000000000044]
TCL: Setting parameter firsttimestep to 0
TCL: Setting parameter alchLambda to 0.7500000000000001
Info: NONBONDED TABLE R-SQUARED SPACING: 0.0625
Info: NONBONDED TABLE SIZE: 705 POINTS
TCL: Setting parameter alchLambda2 to 0.8000000000000002
Info: NONBONDED TABLE R-SQUARED SPACING: 0.0625
Info: NONBONDED TABLE SIZE: 705 POINTS
TCL: Running for 1500000 steps
ETITLE: TS BOND ANGLE DIHED IMPRP ELECT VDW BOUNDARY MISC KINETIC TOTAL TEMP POTENTIAL TOTALAVG TEMPAVG PRESSURE GPRESSURE VOLUME PRESSAVG GPRESSAVG
ENERGY: 0 0.6543 5.4745 0.9015 0.0000 -10899.9467 1433.8639 0.0000 0.0000 1798.4638 -7660.5886 302.5838 -9459.0525 -7660.5886 302.5838 -112.4623 -26.8392 30356.6046 -112.4623 -26.8392
ENERGY: 300000 2.0868 4.3928 2.5596 0.0000 -10892.6449 1486.1043 0.0000 0.0000 1814.9668 -7582.5346 305.3604 -9397.5014 -7628.3250 302.5096 270.4542 313.6452 30432.8582 -65.2404 -10.9504
ENERGY: 600000 2.2913 5.7143 1.8908 0.0000 -10956.2788 1471.6846 0.0000 0.0000 1779.9009 -7694.7970 299.4607 -9474.6979 -7636.9306 301.9234 -267.1810 -247.3286 30741.8132 -216.3293 -164.0357
ENERGY: 900000 3.8543 4.6471 3.1886 0.0000 -10913.6818 1428.6091 0.0000 0.0000 1762.0401 -7711.3426 296.4557 -9473.3827 -7633.1879 301.4079 -319.7381 -193.3108 30254.8410 -260.7514 -210.9012
ENERGY: 1200000 3.6547 3.2288 3.3006 0.0000 -10849.5931 1447.7637 0.0000 0.0000 1749.9342 -7641.7112 294.4189 -9391.6454 -7625.8942 300.4141 -151.7761 -27.6237 30540.3891 -142.1845 -82.2709
ENERGY: 1500000 6.5307 4.6588 8.4525 0.0000 -10846.5457 1446.9741 0.0000 0.0000 1806.5571 -7573.3725 303.9455 -9379.9296 -7632.1559 300.1792 -353.5366 -321.4959 30865.2937 -103.3837 -49.7850
TCL: Running FEP window  17: Lambda1 0.8000000000000002 Lambda2 0.8500000000000002 [dLambda 0.050000000000000044]
TCL: Setting parameter firsttimestep to 0
TCL: Setting parameter alchLambda to 0.8000000000000002
Info: NONBONDED TABLE R-SQUARED SPACING: 0.0625
Info: NONBONDED TABLE SIZE: 705 POINTS
TCL: Setting parameter alchLambda2 to 0.8500000000000002
Info: NONBONDED TABLE R-SQUARED SPACING: 0.0625
Info: NONBONDED TABLE SIZE: 705 POINTS
TCL: Running for 1500000 steps
ETITLE: TS BOND ANGLE DIHED IMPRP ELECT VDW BOUNDARY MISC KINETIC TOTAL TEMP POTENTIAL TOTALAVG TEMPAVG PRESSURE GPRESSURE VOLUME PRESSAVG GPRESSAVG
ENERGY: 0 6.5307 4.6588 8.4525 0.0000 -10848.3142 1447.4755 0.0000 0.0000 1805.6771 -7575.5197 303.7974 -9381.1968 -7575.5197 303.7974 -410.2291 -311.9123 30865.2937 -410.2291 -311.9123
ENERGY: 300000 3.3603 3.7680 2.6491 0.0000 -10972.9624 1547.3564 0.0000 0.0000 1818.0242 -7597.8045 305.8747 -9415.8286 -7602.3894 300.3095 706.3006 729.1328 30727.7629 -12.8404 55.3922
ENERGY: 600000 1.7867 2.6260 7.2542 0.0000 -10911.2890 1476.2101 0.0000 0.0000 1773.5002 -7649.9118 298.3838 -9423.4119 -7609.0428 302.3237 -82.3975 -17.0964 30834.4181 89.0493 141.8988
ENERGY: 900000 2.0493 4.0077 5.1591 0.0000 -10807.4113 1381.6542 0.0000 0.0000 1770.7768 -7643.7642 297.9256 -9414.5410 -7601.5168 302.2763 -560.6664 -483.3242 30739.4917 -14.8870 47.9324
ENERGY: 1200000 4.6528 2.5329 5.6186 0.0000 -10974.8854 1577.0275 0.0000 0.0000 1740.5630 -7644.4905 292.8422 -9385.0535 -7599.2003 300.7174 962.3148 1018.1282 30378.8980 40.7069 96.3109
ENERGY: 1500000 1.7731 1.8439 4.2651 0.0000 -10853.7345 1441.6270 0.0000 0.0000 1684.7089 -7719.5166 283.4450 -9404.2254 -7612.4062 299.1420 -121.8493 -29.9590 30374.1958 14.9274 73.6765
TCL: Running FEP window  18: Lambda1 0.8500000000000002 Lambda2 0.9000000000000002 [dLambda 0.050000000000000044]
TCL: Setting parameter firsttimestep to 0
TCL: Setting parameter alchLambda to 0.8500000000000002
Info: NONBONDED TABLE R-SQUARED SPACING: 0.0625
Info: NONBONDED TABLE SIZE: 705 POINTS
TCL: Setting parameter alchLambda2 to 0.9000000000000002
Info: NONBONDED TABLE R-SQUARED SPACING: 0.0625
Info: NONBONDED TABLE SIZE: 705 POINTS
TCL: Running for 1500000 steps
ETITLE: TS BOND ANGLE DIHED IMPRP ELECT VDW BOUNDARY MISC KINETIC TOTAL TEMP POTENTIAL TOTALAVG TEMPAVG PRESSURE GPRESSURE VOLUME PRESSAVG GPRESSAVG
ENERGY: 0 1.7731 1.8439 4.2651 0.0000 -10854.5526 1442.2050 0.0000 0.0000 1683.8266 -7720.6390 283.2966 -9404.4656 -7720.6390 283.2966 -95.7401 -15.6135 30374.1958 -95.7401 -15.6135
ENERGY: 300000 2.7701 3.9578 4.5743 0.0000 -10772.8907 1423.3538 0.0000 0.0000 1762.2060 -7576.0289 296.4836 -9338.2348 -7615.3680 296.1722 -324.9686 -281.0451 31159.2233 -218.4557 -130.9831
ENERGY: 600000 2.4902 3.2369 4.0260 0.0000 -10779.6287 1376.4350 0.0000 0.0000 1879.8093 -7513.6314 316.2698 -9393.4406 -7620.4996 299.5667 -586.2469 -488.2192 30952.1425 -235.9495 -152.7843
ENERGY: 900000 0.8370 3.7304 4.3902 0.0000 -10994.1512 1535.1621 0.0000 0.0000 1802.3318 -7647.6998 303.2346 -9450.0316 -7642.6729 299.2910 763.7142 866.4351 30233.2466 -34.1094 48.5038
ENERGY: 1200000 1.1616 2.4192 5.5221 0.0000 -10852.6662 1437.1395 0.0000 0.0000 1760.2526 -7646.1712 296.1549 -9406.4237 -7627.9408 300.0277 -534.6856 -381.7354 31075.8300 -149.5052 -59.5626
ENERGY: 1500000 3.0200 3.4087 6.5260 0.0000 -10816.7259 1413.4419 0.0000 0.0000 1783.8105 -7606.5189 300.1184 -9390.3294 -7619.8667 300.8369 -310.4989 -282.4020 30678.3430 -103.4996 -15.4364
TCL: Running FEP window  19: Lambda1 0.9000000000000002 Lambda2 0.9500000000000003 [dLambda 0.050000000000000044]
TCL: Setting parameter firsttimestep to 0
TCL: Setting parameter alchLambda to 0.9000000000000002
Info: NONBONDED TABLE R-SQUARED SPACING: 0.0625
Info: NONBONDED TABLE SIZE: 705 POINTS
TCL: Setting parameter alchLambda2 to 0.9500000000000003
Info: NONBONDED TABLE R-SQUARED SPACING: 0.0625
Info: NONBONDED TABLE SIZE: 705 POINTS
TCL: Running for 1500000 steps
ETITLE: TS BOND ANGLE DIHED IMPRP ELECT VDW BOUNDARY MISC KINETIC TOTAL TEMP POTENTIAL TOTALAVG TEMPAVG PRESSURE GPRESSURE VOLUME PRESSAVG GPRESSAVG
ENERGY: 0 3.0200 3.4087 6.5260 0.0000 -10817.9729 1414.0263 0.0000 0.0000 1782.9220 -7608.0699 299.9690 -9390.9919 -7608.0699 299.9690 -350.6983 -266.4951 30678.3430 -350.6983 -266.4951
ENERGY: 300000 3.0420 4.7698 2.8898 0.0000 -11065.9778 1581.8398 0.0000 0.0000 1796.8819 -7676.5546 302.3177 -9473.4364 -7594.1191 299.3069 910.2551 995.9589 30423.8431 189.0274 267.6661
ENERGY: 600000 2.2069 1.7005 3.8216 0.0000 -11024.2611 1542.6321 0.0000 0.0000 1789.3470 -7684.5531 301.0499 -9473.9001 -7606.4620 301.8249 418.8283 454.9492 30865.3033 134.0507 192.9499
ENERGY: 900000 1.3186 3.4080 3.7124 0.0000 -10817.2135 1423.2620 0.0000 0.0000 1798.3630 -7587.1495 302.5668 -9385.5125 -7597.3971 302.0852 -371.9075 -292.4982 30830.5395 -36.4615 28.4630
ENERGY: 1200000 0.6343 4.3554 1.4603 0.0000 -10937.7645 1489.8973 0.0000 0.0000 1796.1586 -7645.2586 302.1960 -9441.4172 -7602.8718 300.8309 176.6218 252.2008 30566.6727 -84.7060 -15.3341
ENERGY: 1500000 0.8235 1.4620 4.3634 0.0000 -10819.9906 1393.9250 0.0000 0.0000 1767.0213 -7652.3953 297.2937 -9419.4166 -7606.6724 300.6814 -573.6101 -561.4216 31190.1381 -140.4087 -76.1387
TCL: Running FEP window  20: Lambda1 0.9500000000000003 Lambda2 1.0    [dLambda 0.04999999999999971]
TCL: Setting parameter firsttimestep to 0
TCL: Setting parameter alchLambda to 0.9500000000000003
Info: NONBONDED TABLE R-SQUARED SPACING: 0.0625
Info: NONBONDED TABLE SIZE: 705 POINTS
TCL: Setting parameter alchLambda2 to 1.0
Info: NONBONDED TABLE R-SQUARED SPACING: 0.0625
Info: NONBONDED TABLE SIZE: 705 POINTS
TCL: Running for 1500000 steps
ETITLE: TS BOND ANGLE DIHED IMPRP ELECT VDW BOUNDARY MISC KINETIC TOTAL TEMP POTENTIAL TOTALAVG TEMPAVG PRESSURE GPRESSURE VOLUME PRESSAVG GPRESSAVG
ENERGY: 0 0.8235 1.4620 4.3634 0.0000 -10821.4907 1394.7584 0.0000 0.0000 1766.1233 -7653.9601 297.1427 -9420.0834 -7653.9601 297.1427 -609.5179 -541.0184 31190.1381 -609.5179 -541.0184
ENERGY: 300000 2.3151 3.5767 2.5607 0.0000 -10841.9063 1442.4408 0.0000 0.0000 1823.7278 -7567.2851 306.8344 -9391.0129 -7620.4405 302.5173 -56.9550 -14.9671 30766.5357 -46.1334 6.9430
ENERGY: 600000 1.5502 10.5621 4.2099 0.0000 -10872.5962 1480.5589 0.0000 0.0000 1792.1213 -7583.5938 301.5167 -9375.7151 -7616.9750 300.4446 329.7767 346.9721 30578.2472 18.9347 62.9475
ENERGY: 900000 1.3305 5.1193 3.5506 0.0000 -10966.8719 1457.0265 0.0000 0.0000 1768.7429 -7731.1022 297.5834 -9499.8451 -7622.8837 300.5062 -141.1841 -104.6526 30262.5637 -107.4830 -69.0677
ENERGY: 1200000 2.1051 4.6180 2.7212 0.0000 -10859.9892 1495.9404 0.0000 0.0000 1806.5592 -7548.0453 303.9458 -9354.6045 -7634.5379 299.4513 492.7802 646.4672 30748.2428 -165.0429 -115.3429
ENERGY: 1500000 2.6235 9.2416 2.3705 0.0000 -11000.4686 1491.4342 0.0000 0.0000 1753.1166 -7741.6823 294.9543 -9494.7989 -7634.6968 298.5597 294.1905 344.4480 30175.3618 -170.2313 -117.5955
TCL: Exiting due to exit command.
