Info: SIMULATION PARAMETERS:
Info: TIMESTEP               2
Info: NUMBER OF STEPS        0
Info: STEPS PER CYCLE        10
Info: PERIODIC CELL BASIS 1  31.5009 0 0
Info: PERIODIC CELL BASIS 2  0 30.0702 0
Info: PERIODIC CELL BASIS 3  0 0 31.3543
Info: PERIODIC CELL CENTER   0 0 0
Info: WRAPPING WATERS AROUND PERIODIC BOUNDARIES ON OUTPUT.
Info: WRAPPING ALL CLUSTERS AROUND PERIODIC BOUNDARIES ON OUTPUT.
Info: FIRST LDB TIMESTEP     50
Info: LAST LDB TIMESTEP     -1
Info: HOM BACKGROUND SCALING 1
Info: PME BACKGROUND SCALING 1
Info: MIN ATOMS PER PATCH    40
Info: EMPTY PATCH LOAD       40 ATOMS
Info: VELOCITY FILE          mobley_1520842_equil.vel
Info: CENTER OF MASS MOVING INITIALLY? NO
Info: DIELECTRIC             1
Info: EXCLUDE                SCALED ONE-FOUR
Info: 1-4 ELECTROSTATICS SCALED BY 0.833333
Info: MODIFIED 1-4 VDW PARAMETERS WILL BE USED
Info: DCD FILENAME           mobley_1520842_prod.dcd
Info: DCD FREQUENCY          100000
Info: DCD FIRST STEP         100000
Info: DCD FILE WILL CONTAIN UNIT CELL DATA
Info: XST FILENAME           mobley_1520842_prod.xst
Info: XST FREQUENCY          100000
Info: NO VELOCITY DCD OUTPUT
Info: NO FORCE DCD OUTPUT
Info: OUTPUT FILENAME        mobley_1520842_prod
Info: BINARY OUTPUT FILES WILL BE USED
Info: RESTART FILENAME       mobley_1520842_prod.restart
Info: RESTART FREQUENCY      100000
Info: BINARY RESTART FILES WILL BE USED
Info: CUTOFF                 9
Info: PAIRLIST DISTANCE      11
Info: PAIRLIST SHRINK RATE   0.01
Info: PAIRLIST GROW RATE     0.01
Info: PAIRLIST TRIGGER       0.3
Info: PAIRLISTS PER CYCLE    2
Info: PAIRLISTS ENABLED
Info: MARGIN                 2
Info: HYDROGEN GROUP CUTOFF  2.5
Info: PATCH DIMENSION        15.5
Info: ENERGY OUTPUT STEPS    100000
Info: ENERGY EVALUATION STEPS    100000
Info: OUTPUT ENERGY PRECISION 4
Info: CROSSTERM ENERGY INCLUDED IN DIHEDRAL
Info: TIMING OUTPUT STEPS    1000000
Info: PRESSURE OUTPUT STEPS  100000
Info: ALCHEMICAL FEP ON
Info: FEP CURRENT LAMBDA VALUE     1
Info: FEP COMPARISON LAMBDA VALUE  0.95
Info: FEP INTRA-ALCHEMICAL NON-BONDED INTERACTIONS WILL BE RETAINED
Info: FEP INTRA-ALCHEMICAL BONDED INTERACTIONS WILL BE RETAINED
Info: FEP VDW SHIFTING COEFFICIENT 5
Info: FEP ELEC. ACTIVE FOR ANNIHILATED PARTICLES BETWEEN LAMBDA = 0 AND LAMBDA = 0.5
Info: FEP ELEC. ACTIVE FOR EXNIHILATED PARTICLES BETWEEN LAMBDA = 0.5 AND LAMBDA = 1
Info: FEP VDW ACTIVE FOR ANNIHILATED PARTICLES BETWEEN LAMBDA = 0 AND LAMBDA = 1
Info: FEP VDW ACTIVE FOR EXNIHILATED PARTICLES BETWEEN LAMBDA = 0 AND LAMBDA = 1
Info: FEP BOND ACTIVE FOR ANNIHILATED PARTICLES BETWEEN LAMBDA = 1 AND LAMBDA = 1
Info: FEP BOND ACTIVE FOR EXNIHILATED PARTICLES BETWEEN LAMBDA = 0 AND LAMBDA = 0
Info: LANGEVIN DYNAMICS ACTIVE
Info: LANGEVIN TEMPERATURE   300
Info: LANGEVIN USING BBK INTEGRATOR
Info: LANGEVIN DAMPING COEFFICIENT IS 1 INVERSE PS
Info: LANGEVIN DYNAMICS APPLIED TO HYDROGENS
Info: LANGEVIN PISTON PRESSURE CONTROL ACTIVE
Info:        TARGET PRESSURE IS 1.01325 BAR
Info:     OSCILLATION PERIOD IS 50 FS
Info:             DECAY TIME IS 25 FS
Info:     PISTON TEMPERATURE IS 300 K
Info:       PRESSURE CONTROL IS GROUP-BASED
Info:    INITIAL STRAIN RATE IS 0.000107004 0.000107004 0.000107004
Info:       CELL FLUCTUATION IS ISOTROPIC
Info: PARTICLE MESH EWALD (PME) ACTIVE
Info: PME TOLERANCE               1e-06
Info: PME EWALD COEFFICIENT       0.348832
Info: PME INTERPOLATION ORDER     4
Info: PME GRID DIMENSIONS         32 32 32
Info: PME MAXIMUM GRID SPACING    1
Info: PME CALCULATION WILL BE PERFORMED ON GPU
Info: FULL ELECTROSTATIC EVALUATION FREQUENCY      2
Info: USING VERLET I (r-RESPA) MTS SCHEME.
Info: C1 SPLITTING OF LONG RANGE ELECTROSTATICS
Info: PLACING ATOMS IN PATCHES BY HYDROGEN GROUPS
Info: RIGID BONDS TO HYDROGEN : ALL
Info:         ERROR TOLERANCE : 1e-08
Info:          MAX ITERATIONS : 100
Info: RIGID WATER USING SETTLE ALGORITHM
Info: RANDOM NUMBER SEED     1743572838
Info: USE HYDROGEN BONDS?    NO
Info: Using AMBER format force field!
Info: AMBER PARM FILE        mobley_1520842.prmtop
Info: COORDINATE PDB         mobley_1520842.pdb
Info: Exclusions will be read from PARM file!
Info: SCNB (VDW SCALING)     2
Info: USING ARITHMETIC MEAN TO COMBINE L-J SIGMA PARAMETERS
Info: BINARY COORDINATES     mobley_1520842_equil.coor
Info: SUMMARY OF PARAMETERS:
Info: 8 BONDS
Info: 9 ANGLES
Info:   9 HARMONIC
Info:   0 COSINE-BASED
Info: 4 DIHEDRAL
Info: 0 IMPROPER
Info: 0 CROSSTERM
Info: 0 VDW
Info: 36 VDW_PAIRS
Info: 0 NBTHOLE_PAIRS
Info: To read alchdata from file: mobley_1520842.pdb
Info: To read alchflag data from column: 5
Info: STRUCTURE SUMMARY:
Info: 2927 ATOMS
Info: 2927 BONDS
Info: 22 ANGLES
Info: 31 DIHEDRALS
Info: 0 IMPROPERS
Info: 0 CROSSTERMS
Info: 2972 EXCLUSIONS
Info: 2920 RIGID BONDS
Info: ALCH: 0 ATOMS TO DISAPPEAR IN FINAL STATE
Info: ALCH: 14 ATOMS TO APPEAR IN FINAL STATE
Info: 5861 DEGREES OF FREEDOM
Info: 978 HYDROGEN GROUPS
Info: 4 ATOMS IN LARGEST HYDROGEN GROUP
Info: 978 MIGRATION GROUPS
Info: 4 ATOMS IN LARGEST MIGRATION GROUP
Info: TOTAL MASS = 17586.7 amu
Info: TOTAL CHARGE = 9.99868e-05 e
Info: MASS DENSITY = 0.983301 g/cm^3
Info: ATOM DENSITY = 0.0985522 atoms/A^3
Info: ADDED 0 IMPLICIT EXCLUSIONS
Info: NONBONDED TABLE R-SQUARED SPACING: 0.0625
Info: NONBONDED TABLE SIZE: 705 POINTS
Info: REMOVING COM VELOCITY 0.0805523 -0.0346638 -0.216729
Info: Use 3D box decompostion in PME FFT.
Info: Updated CUDA force table with 4096 elements.
Info: Updated CUDA LJ table with 8 x 8 elements.
Info: Found 15 unique exclusion lists needing 32 bytes
TCL: Running for 1500000 steps
ETITLE: TS BOND ANGLE DIHED IMPRP ELECT VDW BOUNDARY MISC KINETIC TOTAL TEMP POTENTIAL TOTALAVG TEMPAVG PRESSURE GPRESSURE VOLUME PRESSAVG GPRESSAVG
ENERGY: 0 2.1973 3.4636 0.4094 0.0000 -10839.7696 1527.9211 0.0000 0.0000 1726.6836 -7579.0946 296.5046 -9305.7781 -7579.0946 296.5046 763.8728 839.5455 29699.9935 763.8728 839.5455
ENERGY: 300000 1.3735 3.0332 1.2654 0.0000 -10732.2367 1530.8001 0.0000 0.0000 1791.2786 -7404.4859 307.5968 -9195.7645 -7504.5475 299.1979 968.1629 1004.8170 30202.0869 375.9887 420.8421
ENERGY: 600000 1.8699 3.7095 0.3143 0.0000 -10602.5474 1420.0079 0.0000 0.0000 1797.4027 -7379.2431 308.6484 -9176.6458 -7474.6257 301.9389 -235.5341 -130.1324 30507.9011 258.7435 315.1692
ENERGY: 900000 2.4392 2.6002 1.4194 0.0000 -10815.0685 1530.4095 0.0000 0.0000 1700.1167 -7578.0834 291.9425 -9278.2001 -7483.5751 300.9516 820.3803 822.0004 29765.9997 177.2669 222.0887
ENERGY: 1200000 1.5100 3.0579 2.1565 0.0000 -10571.1747 1368.3082 0.0000 0.0000 1777.5500 -7418.5921 305.2393 -9196.1420 -7476.5172 300.7122 -382.1016 -257.1050 30171.0724 115.7707 173.9500
ENERGY: 1500000 3.0561 4.1753 2.5607 0.0000 -10802.1648 1518.9450 0.0000 0.0000 1667.8968 -7605.5309 286.4098 -9273.4277 -7483.1914 299.5987 447.4548 539.5620 30226.0142 102.4193 160.6817
TCL: Running FEP window   2: Lambda1 0.95   Lambda2 0.8999999999999999 [dLambda -0.050000000000000044]
TCL: Setting parameter firsttimestep to 0
TCL: Setting parameter alchLambda to 0.95
Info: NONBONDED TABLE R-SQUARED SPACING: 0.0625
Info: NONBONDED TABLE SIZE: 705 POINTS
TCL: Setting parameter alchLambda2 to 0.8999999999999999
Info: NONBONDED TABLE R-SQUARED SPACING: 0.0625
Info: NONBONDED TABLE SIZE: 705 POINTS
TCL: Running for 1500000 steps
ETITLE: TS BOND ANGLE DIHED IMPRP ELECT VDW BOUNDARY MISC KINETIC TOTAL TEMP POTENTIAL TOTALAVG TEMPAVG PRESSURE GPRESSURE VOLUME PRESSAVG GPRESSAVG
ENERGY: 0 3.0561 4.1753 2.5607 0.0000 -10800.7936 1518.5417 0.0000 0.0000 1667.0166 -7605.4432 286.2586 -9272.4598 -7605.4432 286.2586 437.8412 523.8333 30226.0142 437.8412 523.8333
ENERGY: 300000 2.4434 2.5283 2.6105 0.0000 -10611.4346 1426.5976 0.0000 0.0000 1785.4433 -7391.8114 306.5948 -9177.2548 -7489.5999 297.7071 -9.8296 126.7438 29941.8604 -124.4660 -49.7833
ENERGY: 600000 1.2501 2.6388 1.3884 0.0000 -10509.7938 1313.6822 0.0000 0.0000 1737.1972 -7453.6371 298.3100 -9190.8343 -7475.6346 298.8662 -884.0734 -854.7587 30681.1511 -334.7508 -274.4641
ENERGY: 900000 2.1368 3.6347 0.5545 0.0000 -10741.1197 1403.7185 0.0000 0.0000 1729.9345 -7601.1407 297.0628 -9331.0752 -7479.6253 298.7615 -573.6649 -484.5371 29984.4488 -382.6538 -319.4597
ENERGY: 1200000 5.3430 6.1927 1.6974 0.0000 -10553.2766 1394.3174 0.0000 0.0000 1770.3445 -7375.3815 304.0020 -9145.7261 -7465.1875 299.6976 -238.7595 -203.0304 30408.0996 -278.9188 -221.5002
ENERGY: 1500000 1.7422 3.4945 2.6602 0.0000 -10641.2644 1407.8451 0.0000 0.0000 1754.8758 -7470.6467 301.3457 -9225.5225 -7462.6007 300.1765 -245.4993 -229.1219 30129.6401 -274.9657 -220.6370
TCL: Running FEP window   3: Lambda1 0.8999999999999999 Lambda2 0.8499999999999999 [dLambda -0.050000000000000044]
TCL: Setting parameter firsttimestep to 0
TCL: Setting parameter alchLambda to 0.8999999999999999
Info: NONBONDED TABLE R-SQUARED SPACING: 0.0625
Info: NONBONDED TABLE SIZE: 705 POINTS
TCL: Setting parameter alchLambda2 to 0.8499999999999999
Info: NONBONDED TABLE R-SQUARED SPACING: 0.0625
Info: NONBONDED TABLE SIZE: 705 POINTS
TCL: Running for 1500000 steps
ETITLE: TS BOND ANGLE DIHED IMPRP ELECT VDW BOUNDARY MISC KINETIC TOTAL TEMP POTENTIAL TOTALAVG TEMPAVG PRESSURE GPRESSURE VOLUME PRESSAVG GPRESSAVG
ENERGY: 0 1.7422 3.4945 2.6602 0.0000 -10639.4232 1406.8844 0.0000 0.0000 1754.0463 -7470.5957 301.2033 -9224.6419 -7470.5957 301.2033 -326.5708 -245.5065 30129.6401 -326.5708 -245.5065
ENERGY: 300000 1.0746 3.8923 2.2035 0.0000 -10866.7053 1533.3285 0.0000 0.0000 1713.5088 -7612.6976 294.2422 -9326.2064 -7501.6892 299.0286 718.8277 821.4938 29575.3972 306.3778 362.9046
ENERGY: 600000 1.3276 4.2403 3.2468 0.0000 -10710.3172 1456.3685 0.0000 0.0000 1769.1059 -7476.0280 303.7893 -9245.1339 -7479.3846 298.9985 225.3695 264.1296 30029.3218 122.9748 177.3108
ENERGY: 900000 2.4202 4.5069 4.0992 0.0000 -10555.8177 1398.8831 0.0000 0.0000 1718.3188 -7427.5895 295.0682 -9145.9083 -7468.9622 299.2360 -190.3671 -129.3926 30140.3972 130.0930 185.1968
ENERGY: 1200000 0.6736 4.5862 1.9064 0.0000 -10657.3799 1424.8775 0.0000 0.0000 1763.3980 -7461.9382 302.8092 -9225.3362 -7466.7756 300.4206 58.8957 93.2626 29934.7101 111.8119 169.6087
ENERGY: 1500000 0.6705 5.3882 3.4691 0.0000 -10709.7514 1462.1997 0.0000 0.0000 1759.7677 -7478.2564 302.1858 -9238.0240 -7471.0738 300.5788 455.8257 459.3334 29791.0760 92.7767 145.3426
TCL: Running FEP window   4: Lambda1 0.8499999999999999 Lambda2 0.7999999999999998 [dLambda -0.050000000000000044]
TCL: Setting parameter firsttimestep to 0
TCL: Setting parameter alchLambda to 0.8499999999999999
Info: NONBONDED TABLE R-SQUARED SPACING: 0.0625
Info: NONBONDED TABLE SIZE: 705 POINTS
TCL: Setting parameter alchLambda2 to 0.7999999999999998
Info: NONBONDED TABLE R-SQUARED SPACING: 0.0625
Info: NONBONDED TABLE SIZE: 705 POINTS
TCL: Running for 1500000 steps
ETITLE: TS BOND ANGLE DIHED IMPRP ELECT VDW BOUNDARY MISC KINETIC TOTAL TEMP POTENTIAL TOTALAVG TEMPAVG PRESSURE GPRESSURE VOLUME PRESSAVG GPRESSAVG
ENERGY: 0 0.6705 5.3882 3.4691 0.0000 -10709.1456 1462.3087 0.0000 0.0000 1758.8908 -7478.4183 302.0352 -9237.3092 -7478.4183 302.0352 378.1005 450.1074 29791.0760 378.1005 450.1074
ENERGY: 300000 2.2715 2.5761 4.0227 0.0000 -10547.8267 1370.4477 0.0000 0.0000 1706.1930 -7462.3157 292.9860 -9168.5087 -7456.1377 301.0321 -597.7864 -578.5069 30557.0470 -57.0330 3.9864
ENERGY: 600000 1.1569 4.8080 3.2904 0.0000 -10514.2791 1315.5368 0.0000 0.0000 1786.3997 -7403.0873 306.7590 -9189.4869 -7445.8910 300.8496 -1097.3723 -974.8774 30534.2648 -331.4121 -258.6367
ENERGY: 900000 2.4935 1.8415 1.0288 0.0000 -10517.2607 1359.0172 0.0000 0.0000 1728.1717 -7424.7080 296.7601 -9152.8797 -7453.7031 298.6765 -291.4216 -235.3190 30124.9450 -237.6231 -170.0697
ENERGY: 1200000 0.6845 4.4025 1.1890 0.0000 -10519.8116 1360.3280 0.0000 0.0000 1716.2440 -7436.9635 294.7119 -9153.2075 -7450.8350 298.1971 -231.7234 -167.7902 29915.1056 -292.1864 -219.7374
ENERGY: 1500000 1.4036 3.4380 2.2837 0.0000 -10663.7116 1372.5272 0.0000 0.0000 1719.8318 -7564.2273 295.3280 -9284.0591 -7461.3664 297.3360 -426.9152 -355.1327 29656.4667 -294.7752 -229.0684
TCL: Running FEP window   5: Lambda1 0.7999999999999998 Lambda2 0.7499999999999998 [dLambda -0.050000000000000044]
TCL: Setting parameter firsttimestep to 0
TCL: Setting parameter alchLambda to 0.7999999999999998
Info: NONBONDED TABLE R-SQUARED SPACING: 0.0625
Info: NONBONDED TABLE SIZE: 705 POINTS
TCL: Setting parameter alchLambda2 to 0.7499999999999998
Info: NONBONDED TABLE R-SQUARED SPACING: 0.0625
Info: NONBONDED TABLE SIZE: 705 POINTS
TCL: Running for 1500000 steps
ETITLE: TS BOND ANGLE DIHED IMPRP ELECT VDW BOUNDARY MISC KINETIC TOTAL TEMP POTENTIAL TOTALAVG TEMPAVG PRESSURE GPRESSURE VOLUME PRESSAVG GPRESSAVG
ENERGY: 0 1.4036 3.4380 2.2837 0.0000 -10663.0703 1373.0236 0.0000 0.0000 1718.9500 -7563.9713 295.1766 -9282.9213 -7563.9713 295.1766 -455.9918 -359.3698 29656.4667 -455.9918 -359.3698
ENERGY: 300000 1.3356 4.0397 2.0170 0.0000 -10746.9515 1498.1063 0.0000 0.0000 1732.2337 -7509.2191 297.4577 -9241.4528 -7459.3968 299.9102 269.3266 340.3022 30332.4113 -138.1102 -73.4841
ENERGY: 600000 3.0840 6.3785 0.9806 0.0000 -10646.6189 1539.8984 0.0000 0.0000 1733.4718 -7362.8056 297.6703 -9096.2774 -7426.3535 301.3772 1081.0440 1166.6826 30006.3871 166.4351 230.8305
ENERGY: 900000 3.5209 2.4643 3.3750 0.0000 -10497.7471 1373.6802 0.0000 0.0000 1725.4007 -7389.3062 296.2843 -9114.7068 -7430.6830 300.1874 -331.0776 -313.1135 30317.0915 -68.6940 -3.7061
ENERGY: 1200000 1.5807 5.5111 2.2503 0.0000 -10684.4516 1492.5306 0.0000 0.0000 1699.5063 -7483.0727 291.8377 -9182.5789 -7446.0111 299.5841 407.9750 556.9739 30232.9402 -74.7430 -3.9626
ENERGY: 1500000 2.0492 3.3870 1.3827 0.0000 -10577.1847 1441.2893 0.0000 0.0000 1712.4331 -7416.6435 294.0575 -9129.0765 -7452.2575 298.4384 300.8668 301.6163 30029.6993 41.7104 113.0321
TCL: Running FEP window   6: Lambda1 0.7499999999999998 Lambda2 0.6999999999999997 [dLambda -0.050000000000000044]
TCL: Setting parameter firsttimestep to 0
TCL: Setting parameter alchLambda to 0.7499999999999998
Info: NONBONDED TABLE R-SQUARED SPACING: 0.0625
Info: NONBONDED TABLE SIZE: 705 POINTS
TCL: Setting parameter alchLambda2 to 0.6999999999999997
Info: NONBONDED TABLE R-SQUARED SPACING: 0.0625
Info: NONBONDED TABLE SIZE: 705 POINTS
TCL: Running for 1500000 steps
ETITLE: TS BOND ANGLE DIHED IMPRP ELECT VDW BOUNDARY MISC KINETIC TOTAL TEMP POTENTIAL TOTALAVG TEMPAVG PRESSURE GPRESSURE VOLUME PRESSAVG GPRESSAVG
ENERGY: 0 2.0492 3.3870 1.3827 0.0000 -10576.5187 1441.7334 0.0000 0.0000 1711.5954 -7416.3709 293.9137 -9127.9663 -7416.3709 293.9137 233.3785 300.6061 30029.6993 233.3785 300.6061
ENERGY: 300000 2.5224 5.2119 0.9798 0.0000 -10618.9853 1423.7437 0.0000 0.0000 1779.7595 -7406.7679 305.6187 -9186.5274 -7423.1475 299.0503 -7.9681 32.1398 30424.0564 135.2486 189.3520
ENERGY: 600000 1.1355 3.4738 6.4695 0.0000 -10490.2938 1322.1656 0.0000 0.0000 1743.3701 -7413.6793 299.3700 -9157.0493 -7419.1433 300.8503 -829.1218 -749.8023 30618.1541 -157.2507 -93.8201
ENERGY: 900000 0.7753 5.0610 0.8027 0.0000 -10749.2124 1517.8835 0.0000 0.0000 1745.8485 -7478.8414 299.7956 -9224.6899 -7422.3548 301.3155 355.4178 476.9472 30319.3816 -98.7891 -26.5280
ENERGY: 1200000 1.4900 2.8375 1.3461 0.0000 -10544.1999 1380.9048 0.0000 0.0000 1756.3988 -7401.2226 301.6073 -9157.6214 -7433.4716 301.3303 -291.8408 -206.3436 30340.2989 -89.1379 -16.8096
ENERGY: 1500000 2.8645 1.3661 3.9829 0.0000 -10804.3775 1561.7575 0.0000 0.0000 1673.2756 -7561.1310 287.3334 -9234.4066 -7447.4918 299.9766 881.3667 964.6429 29899.1042 -157.0468 -86.9468
TCL: Running FEP window   7: Lambda1 0.6999999999999997 Lambda2 0.6499999999999997 [dLambda -0.050000000000000044]
TCL: Setting parameter firsttimestep to 0
TCL: Setting parameter alchLambda to 0.6999999999999997
Info: NONBONDED TABLE R-SQUARED SPACING: 0.0625
Info: NONBONDED TABLE SIZE: 705 POINTS
TCL: Setting parameter alchLambda2 to 0.6499999999999997
Info: NONBONDED TABLE R-SQUARED SPACING: 0.0625
Info: NONBONDED TABLE SIZE: 705 POINTS
TCL: Running for 1500000 steps
ETITLE: TS BOND ANGLE DIHED IMPRP ELECT VDW BOUNDARY MISC KINETIC TOTAL TEMP POTENTIAL TOTALAVG TEMPAVG PRESSURE GPRESSURE VOLUME PRESSAVG GPRESSAVG
ENERGY: 0 2.8645 1.3661 3.9829 0.0000 -10803.1110 1561.7007 0.0000 0.0000 1672.4189 -7560.7779 287.1863 -9233.1967 -7560.7779 287.1863 874.2043 955.2343 29899.1042 874.2043 955.2343
ENERGY: 300000 1.9381 3.7457 2.6089 0.0000 -10552.6791 1386.4701 0.0000 0.0000 1774.1576 -7383.7587 304.6568 -9157.9163 -7448.8000 299.8281 -246.0624 -164.9511 30041.5947 248.3361 320.8069
ENERGY: 600000 1.7395 3.5702 1.7122 0.0000 -10655.5006 1448.2348 0.0000 0.0000 1696.6580 -7503.5858 291.3486 -9200.2438 -7470.0476 298.3393 351.3338 390.2945 29769.9840 269.6009 334.4130
ENERGY: 900000 1.7656 9.0629 5.8344 0.0000 -10697.1862 1422.8341 0.0000 0.0000 1748.5243 -7509.1648 300.2551 -9257.6892 -7470.7907 298.9076 -257.4435 -171.5600 29932.2082 -54.6798 18.7794
ENERGY: 1200000 2.2132 4.5153 3.2058 0.0000 -10526.9032 1357.9611 0.0000 0.0000 1785.5287 -7373.4791 306.6094 -9159.0078 -7454.3864 299.9682 -428.3739 -354.1775 30183.1134 -112.4921 -39.4207
ENERGY: 1500000 1.9077 3.2970 2.5444 0.0000 -10541.9305 1399.7133 0.0000 0.0000 1718.4108 -7416.0573 295.0840 -9134.4681 -7450.0543 299.5430 -133.0440 -50.6600 30139.6319 -109.6135 -43.2430
TCL: Running FEP window   8: Lambda1 0.6499999999999997 Lambda2 0.5999999999999996 [dLambda -0.050000000000000044]
TCL: Setting parameter firsttimestep to 0
TCL: Setting parameter alchLambda to 0.6499999999999997
Info: NONBONDED TABLE R-SQUARED SPACING: 0.0625
Info: NONBONDED TABLE SIZE: 705 POINTS
TCL: Setting parameter alchLambda2 to 0.5999999999999996
Info: NONBONDED TABLE R-SQUARED SPACING: 0.0625
Info: NONBONDED TABLE SIZE: 705 POINTS
TCL: Running for 1500000 steps
ETITLE: TS BOND ANGLE DIHED IMPRP ELECT VDW BOUNDARY MISC KINETIC TOTAL TEMP POTENTIAL TOTALAVG TEMPAVG PRESSURE GPRESSURE VOLUME PRESSAVG GPRESSAVG
ENERGY: 0 1.9077 3.2970 2.5444 0.0000 -10541.6277 1400.0062 0.0000 0.0000 1717.5308 -7416.3417 294.9329 -9133.8725 -7416.3417 294.9329 -141.0256 -56.7238 30139.6319 -141.0256 -56.7238
ENERGY: 300000 2.2738 3.8289 1.7504 0.0000 -10445.0506 1322.7153 0.0000 0.0000 1794.8867 -7319.5956 308.2164 -9114.4823 -7419.3243 301.6332 -984.5715 -930.8635 30994.2394 -385.7796 -318.4258
ENERGY: 600000 3.1696 4.1889 0.6505 0.0000 -10664.8176 1475.1961 0.0000 0.0000 1691.7328 -7489.8796 290.5029 -9181.6124 -7433.4111 298.8465 342.2577 386.8867 29994.2174 -17.8953 41.7571
ENERGY: 900000 1.2641 4.2028 2.2795 0.0000 -10626.8437 1414.2085 0.0000 0.0000 1767.3687 -7437.5201 303.4910 -9204.8888 -7431.8353 300.2650 -47.7348 11.8223 29721.2857 -34.7786 25.0542
ENERGY: 1200000 2.3787 3.5321 0.9764 0.0000 -10587.9042 1366.9845 0.0000 0.0000 1689.8471 -7524.1853 290.1791 -9214.0324 -7437.1056 300.1134 -438.8357 -419.5313 29865.5135 -6.0122 51.0278
ENERGY: 1500000 2.4357 5.1440 5.5171 0.0000 -10545.7709 1374.0669 0.0000 0.0000 1764.2328 -7394.3744 302.9525 -9158.6072 -7431.9940 300.8894 -554.7894 -526.6800 30312.5355 -97.5165 -40.5748
TCL: Running FEP window   9: Lambda1 0.5999999999999996 Lambda2 0.5499999999999996 [dLambda -0.050000000000000044]
TCL: Setting parameter firsttimestep to 0
TCL: Setting parameter alchLambda to 0.5999999999999996
Info: NONBONDED TABLE R-SQUARED SPACING: 0.0625
Info: NONBONDED TABLE SIZE: 705 POINTS
TCL: Setting parameter alchLambda2 to 0.5499999999999996
Info: NONBONDED TABLE R-SQUARED SPACING: 0.0625
Info: NONBONDED TABLE SIZE: 705 POINTS
TCL: Running for 1500000 steps
ETITLE: TS BOND ANGLE DIHED IMPRP ELECT VDW BOUNDARY MISC KINETIC TOTAL TEMP POTENTIAL TOTALAVG TEMPAVG PRESSURE GPRESSURE VOLUME PRESSAVG GPRESSAVG
ENERGY: 0 2.4357 5.1440 5.5171 0.0000 -10545.6551 1374.5587 0.0000 0.0000 1763.3982 -7394.6015 302.8092 -9157.9996 -7394.6015 302.8092 -611.5557 -527.4809 30312.5355 -611.5557 -527.4809
ENERGY: 300000 1.7662 4.6711 2.2914 0.0000 -10497.4657 1331.8976 0.0000 0.0000 1817.4667 -7339.3727 312.0938 -9156.8393 -7423.7454 301.3251 -634.0644 -507.0661 30041.3853 -485.7291 -413.7759
ENERGY: 600000 1.4678 3.8849 2.8701 0.0000 -10540.3155 1361.2490 0.0000 0.0000 1734.6536 -7436.1903 297.8732 -9170.8439 -7440.7605 300.9779 -504.4152 -360.0671 29916.8466 -565.8398 -482.3923
ENERGY: 900000 2.9203 4.8263 1.0983 0.0000 -10531.5263 1353.9539 0.0000 0.0000 1734.0328 -7434.6946 297.7666 -9168.7274 -7427.7744 301.3622 -642.7059 -527.3429 30105.8349 -447.4318 -367.8312
ENERGY: 1200000 4.6653 3.4737 1.9535 0.0000 -10688.7186 1464.3553 0.0000 0.0000 1762.0782 -7452.1926 302.5825 -9214.2708 -7423.5138 302.6554 308.1143 363.7664 30047.1001 -232.9423 -166.7156
ENERGY: 1500000 3.5516 5.9525 5.9200 0.0000 -10652.9239 1391.7780 0.0000 0.0000 1751.5421 -7494.1797 300.7733 -9245.7218 -7430.5989 302.3240 -854.1371 -750.8405 30650.5582 -258.0316 -191.5375
TCL: Running FEP window  10: Lambda1 0.5499999999999996 Lambda2 0.4999999999999996 [dLambda -0.04999999999999999]
TCL: Setting parameter firsttimestep to 0
TCL: Setting parameter alchLambda to 0.5499999999999996
Info: NONBONDED TABLE R-SQUARED SPACING: 0.0625
Info: NONBONDED TABLE SIZE: 705 POINTS
TCL: Setting parameter alchLambda2 to 0.4999999999999996
Info: NONBONDED TABLE R-SQUARED SPACING: 0.0625
Info: NONBONDED TABLE SIZE: 705 POINTS
TCL: Running for 1500000 steps
ETITLE: TS BOND ANGLE DIHED IMPRP ELECT VDW BOUNDARY MISC KINETIC TOTAL TEMP POTENTIAL TOTALAVG TEMPAVG PRESSURE GPRESSURE VOLUME PRESSAVG GPRESSAVG
ENERGY: 0 3.5516 5.9525 5.9200 0.0000 -10652.7058 1391.8249 0.0000 0.0000 1750.6603 -7494.7965 300.6219 -9245.4569 -7494.7965 300.6219 -848.8533 -758.2859 30650.5582 -848.8533 -758.2859
ENERGY: 300000 0.4219 4.0394 1.8987 0.0000 -10706.8361 1486.4423 0.0000 0.0000 1794.0268 -7420.0069 308.0687 -9214.0337 -7460.7730 301.8173 379.4726 423.6521 30067.7282 -218.6010 -133.0086
ENERGY: 600000 5.4532 4.0686 2.3074 0.0000 -10664.8573 1458.0237 0.0000 0.0000 1763.3103 -7431.6940 302.7941 -9195.0044 -7442.1929 300.6607 90.7906 161.5266 30249.0489 -357.4308 -291.7000
ENERGY: 900000 3.5702 4.5023 1.9835 0.0000 -10740.2461 1426.7029 0.0000 0.0000 1707.7875 -7595.6997 293.2598 -9303.4872 -7464.4373 300.2351 -615.8117 -542.5708 30348.4738 -351.0175 -282.1580
ENERGY: 1200000 4.3106 3.2536 2.0887 0.0000 -10581.2677 1388.6850 0.0000 0.0000 1783.8958 -7399.0340 306.3290 -9182.9298 -7451.7439 300.8718 -652.7961 -564.4492 30755.2295 -338.2609 -273.9886
ENERGY: 1500000 0.6748 4.9602 2.5780 0.0000 -10630.1311 1396.3008 0.0000 0.0000 1777.5729 -7448.0445 305.2433 -9225.6174 -7451.4783 301.2420 -378.2170 -394.9451 30192.2249 -228.8243 -170.9445
TCL: Running FEP window  11: Lambda1 0.4999999999999996 Lambda2 0.4499999999999996 [dLambda -0.04999999999999999]
TCL: Setting parameter firsttimestep to 0
TCL: Setting parameter alchLambda to 0.4999999999999996
Info: NONBONDED TABLE R-SQUARED SPACING: 0.0625
Info: NONBONDED TABLE SIZE: 705 POINTS
TCL: Setting parameter alchLambda2 to 0.4499999999999996
Info: NONBONDED TABLE R-SQUARED SPACING: 0.0625
Info: NONBONDED TABLE SIZE: 705 POINTS
TCL: Running for 1500000 steps
ETITLE: TS BOND ANGLE DIHED IMPRP ELECT VDW BOUNDARY MISC KINETIC TOTAL TEMP POTENTIAL TOTALAVG TEMPAVG PRESSURE GPRESSURE VOLUME PRESSAVG GPRESSAVG
ENERGY: 0 0.6748 4.9602 2.5780 0.0000 -10630.9019 1395.7773 0.0000 0.0000 1776.7365 -7450.1752 305.0996 -9226.9116 -7450.1752 305.0996 -490.4016 -406.2615 30192.2249 -490.4016 -406.2615
ENERGY: 300000 1.7813 2.5207 5.2487 0.0000 -10754.1218 1481.3100 0.0000 0.0000 1770.2857 -7492.9754 303.9919 -9263.2610 -7470.0368 303.3341 256.9973 378.8735 29777.1760 -176.3080 -108.3107
ENERGY: 600000 2.3028 5.0518 1.2069 0.0000 -10650.6595 1410.0581 0.0000 0.0000 1696.1395 -7535.9005 291.2596 -9232.0400 -7488.0997 299.8068 -296.2550 -255.8507 30000.1555 -133.7048 -61.2179
ENERGY: 900000 2.3612 2.7377 3.4460 0.0000 -10691.8198 1507.8423 0.0000 0.0000 1761.5249 -7413.9077 302.4875 -9175.4326 -7478.9588 299.6248 772.6812 867.8023 29898.6302 7.7502 78.6204
ENERGY: 1200000 2.0582 4.8149 2.5111 0.0000 -10584.0329 1460.0371 0.0000 0.0000 1749.6042 -7365.0075 300.4405 -9114.6116 -7472.9768 299.6090 558.1519 669.7083 29897.7314 133.5712 201.1165
ENERGY: 1500000 2.1668 5.0867 3.2118 0.0000 -10499.3574 1331.2208 0.0000 0.0000 1695.2328 -7462.4386 291.1039 -9157.6714 -7479.6677 297.8670 -659.4162 -663.1046 30371.8924 17.7617 79.8657
TCL: Running FEP window  12: Lambda1 0.4499999999999996 Lambda2 0.39999999999999963 [dLambda -0.04999999999999999]
TCL: Setting parameter firsttimestep to 0
TCL: Setting parameter alchLambda to 0.4499999999999996
Info: NONBONDED TABLE R-SQUARED SPACING: 0.0625
Info: NONBONDED TABLE SIZE: 705 POINTS
TCL: Setting parameter alchLambda2 to 0.39999999999999963
Info: NONBONDED TABLE R-SQUARED SPACING: 0.0625
Info: NONBONDED TABLE SIZE: 705 POINTS
TCL: Running for 1500000 steps
ETITLE: TS BOND ANGLE DIHED IMPRP ELECT VDW BOUNDARY MISC KINETIC TOTAL TEMP POTENTIAL TOTALAVG TEMPAVG PRESSURE GPRESSURE VOLUME PRESSAVG GPRESSAVG
ENERGY: 0 2.1668 5.0867 3.2118 0.0000 -10499.3574 1331.1367 0.0000 0.0000 1694.3663 -7463.3892 290.9551 -9157.7555 -7463.3892 290.9551 -740.3220 -667.2018 30371.8924 -740.3220 -667.2018
ENERGY: 300000 3.0326 3.4090 3.3268 0.0000 -10593.9882 1409.8351 0.0000 0.0000 1747.9667 -7426.4180 300.1593 -9174.3847 -7438.9942 299.9897 -394.3645 -238.7069 30237.1774 -241.0850 -160.7928
ENERGY: 600000 1.2369 3.0389 2.3205 0.0000 -10629.9695 1462.9998 0.0000 0.0000 1736.7981 -7423.5752 298.2415 -9160.3734 -7433.6435 300.7630 424.1780 498.2625 29930.4021 56.1912 120.4712
ENERGY: 900000 1.5605 4.4972 2.7457 0.0000 -10716.1149 1483.9782 0.0000 0.0000 1776.6092 -7446.7241 305.0778 -9223.3333 -7442.5897 300.6276 387.3534 379.1271 30045.1213 76.3285 138.6504
ENERGY: 1200000 3.8713 3.4718 1.9700 0.0000 -10759.8354 1459.6418 0.0000 0.0000 1682.6202 -7608.2602 288.9381 -9290.8804 -7455.6096 298.0420 -232.6037 -82.8406 30000.0334 48.3488 121.0195
ENERGY: 1500000 2.8780 4.1275 2.8693 0.0000 -10643.2270 1385.6901 0.0000 0.0000 1779.6264 -7468.0357 305.5959 -9247.6622 -7460.2126 298.5611 -535.1525 -454.6253 30227.7849 30.5967 105.2935
TCL: Running FEP window  13: Lambda1 0.39999999999999963 Lambda2 0.34999999999999964 [dLambda -0.04999999999999999]
TCL: Setting parameter firsttimestep to 0
TCL: Setting parameter alchLambda to 0.39999999999999963
Info: NONBONDED TABLE R-SQUARED SPACING: 0.0625
Info: NONBONDED TABLE SIZE: 705 POINTS
TCL: Setting parameter alchLambda2 to 0.34999999999999964
Info: NONBONDED TABLE R-SQUARED SPACING: 0.0625
Info: NONBONDED TABLE SIZE: 705 POINTS
TCL: Running for 1500000 steps
ETITLE: TS BOND ANGLE DIHED IMPRP ELECT VDW BOUNDARY MISC KINETIC TOTAL TEMP POTENTIAL TOTALAVG TEMPAVG PRESSURE GPRESSURE VOLUME PRESSAVG GPRESSAVG
ENERGY: 0 2.8780 4.1275 2.8693 0.0000 -10643.2263 1385.7658 0.0000 0.0000 1778.7774 -7468.8085 305.4501 -9247.5858 -7468.8085 305.4501 -546.2948 -460.0362 30227.7849 -546.2948 -460.0362
ENERGY: 300000 2.4391 3.1019 1.9572 0.0000 -10615.1801 1367.9726 0.0000 0.0000 1785.8581 -7453.8512 306.6660 -9239.7093 -7443.1550 303.3433 -801.6734 -689.7023 29968.4704 -641.6859 -572.4109
ENERGY: 600000 1.2366 4.0685 0.5100 0.0000 -10555.5235 1416.7910 0.0000 0.0000 1829.0649 -7303.8525 314.0854 -9132.9174 -7420.7757 303.3858 172.7745 141.0133 30220.0187 -347.4588 -298.5996
ENERGY: 900000 4.0625 2.4177 0.5717 0.0000 -10627.9640 1428.0230 0.0000 0.0000 1726.2187 -7466.6704 296.4248 -9192.8890 -7423.0328 302.6514 -279.7677 -192.7297 30404.0288 -175.4419 -123.6287
ENERGY: 1200000 1.7614 3.3802 0.4858 0.0000 -10643.3544 1395.1377 0.0000 0.0000 1702.2805 -7540.3088 292.3141 -9242.5893 -7433.0417 302.5456 -287.4984 -211.8867 29555.7747 -269.3500 -208.9099
ENERGY: 1500000 2.2124 5.2289 1.1695 0.0000 -10810.1812 1530.6638 0.0000 0.0000 1785.5371 -7485.3696 306.6109 -9270.9066 -7433.6252 302.3976 655.8270 736.1740 29770.8516 -126.8319 -66.5663
TCL: Running FEP window  14: Lambda1 0.34999999999999964 Lambda2 0.29999999999999966 [dLambda -0.04999999999999999]
TCL: Setting parameter firsttimestep to 0
TCL: Setting parameter alchLambda to 0.34999999999999964
Info: NONBONDED TABLE R-SQUARED SPACING: 0.0625
Info: NONBONDED TABLE SIZE: 705 POINTS
TCL: Setting parameter alchLambda2 to 0.29999999999999966
Info: NONBONDED TABLE R-SQUARED SPACING: 0.0625
Info: NONBONDED TABLE SIZE: 705 POINTS
TCL: Running for 1500000 steps
ETITLE: TS BOND ANGLE DIHED IMPRP ELECT VDW BOUNDARY MISC KINETIC TOTAL TEMP POTENTIAL TOTALAVG TEMPAVG PRESSURE GPRESSURE VOLUME PRESSAVG GPRESSAVG
ENERGY: 0 2.2124 5.2289 1.1695 0.0000 -10810.1804 1530.9676 0.0000 0.0000 1784.6841 -7485.9180 306.4644 -9270.6020 -7485.9180 306.4644 642.4060 735.2610 29770.8516 642.4060 735.2610
ENERGY: 300000 0.7999 6.2132 1.3851 0.0000 -10613.7239 1389.7441 0.0000 0.0000 1770.1437 -7445.4379 303.9675 -9215.5816 -7474.7814 303.0555 -303.4008 -223.1709 29919.7536 285.0692 369.6514
ENERGY: 600000 1.2668 3.1381 1.6099 0.0000 -10445.0435 1266.9952 0.0000 0.0000 1754.2835 -7417.7501 301.2440 -9172.0336 -7457.3597 302.2484 -1434.2545 -1363.0103 30411.4598 -157.7364 -78.0804
ENERGY: 900000 1.9284 3.7556 1.6534 0.0000 -10499.6989 1359.0181 0.0000 0.0000 1739.7981 -7393.5453 298.7566 -9133.3433 -7448.1461 302.8897 -241.2160 -174.8837 29694.1535 -133.3143 -58.8241
ENERGY: 1200000 1.9147 4.2802 2.9097 0.0000 -10608.4950 1388.3775 0.0000 0.0000 1797.6810 -7413.3320 308.6962 -9211.0130 -7450.8221 302.7290 -397.4975 -365.3467 30055.4355 -120.1660 -52.6328
ENERGY: 1500000 1.3168 3.2688 4.3425 0.0000 -10633.9268 1475.0002 0.0000 0.0000 1730.5621 -7419.4363 297.1706 -9149.9985 -7442.0065 303.1752 321.8419 390.6059 30381.8783 -123.2642 -54.5004
TCL: Running FEP window  15: Lambda1 0.29999999999999966 Lambda2 0.24999999999999967 [dLambda -0.04999999999999999]
TCL: Setting parameter firsttimestep to 0
TCL: Setting parameter alchLambda to 0.29999999999999966
Info: NONBONDED TABLE R-SQUARED SPACING: 0.0625
Info: NONBONDED TABLE SIZE: 705 POINTS
TCL: Setting parameter alchLambda2 to 0.24999999999999967
Info: NONBONDED TABLE R-SQUARED SPACING: 0.0625
Info: NONBONDED TABLE SIZE: 705 POINTS
TCL: Running for 1500000 steps
ETITLE: TS BOND ANGLE DIHED IMPRP ELECT VDW BOUNDARY MISC KINETIC TOTAL TEMP POTENTIAL TOTALAVG TEMPAVG PRESSURE GPRESSURE VOLUME PRESSAVG GPRESSAVG
ENERGY: 0 1.3168 3.2688 4.3425 0.0000 -10633.9276 1474.9272 0.0000 0.0000 1729.6920 -7420.3804 297.0212 -9150.0724 -7420.3804 297.0212 298.7311 382.4819 30381.8783 298.7311 382.4819
ENERGY: 300000 1.3774 6.3019 1.3049 0.0000 -10595.0813 1406.2886 0.0000 0.0000 1783.9638 -7395.8446 306.3407 -9179.8084 -7431.4837 298.5649 172.3636 255.7653 29739.7230 -77.2102 17.3040
ENERGY: 600000 2.5744 2.3498 2.4877 0.0000 -10596.6050 1326.8060 0.0000 0.0000 1749.5373 -7512.8500 300.4290 -9262.3872 -7449.5895 299.8954 -1116.6985 -1038.7999 30294.5204 -336.5537 -242.3475
ENERGY: 900000 2.7494 5.9938 3.0088 0.0000 -10603.4181 1477.9547 0.0000 0.0000 1751.5509 -7362.1604 300.7748 -9113.7113 -7442.0499 298.9797 466.8251 497.5865 30039.4157 -226.2773 -138.5505
ENERGY: 1200000 2.5949 3.8659 0.7135 0.0000 -10575.6264 1356.4818 0.0000 0.0000 1829.8243 -7382.1460 314.2158 -9211.9703 -7446.8952 299.7171 -791.8981 -730.4125 30121.6111 -208.2259 -131.5097
ENERGY: 1500000 2.7958 4.0755 3.0074 0.0000 -10615.1970 1406.0744 0.0000 0.0000 1770.6056 -7428.6382 304.0468 -9199.2438 -7448.0624 300.2047 -368.5144 -341.1785 30321.0696 -125.0988 -50.4674
TCL: Running FEP window  16: Lambda1 0.24999999999999967 Lambda2 0.19999999999999968 [dLambda -0.04999999999999999]
TCL: Setting parameter firsttimestep to 0
TCL: Setting parameter alchLambda to 0.24999999999999967
Info: NONBONDED TABLE R-SQUARED SPACING: 0.0625
Info: NONBONDED TABLE SIZE: 705 POINTS
TCL: Setting parameter alchLambda2 to 0.19999999999999968
Info: NONBONDED TABLE R-SQUARED SPACING: 0.0625
Info: NONBONDED TABLE SIZE: 705 POINTS
TCL: Running for 1500000 steps
ETITLE: TS BOND ANGLE DIHED IMPRP ELECT VDW BOUNDARY MISC KINETIC TOTAL TEMP POTENTIAL TOTALAVG TEMPAVG PRESSURE GPRESSURE VOLUME PRESSAVG GPRESSAVG
ENERGY: 0 2.7958 4.0755 3.0074 0.0000 -10615.1966 1406.1402 0.0000 0.0000 1769.7016 -7429.4760 303.8916 -9199.1776 -7429.4760 303.8916 -436.0062 -342.5915 30321.0696 -436.0062 -342.5915
ENERGY: 300000 1.2928 5.9148 2.6220 0.0000 -10634.8785 1411.1044 0.0000 0.0000 1753.7424 -7460.2022 301.1511 -9213.9446 -7475.3738 302.0844 -124.7227 -88.5169 29780.8644 -132.2775 -84.7288
ENERGY: 600000 1.2814 5.5603 1.7534 0.0000 -10615.6156 1419.0589 0.0000 0.0000 1741.2126 -7446.7490 298.9995 -9187.9615 -7456.3430 301.7459 -23.5830 79.9113 29649.2772 -75.4059 -26.2414
ENERGY: 900000 2.4659 4.6440 3.5646 0.0000 -10809.5618 1517.1145 0.0000 0.0000 1773.6394 -7508.1333 304.5678 -9281.7727 -7468.1133 300.8103 496.1447 576.1453 29587.7805 -80.1160 -21.5302
ENERGY: 1200000 1.4022 3.0997 0.8416 0.0000 -10659.7400 1454.3270 0.0000 0.0000 1740.1939 -7459.8757 298.8246 -9200.0696 -7466.5371 300.4483 -30.1058 36.1349 30056.2351 -49.0437 5.8981
ENERGY: 1500000 1.5325 4.7483 3.5408 0.0000 -10635.0139 1465.8941 0.0000 0.0000 1731.9748 -7427.3234 297.4132 -9159.2982 -7457.6994 300.7420 414.1345 504.0598 30095.0510 11.9933 70.6558
TCL: Running FEP window  17: Lambda1 0.19999999999999968 Lambda2 0.1499999999999997 [dLambda -0.04999999999999999]
TCL: Setting parameter firsttimestep to 0
TCL: Setting parameter alchLambda to 0.19999999999999968
Info: NONBONDED TABLE R-SQUARED SPACING: 0.0625
Info: NONBONDED TABLE SIZE: 705 POINTS
TCL: Setting parameter alchLambda2 to 0.1499999999999997
Info: NONBONDED TABLE R-SQUARED SPACING: 0.0625
Info: NONBONDED TABLE SIZE: 705 POINTS
TCL: Running for 1500000 steps
ETITLE: TS BOND ANGLE DIHED IMPRP ELECT VDW BOUNDARY MISC KINETIC TOTAL TEMP POTENTIAL TOTALAVG TEMPAVG PRESSURE GPRESSURE VOLUME PRESSAVG GPRESSAVG
ENERGY: 0 1.5325 4.7483 3.5408 0.0000 -10635.0139 1466.0669 0.0000 0.0000 1731.1331 -7427.9923 297.2687 -9159.1254 -7427.9923 297.2687 424.0102 501.6504 30095.0510 424.0102 501.6504
ENERGY: 300000 1.9412 4.5497 1.1176 0.0000 -10731.7071 1453.0588 0.0000 0.0000 1743.1032 -7527.9365 299.3242 -9271.0397 -7465.2959 298.3794 182.6782 254.0985 29371.5951 -208.2272 -120.5390
ENERGY: 600000 1.6826 2.1731 2.4959 0.0000 -10662.8606 1386.7333 0.0000 0.0000 1728.2161 -7541.5597 296.7677 -9269.7757 -7477.4659 297.3591 -792.1128 -675.6754 30124.9794 -173.2113 -90.6097
ENERGY: 900000 4.9717 6.0787 1.3588 0.0000 -10734.9278 1468.0838 0.0000 0.0000 1754.7679 -7499.6670 301.3272 -9254.4349 -7474.3281 297.3825 306.5847 358.5498 29497.9289 -97.8290 -21.6595
ENERGY: 1200000 1.8129 4.6452 2.5285 0.0000 -10586.5049 1435.7370 0.0000 0.0000 1756.9095 -7384.8719 301.6950 -9141.7814 -7457.6275 298.0090 180.9633 202.8269 30290.4766 -116.7515 -52.9189
ENERGY: 1500000 0.5717 7.1107 3.1329 0.0000 -10505.4256 1362.7139 0.0000 0.0000 1760.1034 -7371.7930 302.2434 -9131.8964 -7439.9136 298.5672 -328.8820 -253.2310 29864.6957 -153.8485 -85.9900
TCL: Running FEP window  18: Lambda1 0.1499999999999997 Lambda2 0.09999999999999969 [dLambda -0.05 ]
TCL: Setting parameter firsttimestep to 0
TCL: Setting parameter alchLambda to 0.1499999999999997
Info: NONBONDED TABLE R-SQUARED SPACING: 0.0625
Info: NONBONDED TABLE SIZE: 705 POINTS
TCL: Setting parameter alchLambda2 to 0.09999999999999969
Info: NONBONDED TABLE R-SQUARED SPACING: 0.0625
Info: NONBONDED TABLE SIZE: 705 POINTS
TCL: Running for 1500000 steps
ETITLE: TS BOND ANGLE DIHED IMPRP ELECT VDW BOUNDARY MISC KINETIC TOTAL TEMP POTENTIAL TOTALAVG TEMPAVG PRESSURE GPRESSURE VOLUME PRESSAVG GPRESSAVG
ENERGY: 0 0.5717 7.1107 3.1329 0.0000 -10505.4259 1362.5668 0.0000 0.0000 1759.2365 -7372.8073 302.0945 -9132.0437 -7372.8073 302.0945 -357.0229 -257.0944 29864.6957 -357.0229 -257.0944
ENERGY: 300000 1.9835 7.2559 2.2777 0.0000 -10681.4462 1444.0446 0.0000 0.0000 1777.4156 -7448.4689 305.2163 -9225.8846 -7425.2199 302.6636 29.4216 71.1294 30270.9176 -39.9803 16.4031
ENERGY: 600000 0.9756 2.6373 1.9036 0.0000 -10719.1843 1458.2847 0.0000 0.0000 1776.5016 -7478.8815 305.0593 -9255.3831 -7449.4043 302.5451 26.8413 63.6064 30175.7896 -41.2965 8.3929
ENERGY: 900000 2.9983 6.0545 1.3907 0.0000 -10537.7869 1361.2482 0.0000 0.0000 1734.2157 -7431.8796 297.7980 -9166.0953 -7449.8860 300.5212 -495.4984 -430.9986 30123.4148 -106.2800 -50.5874
ENERGY: 1200000 3.1731 3.4517 1.5027 0.0000 -10410.5773 1276.1328 0.0000 0.0000 1767.9157 -7358.4011 303.5849 -9126.3169 -7455.6017 299.9855 -1143.8653 -1011.0510 30305.0817 -164.8915 -99.8833
ENERGY: 1500000 4.4052 5.4058 1.4567 0.0000 -10517.1304 1331.2427 0.0000 0.0000 1714.8883 -7459.7317 294.4791 -9174.6200 -7457.6109 300.2853 -983.1644 -911.8521 30069.7018 -211.8171 -149.7961
TCL: Running FEP window  19: Lambda1 0.09999999999999969 Lambda2 0.049999999999999684 [dLambda -0.05 ]
TCL: Setting parameter firsttimestep to 0
TCL: Setting parameter alchLambda to 0.09999999999999969
Info: NONBONDED TABLE R-SQUARED SPACING: 0.0625
Info: NONBONDED TABLE SIZE: 705 POINTS
TCL: Setting parameter alchLambda2 to 0.049999999999999684
Info: NONBONDED TABLE R-SQUARED SPACING: 0.0625
Info: NONBONDED TABLE SIZE: 705 POINTS
TCL: Running for 1500000 steps
ETITLE: TS BOND ANGLE DIHED IMPRP ELECT VDW BOUNDARY MISC KINETIC TOTAL TEMP POTENTIAL TOTALAVG TEMPAVG PRESSURE GPRESSURE VOLUME PRESSAVG GPRESSAVG
ENERGY: 0 4.4052 5.4058 1.4567 0.0000 -10517.1305 1331.2614 0.0000 0.0000 1714.0067 -7460.5947 294.3277 -9174.6014 -7460.5947 294.3277 -1014.5646 -915.9398 30069.7018 -1014.5646 -915.9398
ENERGY: 300000 1.5604 3.3827 2.8272 0.0000 -10630.6322 1455.2824 0.0000 0.0000 1782.0783 -7385.5013 306.0169 -9167.5796 -7474.8403 297.4327 261.5427 345.5945 30208.7234 -451.4282 -380.7683
ENERGY: 600000 1.7371 4.0550 2.3514 0.0000 -10558.0799 1371.8102 0.0000 0.0000 1768.8063 -7409.3200 303.7379 -9178.1263 -7432.1026 301.8716 -523.3498 -532.1197 30147.6591 -161.4847 -98.5382
ENERGY: 900000 2.3807 3.3561 1.3316 0.0000 -10655.3081 1384.6145 0.0000 0.0000 1747.3516 -7516.2736 300.0537 -9263.6252 -7449.7868 301.9481 -692.1278 -640.9666 30168.3832 -199.7160 -137.9184
ENERGY: 1200000 2.6441 3.7446 3.2883 0.0000 -10593.5429 1397.8313 0.0000 0.0000 1691.6417 -7494.3929 290.4872 -9186.0345 -7458.7839 300.4965 -257.9503 -141.1588 29928.5203 -181.6991 -116.2929
ENERGY: 1500000 1.3424 8.7030 1.6847 0.0000 -10656.9765 1486.0590 0.0000 0.0000 1784.2451 -7374.9424 306.3890 -9159.1874 -7455.6708 300.5426 407.0953 456.5266 30195.1548 -106.1451 -42.8437
TCL: Running FEP window  20: Lambda1 0.049999999999999684 Lambda2 0.0    [dLambda -0.049999999999999684]
TCL: Setting parameter firsttimestep to 0
TCL: Setting parameter alchLambda to 0.049999999999999684
Info: NONBONDED TABLE R-SQUARED SPACING: 0.0625
Info: NONBONDED TABLE SIZE: 705 POINTS
TCL: Setting parameter alchLambda2 to 0.0
Info: NONBONDED TABLE R-SQUARED SPACING: 0.0625
Info: NONBONDED TABLE SIZE: 705 POINTS
TCL: Running for 1500000 steps
ETITLE: TS BOND ANGLE DIHED IMPRP ELECT VDW BOUNDARY MISC KINETIC TOTAL TEMP POTENTIAL TOTALAVG TEMPAVG PRESSURE GPRESSURE VOLUME PRESSAVG GPRESSAVG
ENERGY: 0 1.3424 8.7030 1.6847 0.0000 -10656.9765 1486.1971 0.0000 0.0000 1783.3898 -7375.6595 306.2421 -9159.0493 -7375.6595 306.2421 368.6739 455.0402 30195.1548 368.6739 455.0402
ENERGY: 300000 0.9328 2.5594 2.6652 0.0000 -10586.1111 1393.0457 0.0000 0.0000 1702.1477 -7484.7603 292.2913 -9186.9080 -7420.1450 300.8166 -246.5831 -200.9061 30013.4603 328.6324 386.1456
ENERGY: 600000 4.0612 2.5430 1.6637 0.0000 -10698.1512 1463.8508 0.0000 0.0000 1766.1349 -7459.8976 303.2791 -9226.0325 -7423.6553 302.6280 111.6209 115.5242 29964.9413 207.2582 277.3982
ENERGY: 900000 0.6210 2.4712 4.7840 0.0000 -10535.7326 1428.0495 0.0000 0.0000 1694.4991 -7405.3079 290.9779 -9099.8070 -7421.2854 301.5209 155.1816 192.7133 30343.6985 190.6044 259.3112
ENERGY: 1200000 0.6493 4.8447 1.2669 0.0000 -10568.9138 1387.1930 0.0000 0.0000 1740.7321 -7434.2279 298.9170 -9174.9600 -7419.8432 302.3236 -289.1416 -228.2449 29836.7602 74.2373 141.1423
ENERGY: 1500000 2.0979 3.5161 1.6718 0.0000 -10628.1804 1466.0180 0.0000 0.0000 1705.0277 -7449.8491 292.7859 -9154.8767 -7421.1891 302.1494 394.6213 388.1237 29745.7298 128.7471 190.5176
TCL: Exiting due to exit command.
