Info: SIMULATION PARAMETERS:
Info: TIMESTEP               2
Info: NUMBER OF STEPS        0
Info: STEPS PER CYCLE        10
Info: PERIODIC CELL BASIS 1  31.1744 0 0
Info: PERIODIC CELL BASIS 2  0 29.7444 0
Info: PERIODIC CELL BASIS 3  0 0 33.12
Info: PERIODIC CELL CENTER   0 0 0
Info: WRAPPING WATERS AROUND PERIODIC BOUNDARIES ON OUTPUT.
Info: WRAPPING ALL CLUSTERS AROUND PERIODIC BOUNDARIES ON OUTPUT.
Info: FIRST LDB TIMESTEP     50
Info: LAST LDB TIMESTEP     -1
Info: HOM BACKGROUND SCALING 1
Info: PME BACKGROUND SCALING 1
Info: MIN ATOMS PER PATCH    40
Info: EMPTY PATCH LOAD       40 ATOMS
Info: VELOCITY FILE          mobley_1178614_equil.vel
Info: CENTER OF MASS MOVING INITIALLY? NO
Info: DIELECTRIC             1
Info: EXCLUDE                SCALED ONE-FOUR
Info: 1-4 ELECTROSTATICS SCALED BY 0.833333
Info: MODIFIED 1-4 VDW PARAMETERS WILL BE USED
Info: DCD FILENAME           mobley_1178614_prod.dcd
Info: DCD FREQUENCY          100000
Info: DCD FIRST STEP         100000
Info: DCD FILE WILL CONTAIN UNIT CELL DATA
Info: XST FILENAME           mobley_1178614_prod.xst
Info: XST FREQUENCY          100000
Info: NO VELOCITY DCD OUTPUT
Info: NO FORCE DCD OUTPUT
Info: OUTPUT FILENAME        mobley_1178614_prod
Info: BINARY OUTPUT FILES WILL BE USED
Info: RESTART FILENAME       mobley_1178614_prod.restart
Info: RESTART FREQUENCY      100000
Info: BINARY RESTART FILES WILL BE USED
Info: CUTOFF                 9
Info: PAIRLIST DISTANCE      11
Info: PAIRLIST SHRINK RATE   0.01
Info: PAIRLIST GROW RATE     0.01
Info: PAIRLIST TRIGGER       0.3
Info: PAIRLISTS PER CYCLE    2
Info: PAIRLISTS ENABLED
Info: MARGIN                 2
Info: HYDROGEN GROUP CUTOFF  2.5
Info: PATCH DIMENSION        15.5
Info: ENERGY OUTPUT STEPS    100000
Info: ENERGY EVALUATION STEPS    100000
Info: OUTPUT ENERGY PRECISION 4
Info: CROSSTERM ENERGY INCLUDED IN DIHEDRAL
Info: TIMING OUTPUT STEPS    1000000
Info: PRESSURE OUTPUT STEPS  100000
Info: ALCHEMICAL FEP ON
Info: FEP CURRENT LAMBDA VALUE     0
Info: FEP COMPARISON LAMBDA VALUE  0.05
Info: FEP INTRA-ALCHEMICAL NON-BONDED INTERACTIONS WILL BE RETAINED
Info: FEP INTRA-ALCHEMICAL BONDED INTERACTIONS WILL BE RETAINED
Info: FEP VDW SHIFTING COEFFICIENT 5
Info: FEP ELEC. ACTIVE FOR ANNIHILATED PARTICLES BETWEEN LAMBDA = 0 AND LAMBDA = 0.5
Info: FEP ELEC. ACTIVE FOR EXNIHILATED PARTICLES BETWEEN LAMBDA = 0.5 AND LAMBDA = 1
Info: FEP VDW ACTIVE FOR ANNIHILATED PARTICLES BETWEEN LAMBDA = 0 AND LAMBDA = 1
Info: FEP VDW ACTIVE FOR EXNIHILATED PARTICLES BETWEEN LAMBDA = 0 AND LAMBDA = 1
Info: FEP BOND ACTIVE FOR ANNIHILATED PARTICLES BETWEEN LAMBDA = 1 AND LAMBDA = 1
Info: FEP BOND ACTIVE FOR EXNIHILATED PARTICLES BETWEEN LAMBDA = 0 AND LAMBDA = 0
Info: LANGEVIN DYNAMICS ACTIVE
Info: LANGEVIN TEMPERATURE   300
Info: LANGEVIN USING BBK INTEGRATOR
Info: LANGEVIN DAMPING COEFFICIENT IS 1 INVERSE PS
Info: LANGEVIN DYNAMICS APPLIED TO HYDROGENS
Info: LANGEVIN PISTON PRESSURE CONTROL ACTIVE
Info:        TARGET PRESSURE IS 1.01325 BAR
Info:     OSCILLATION PERIOD IS 50 FS
Info:             DECAY TIME IS 25 FS
Info:     PISTON TEMPERATURE IS 300 K
Info:       PRESSURE CONTROL IS GROUP-BASED
Info:    INITIAL STRAIN RATE IS 8.53194e-05 8.53194e-05 8.53194e-05
Info:       CELL FLUCTUATION IS ISOTROPIC
Info: PARTICLE MESH EWALD (PME) ACTIVE
Info: PME TOLERANCE               1e-06
Info: PME EWALD COEFFICIENT       0.348832
Info: PME INTERPOLATION ORDER     4
Info: PME GRID DIMENSIONS         32 32 36
Info: PME MAXIMUM GRID SPACING    1
Info: PME CALCULATION WILL BE PERFORMED ON GPU
Info: FULL ELECTROSTATIC EVALUATION FREQUENCY      2
Info: USING VERLET I (r-RESPA) MTS SCHEME.
Info: C1 SPLITTING OF LONG RANGE ELECTROSTATICS
Info: PLACING ATOMS IN PATCHES BY HYDROGEN GROUPS
Info: RIGID BONDS TO HYDROGEN : ALL
Info:         ERROR TOLERANCE : 1e-08
Info:          MAX ITERATIONS : 100
Info: RIGID WATER USING SETTLE ALGORITHM
Info: RANDOM NUMBER SEED     1743543603
Info: USE HYDROGEN BONDS?    NO
Info: Using AMBER format force field!
Info: AMBER PARM FILE        mobley_1178614.prmtop
Info: COORDINATE PDB         mobley_1178614.pdb
Info: Exclusions will be read from PARM file!
Info: SCNB (VDW SCALING)     2
Info: USING ARITHMETIC MEAN TO COMBINE L-J SIGMA PARAMETERS
Info: BINARY COORDINATES     mobley_1178614_equil.coor
Info: SUMMARY OF PARAMETERS:
Info: 7 BONDS
Info: 5 ANGLES
Info:   5 HARMONIC
Info:   0 COSINE-BASED
Info: 3 DIHEDRAL
Info: 0 IMPROPER
Info: 0 CROSSTERM
Info: 0 VDW
Info: 21 VDW_PAIRS
Info: 0 NBTHOLE_PAIRS
Info: To read alchdata from file: mobley_1178614.pdb
Info: To read alchflag data from column: 5
Info: STRUCTURE SUMMARY:
Info: 2971 ATOMS
Info: 2971 BONDS
Info: 19 ANGLES
Info: 32 DIHEDRALS
Info: 0 IMPROPERS
Info: 0 CROSSTERMS
Info: 3013 EXCLUSIONS
Info: 2963 RIGID BONDS
Info: ALCH: 0 ATOMS TO DISAPPEAR IN FINAL STATE
Info: ALCH: 13 ATOMS TO APPEAR IN FINAL STATE
Info: 5950 DEGREES OF FREEDOM
Info: 994 HYDROGEN GROUPS
Info: 3 ATOMS IN LARGEST HYDROGEN GROUP
Info: 994 MIGRATION GROUPS
Info: 3 ATOMS IN LARGEST MIGRATION GROUP
Info: TOTAL MASS = 17892.3 amu
Info: TOTAL CHARGE = 0.000199974 e
Info: MASS DENSITY = 0.967457 g/cm^3
Info: ATOM DENSITY = 0.0967405 atoms/A^3
Info: ADDED 0 IMPLICIT EXCLUSIONS
Info: NONBONDED TABLE R-SQUARED SPACING: 0.0625
Info: NONBONDED TABLE SIZE: 705 POINTS
Info: REMOVING COM VELOCITY 0.175408 -0.0760709 -0.0706509
Info: Use 3D box decompostion in PME FFT.
Info: Updated CUDA force table with 4096 elements.
Info: Updated CUDA LJ table with 6 x 6 elements.
Info: Found 15 unique exclusion lists needing 28 bytes
TCL: Running for 1500000 steps
ETITLE: TS BOND ANGLE DIHED IMPRP ELECT VDW BOUNDARY MISC KINETIC TOTAL TEMP POTENTIAL TOTALAVG TEMPAVG PRESSURE GPRESSURE VOLUME PRESSAVG GPRESSAVG
ENERGY: 0 2.9000 2.6469 4.7750 0.0000 -10708.9159 1401.6114 0.0000 0.0000 1770.1645 -7526.8181 299.4243 -9296.9826 -7526.8181 299.4243 -581.7533 -496.3003 30711.0254 -581.7533 -496.3003
ENERGY: 300000 1.1668 3.2015 0.9271 0.0000 -10913.2570 1552.4361 0.0000 0.0000 1774.6247 -7580.9008 300.1787 -9355.5255 -7518.2550 301.7547 677.4025 767.3467 30117.5822 -11.3740 84.0482
ENERGY: 600000 3.0556 5.6882 3.8087 0.0000 -10731.3891 1443.2500 0.0000 0.0000 1844.8586 -7430.7279 312.0589 -9275.5866 -7528.0526 302.0083 130.8972 143.2055 30311.3706 -25.7185 54.2163
ENERGY: 900000 0.9309 2.5260 4.1618 0.0000 -10776.1494 1474.4154 0.0000 0.0000 1779.8711 -7514.2443 301.0662 -9294.1154 -7541.0374 301.4160 66.8358 150.7590 30180.5807 -51.4727 25.7502
ENERGY: 1200000 1.2472 4.0123 2.5002 0.0000 -10749.2447 1457.4826 0.0000 0.0000 1763.6086 -7520.3938 298.3154 -9284.0025 -7532.1739 301.8560 300.6159 358.2472 30389.1333 23.9920 94.9378
ENERGY: 1500000 1.2261 4.8115 0.9692 0.0000 -10680.7649 1371.7770 0.0000 0.0000 1759.4315 -7542.5495 297.6088 -9301.9810 -7537.4195 301.2739 -603.5391 -549.1026 30651.3767 -24.7733 43.7273
TCL: Running FEP window   2: Lambda1 0.05   Lambda2 0.1    [dLambda 0.05  ]
TCL: Setting parameter firsttimestep to 0
TCL: Setting parameter alchLambda to 0.05
Info: NONBONDED TABLE R-SQUARED SPACING: 0.0625
Info: NONBONDED TABLE SIZE: 705 POINTS
TCL: Setting parameter alchLambda2 to 0.1
Info: NONBONDED TABLE R-SQUARED SPACING: 0.0625
Info: NONBONDED TABLE SIZE: 705 POINTS
TCL: Running for 1500000 steps
ETITLE: TS BOND ANGLE DIHED IMPRP ELECT VDW BOUNDARY MISC KINETIC TOTAL TEMP POTENTIAL TOTALAVG TEMPAVG PRESSURE GPRESSURE VOLUME PRESSAVG GPRESSAVG
ENERGY: 0 1.2261 4.8115 0.9692 0.0000 -10680.7642 1375.3500 0.0000 0.0000 1758.5198 -7539.8877 297.4546 -9298.4075 -7539.8877 297.4546 -621.0679 -539.0681 30651.3767 -621.0679 -539.0681
ENERGY: 300000 3.7324 1.2269 2.0632 0.0000 -10838.0976 1460.8271 0.0000 0.0000 1783.4648 -7586.7833 301.6741 -9370.2481 -7555.6893 297.3833 -290.5451 -249.3078 30978.3160 82.0258 120.7365
ENERGY: 600000 2.2607 2.3806 1.2698 0.0000 -10797.1481 1493.3692 0.0000 0.0000 1719.4487 -7578.4190 290.8457 -9297.8677 -7566.3733 296.5222 63.8095 124.9266 30864.2114 -146.0503 -102.4053
ENERGY: 900000 1.7016 2.2079 3.0092 0.0000 -10815.1028 1495.9435 0.0000 0.0000 1815.9377 -7496.3029 307.1669 -9312.2405 -7552.6532 299.0155 281.5043 397.9377 30617.2232 -108.5603 -56.1070
ENERGY: 1200000 8.4419 3.1370 1.3617 0.0000 -10678.1764 1365.0735 0.0000 0.0000 1782.7393 -7517.4231 301.5513 -9300.1624 -7539.2279 300.1051 -707.3701 -661.3159 30579.9336 -60.1867 -3.9577
ENERGY: 1500000 1.6156 2.6879 5.2939 0.0000 -10694.2253 1434.3890 0.0000 0.0000 1725.4360 -7524.8029 291.8585 -9250.2389 -7542.6146 299.7718 -425.4861 -350.8360 31100.9151 -90.5938 -30.3537
TCL: Running FEP window   3: Lambda1 0.1    Lambda2 0.15000000000000002 [dLambda 0.05000000000000002]
TCL: Setting parameter firsttimestep to 0
TCL: Setting parameter alchLambda to 0.1
Info: NONBONDED TABLE R-SQUARED SPACING: 0.0625
Info: NONBONDED TABLE SIZE: 705 POINTS
TCL: Setting parameter alchLambda2 to 0.15000000000000002
Info: NONBONDED TABLE R-SQUARED SPACING: 0.0625
Info: NONBONDED TABLE SIZE: 705 POINTS
TCL: Running for 1500000 steps
ETITLE: TS BOND ANGLE DIHED IMPRP ELECT VDW BOUNDARY MISC KINETIC TOTAL TEMP POTENTIAL TOTALAVG TEMPAVG PRESSURE GPRESSURE VOLUME PRESSAVG GPRESSAVG
ENERGY: 0 1.6156 2.6879 5.2939 0.0000 -10694.2249 1436.8294 0.0000 0.0000 1724.6011 -7523.1969 291.7172 -9247.7981 -7523.1969 291.7172 -422.3292 -343.3908 31100.9151 -422.3292 -343.3908
ENERGY: 300000 2.1978 3.6672 1.5843 0.0000 -10827.1196 1424.2073 0.0000 0.0000 1816.8283 -7578.6347 307.3175 -9395.4630 -7526.6548 301.7033 -547.3134 -554.7318 30694.3416 -542.7849 -513.1305
ENERGY: 600000 4.1400 2.6371 3.3971 0.0000 -10877.7005 1485.3163 0.0000 0.0000 1800.4072 -7581.8028 304.5399 -9382.2100 -7522.9883 301.9105 222.3116 286.8992 30061.0867 -228.1917 -188.4499
ENERGY: 900000 0.8252 1.0410 2.3416 0.0000 -10786.2618 1439.5659 0.0000 0.0000 1801.6783 -7540.8098 304.7549 -9342.4880 -7533.7324 300.4541 -277.0249 -192.9954 30743.3796 -184.1559 -139.1588
ENERGY: 1200000 1.6508 3.6341 2.8260 0.0000 -10786.6526 1450.1943 0.0000 0.0000 1740.9407 -7587.4068 294.4811 -9328.3474 -7535.7634 300.8045 -222.4020 -164.9990 30714.1307 -77.6386 -34.7022
ENERGY: 1500000 2.3409 2.2499 1.6632 0.0000 -10670.9415 1432.8084 0.0000 0.0000 1814.6586 -7417.2205 306.9505 -9231.8791 -7537.3959 301.4599 43.3522 17.8883 30587.3431 -81.4210 -41.0864
TCL: Running FEP window   4: Lambda1 0.15000000000000002 Lambda2 0.2    [dLambda 0.04999999999999999]
TCL: Setting parameter firsttimestep to 0
TCL: Setting parameter alchLambda to 0.15000000000000002
Info: NONBONDED TABLE R-SQUARED SPACING: 0.0625
Info: NONBONDED TABLE SIZE: 705 POINTS
TCL: Setting parameter alchLambda2 to 0.2
Info: NONBONDED TABLE R-SQUARED SPACING: 0.0625
Info: NONBONDED TABLE SIZE: 705 POINTS
TCL: Running for 1500000 steps
ETITLE: TS BOND ANGLE DIHED IMPRP ELECT VDW BOUNDARY MISC KINETIC TOTAL TEMP POTENTIAL TOTALAVG TEMPAVG PRESSURE GPRESSURE VOLUME PRESSAVG GPRESSAVG
ENERGY: 0 2.3409 2.2499 1.6632 0.0000 -10670.9407 1434.5657 0.0000 0.0000 1813.8016 -7416.3195 306.8055 -9230.1210 -7416.3195 306.8055 -61.7214 28.5321 30587.3431 -61.7214 28.5321
ENERGY: 300000 1.6725 4.1099 2.4492 0.0000 -10860.3548 1507.8269 0.0000 0.0000 1722.7374 -7621.5589 291.4020 -9344.2963 -7488.2177 302.4274 496.3668 523.1757 30091.1969 83.5976 152.7829
ENERGY: 600000 4.3501 4.6865 2.8088 0.0000 -10811.4577 1481.3727 0.0000 0.0000 1759.3992 -7558.8404 297.6033 -9318.2396 -7518.9558 302.6846 -60.6485 -34.5878 30827.6794 183.9557 234.0219
ENERGY: 900000 2.3708 2.0974 3.9901 0.0000 -10829.3641 1458.5260 0.0000 0.0000 1747.8402 -7614.5395 295.6481 -9362.3798 -7528.9736 302.1071 180.6036 131.7253 30145.2921 94.5990 147.5749
ENERGY: 1200000 1.6463 1.3891 3.3738 0.0000 -10761.4316 1396.1856 0.0000 0.0000 1779.6300 -7579.2068 301.0254 -9358.8368 -7518.4423 302.8031 -394.5884 -306.2138 30413.7180 47.2311 107.8053
ENERGY: 1500000 1.5207 2.5994 3.5616 0.0000 -10622.9641 1390.0562 0.0000 0.0000 1778.3067 -7446.9196 300.8016 -9225.2262 -7508.9329 302.6276 -259.2522 -229.9701 30930.7939 -0.6074 57.2470
TCL: Running FEP window   5: Lambda1 0.2    Lambda2 0.25   [dLambda 0.04999999999999999]
TCL: Setting parameter firsttimestep to 0
TCL: Setting parameter alchLambda to 0.2
Info: NONBONDED TABLE R-SQUARED SPACING: 0.0625
Info: NONBONDED TABLE SIZE: 705 POINTS
TCL: Setting parameter alchLambda2 to 0.25
Info: NONBONDED TABLE R-SQUARED SPACING: 0.0625
Info: NONBONDED TABLE SIZE: 705 POINTS
TCL: Running for 1500000 steps
ETITLE: TS BOND ANGLE DIHED IMPRP ELECT VDW BOUNDARY MISC KINETIC TOTAL TEMP POTENTIAL TOTALAVG TEMPAVG PRESSURE GPRESSURE VOLUME PRESSAVG GPRESSAVG
ENERGY: 0 1.5207 2.5994 3.5616 0.0000 -10622.9617 1390.5138 0.0000 0.0000 1777.4239 -7447.3424 300.6522 -9224.7663 -7447.3424 300.6522 -293.5186 -225.5771 30930.7939 -293.5186 -225.5771
ENERGY: 300000 2.6259 4.8216 2.5703 0.0000 -10788.6645 1466.1695 0.0000 0.0000 1766.0116 -7546.4656 298.7218 -9312.4771 -7496.8733 299.5472 52.0847 93.5762 30152.5702 -111.5864 -79.9274
ENERGY: 600000 2.3143 2.6089 1.6689 0.0000 -10704.7233 1422.4620 0.0000 0.0000 1762.3080 -7513.3612 298.0954 -9275.6692 -7513.6142 302.1827 -327.2361 -262.8525 30662.1467 -47.8906 -6.3566
ENERGY: 900000 2.4316 4.7950 2.8442 0.0000 -10747.5379 1514.0314 0.0000 0.0000 1749.6354 -7473.8003 295.9518 -9223.4357 -7507.0096 301.5776 863.4982 873.7449 30189.9196 183.4566 224.6359
ENERGY: 1200000 0.8013 2.5692 3.4768 0.0000 -10647.1147 1402.0850 0.0000 0.0000 1779.4227 -7458.7598 300.9903 -9238.1825 -7508.0170 300.6338 -68.4826 -9.2770 30470.5844 134.8656 180.5004
ENERGY: 1500000 0.6354 3.9333 2.2983 0.0000 -10909.6472 1507.1064 0.0000 0.0000 1808.0750 -7587.5989 305.8369 -9395.6739 -7517.3884 300.9393 428.4509 502.8537 30238.4844 123.4168 175.2015
TCL: Running FEP window   6: Lambda1 0.25   Lambda2 0.3    [dLambda 0.04999999999999999]
TCL: Setting parameter firsttimestep to 0
TCL: Setting parameter alchLambda to 0.25
Info: NONBONDED TABLE R-SQUARED SPACING: 0.0625
Info: NONBONDED TABLE SIZE: 705 POINTS
TCL: Setting parameter alchLambda2 to 0.3
Info: NONBONDED TABLE R-SQUARED SPACING: 0.0625
Info: NONBONDED TABLE SIZE: 705 POINTS
TCL: Running for 1500000 steps
ETITLE: TS BOND ANGLE DIHED IMPRP ELECT VDW BOUNDARY MISC KINETIC TOTAL TEMP POTENTIAL TOTALAVG TEMPAVG PRESSURE GPRESSURE VOLUME PRESSAVG GPRESSAVG
ENERGY: 0 0.6354 3.9333 2.2983 0.0000 -10909.6494 1507.2055 0.0000 0.0000 1807.1825 -7588.3944 305.6859 -9395.5769 -7588.3944 305.6859 417.2011 504.4635 30238.4844 417.2011 504.4635
ENERGY: 300000 3.3685 1.6279 2.4790 0.0000 -10690.2276 1412.3587 0.0000 0.0000 1820.1730 -7450.2205 307.8833 -9270.3935 -7538.2683 302.7690 -266.8253 -146.2210 30630.7531 -80.8337 -0.4599
ENERGY: 600000 1.2398 5.6771 1.1682 0.0000 -10641.3859 1321.9680 0.0000 0.0000 1795.4196 -7515.9132 303.6962 -9311.3328 -7536.4020 302.7014 -1010.8303 -1003.7301 30760.2427 -120.7029 -50.4059
ENERGY: 900000 0.3496 3.0168 3.7458 0.0000 -10683.4272 1362.6136 0.0000 0.0000 1810.8633 -7502.8382 306.3085 -9313.7014 -7527.2936 303.3626 -683.0938 -649.9512 30700.5235 -112.2505 -47.1953
ENERGY: 1200000 2.6936 3.5346 2.4779 0.0000 -10676.3759 1407.2564 0.0000 0.0000 1829.8016 -7430.6117 309.5120 -9260.4134 -7525.8149 303.1018 -284.6928 -218.5411 30998.0605 -128.7783 -68.8999
ENERGY: 1500000 1.4453 1.0978 5.2358 0.0000 -10710.6606 1407.1065 0.0000 0.0000 1789.4816 -7506.2936 302.6918 -9295.7752 -7525.9355 302.5633 -230.7581 -185.6428 30374.0557 -130.5832 -68.4880
TCL: Running FEP window   7: Lambda1 0.3    Lambda2 0.35   [dLambda 0.04999999999999999]
TCL: Setting parameter firsttimestep to 0
TCL: Setting parameter alchLambda to 0.3
Info: NONBONDED TABLE R-SQUARED SPACING: 0.0625
Info: NONBONDED TABLE SIZE: 705 POINTS
TCL: Setting parameter alchLambda2 to 0.35
Info: NONBONDED TABLE R-SQUARED SPACING: 0.0625
Info: NONBONDED TABLE SIZE: 705 POINTS
TCL: Running for 1500000 steps
ETITLE: TS BOND ANGLE DIHED IMPRP ELECT VDW BOUNDARY MISC KINETIC TOTAL TEMP POTENTIAL TOTALAVG TEMPAVG PRESSURE GPRESSURE VOLUME PRESSAVG GPRESSAVG
ENERGY: 0 1.4453 1.0978 5.2358 0.0000 -10710.6615 1407.3635 0.0000 0.0000 1788.6179 -7506.9012 302.5457 -9295.5191 -7506.9012 302.5457 -276.3211 -180.4409 30374.0557 -276.3211 -180.4409
ENERGY: 300000 2.5039 5.8082 4.0229 0.0000 -10581.1774 1404.7407 0.0000 0.0000 1805.9825 -7358.1192 305.4829 -9164.1017 -7493.6118 302.7878 -271.5074 -214.8637 31314.2847 -142.0094 -63.6875
ENERGY: 600000 3.5778 1.8464 5.5683 0.0000 -10700.0099 1411.9102 0.0000 0.0000 1777.3635 -7499.7437 300.6420 -9277.1072 -7518.1472 299.7435 -484.7989 -431.3578 30974.0194 -102.5767 -43.4402
ENERGY: 900000 1.4759 2.1170 1.9514 0.0000 -10719.0794 1503.4468 0.0000 0.0000 1759.4014 -7450.6869 297.6037 -9210.0883 -7527.0219 299.0958 486.4850 642.9562 30824.5738 28.2652 93.3762
ENERGY: 1200000 2.9065 2.9126 4.0285 0.0000 -10737.5083 1453.4280 0.0000 0.0000 1773.1354 -7501.0972 299.9268 -9274.2326 -7531.9888 299.3704 119.8913 208.0555 30441.4863 -46.5099 11.2262
ENERGY: 1500000 2.6237 1.9502 3.1426 0.0000 -10866.2845 1515.6006 0.0000 0.0000 1819.5229 -7523.4446 307.7733 -9342.9675 -7532.7661 299.9864 598.1063 726.1336 30092.8603 33.7455 95.4983
TCL: Running FEP window   8: Lambda1 0.35   Lambda2 0.39999999999999997 [dLambda 0.04999999999999999]
TCL: Setting parameter firsttimestep to 0
TCL: Setting parameter alchLambda to 0.35
Info: NONBONDED TABLE R-SQUARED SPACING: 0.0625
Info: NONBONDED TABLE SIZE: 705 POINTS
TCL: Setting parameter alchLambda2 to 0.39999999999999997
Info: NONBONDED TABLE R-SQUARED SPACING: 0.0625
Info: NONBONDED TABLE SIZE: 705 POINTS
TCL: Running for 1500000 steps
ETITLE: TS BOND ANGLE DIHED IMPRP ELECT VDW BOUNDARY MISC KINETIC TOTAL TEMP POTENTIAL TOTALAVG TEMPAVG PRESSURE GPRESSURE VOLUME PRESSAVG GPRESSAVG
ENERGY: 0 2.6237 1.9502 3.1426 0.0000 -10866.2840 1516.2298 0.0000 0.0000 1818.6465 -7523.6912 307.6251 -9342.3377 -7523.6912 307.6251 637.5499 734.6186 30092.8603 637.5499 734.6186
ENERGY: 300000 1.5302 1.5072 1.1268 0.0000 -10571.6900 1306.9985 0.0000 0.0000 1860.7749 -7399.7524 314.7511 -9260.5273 -7517.4611 308.2304 -1001.2224 -979.9029 30819.0665 -129.5605 -63.5448
ENERGY: 600000 1.0941 1.7206 3.7336 0.0000 -10926.3454 1504.0835 0.0000 0.0000 1798.8386 -7616.8749 304.2745 -9415.7136 -7526.1079 306.8871 428.3916 489.1139 30022.8926 -130.6325 -59.8954
ENERGY: 900000 1.3975 1.8890 1.8867 0.0000 -10717.1780 1452.9732 0.0000 0.0000 1731.3859 -7527.6457 292.8649 -9259.0316 -7529.9591 304.4325 -174.5034 -127.4241 31068.9355 25.8241 96.2929
ENERGY: 1200000 1.9200 1.6640 1.7490 0.0000 -10676.4906 1385.6582 0.0000 0.0000 1746.8720 -7538.6274 295.4844 -9285.4994 -7525.7327 304.5128 -541.3978 -499.3632 30755.4620 -69.8432 -1.8938
ENERGY: 1500000 3.7122 1.5547 2.9592 0.0000 -10790.8417 1459.8489 0.0000 0.0000 1786.6470 -7536.1198 302.2123 -9322.7667 -7525.2120 304.1122 146.3866 260.2091 30550.2081 -175.4046 -108.1504
TCL: Running FEP window   9: Lambda1 0.39999999999999997 Lambda2 0.44999999999999996 [dLambda 0.04999999999999999]
TCL: Setting parameter firsttimestep to 0
TCL: Setting parameter alchLambda to 0.39999999999999997
Info: NONBONDED TABLE R-SQUARED SPACING: 0.0625
Info: NONBONDED TABLE SIZE: 705 POINTS
TCL: Setting parameter alchLambda2 to 0.44999999999999996
Info: NONBONDED TABLE R-SQUARED SPACING: 0.0625
Info: NONBONDED TABLE SIZE: 705 POINTS
TCL: Running for 1500000 steps
ETITLE: TS BOND ANGLE DIHED IMPRP ELECT VDW BOUNDARY MISC KINETIC TOTAL TEMP POTENTIAL TOTALAVG TEMPAVG PRESSURE GPRESSURE VOLUME PRESSAVG GPRESSAVG
ENERGY: 0 3.7122 1.5547 2.9592 0.0000 -10790.8415 1460.1061 0.0000 0.0000 1785.7325 -7536.7769 302.0576 -9322.5093 -7536.7769 302.0576 177.8057 265.2058 30550.2081 177.8057 265.2058
ENERGY: 300000 1.6774 1.5293 1.4049 0.0000 -10647.4978 1391.1266 0.0000 0.0000 1788.0306 -7463.7290 302.4464 -9251.7596 -7536.2913 300.4654 -211.1057 -106.9169 30523.5129 60.6964 157.1243
ENERGY: 600000 1.6431 6.2436 1.9954 0.0000 -10823.3366 1458.4000 0.0000 0.0000 1708.6517 -7646.4028 289.0194 -9355.0545 -7554.1139 298.6065 -115.0927 -37.7990 30340.2980 -164.4418 -71.0413
ENERGY: 900000 1.9102 2.4077 4.7626 0.0000 -10873.1805 1527.6915 0.0000 0.0000 1779.2954 -7557.1131 300.9688 -9336.4085 -7554.0379 298.5086 438.8882 557.3071 30789.0053 -41.3415 32.8676
ENERGY: 1200000 0.7576 4.6241 2.6324 0.0000 -10586.5815 1360.5556 0.0000 0.0000 1837.9710 -7380.0406 310.8938 -9218.0117 -7538.8343 299.6877 -689.9680 -562.9106 31207.1650 -172.0912 -93.2678
ENERGY: 1500000 2.0439 3.2095 1.6863 0.0000 -10882.5012 1509.2740 0.0000 0.0000 1779.1259 -7587.1616 300.9401 -9366.2875 -7542.9550 299.2540 213.7853 271.6370 30751.1659 -131.8769 -63.0624
TCL: Running FEP window  10: Lambda1 0.44999999999999996 Lambda2 0.49999999999999994 [dLambda 0.04999999999999999]
TCL: Setting parameter firsttimestep to 0
TCL: Setting parameter alchLambda to 0.44999999999999996
Info: NONBONDED TABLE R-SQUARED SPACING: 0.0625
Info: NONBONDED TABLE SIZE: 705 POINTS
TCL: Setting parameter alchLambda2 to 0.49999999999999994
Info: NONBONDED TABLE R-SQUARED SPACING: 0.0625
Info: NONBONDED TABLE SIZE: 705 POINTS
TCL: Running for 1500000 steps
ETITLE: TS BOND ANGLE DIHED IMPRP ELECT VDW BOUNDARY MISC KINETIC TOTAL TEMP POTENTIAL TOTALAVG TEMPAVG PRESSURE GPRESSURE VOLUME PRESSAVG GPRESSAVG
ENERGY: 0 2.0439 3.2095 1.6863 0.0000 -10882.5025 1509.1311 0.0000 0.0000 1778.2578 -7588.1740 300.7933 -9366.4318 -7588.1740 300.7933 199.8224 274.1291 30751.1659 199.8224 274.1291
ENERGY: 300000 2.4488 2.3764 2.7789 0.0000 -10927.1582 1575.5071 0.0000 0.0000 1746.7524 -7597.2946 295.4641 -9344.0470 -7582.6509 301.3354 965.8770 970.9514 30813.0092 -69.1892 -29.1720
ENERGY: 600000 1.6074 2.3390 2.3224 0.0000 -10774.1869 1450.4757 0.0000 0.0000 1708.4979 -7608.9445 288.9934 -9317.4424 -7575.9062 298.5705 130.0772 180.8309 30535.6353 22.7010 64.0300
ENERGY: 900000 1.7999 1.9497 1.0109 0.0000 -10773.1330 1435.2652 0.0000 0.0000 1691.6387 -7641.4686 286.1416 -9333.1073 -7574.3073 296.7891 -37.1967 16.4755 30406.1340 4.7747 50.3529
ENERGY: 1200000 0.9579 6.1188 3.2655 0.0000 -10745.9323 1459.9739 0.0000 0.0000 1729.9655 -7545.6507 292.6246 -9275.6162 -7558.2601 297.2481 24.7598 93.3868 30617.4796 19.3919 63.4601
ENERGY: 1500000 1.8599 4.3189 2.1461 0.0000 -10805.5861 1452.1625 0.0000 0.0000 1738.2195 -7606.8792 294.0208 -9345.0987 -7559.0910 297.6940 15.5123 -3.5919 30450.7755 39.0612 83.6748
TCL: Running FEP window  11: Lambda1 0.49999999999999994 Lambda2 0.5499999999999999 [dLambda 0.04999999999999999]
TCL: Setting parameter firsttimestep to 0
TCL: Setting parameter alchLambda to 0.49999999999999994
Info: NONBONDED TABLE R-SQUARED SPACING: 0.0625
Info: NONBONDED TABLE SIZE: 705 POINTS
TCL: Setting parameter alchLambda2 to 0.5499999999999999
Info: NONBONDED TABLE R-SQUARED SPACING: 0.0625
Info: NONBONDED TABLE SIZE: 705 POINTS
TCL: Running for 1500000 steps
ETITLE: TS BOND ANGLE DIHED IMPRP ELECT VDW BOUNDARY MISC KINETIC TOTAL TEMP POTENTIAL TOTALAVG TEMPAVG PRESSURE GPRESSURE VOLUME PRESSAVG GPRESSAVG
ENERGY: 0 1.8599 4.3189 2.1461 0.0000 -10805.5851 1452.1341 0.0000 0.0000 1737.3486 -7607.7775 293.8735 -9345.1261 -7607.7775 293.8735 -83.2817 -0.0188 30450.7755 -83.2817 -0.0188
ENERGY: 300000 3.0263 0.8015 2.9726 0.0000 -10780.4564 1489.9556 0.0000 0.0000 1712.7217 -7570.9787 289.7078 -9283.7003 -7574.0348 298.6392 180.1279 236.1314 30931.6531 18.9738 86.0247
ENERGY: 600000 2.4928 4.2499 4.6840 0.0000 -10927.4181 1550.6378 0.0000 0.0000 1820.2219 -7545.1316 307.8915 -9365.3535 -7561.1941 300.7675 602.2420 692.0140 30427.6130 337.1105 406.6344
ENERGY: 900000 0.7228 6.2886 3.4698 0.0000 -10734.9289 1449.3330 0.0000 0.0000 1790.7993 -7484.3154 302.9147 -9275.1147 -7555.7267 300.8429 18.8347 69.1538 30691.2237 173.9925 256.8417
ENERGY: 1200000 1.5158 6.6221 1.4671 0.0000 -10838.5939 1500.6303 0.0000 0.0000 1832.2292 -7496.1295 309.9226 -9328.3587 -7550.8087 301.8215 348.0710 406.7816 30285.2509 144.2064 210.0142
ENERGY: 1500000 1.6893 4.4633 5.0822 0.0000 -10699.4064 1382.8466 0.0000 0.0000 1819.5435 -7485.7817 307.7768 -9305.3252 -7540.9297 302.2188 -472.9994 -380.7550 30721.4660 87.4469 158.0388
TCL: Running FEP window  12: Lambda1 0.5499999999999999 Lambda2 0.6    [dLambda 0.050000000000000044]
TCL: Setting parameter firsttimestep to 0
TCL: Setting parameter alchLambda to 0.5499999999999999
Info: NONBONDED TABLE R-SQUARED SPACING: 0.0625
Info: NONBONDED TABLE SIZE: 705 POINTS
TCL: Setting parameter alchLambda2 to 0.6
Info: NONBONDED TABLE R-SQUARED SPACING: 0.0625
Info: NONBONDED TABLE SIZE: 705 POINTS
TCL: Running for 1500000 steps
ETITLE: TS BOND ANGLE DIHED IMPRP ELECT VDW BOUNDARY MISC KINETIC TOTAL TEMP POTENTIAL TOTALAVG TEMPAVG PRESSURE GPRESSURE VOLUME PRESSAVG GPRESSAVG
ENERGY: 0 1.6893 4.4633 5.0822 0.0000 -10699.0739 1382.6248 0.0000 0.0000 1818.6856 -7486.5289 307.6317 -9305.2145 -7486.5289 307.6317 -471.1581 -377.0108 30721.4660 -471.1581 -377.0108
ENERGY: 300000 2.1128 5.4493 1.6528 0.0000 -10717.3880 1377.5875 0.0000 0.0000 1749.5477 -7581.0378 295.9370 -9330.5856 -7513.6201 301.4094 -604.3946 -506.6612 30411.2655 -625.4190 -553.2023
ENERGY: 600000 1.1662 3.4090 3.5766 0.0000 -10709.4974 1380.2343 0.0000 0.0000 1759.4661 -7561.6454 297.6147 -9321.1114 -7521.7535 300.7957 -779.2581 -744.0762 30994.3526 -401.2392 -334.9680
ENERGY: 900000 4.2657 2.8404 4.1765 0.0000 -10714.3866 1420.9079 0.0000 0.0000 1768.6223 -7513.5738 299.1634 -9282.1960 -7536.2978 299.8515 -292.2617 -218.8617 30892.7857 -349.5374 -284.6973
ENERGY: 1200000 2.2478 4.3553 3.5775 0.0000 -10793.4049 1409.1313 0.0000 0.0000 1772.7374 -7601.3556 299.8595 -9374.0930 -7541.2841 300.1505 -263.8467 -208.7561 30657.2365 -223.5730 -158.8883
ENERGY: 1500000 1.5898 5.3104 2.2277 0.0000 -10766.3229 1501.4736 0.0000 0.0000 1794.5852 -7461.1363 303.5551 -9255.7214 -7544.0122 300.5140 533.5000 591.8849 30756.0416 -142.1318 -75.6860
TCL: Running FEP window  13: Lambda1 0.6    Lambda2 0.65   [dLambda 0.050000000000000044]
TCL: Setting parameter firsttimestep to 0
TCL: Setting parameter alchLambda to 0.6
Info: NONBONDED TABLE R-SQUARED SPACING: 0.0625
Info: NONBONDED TABLE SIZE: 705 POINTS
TCL: Setting parameter alchLambda2 to 0.65
Info: NONBONDED TABLE R-SQUARED SPACING: 0.0625
Info: NONBONDED TABLE SIZE: 705 POINTS
TCL: Running for 1500000 steps
ETITLE: TS BOND ANGLE DIHED IMPRP ELECT VDW BOUNDARY MISC KINETIC TOTAL TEMP POTENTIAL TOTALAVG TEMPAVG PRESSURE GPRESSURE VOLUME PRESSAVG GPRESSAVG
ENERGY: 0 1.5898 5.3104 2.2277 0.0000 -10766.6914 1500.9408 0.0000 0.0000 1793.6656 -7462.9572 303.3995 -9256.6228 -7462.9572 303.3995 507.5404 592.4991 30756.0416 507.5404 592.4991
ENERGY: 300000 4.3960 5.2932 1.9866 0.0000 -10900.9700 1476.1602 0.0000 0.0000 1801.4165 -7611.7175 304.7106 -9413.1340 -7567.1660 300.8792 -95.0686 23.9166 30386.9131 116.7413 196.2844
ENERGY: 600000 1.6932 4.2074 2.1250 0.0000 -10886.4819 1530.9554 0.0000 0.0000 1790.5165 -7556.9845 302.8668 -9347.5010 -7555.9922 301.0349 395.6307 438.3415 30831.4139 167.4785 234.9892
ENERGY: 900000 2.0267 1.4818 2.7436 0.0000 -10811.0737 1434.5892 0.0000 0.0000 1757.5473 -7612.6850 297.2901 -9370.2323 -7554.0576 301.7824 -217.0355 -158.4250 30296.3184 33.3822 103.5073
ENERGY: 1200000 1.6467 0.8625 1.7227 0.0000 -10843.8533 1456.7327 0.0000 0.0000 1778.5516 -7604.3371 300.8430 -9382.8887 -7561.8867 301.2840 212.6831 293.0213 29968.7752 120.2882 187.6738
ENERGY: 1500000 0.7633 2.1459 4.2385 0.0000 -10821.1169 1505.3612 0.0000 0.0000 1812.7541 -7495.8540 306.6284 -9308.6081 -7562.2448 300.5926 806.8651 821.2079 30207.9218 119.2486 178.3846
TCL: Running FEP window  14: Lambda1 0.65   Lambda2 0.7000000000000001 [dLambda 0.050000000000000044]
TCL: Setting parameter firsttimestep to 0
TCL: Setting parameter alchLambda to 0.65
Info: NONBONDED TABLE R-SQUARED SPACING: 0.0625
Info: NONBONDED TABLE SIZE: 705 POINTS
TCL: Setting parameter alchLambda2 to 0.7000000000000001
Info: NONBONDED TABLE R-SQUARED SPACING: 0.0625
Info: NONBONDED TABLE SIZE: 705 POINTS
TCL: Running for 1500000 steps
ETITLE: TS BOND ANGLE DIHED IMPRP ELECT VDW BOUNDARY MISC KINETIC TOTAL TEMP POTENTIAL TOTALAVG TEMPAVG PRESSURE GPRESSURE VOLUME PRESSAVG GPRESSAVG
ENERGY: 0 0.7633 2.1459 4.2385 0.0000 -10821.2935 1504.7417 0.0000 0.0000 1811.8492 -7497.5550 306.4753 -9309.4042 -7497.5550 306.4753 735.4513 819.0878 30207.9218 735.4513 819.0878
ENERGY: 300000 4.2663 4.8033 1.6608 0.0000 -10638.1420 1363.5720 0.0000 0.0000 1788.9672 -7474.8725 302.6048 -9263.8397 -7523.4360 302.5656 -607.1934 -559.1611 30608.5919 18.5477 111.5117
ENERGY: 600000 2.4039 2.2618 3.1330 0.0000 -10698.4773 1389.7913 0.0000 0.0000 1732.6768 -7568.2104 293.0832 -9300.8873 -7527.1023 300.5241 -404.2581 -327.6332 30547.2776 -55.1153 21.9098
ENERGY: 900000 3.3294 4.7775 2.9501 0.0000 -10700.5264 1398.1952 0.0000 0.0000 1726.1240 -7565.1502 291.9748 -9291.2742 -7556.6622 298.6242 -474.6629 -392.3636 30599.5657 3.0418 81.3746
ENERGY: 1200000 1.4522 2.7855 3.6596 0.0000 -10730.5848 1429.6628 0.0000 0.0000 1766.3302 -7526.6945 298.7757 -9293.0247 -7557.2364 298.5509 -47.3350 43.2749 30401.5590 -44.7837 30.7930
ENERGY: 1500000 3.3233 1.8807 2.5270 0.0000 -10729.4562 1411.9681 0.0000 0.0000 1785.6421 -7524.1151 302.0423 -9309.7572 -7551.7802 299.0289 -459.4750 -314.2669 30581.4109 -57.3922 28.7024
TCL: Running FEP window  15: Lambda1 0.7000000000000001 Lambda2 0.7500000000000001 [dLambda 0.050000000000000044]
TCL: Setting parameter firsttimestep to 0
TCL: Setting parameter alchLambda to 0.7000000000000001
Info: NONBONDED TABLE R-SQUARED SPACING: 0.0625
Info: NONBONDED TABLE SIZE: 705 POINTS
TCL: Setting parameter alchLambda2 to 0.7500000000000001
Info: NONBONDED TABLE R-SQUARED SPACING: 0.0625
Info: NONBONDED TABLE SIZE: 705 POINTS
TCL: Running for 1500000 steps
ETITLE: TS BOND ANGLE DIHED IMPRP ELECT VDW BOUNDARY MISC KINETIC TOTAL TEMP POTENTIAL TOTALAVG TEMPAVG PRESSURE GPRESSURE VOLUME PRESSAVG GPRESSAVG
ENERGY: 0 3.3233 1.8807 2.5270 0.0000 -10730.0461 1411.5931 0.0000 0.0000 1784.7519 -7525.9702 301.8918 -9310.7220 -7525.9702 301.8918 -394.9312 -309.6101 30581.4109 -394.9312 -309.6101
ENERGY: 300000 1.2340 2.1029 1.3468 0.0000 -10898.1621 1533.9630 0.0000 0.0000 1784.6261 -7574.8893 301.8705 -9359.5154 -7538.9493 300.5690 748.6240 722.3007 30451.8156 -52.7063 0.0474
ENERGY: 600000 3.8123 4.0444 4.2150 0.0000 -10814.5088 1490.3773 0.0000 0.0000 1768.7865 -7543.2733 299.1912 -9312.0598 -7541.9199 299.0731 122.3885 211.0805 30624.6628 -1.2350 58.8549
ENERGY: 900000 1.8267 2.5076 3.7897 0.0000 -10798.5136 1448.3586 0.0000 0.0000 1778.6503 -7563.3808 300.8597 -9342.0311 -7553.9454 300.0320 -55.8216 -20.4943 30740.2672 -12.8219 48.3360
ENERGY: 1200000 2.1021 2.5063 0.9119 0.0000 -10670.5327 1420.0563 0.0000 0.0000 1786.9316 -7458.0244 302.2605 -9244.9561 -7554.1165 299.3387 114.7583 161.1256 30492.0277 97.2845 152.3911
ENERGY: 1500000 1.9357 4.5981 1.3971 0.0000 -10815.7567 1444.5131 0.0000 0.0000 1735.1516 -7628.1611 293.5018 -9363.3127 -7551.4698 299.5061 -131.4413 -125.9453 30638.2690 31.9232 84.0904
TCL: Running FEP window  16: Lambda1 0.7500000000000001 Lambda2 0.8000000000000002 [dLambda 0.050000000000000044]
TCL: Setting parameter firsttimestep to 0
TCL: Setting parameter alchLambda to 0.7500000000000001
Info: NONBONDED TABLE R-SQUARED SPACING: 0.0625
Info: NONBONDED TABLE SIZE: 705 POINTS
TCL: Setting parameter alchLambda2 to 0.8000000000000002
Info: NONBONDED TABLE R-SQUARED SPACING: 0.0625
Info: NONBONDED TABLE SIZE: 705 POINTS
TCL: Running for 1500000 steps
ETITLE: TS BOND ANGLE DIHED IMPRP ELECT VDW BOUNDARY MISC KINETIC TOTAL TEMP POTENTIAL TOTALAVG TEMPAVG PRESSURE GPRESSURE VOLUME PRESSAVG GPRESSAVG
ENERGY: 0 1.9357 4.5981 1.3971 0.0000 -10816.7483 1444.7959 0.0000 0.0000 1734.2786 -7629.7429 293.3542 -9364.0215 -7629.7429 293.3542 -190.0389 -117.7298 30638.2690 -190.0389 -117.7298
ENERGY: 300000 2.1280 1.1920 6.2795 0.0000 -10724.4772 1409.9857 0.0000 0.0000 1831.3404 -7473.5516 309.7722 -9304.8920 -7572.8838 299.2091 120.8034 210.6030 29827.3646 -301.6803 -224.2622
ENERGY: 600000 3.9364 4.7092 2.7933 0.0000 -10917.4412 1536.1763 0.0000 0.0000 1766.4638 -7603.3622 298.7983 -9369.8260 -7585.8198 298.2327 853.8543 982.9930 30129.0815 19.6587 99.9402
ENERGY: 900000 3.8567 2.4000 1.2904 0.0000 -10848.0235 1517.3306 0.0000 0.0000 1793.9557 -7529.1900 303.4486 -9323.1457 -7580.5307 297.4457 442.5508 513.4808 30791.9395 39.9158 113.3005
ENERGY: 1200000 1.4869 1.6758 2.8012 0.0000 -10629.9883 1336.7946 0.0000 0.0000 1783.1172 -7504.1126 301.6153 -9287.2298 -7562.6404 298.5412 -813.1851 -672.2914 30780.0211 -124.7354 -48.1180
ENERGY: 1500000 1.8989 2.2521 3.9953 0.0000 -10798.6254 1452.1414 0.0000 0.0000 1751.4717 -7586.8661 296.2624 -9338.3378 -7558.5551 299.1779 -49.1654 -21.7427 30574.5204 -112.4984 -43.5657
TCL: Running FEP window  17: Lambda1 0.8000000000000002 Lambda2 0.8500000000000002 [dLambda 0.050000000000000044]
TCL: Setting parameter firsttimestep to 0
TCL: Setting parameter alchLambda to 0.8000000000000002
Info: NONBONDED TABLE R-SQUARED SPACING: 0.0625
Info: NONBONDED TABLE SIZE: 705 POINTS
TCL: Setting parameter alchLambda2 to 0.8500000000000002
Info: NONBONDED TABLE R-SQUARED SPACING: 0.0625
Info: NONBONDED TABLE SIZE: 705 POINTS
TCL: Running for 1500000 steps
ETITLE: TS BOND ANGLE DIHED IMPRP ELECT VDW BOUNDARY MISC KINETIC TOTAL TEMP POTENTIAL TOTALAVG TEMPAVG PRESSURE GPRESSURE VOLUME PRESSAVG GPRESSAVG
ENERGY: 0 1.8989 2.2521 3.9953 0.0000 -10799.2354 1451.8878 0.0000 0.0000 1750.6134 -7588.5880 296.1172 -9339.2014 -7588.5880 296.1172 -121.4267 -20.3905 30574.5204 -121.4267 -20.3905
ENERGY: 300000 1.6356 0.9767 2.8369 0.0000 -10753.0482 1452.9932 0.0000 0.0000 1789.2471 -7505.3587 302.6521 -9294.6058 -7551.4579 299.7851 27.1921 34.4029 30632.7082 -313.9117 -228.3169
ENERGY: 600000 2.1589 2.4996 4.8017 0.0000 -10837.6878 1494.4596 0.0000 0.0000 1782.8531 -7550.9150 301.5706 -9333.7681 -7541.5336 299.4959 163.2604 253.3300 30582.2938 -207.0896 -116.8586
ENERGY: 900000 0.6290 3.2137 2.5318 0.0000 -10754.2772 1428.6453 0.0000 0.0000 1762.3947 -7556.8627 298.1100 -9319.2574 -7544.9350 298.7313 -131.2730 -58.2913 30597.4617 -101.8394 -18.0939
ENERGY: 1200000 1.5649 2.2975 2.0270 0.0000 -10720.7592 1440.4338 0.0000 0.0000 1788.4695 -7485.9665 302.5206 -9274.4360 -7549.8123 299.2106 -196.8140 -155.2816 30951.6454 -139.6167 -63.2322
ENERGY: 1500000 2.4313 1.0543 2.5869 0.0000 -10790.8155 1431.4833 0.0000 0.0000 1817.5817 -7535.6780 307.4449 -9353.2597 -7546.6198 300.7755 -100.7867 -53.6820 30462.0948 -161.3147 -89.2792
TCL: Running FEP window  18: Lambda1 0.8500000000000002 Lambda2 0.9000000000000002 [dLambda 0.050000000000000044]
TCL: Setting parameter firsttimestep to 0
TCL: Setting parameter alchLambda to 0.8500000000000002
Info: NONBONDED TABLE R-SQUARED SPACING: 0.0625
Info: NONBONDED TABLE SIZE: 705 POINTS
TCL: Setting parameter alchLambda2 to 0.9000000000000002
Info: NONBONDED TABLE R-SQUARED SPACING: 0.0625
Info: NONBONDED TABLE SIZE: 705 POINTS
TCL: Running for 1500000 steps
ETITLE: TS BOND ANGLE DIHED IMPRP ELECT VDW BOUNDARY MISC KINETIC TOTAL TEMP POTENTIAL TOTALAVG TEMPAVG PRESSURE GPRESSURE VOLUME PRESSAVG GPRESSAVG
ENERGY: 0 2.4314 1.0543 2.5869 0.0000 -10791.9501 1432.1786 0.0000 0.0000 1816.7341 -7536.9649 307.3016 -9353.6989 -7536.9649 307.3016 -113.4161 -39.8974 30462.0948 -113.4161 -39.8974
ENERGY: 300000 2.5304 5.6631 2.8886 0.0000 -10749.8798 1412.5325 0.0000 0.0000 1726.1301 -7600.1351 291.9759 -9326.2652 -7581.9281 300.8169 -312.2193 -305.1538 30563.8742 131.7025 179.4821
ENERGY: 600000 1.2135 4.3865 8.2524 0.0000 -10894.7411 1520.2192 0.0000 0.0000 1773.6349 -7587.0346 300.0113 -9360.6695 -7559.0424 302.1488 632.7465 690.7459 30096.3347 351.3870 408.2629
ENERGY: 900000 3.5992 5.0289 2.6119 0.0000 -10636.4013 1387.3297 0.0000 0.0000 1748.2685 -7489.5631 295.7206 -9237.8316 -7556.3478 300.6019 -687.0155 -650.4248 31355.9112 221.9259 277.3061
ENERGY: 1200000 4.2111 1.6210 2.4235 0.0000 -10878.8730 1501.0255 0.0000 0.0000 1761.6084 -7607.9835 297.9770 -9369.5918 -7551.7264 300.1468 55.9711 219.8554 30310.6210 31.6250 96.7606
ENERGY: 1500000 4.0084 2.6161 3.5070 0.0000 -10769.7210 1436.1921 0.0000 0.0000 1740.3074 -7583.0900 294.3740 -9323.3974 -7552.5642 299.2619 -97.5477 -93.8535 30755.5875 24.2788 88.2932
TCL: Running FEP window  19: Lambda1 0.9000000000000002 Lambda2 0.9500000000000003 [dLambda 0.050000000000000044]
TCL: Setting parameter firsttimestep to 0
TCL: Setting parameter alchLambda to 0.9000000000000002
Info: NONBONDED TABLE R-SQUARED SPACING: 0.0625
Info: NONBONDED TABLE SIZE: 705 POINTS
TCL: Setting parameter alchLambda2 to 0.9500000000000003
Info: NONBONDED TABLE R-SQUARED SPACING: 0.0625
Info: NONBONDED TABLE SIZE: 705 POINTS
TCL: Running for 1500000 steps
ETITLE: TS BOND ANGLE DIHED IMPRP ELECT VDW BOUNDARY MISC KINETIC TOTAL TEMP POTENTIAL TOTALAVG TEMPAVG PRESSURE GPRESSURE VOLUME PRESSAVG GPRESSAVG
ENERGY: 0 4.0084 2.6161 3.5070 0.0000 -10771.0737 1436.4950 0.0000 0.0000 1739.3838 -7585.0634 294.2177 -9324.4472 -7585.0634 294.2177 -156.2625 -83.5110 30755.5875 -156.2625 -83.5110
ENERGY: 300000 1.5269 2.0092 1.9068 0.0000 -10776.7594 1386.6552 0.0000 0.0000 1707.7085 -7676.9527 288.8598 -9384.6613 -7565.5772 298.2981 -634.7791 -604.5007 30331.9185 -569.8619 -498.0315
ENERGY: 600000 1.5333 3.2872 3.1997 0.0000 -10701.5789 1404.2627 0.0000 0.0000 1763.3101 -7525.9859 298.2649 -9289.2960 -7547.2345 297.8248 -264.2502 -199.4542 30615.2726 -465.0490 -408.6482
ENERGY: 900000 3.0954 7.7427 6.3009 0.0000 -10738.5816 1397.9193 0.0000 0.0000 1773.6801 -7549.8431 300.0190 -9323.5232 -7554.9353 298.2482 -601.7535 -596.7674 31052.2374 -283.9564 -229.1453
ENERGY: 1200000 1.5300 3.0005 3.5180 0.0000 -10813.7346 1450.5955 0.0000 0.0000 1748.6667 -7606.4239 295.7879 -9355.0906 -7549.0189 297.9915 192.8494 280.7397 30218.0058 -256.3839 -202.1566
ENERGY: 1500000 3.3658 2.5337 2.1991 0.0000 -10705.8122 1370.2178 0.0000 0.0000 1776.4440 -7551.0518 300.4865 -9327.4958 -7549.8976 298.6450 -710.0106 -655.7820 30662.9891 -298.7391 -245.1841
TCL: Running FEP window  20: Lambda1 0.9500000000000003 Lambda2 1.0    [dLambda 0.04999999999999971]
TCL: Setting parameter firsttimestep to 0
TCL: Setting parameter alchLambda to 0.9500000000000003
Info: NONBONDED TABLE R-SQUARED SPACING: 0.0625
Info: NONBONDED TABLE SIZE: 705 POINTS
TCL: Setting parameter alchLambda2 to 1.0
Info: NONBONDED TABLE R-SQUARED SPACING: 0.0625
Info: NONBONDED TABLE SIZE: 705 POINTS
TCL: Running for 1500000 steps
ETITLE: TS BOND ANGLE DIHED IMPRP ELECT VDW BOUNDARY MISC KINETIC TOTAL TEMP POTENTIAL TOTALAVG TEMPAVG PRESSURE GPRESSURE VOLUME PRESSAVG GPRESSAVG
ENERGY: 0 3.3658 2.5337 2.1991 0.0000 -10707.0190 1370.1532 0.0000 0.0000 1775.5697 -7553.1975 300.3386 -9328.7672 -7553.1975 300.3386 -712.5073 -649.6966 30662.9891 -712.5073 -649.6966
ENERGY: 300000 1.6951 3.1022 2.1637 0.0000 -10691.7714 1440.6244 0.0000 0.0000 1762.0482 -7482.1379 298.0514 -9244.1860 -7552.7600 299.9894 270.4123 306.4774 30486.1046 -108.9741 -43.2055
ENERGY: 600000 4.0693 1.5238 1.4802 0.0000 -10884.9637 1535.4001 0.0000 0.0000 1799.3248 -7543.1655 304.3568 -9342.4903 -7555.3162 301.3073 524.8716 543.6000 30866.1051 78.0406 135.8854
ENERGY: 900000 3.1375 1.3295 2.8053 0.0000 -10633.2127 1344.0816 0.0000 0.0000 1792.0446 -7489.8143 303.1253 -9281.8589 -7553.3921 300.5209 -628.5831 -566.7096 30508.4973 32.2743 83.4474
ENERGY: 1200000 5.0368 3.1208 2.1351 0.0000 -10827.7840 1516.5624 0.0000 0.0000 1836.9139 -7464.0149 310.7150 -9300.9288 -7556.6569 301.0403 704.1587 683.0938 30567.2634 76.8203 128.1734
ENERGY: 1500000 1.5775 4.2753 3.2203 0.0000 -10815.3977 1406.0684 0.0000 0.0000 1732.0008 -7668.2555 292.9689 -9400.2563 -7564.7133 300.6583 -412.0045 -336.5455 30177.6284 10.0140 61.5788
TCL: Exiting due to exit command.
