Info: SIMULATION PARAMETERS:
Info: TIMESTEP               2
Info: NUMBER OF STEPS        0
Info: STEPS PER CYCLE        10
Info: PERIODIC CELL BASIS 1  32.0956 0 0
Info: PERIODIC CELL BASIS 2  0 30.0501 0
Info: PERIODIC CELL BASIS 3  0 0 31.3333
Info: PERIODIC CELL CENTER   0 0 0
Info: WRAPPING WATERS AROUND PERIODIC BOUNDARIES ON OUTPUT.
Info: WRAPPING ALL CLUSTERS AROUND PERIODIC BOUNDARIES ON OUTPUT.
Info: FIRST LDB TIMESTEP     50
Info: LAST LDB TIMESTEP     -1
Info: HOM BACKGROUND SCALING 1
Info: PME BACKGROUND SCALING 1
Info: MIN ATOMS PER PATCH    40
Info: EMPTY PATCH LOAD       40 ATOMS
Info: VELOCITY FILE          mobley_7150646_equil.vel
Info: CENTER OF MASS MOVING INITIALLY? NO
Info: DIELECTRIC             1
Info: EXCLUDE                SCALED ONE-FOUR
Info: 1-4 ELECTROSTATICS SCALED BY 0.833333
Info: MODIFIED 1-4 VDW PARAMETERS WILL BE USED
Info: DCD FILENAME           mobley_7150646_prod.dcd
Info: DCD FREQUENCY          100000
Info: DCD FIRST STEP         100000
Info: DCD FILE WILL CONTAIN UNIT CELL DATA
Info: XST FILENAME           mobley_7150646_prod.xst
Info: XST FREQUENCY          100000
Info: NO VELOCITY DCD OUTPUT
Info: NO FORCE DCD OUTPUT
Info: OUTPUT FILENAME        mobley_7150646_prod
Info: BINARY OUTPUT FILES WILL BE USED
Info: RESTART FILENAME       mobley_7150646_prod.restart
Info: RESTART FREQUENCY      100000
Info: BINARY RESTART FILES WILL BE USED
Info: CUTOFF                 9
Info: PAIRLIST DISTANCE      11
Info: PAIRLIST SHRINK RATE   0.01
Info: PAIRLIST GROW RATE     0.01
Info: PAIRLIST TRIGGER       0.3
Info: PAIRLISTS PER CYCLE    2
Info: PAIRLISTS ENABLED
Info: MARGIN                 2
Info: HYDROGEN GROUP CUTOFF  2.5
Info: PATCH DIMENSION        15.5
Info: ENERGY OUTPUT STEPS    100000
Info: ENERGY EVALUATION STEPS    100000
Info: OUTPUT ENERGY PRECISION 4
Info: CROSSTERM ENERGY INCLUDED IN DIHEDRAL
Info: TIMING OUTPUT STEPS    1000000
Info: PRESSURE OUTPUT STEPS  100000
Info: ALCHEMICAL FEP ON
Info: FEP CURRENT LAMBDA VALUE     1
Info: FEP COMPARISON LAMBDA VALUE  0.95
Info: FEP INTRA-ALCHEMICAL NON-BONDED INTERACTIONS WILL BE RETAINED
Info: FEP INTRA-ALCHEMICAL BONDED INTERACTIONS WILL BE RETAINED
Info: FEP VDW SHIFTING COEFFICIENT 5
Info: FEP ELEC. ACTIVE FOR ANNIHILATED PARTICLES BETWEEN LAMBDA = 0 AND LAMBDA = 0.5
Info: FEP ELEC. ACTIVE FOR EXNIHILATED PARTICLES BETWEEN LAMBDA = 0.5 AND LAMBDA = 1
Info: FEP VDW ACTIVE FOR ANNIHILATED PARTICLES BETWEEN LAMBDA = 0 AND LAMBDA = 1
Info: FEP VDW ACTIVE FOR EXNIHILATED PARTICLES BETWEEN LAMBDA = 0 AND LAMBDA = 1
Info: FEP BOND ACTIVE FOR ANNIHILATED PARTICLES BETWEEN LAMBDA = 1 AND LAMBDA = 1
Info: FEP BOND ACTIVE FOR EXNIHILATED PARTICLES BETWEEN LAMBDA = 0 AND LAMBDA = 0
Info: LANGEVIN DYNAMICS ACTIVE
Info: LANGEVIN TEMPERATURE   300
Info: LANGEVIN USING BBK INTEGRATOR
Info: LANGEVIN DAMPING COEFFICIENT IS 1 INVERSE PS
Info: LANGEVIN DYNAMICS APPLIED TO HYDROGENS
Info: LANGEVIN PISTON PRESSURE CONTROL ACTIVE
Info:        TARGET PRESSURE IS 1.01325 BAR
Info:     OSCILLATION PERIOD IS 50 FS
Info:             DECAY TIME IS 25 FS
Info:     PISTON TEMPERATURE IS 300 K
Info:       PRESSURE CONTROL IS GROUP-BASED
Info:    INITIAL STRAIN RATE IS 0.000115395 0.000115395 0.000115395
Info:       CELL FLUCTUATION IS ISOTROPIC
Info: PARTICLE MESH EWALD (PME) ACTIVE
Info: PME TOLERANCE               1e-06
Info: PME EWALD COEFFICIENT       0.348832
Info: PME INTERPOLATION ORDER     4
Info: PME GRID DIMENSIONS         36 32 32
Info: PME MAXIMUM GRID SPACING    1
Info: PME CALCULATION WILL BE PERFORMED ON GPU
Info: FULL ELECTROSTATIC EVALUATION FREQUENCY      2
Info: USING VERLET I (r-RESPA) MTS SCHEME.
Info: C1 SPLITTING OF LONG RANGE ELECTROSTATICS
Info: PLACING ATOMS IN PATCHES BY HYDROGEN GROUPS
Info: RIGID BONDS TO HYDROGEN : ALL
Info:         ERROR TOLERANCE : 1e-08
Info:          MAX ITERATIONS : 100
Info: RIGID WATER USING SETTLE ALGORITHM
Info: RANDOM NUMBER SEED     1743551634
Info: USE HYDROGEN BONDS?    NO
Info: Using AMBER format force field!
Info: AMBER PARM FILE        mobley_7150646.prmtop
Info: COORDINATE PDB         mobley_7150646.pdb
Info: Exclusions will be read from PARM file!
Info: SCNB (VDW SCALING)     2
Info: USING ARITHMETIC MEAN TO COMBINE L-J SIGMA PARAMETERS
Info: BINARY COORDINATES     mobley_7150646_equil.coor
Info: SUMMARY OF PARAMETERS:
Info: 5 BONDS
Info: 3 ANGLES
Info:   3 HARMONIC
Info:   0 COSINE-BASED
Info: 2 DIHEDRAL
Info: 0 IMPROPER
Info: 0 CROSSTERM
Info: 0 VDW
Info: 15 VDW_PAIRS
Info: 0 NBTHOLE_PAIRS
Info: To read alchdata from file: mobley_7150646.pdb
Info: To read alchflag data from column: 5
Info: STRUCTURE SUMMARY:
Info: 2955 ATOMS
Info: 2955 BONDS
Info: 18 ANGLES
Info: 30 DIHEDRALS
Info: 0 IMPROPERS
Info: 0 CROSSTERMS
Info: 2994 EXCLUSIONS
Info: 2947 RIGID BONDS
Info: ALCH: 0 ATOMS TO DISAPPEAR IN FINAL STATE
Info: ALCH: 12 ATOMS TO APPEAR IN FINAL STATE
Info: 5918 DEGREES OF FREEDOM
Info: 989 HYDROGEN GROUPS
Info: 3 ATOMS IN LARGEST HYDROGEN GROUP
Info: 989 MIGRATION GROUPS
Info: 3 ATOMS IN LARGEST MIGRATION GROUP
Info: TOTAL MASS = 17909.6 amu
Info: TOTAL CHARGE = -0.000399988 e
Info: MASS DENSITY = 0.984117 g/cm^3
Info: ATOM DENSITY = 0.0977821 atoms/A^3
Info: ADDED 0 IMPLICIT EXCLUSIONS
Info: NONBONDED TABLE R-SQUARED SPACING: 0.0625
Info: NONBONDED TABLE SIZE: 705 POINTS
Info: REMOVING COM VELOCITY -0.189602 -0.0302226 -0.0240524
Info: Use 3D box decompostion in PME FFT.
Info: Updated CUDA force table with 4096 elements.
Info: Updated CUDA LJ table with 5 x 5 elements.
Info: Found 14 unique exclusion lists needing 24 bytes
TCL: Running for 1500000 steps
ETITLE: TS BOND ANGLE DIHED IMPRP ELECT VDW BOUNDARY MISC KINETIC TOTAL TEMP POTENTIAL TOTALAVG TEMPAVG PRESSURE GPRESSURE VOLUME PRESSAVG GPRESSAVG
ENERGY: 0 4.3590 2.9167 2.0459 0.0000 -10666.5381 1380.7484 0.0000 0.0000 1743.9688 -7532.4993 296.5884 -9276.4681 -7532.4993 296.5884 -147.0132 -55.3467 30220.2472 -147.0132 -55.3467
ENERGY: 300000 2.7549 3.8391 2.5146 0.0000 -10649.6824 1431.3919 0.0000 0.0000 1805.2484 -7403.9335 307.0099 -9209.1819 -7495.8375 300.5021 21.9517 76.4491 30621.5987 81.2696 158.0353
ENERGY: 600000 1.8309 2.0759 1.4759 0.0000 -10707.2215 1478.8736 0.0000 0.0000 1731.8887 -7491.0766 294.5340 -9222.9653 -7509.8397 299.6514 447.3536 504.2266 30454.9760 152.0257 226.8085
ENERGY: 900000 2.6087 1.8542 1.8209 0.0000 -10644.0813 1459.4198 0.0000 0.0000 1770.7985 -7407.5792 301.1512 -9178.3777 -7494.3087 300.0040 409.1432 403.9836 30791.4219 149.5890 216.0935
ENERGY: 1200000 3.2836 1.9961 2.2645 0.0000 -10631.2801 1384.6640 0.0000 0.0000 1792.1258 -7446.9461 304.7782 -9239.0719 -7496.6894 299.8354 -179.7922 -73.1282 30519.4712 114.2887 182.2596
ENERGY: 1500000 3.3601 1.0005 2.4167 0.0000 -10719.2331 1455.6172 0.0000 0.0000 1807.9179 -7448.9206 307.4639 -9256.8385 -7501.3211 300.9115 393.7620 437.0646 30144.2607 64.8258 137.3623
TCL: Running FEP window   2: Lambda1 0.95   Lambda2 0.8999999999999999 [dLambda -0.050000000000000044]
TCL: Setting parameter firsttimestep to 0
TCL: Setting parameter alchLambda to 0.95
Info: NONBONDED TABLE R-SQUARED SPACING: 0.0625
Info: NONBONDED TABLE SIZE: 705 POINTS
TCL: Setting parameter alchLambda2 to 0.8999999999999999
Info: NONBONDED TABLE R-SQUARED SPACING: 0.0625
Info: NONBONDED TABLE SIZE: 705 POINTS
TCL: Running for 1500000 steps
ETITLE: TS BOND ANGLE DIHED IMPRP ELECT VDW BOUNDARY MISC KINETIC TOTAL TEMP POTENTIAL TOTALAVG TEMPAVG PRESSURE GPRESSURE VOLUME PRESSAVG GPRESSAVG
ENERGY: 0 3.3601 1.0005 2.4167 0.0000 -10719.0635 1455.9501 0.0000 0.0000 1807.0258 -7449.3103 307.3122 -9256.3361 -7449.3103 307.3122 348.3862 424.9350 30144.2607 348.3862 424.9350
ENERGY: 300000 3.9615 2.8978 3.0517 0.0000 -10768.9218 1457.3988 0.0000 0.0000 1803.9594 -7497.6525 306.7907 -9301.6119 -7508.1822 302.2144 -18.6556 51.0103 30748.7449 81.3028 156.2152
ENERGY: 600000 3.8367 3.1412 1.6995 0.0000 -10698.8206 1415.9777 0.0000 0.0000 1775.9782 -7498.1872 302.0321 -9274.1654 -7522.0766 299.8027 -168.0257 -137.4055 30591.2481 -145.1030 -94.4784
ENERGY: 900000 1.5300 2.3298 3.6767 0.0000 -10683.5172 1358.6363 0.0000 0.0000 1769.3569 -7547.9875 300.9060 -9317.3444 -7523.9455 300.1136 -560.7612 -460.3229 30266.9948 -141.6758 -86.8995
ENERGY: 1200000 1.9796 1.9974 6.3310 0.0000 -10627.3552 1378.8849 0.0000 0.0000 1762.8760 -7475.2863 299.8038 -9238.1623 -7525.1545 300.5492 -298.5654 -262.5832 30483.5359 -57.4734 -4.6932
ENERGY: 1500000 1.4883 1.9400 1.0123 0.0000 -10662.4602 1352.5619 0.0000 0.0000 1790.8316 -7514.6262 304.5581 -9305.4578 -7531.1728 299.8909 -1041.9758 -1000.2796 31059.9844 -157.9401 -106.7827
TCL: Running FEP window   3: Lambda1 0.8999999999999999 Lambda2 0.8499999999999999 [dLambda -0.050000000000000044]
TCL: Setting parameter firsttimestep to 0
TCL: Setting parameter alchLambda to 0.8999999999999999
Info: NONBONDED TABLE R-SQUARED SPACING: 0.0625
Info: NONBONDED TABLE SIZE: 705 POINTS
TCL: Setting parameter alchLambda2 to 0.8499999999999999
Info: NONBONDED TABLE R-SQUARED SPACING: 0.0625
Info: NONBONDED TABLE SIZE: 705 POINTS
TCL: Running for 1500000 steps
ETITLE: TS BOND ANGLE DIHED IMPRP ELECT VDW BOUNDARY MISC KINETIC TOTAL TEMP POTENTIAL TOTALAVG TEMPAVG PRESSURE GPRESSURE VOLUME PRESSAVG GPRESSAVG
ENERGY: 0 1.4883 1.9400 1.0123 0.0000 -10662.1590 1352.9788 0.0000 0.0000 1789.9515 -7514.7882 304.4084 -9304.7397 -7514.7882 304.4084 -1090.2789 -1009.4956 31059.9844 -1090.2789 -1009.4956
ENERGY: 300000 2.0431 2.6202 5.4556 0.0000 -10737.4896 1376.0693 0.0000 0.0000 1688.6621 -7662.6391 287.1826 -9351.3013 -7527.4074 301.3689 -916.9807 -899.0901 30591.8551 -424.8647 -360.5595
ENERGY: 600000 0.5172 3.0515 4.1120 0.0000 -10664.5476 1431.5207 0.0000 0.0000 1750.8132 -7474.5330 297.7524 -9225.3461 -7513.9592 301.7328 151.3615 213.1651 30360.8578 -338.9459 -275.2712
ENERGY: 900000 2.2150 1.5266 2.0282 0.0000 -10643.6652 1421.4439 0.0000 0.0000 1810.6821 -7405.7693 307.9340 -9216.4514 -7494.8466 302.7429 48.4150 148.2713 30585.7794 -272.8862 -204.4975
ENERGY: 1200000 1.9378 2.1513 6.9025 0.0000 -10743.9061 1487.9148 0.0000 0.0000 1727.3262 -7517.6736 293.7580 -9244.9997 -7505.0133 300.7745 310.8000 360.2137 30424.5150 -199.0651 -134.9602
ENERGY: 1500000 1.3784 2.1244 1.6843 0.0000 -10817.3711 1474.4324 0.0000 0.0000 1767.0675 -7570.6841 300.5167 -9337.7516 -7510.4518 301.1479 417.2767 401.5659 30100.4947 -239.8582 -176.1306
TCL: Running FEP window   4: Lambda1 0.8499999999999999 Lambda2 0.7999999999999998 [dLambda -0.050000000000000044]
TCL: Setting parameter firsttimestep to 0
TCL: Setting parameter alchLambda to 0.8499999999999999
Info: NONBONDED TABLE R-SQUARED SPACING: 0.0625
Info: NONBONDED TABLE SIZE: 705 POINTS
TCL: Setting parameter alchLambda2 to 0.7999999999999998
Info: NONBONDED TABLE R-SQUARED SPACING: 0.0625
Info: NONBONDED TABLE SIZE: 705 POINTS
TCL: Running for 1500000 steps
ETITLE: TS BOND ANGLE DIHED IMPRP ELECT VDW BOUNDARY MISC KINETIC TOTAL TEMP POTENTIAL TOTALAVG TEMPAVG PRESSURE GPRESSURE VOLUME PRESSAVG GPRESSAVG
ENERGY: 0 1.3784 2.1244 1.6843 0.0000 -10817.1216 1474.7593 0.0000 0.0000 1766.2100 -7570.9652 300.3708 -9337.1752 -7570.9652 300.3708 305.1177 394.5684 30100.4947 305.1177 394.5684
ENERGY: 300000 2.2929 1.9047 1.9154 0.0000 -10607.0917 1424.9596 0.0000 0.0000 1767.6942 -7408.3249 300.6232 -9176.0191 -7456.7994 303.5443 61.8063 139.6217 30800.4796 628.9079 716.0309
ENERGY: 600000 2.0478 3.8913 4.2346 0.0000 -10603.5478 1372.8336 0.0000 0.0000 1745.3516 -7475.1889 296.8235 -9220.5405 -7450.4317 301.4092 -484.3841 -463.4206 30510.8032 246.7272 310.0168
ENERGY: 900000 1.6024 0.5556 1.6034 0.0000 -10865.8553 1553.7034 0.0000 0.0000 1800.9910 -7507.3994 306.2859 -9308.3904 -7467.6077 301.9997 1004.6584 1059.7347 30245.9925 267.2482 323.5513
ENERGY: 1200000 1.4290 3.9505 2.5281 0.0000 -10541.6745 1372.8324 0.0000 0.0000 1802.8019 -7358.1326 306.5938 -9160.9345 -7460.0842 302.1686 -246.2699 -219.9181 30591.8947 229.3189 291.8583
ENERGY: 1500000 2.9226 1.3126 2.4036 0.0000 -10610.9182 1343.8764 0.0000 0.0000 1761.8470 -7498.5559 299.6288 -9260.4029 -7466.2500 302.4860 -964.0468 -939.2156 30998.3740 116.7059 174.3663
TCL: Running FEP window   5: Lambda1 0.7999999999999998 Lambda2 0.7499999999999998 [dLambda -0.050000000000000044]
TCL: Setting parameter firsttimestep to 0
TCL: Setting parameter alchLambda to 0.7999999999999998
Info: NONBONDED TABLE R-SQUARED SPACING: 0.0625
Info: NONBONDED TABLE SIZE: 705 POINTS
TCL: Setting parameter alchLambda2 to 0.7499999999999998
Info: NONBONDED TABLE R-SQUARED SPACING: 0.0625
Info: NONBONDED TABLE SIZE: 705 POINTS
TCL: Running for 1500000 steps
ETITLE: TS BOND ANGLE DIHED IMPRP ELECT VDW BOUNDARY MISC KINETIC TOTAL TEMP POTENTIAL TOTALAVG TEMPAVG PRESSURE GPRESSURE VOLUME PRESSAVG GPRESSAVG
ENERGY: 0 2.9226 1.3126 2.4036 0.0000 -10610.2525 1344.0347 0.0000 0.0000 1760.9530 -7498.6259 299.4768 -9259.5789 -7498.6259 299.4768 -1025.7579 -945.0775 30998.3740 -1025.7579 -945.0775
ENERGY: 300000 3.1375 0.9095 7.2117 0.0000 -10742.6466 1439.4456 0.0000 0.0000 1772.6470 -7519.2953 301.4655 -9291.9423 -7500.0385 302.9186 -61.6926 1.6739 30479.3521 -113.9958 -27.0025
ENERGY: 600000 1.0550 2.4169 1.1843 0.0000 -10645.8011 1450.1080 0.0000 0.0000 1732.5052 -7458.5317 294.6388 -9191.0369 -7485.9226 301.2348 439.0831 484.8009 30258.7535 96.6605 171.9666
ENERGY: 900000 3.4486 3.0661 0.8859 0.0000 -10547.5731 1298.5250 0.0000 0.0000 1746.1477 -7495.4997 296.9589 -9241.6474 -7486.4931 300.3157 -1100.1131 -1061.4897 30624.4758 -109.1093 -44.6337
ENERGY: 1200000 1.3818 3.6637 3.0632 0.0000 -10813.7636 1454.8567 0.0000 0.0000 1763.3671 -7587.4311 299.8874 -9350.7982 -7488.4295 300.0397 43.0464 119.5383 30098.7894 -74.5007 -5.7538
ENERGY: 1500000 3.5840 3.1115 2.8566 0.0000 -10692.9109 1409.8490 0.0000 0.0000 1724.5630 -7548.9468 293.2881 -9273.5098 -7503.5663 299.0971 -615.4100 -529.5176 30975.4077 -154.9460 -86.9747
TCL: Running FEP window   6: Lambda1 0.7499999999999998 Lambda2 0.6999999999999997 [dLambda -0.050000000000000044]
TCL: Setting parameter firsttimestep to 0
TCL: Setting parameter alchLambda to 0.7499999999999998
Info: NONBONDED TABLE R-SQUARED SPACING: 0.0625
Info: NONBONDED TABLE SIZE: 705 POINTS
TCL: Setting parameter alchLambda2 to 0.6999999999999997
Info: NONBONDED TABLE R-SQUARED SPACING: 0.0625
Info: NONBONDED TABLE SIZE: 705 POINTS
TCL: Running for 1500000 steps
ETITLE: TS BOND ANGLE DIHED IMPRP ELECT VDW BOUNDARY MISC KINETIC TOTAL TEMP POTENTIAL TOTALAVG TEMPAVG PRESSURE GPRESSURE VOLUME PRESSAVG GPRESSAVG
ENERGY: 0 3.5841 3.1115 2.8566 0.0000 -10692.8455 1410.5870 0.0000 0.0000 1723.6651 -7549.0413 293.1354 -9272.7063 -7549.0413 293.1354 -620.4953 -528.6561 30975.4077 -620.4953 -528.6561
ENERGY: 300000 2.2334 1.9941 1.1599 0.0000 -10537.5627 1323.3838 0.0000 0.0000 1747.9181 -7460.8734 297.2600 -9208.7915 -7486.7380 299.3379 -890.1308 -855.0776 30940.7105 -561.0705 -486.2781
ENERGY: 600000 2.7682 3.8933 5.2608 0.0000 -10657.4098 1366.7098 0.0000 0.0000 1812.5713 -7466.2064 308.2553 -9278.7777 -7502.6254 298.5237 -699.3038 -648.3505 30600.0882 -479.1072 -413.0789
ENERGY: 900000 2.3099 1.6939 2.3597 0.0000 -10822.3770 1470.8942 0.0000 0.0000 1778.7324 -7566.3870 302.5005 -9345.1194 -7495.0180 299.3906 234.5889 294.9165 30182.1642 -403.7522 -335.8542
ENERGY: 1200000 2.0848 0.6439 1.8207 0.0000 -10816.8930 1458.1092 0.0000 0.0000 1779.2881 -7574.9464 302.5950 -9354.2345 -7508.6245 299.7421 -273.9513 -243.2030 30443.7195 -277.1290 -221.8033
ENERGY: 1500000 0.3978 3.0404 3.8904 0.0000 -10826.5574 1498.1574 0.0000 0.0000 1790.4717 -7530.5998 304.4969 -9321.0715 -7505.4482 300.6352 343.5371 351.9928 30433.5392 -117.1412 -60.2619
TCL: Running FEP window   7: Lambda1 0.6999999999999997 Lambda2 0.6499999999999997 [dLambda -0.050000000000000044]
TCL: Setting parameter firsttimestep to 0
TCL: Setting parameter alchLambda to 0.6999999999999997
Info: NONBONDED TABLE R-SQUARED SPACING: 0.0625
Info: NONBONDED TABLE SIZE: 705 POINTS
TCL: Setting parameter alchLambda2 to 0.6499999999999997
Info: NONBONDED TABLE R-SQUARED SPACING: 0.0625
Info: NONBONDED TABLE SIZE: 705 POINTS
TCL: Running for 1500000 steps
ETITLE: TS BOND ANGLE DIHED IMPRP ELECT VDW BOUNDARY MISC KINETIC TOTAL TEMP POTENTIAL TOTALAVG TEMPAVG PRESSURE GPRESSURE VOLUME PRESSAVG GPRESSAVG
ENERGY: 0 0.3978 3.0404 3.8904 0.0000 -10826.3681 1498.2893 0.0000 0.0000 1789.6213 -7531.1290 304.3523 -9320.7503 -7531.1290 304.3523 272.2812 343.6947 30433.5392 272.2812 343.6947
ENERGY: 300000 3.7322 3.8729 1.0825 0.0000 -10622.0322 1395.2879 0.0000 0.0000 1821.6838 -7396.3729 309.8050 -9218.0567 -7490.0583 301.4102 -296.5462 -226.5933 30470.2070 131.0601 181.2082
ENERGY: 600000 1.6581 6.4256 3.0262 0.0000 -10744.0046 1418.0795 0.0000 0.0000 1776.9364 -7537.8788 302.1950 -9314.8152 -7531.0901 299.9331 -178.6510 -117.1584 30276.6212 -21.5493 35.6632
ENERGY: 900000 3.6094 4.5837 0.7584 0.0000 -10613.8559 1432.0981 0.0000 0.0000 1759.2352 -7413.5711 299.1847 -9172.8063 -7531.4666 298.4339 75.4196 137.5069 30731.7449 -138.4414 -78.8730
ENERGY: 1200000 1.7668 2.3619 4.1151 0.0000 -10775.4103 1496.3836 0.0000 0.0000 1732.8188 -7537.9641 294.6922 -9270.7829 -7526.1578 298.3759 232.6988 287.3759 30552.4255 -90.0751 -37.5680
ENERGY: 1500000 2.9574 1.8159 2.5600 0.0000 -10630.3505 1403.5200 0.0000 0.0000 1768.7886 -7450.7086 300.8094 -9219.4972 -7515.3063 299.0323 -327.6294 -203.1323 30853.4063 -61.4817 -2.5388
TCL: Running FEP window   8: Lambda1 0.6499999999999997 Lambda2 0.5999999999999996 [dLambda -0.050000000000000044]
TCL: Setting parameter firsttimestep to 0
TCL: Setting parameter alchLambda to 0.6499999999999997
Info: NONBONDED TABLE R-SQUARED SPACING: 0.0625
Info: NONBONDED TABLE SIZE: 705 POINTS
TCL: Setting parameter alchLambda2 to 0.5999999999999996
Info: NONBONDED TABLE R-SQUARED SPACING: 0.0625
Info: NONBONDED TABLE SIZE: 705 POINTS
TCL: Running for 1500000 steps
ETITLE: TS BOND ANGLE DIHED IMPRP ELECT VDW BOUNDARY MISC KINETIC TOTAL TEMP POTENTIAL TOTALAVG TEMPAVG PRESSURE GPRESSURE VOLUME PRESSAVG GPRESSAVG
ENERGY: 0 2.9574 1.8159 2.5600 0.0000 -10630.2062 1404.0369 0.0000 0.0000 1767.9476 -7450.8885 300.6663 -9218.8361 -7450.8885 300.6663 -302.0689 -208.6931 30853.4063 -302.0689 -208.6931
ENERGY: 300000 3.5631 1.8867 4.0018 0.0000 -10765.1720 1441.8201 0.0000 0.0000 1723.4110 -7590.4893 293.0922 -9313.9003 -7486.8461 300.2041 -435.7983 -291.3965 30565.6412 18.2500 106.2468
ENERGY: 600000 3.4916 3.2692 2.1369 0.0000 -10730.7611 1503.4929 0.0000 0.0000 1809.9908 -7408.3796 307.8164 -9218.3705 -7484.9079 303.4792 644.4001 642.3834 30734.0409 162.1859 222.8052
ENERGY: 900000 1.5451 2.3962 2.3948 0.0000 -10669.2292 1444.5503 0.0000 0.0000 1709.6385 -7508.7043 290.7500 -9218.3428 -7491.4225 301.6137 -116.1520 -96.1729 30747.8679 94.8404 151.1421
ENERGY: 1200000 1.3732 2.5797 3.6366 0.0000 -10666.7816 1365.9171 0.0000 0.0000 1734.1603 -7559.1146 294.9203 -9293.2749 -7494.5783 301.5759 -650.4108 -486.6138 30384.3283 -8.3173 62.5413
ENERGY: 1500000 4.7390 1.8827 2.6019 0.0000 -10800.7235 1546.7119 0.0000 0.0000 1741.0908 -7503.6972 296.0989 -9244.7880 -7498.1178 301.2808 905.9371 975.0646 30147.1233 102.7484 171.5111
TCL: Running FEP window   9: Lambda1 0.5999999999999996 Lambda2 0.5499999999999996 [dLambda -0.050000000000000044]
TCL: Setting parameter firsttimestep to 0
TCL: Setting parameter alchLambda to 0.5999999999999996
Info: NONBONDED TABLE R-SQUARED SPACING: 0.0625
Info: NONBONDED TABLE SIZE: 705 POINTS
TCL: Setting parameter alchLambda2 to 0.5499999999999996
Info: NONBONDED TABLE R-SQUARED SPACING: 0.0625
Info: NONBONDED TABLE SIZE: 705 POINTS
TCL: Running for 1500000 steps
ETITLE: TS BOND ANGLE DIHED IMPRP ELECT VDW BOUNDARY MISC KINETIC TOTAL TEMP POTENTIAL TOTALAVG TEMPAVG PRESSURE GPRESSURE VOLUME PRESSAVG GPRESSAVG
ENERGY: 0 4.7390 1.8827 2.6019 0.0000 -10800.5266 1547.3319 0.0000 0.0000 1740.2157 -7503.7554 295.9501 -9243.9711 -7503.7554 295.9501 891.0797 973.7525 30147.1233 891.0797 973.7525
ENERGY: 300000 2.9881 2.7750 2.9188 0.0000 -10667.4440 1411.9461 0.0000 0.0000 1813.0414 -7433.7746 308.3352 -9246.8160 -7489.5658 298.4865 -85.4460 -31.1425 30632.9513 79.3397 135.1379
ENERGY: 600000 2.3325 4.3971 2.9062 0.0000 -10643.3359 1418.5355 0.0000 0.0000 1819.3337 -7395.8309 309.4053 -9215.1646 -7493.7070 299.5231 10.2121 37.9538 30496.8001 39.2027 85.7041
ENERGY: 900000 2.5272 2.9384 1.4351 0.0000 -10671.4969 1400.6185 0.0000 0.0000 1782.6382 -7481.3394 303.1647 -9263.9776 -7499.5539 299.3028 -272.1822 -95.0769 30146.5290 -48.9857 13.3604
ENERGY: 1200000 3.0836 4.0956 2.3947 0.0000 -10590.7493 1359.7405 0.0000 0.0000 1746.7985 -7474.6365 297.0696 -9221.4350 -7486.4817 300.0382 -778.7721 -713.0406 30938.7513 -131.4313 -69.7307
ENERGY: 1500000 1.9980 4.1406 2.1204 0.0000 -10638.7111 1423.7148 0.0000 0.0000 1794.0448 -7412.6925 305.1046 -9206.7373 -7482.2261 300.1443 -14.0713 62.1320 30749.8589 -63.1577 -7.1898
TCL: Running FEP window  10: Lambda1 0.5499999999999996 Lambda2 0.4999999999999996 [dLambda -0.04999999999999999]
TCL: Setting parameter firsttimestep to 0
TCL: Setting parameter alchLambda to 0.5499999999999996
Info: NONBONDED TABLE R-SQUARED SPACING: 0.0625
Info: NONBONDED TABLE SIZE: 705 POINTS
TCL: Setting parameter alchLambda2 to 0.4999999999999996
Info: NONBONDED TABLE R-SQUARED SPACING: 0.0625
Info: NONBONDED TABLE SIZE: 705 POINTS
TCL: Running for 1500000 steps
ETITLE: TS BOND ANGLE DIHED IMPRP ELECT VDW BOUNDARY MISC KINETIC TOTAL TEMP POTENTIAL TOTALAVG TEMPAVG PRESSURE GPRESSURE VOLUME PRESSAVG GPRESSAVG
ENERGY: 0 1.9980 4.1406 2.1204 0.0000 -10638.4202 1423.8769 0.0000 0.0000 1793.1549 -7413.1294 304.9532 -9206.2843 -7413.1294 304.9532 -41.6687 59.0866 30749.8589 -41.6687 59.0866
ENERGY: 300000 3.0815 4.0182 1.8744 0.0000 -10774.7444 1490.3293 0.0000 0.0000 1734.2850 -7541.1560 294.9415 -9275.4410 -7464.2217 300.1535 198.5020 262.0554 30372.1545 267.9084 311.0004
ENERGY: 600000 1.0867 2.9948 4.5502 0.0000 -10735.2960 1515.0877 0.0000 0.0000 1742.4388 -7469.1377 296.3282 -9211.5765 -7474.1162 299.9553 839.0259 865.6767 30270.8239 424.2864 471.1809
ENERGY: 900000 2.0956 1.2313 3.6805 0.0000 -10643.4427 1431.1001 0.0000 0.0000 1770.1831 -7435.1520 301.0465 -9205.3351 -7470.2927 300.0460 -60.0236 17.8882 30592.9738 316.2049 372.1112
ENERGY: 1200000 4.0581 4.9821 2.0339 0.0000 -10697.6978 1430.7358 0.0000 0.0000 1773.2445 -7482.6433 301.5672 -9255.8878 -7473.9308 299.8922 -190.0750 -110.4960 30881.5097 181.1068 232.6128
ENERGY: 1500000 1.7476 3.8992 2.0011 0.0000 -10710.4191 1356.4168 0.0000 0.0000 1767.9107 -7578.4437 300.6601 -9346.3544 -7478.1530 300.1748 -929.9272 -853.6424 30230.4410 27.4286 82.2389
TCL: Running FEP window  11: Lambda1 0.4999999999999996 Lambda2 0.4499999999999996 [dLambda -0.04999999999999999]
TCL: Setting parameter firsttimestep to 0
TCL: Setting parameter alchLambda to 0.4999999999999996
Info: NONBONDED TABLE R-SQUARED SPACING: 0.0625
Info: NONBONDED TABLE SIZE: 705 POINTS
TCL: Setting parameter alchLambda2 to 0.4499999999999996
Info: NONBONDED TABLE R-SQUARED SPACING: 0.0625
Info: NONBONDED TABLE SIZE: 705 POINTS
TCL: Running for 1500000 steps
ETITLE: TS BOND ANGLE DIHED IMPRP ELECT VDW BOUNDARY MISC KINETIC TOTAL TEMP POTENTIAL TOTALAVG TEMPAVG PRESSURE GPRESSURE VOLUME PRESSAVG GPRESSAVG
ENERGY: 0 1.7476 3.8992 2.0011 0.0000 -10710.5058 1356.6853 0.0000 0.0000 1767.0664 -7579.1061 300.5165 -9346.1726 -7579.1061 300.5165 -949.0728 -858.0656 30230.4410 -949.0728 -858.0656
ENERGY: 300000 1.1885 3.8995 1.7276 0.0000 -10841.1543 1477.9319 0.0000 0.0000 1802.1036 -7554.3033 306.4751 -9356.4069 -7567.3741 300.2266 99.5987 228.2812 30184.4364 -5.0008 104.4069
ENERGY: 600000 1.8455 1.1343 1.9811 0.0000 -10779.1381 1546.5616 0.0000 0.0000 1801.5424 -7426.0731 306.3796 -9227.6155 -7537.8537 300.2401 1036.1791 1049.7396 30458.9948 135.0440 222.3338
ENERGY: 900000 1.3183 4.8692 1.2123 0.0000 -10831.4250 1430.7308 0.0000 0.0000 1757.5002 -7635.7942 298.8896 -9393.2944 -7526.9014 300.2231 -182.5975 -107.3828 30039.6154 -14.6631 72.7967
ENERGY: 1200000 1.6916 1.5746 4.6237 0.0000 -10715.2222 1451.7595 0.0000 0.0000 1745.1800 -7510.3927 296.7944 -9255.5727 -7516.2656 299.8876 9.7450 41.2885 30582.8226 18.1938 93.9241
ENERGY: 1500000 2.7558 2.2184 0.7418 0.0000 -10606.4403 1335.4717 0.0000 0.0000 1762.6904 -7502.5623 299.7723 -9265.2526 -7504.6516 299.6524 -950.8807 -817.6543 30694.2207 -13.3195 64.4885
TCL: Running FEP window  12: Lambda1 0.4499999999999996 Lambda2 0.39999999999999963 [dLambda -0.04999999999999999]
TCL: Setting parameter firsttimestep to 0
TCL: Setting parameter alchLambda to 0.4499999999999996
Info: NONBONDED TABLE R-SQUARED SPACING: 0.0625
Info: NONBONDED TABLE SIZE: 705 POINTS
TCL: Setting parameter alchLambda2 to 0.39999999999999963
Info: NONBONDED TABLE R-SQUARED SPACING: 0.0625
Info: NONBONDED TABLE SIZE: 705 POINTS
TCL: Running for 1500000 steps
ETITLE: TS BOND ANGLE DIHED IMPRP ELECT VDW BOUNDARY MISC KINETIC TOTAL TEMP POTENTIAL TOTALAVG TEMPAVG PRESSURE GPRESSURE VOLUME PRESSAVG GPRESSAVG
ENERGY: 0 2.7558 2.2184 0.7418 0.0000 -10606.4405 1335.4134 0.0000 0.0000 1761.7948 -7503.5163 299.6200 -9265.3112 -7503.5163 299.6200 -907.9040 -824.5794 30694.2207 -907.9040 -824.5794
ENERGY: 300000 3.4950 3.1318 3.4529 0.0000 -10582.7478 1364.6548 0.0000 0.0000 1707.7963 -7500.2170 290.4367 -9208.0133 -7473.6529 297.6394 -584.4508 -551.2557 30325.2224 -569.5313 -494.1646
ENERGY: 600000 1.6577 2.5677 1.5823 0.0000 -10674.9695 1414.0968 0.0000 0.0000 1748.4599 -7506.6051 297.3522 -9255.0649 -7482.6417 299.0712 -252.2028 -151.2659 30530.6278 -309.0575 -229.1555
ENERGY: 900000 1.6855 2.4958 3.2151 0.0000 -10769.9689 1476.4694 0.0000 0.0000 1791.5243 -7494.5787 304.6759 -9286.1030 -7476.7481 301.2135 280.7945 340.6405 30497.3252 -205.0565 -131.3867
ENERGY: 1200000 0.3625 3.0053 3.4261 0.0000 -10692.7832 1370.8665 0.0000 0.0000 1758.2468 -7556.8759 299.0166 -9315.1227 -7495.1181 301.1552 -506.6847 -445.3413 30277.5127 -105.5892 -39.5632
ENERGY: 1500000 3.3231 3.2656 1.1361 0.0000 -10697.2470 1422.3033 0.0000 0.0000 1744.4921 -7522.7269 296.6774 -9267.2190 -7502.9184 300.5729 -277.4067 -248.1093 30425.5434 -82.5113 -22.5774
TCL: Running FEP window  13: Lambda1 0.39999999999999963 Lambda2 0.34999999999999964 [dLambda -0.04999999999999999]
TCL: Setting parameter firsttimestep to 0
TCL: Setting parameter alchLambda to 0.39999999999999963
Info: NONBONDED TABLE R-SQUARED SPACING: 0.0625
Info: NONBONDED TABLE SIZE: 705 POINTS
TCL: Setting parameter alchLambda2 to 0.34999999999999964
Info: NONBONDED TABLE R-SQUARED SPACING: 0.0625
Info: NONBONDED TABLE SIZE: 705 POINTS
TCL: Running for 1500000 steps
ETITLE: TS BOND ANGLE DIHED IMPRP ELECT VDW BOUNDARY MISC KINETIC TOTAL TEMP POTENTIAL TOTALAVG TEMPAVG PRESSURE GPRESSURE VOLUME PRESSAVG GPRESSAVG
ENERGY: 0 3.3231 3.2656 1.1361 0.0000 -10697.2469 1421.7182 0.0000 0.0000 1743.5811 -7524.2228 296.5224 -9267.8039 -7524.2228 296.5224 -343.3598 -263.5169 30425.5434 -343.3598 -263.5169
ENERGY: 300000 2.5932 3.2856 1.6519 0.0000 -10732.6485 1477.8112 0.0000 0.0000 1745.2544 -7502.0521 296.8070 -9247.3065 -7487.5709 299.9425 120.3171 235.6704 30524.1111 58.2015 103.3289
ENERGY: 600000 0.9962 4.5350 4.1688 0.0000 -10781.0980 1440.3669 0.0000 0.0000 1762.9870 -7568.0441 299.8227 -9331.0310 -7485.4685 301.2543 -134.5041 -103.4474 30275.2169 -2.2982 34.5319
ENERGY: 900000 1.9624 3.2963 1.3331 0.0000 -10691.8741 1455.4235 0.0000 0.0000 1793.3971 -7436.4617 304.9944 -9229.8588 -7474.7817 301.6333 197.7503 214.3437 30363.3518 -0.1539 43.2176
ENERGY: 1200000 3.1237 4.3687 1.4039 0.0000 -10871.7371 1522.7144 0.0000 0.0000 1745.2926 -7594.8338 296.8135 -9340.1264 -7487.7928 301.0497 116.2742 205.2046 30671.2743 94.3712 150.9843
ENERGY: 1500000 1.6737 3.6834 1.3213 0.0000 -10614.0090 1426.9750 0.0000 0.0000 1785.1010 -7395.2546 303.5835 -9180.3556 -7475.4010 301.0067 57.7348 92.9042 30421.5218 61.6193 115.1028
TCL: Running FEP window  14: Lambda1 0.34999999999999964 Lambda2 0.29999999999999966 [dLambda -0.04999999999999999]
TCL: Setting parameter firsttimestep to 0
TCL: Setting parameter alchLambda to 0.34999999999999964
Info: NONBONDED TABLE R-SQUARED SPACING: 0.0625
Info: NONBONDED TABLE SIZE: 705 POINTS
TCL: Setting parameter alchLambda2 to 0.29999999999999966
Info: NONBONDED TABLE R-SQUARED SPACING: 0.0625
Info: NONBONDED TABLE SIZE: 705 POINTS
TCL: Running for 1500000 steps
ETITLE: TS BOND ANGLE DIHED IMPRP ELECT VDW BOUNDARY MISC KINETIC TOTAL TEMP POTENTIAL TOTALAVG TEMPAVG PRESSURE GPRESSURE VOLUME PRESSAVG GPRESSAVG
ENERGY: 0 1.6737 3.6834 1.3213 0.0000 -10614.0075 1427.2385 0.0000 0.0000 1784.2090 -7395.8816 303.4318 -9180.0905 -7395.8816 303.4318 6.7573 90.8718 30421.5218 6.7573 90.8718
ENERGY: 300000 5.9143 2.2556 2.8025 0.0000 -10794.5333 1429.5752 0.0000 0.0000 1792.7426 -7561.2430 304.8831 -9353.9856 -7495.8104 303.5351 -143.9586 -45.6913 30006.4794 -23.9387 55.8552
ENERGY: 600000 1.6826 6.8262 2.4616 0.0000 -10841.6443 1485.9322 0.0000 0.0000 1759.7474 -7584.9942 299.2718 -9344.7416 -7489.0605 301.1865 141.3394 202.0891 30192.4075 -86.4265 -2.8849
ENERGY: 900000 1.6979 4.6231 3.4826 0.0000 -10801.2642 1478.4551 0.0000 0.0000 1812.5719 -7500.4336 308.2554 -9313.0055 -7489.7743 303.0649 109.0439 42.2340 30474.6033 0.2095 63.1059
ENERGY: 1200000 3.4105 2.3502 2.6535 0.0000 -10604.0648 1441.5197 0.0000 0.0000 1707.1741 -7446.9567 290.3309 -9154.1308 -7479.2430 301.0966 -126.9346 -88.1234 30762.3276 -17.2888 36.5180
ENERGY: 1500000 2.5458 1.0921 1.4260 0.0000 -10711.6874 1405.4020 0.0000 0.0000 1780.4052 -7520.8164 302.7849 -9301.2216 -7484.7954 301.8223 -746.2928 -660.5275 30909.7851 -65.6848 -9.7583
TCL: Running FEP window  15: Lambda1 0.29999999999999966 Lambda2 0.24999999999999967 [dLambda -0.04999999999999999]
TCL: Setting parameter firsttimestep to 0
TCL: Setting parameter alchLambda to 0.29999999999999966
Info: NONBONDED TABLE R-SQUARED SPACING: 0.0625
Info: NONBONDED TABLE SIZE: 705 POINTS
TCL: Setting parameter alchLambda2 to 0.24999999999999967
Info: NONBONDED TABLE R-SQUARED SPACING: 0.0625
Info: NONBONDED TABLE SIZE: 705 POINTS
TCL: Running for 1500000 steps
ETITLE: TS BOND ANGLE DIHED IMPRP ELECT VDW BOUNDARY MISC KINETIC TOTAL TEMP POTENTIAL TOTALAVG TEMPAVG PRESSURE GPRESSURE VOLUME PRESSAVG GPRESSAVG
ENERGY: 0 2.5458 1.0921 1.4260 0.0000 -10711.6878 1405.7464 0.0000 0.0000 1779.4963 -7521.3813 302.6304 -9300.8775 -7521.3813 302.6304 -752.2604 -662.2237 30909.7851 -752.2604 -662.2237
ENERGY: 300000 1.3118 4.1748 3.5895 0.0000 -10693.1691 1453.1015 0.0000 0.0000 1743.9515 -7487.0400 296.5854 -9230.9915 -7522.1360 299.6430 227.0516 318.4150 29998.3854 -29.2516 20.3633
ENERGY: 600000 1.2959 2.1083 2.0667 0.0000 -10660.6759 1418.2563 0.0000 0.0000 1785.5730 -7451.3757 303.6638 -9236.9487 -7508.9783 300.1954 151.1646 138.4981 29856.8760 -86.9921 -29.9170
ENERGY: 900000 2.4046 2.6527 5.4389 0.0000 -10720.4530 1465.2223 0.0000 0.0000 1725.1584 -7519.5760 293.3894 -9244.7344 -7492.2754 301.3282 346.5400 411.6940 30404.7998 90.7029 142.7620
ENERGY: 1200000 1.6288 2.4984 1.3172 0.0000 -10609.7657 1374.9001 0.0000 0.0000 1801.6629 -7427.7583 306.4001 -9229.4212 -7481.5349 303.3224 -215.7593 -199.0452 30288.7280 -28.8304 30.8619
ENERGY: 1500000 1.4303 1.0435 3.1917 0.0000 -10630.8287 1374.0793 0.0000 0.0000 1750.3546 -7500.7293 297.6744 -9251.0839 -7490.8692 301.8796 -656.2413 -604.4600 30394.0679 -50.3276 9.8182
TCL: Running FEP window  16: Lambda1 0.24999999999999967 Lambda2 0.19999999999999968 [dLambda -0.04999999999999999]
TCL: Setting parameter firsttimestep to 0
TCL: Setting parameter alchLambda to 0.24999999999999967
Info: NONBONDED TABLE R-SQUARED SPACING: 0.0625
Info: NONBONDED TABLE SIZE: 705 POINTS
TCL: Setting parameter alchLambda2 to 0.19999999999999968
Info: NONBONDED TABLE R-SQUARED SPACING: 0.0625
Info: NONBONDED TABLE SIZE: 705 POINTS
TCL: Running for 1500000 steps
ETITLE: TS BOND ANGLE DIHED IMPRP ELECT VDW BOUNDARY MISC KINETIC TOTAL TEMP POTENTIAL TOTALAVG TEMPAVG PRESSURE GPRESSURE VOLUME PRESSAVG GPRESSAVG
ENERGY: 0 1.4303 1.0435 3.1917 0.0000 -10630.8274 1374.0976 0.0000 0.0000 1749.4508 -7501.6135 297.5207 -9251.0643 -7501.6135 297.5207 -698.0818 -610.0281 30394.0679 -698.0818 -610.0281
ENERGY: 300000 4.2471 1.8035 3.7639 0.0000 -10566.6633 1390.6473 0.0000 0.0000 1767.4889 -7398.7127 300.5883 -9166.2016 -7417.7374 301.6490 -130.6362 -42.2796 30436.2419 -651.5999 -592.2674
ENERGY: 600000 0.6972 4.9061 3.0775 0.0000 -10545.3425 1357.8781 0.0000 0.0000 1723.1211 -7455.6624 293.0429 -9178.7836 -7443.5627 300.9979 -275.8817 -248.4904 30232.3627 -550.7283 -503.7318
ENERGY: 900000 0.8769 1.7958 4.0062 0.0000 -10640.7602 1362.7464 0.0000 0.0000 1691.6495 -7579.6853 287.6907 -9271.3348 -7456.1786 299.7061 -812.0087 -718.2772 30549.9858 -455.0789 -396.6312
ENERGY: 1200000 2.5480 5.5910 1.3254 0.0000 -10578.0678 1365.1920 0.0000 0.0000 1692.8241 -7510.5873 287.8904 -9203.4114 -7466.7397 299.3984 -512.5024 -503.0536 30733.6198 -368.0330 -313.8558
ENERGY: 1500000 4.0468 2.3268 1.9718 0.0000 -10758.3460 1426.2758 0.0000 0.0000 1717.4662 -7606.2585 292.0812 -9323.7247 -7477.3409 299.0559 -308.1977 -254.0012 30020.2987 -297.2355 -243.6413
TCL: Running FEP window  17: Lambda1 0.19999999999999968 Lambda2 0.1499999999999997 [dLambda -0.04999999999999999]
TCL: Setting parameter firsttimestep to 0
TCL: Setting parameter alchLambda to 0.19999999999999968
Info: NONBONDED TABLE R-SQUARED SPACING: 0.0625
Info: NONBONDED TABLE SIZE: 705 POINTS
TCL: Setting parameter alchLambda2 to 0.1499999999999997
Info: NONBONDED TABLE R-SQUARED SPACING: 0.0625
Info: NONBONDED TABLE SIZE: 705 POINTS
TCL: Running for 1500000 steps
ETITLE: TS BOND ANGLE DIHED IMPRP ELECT VDW BOUNDARY MISC KINETIC TOTAL TEMP POTENTIAL TOTALAVG TEMPAVG PRESSURE GPRESSURE VOLUME PRESSAVG GPRESSAVG
ENERGY: 0 4.0468 2.3268 1.9718 0.0000 -10758.3458 1426.1188 0.0000 0.0000 1716.5756 -7607.3060 291.9298 -9323.8816 -7607.3060 291.9298 -336.4771 -258.1264 30020.2987 -336.4771 -258.1264
ENERGY: 300000 4.4453 1.2266 1.5038 0.0000 -10709.3413 1434.0566 0.0000 0.0000 1768.9737 -7499.1353 300.8408 -9268.1090 -7544.3008 295.7251 -259.9565 -140.1590 30126.8318 -390.8668 -314.5099
ENERGY: 600000 3.2811 4.2620 2.4942 0.0000 -10706.2913 1390.8823 0.0000 0.0000 1783.5981 -7521.7736 303.3279 -9305.3716 -7516.5545 297.8655 -406.8427 -311.2981 30140.5236 -440.3488 -363.8548
ENERGY: 900000 2.0687 2.8121 5.1529 0.0000 -10715.5710 1408.3792 0.0000 0.0000 1774.8323 -7522.3257 301.8372 -9297.1581 -7505.6716 299.4274 -323.6006 -300.8201 30302.1303 -349.7035 -283.6734
ENERGY: 1200000 2.9131 4.5526 3.5707 0.0000 -10672.0783 1432.6167 0.0000 0.0000 1771.3121 -7457.1131 301.2385 -9228.4252 -7498.7374 299.3746 -47.0757 11.0286 30434.6832 -292.5694 -224.9208
ENERGY: 1500000 3.9999 3.9093 1.9364 0.0000 -10597.4233 1390.4551 0.0000 0.0000 1715.1437 -7481.9789 291.6862 -9197.1227 -7499.5049 298.8829 -128.0274 -77.2162 30517.7720 -285.6641 -217.1817
TCL: Running FEP window  18: Lambda1 0.1499999999999997 Lambda2 0.09999999999999969 [dLambda -0.05 ]
TCL: Setting parameter firsttimestep to 0
TCL: Setting parameter alchLambda to 0.1499999999999997
Info: NONBONDED TABLE R-SQUARED SPACING: 0.0625
Info: NONBONDED TABLE SIZE: 705 POINTS
TCL: Setting parameter alchLambda2 to 0.09999999999999969
Info: NONBONDED TABLE R-SQUARED SPACING: 0.0625
Info: NONBONDED TABLE SIZE: 705 POINTS
TCL: Running for 1500000 steps
ETITLE: TS BOND ANGLE DIHED IMPRP ELECT VDW BOUNDARY MISC KINETIC TOTAL TEMP POTENTIAL TOTALAVG TEMPAVG PRESSURE GPRESSURE VOLUME PRESSAVG GPRESSAVG
ENERGY: 0 3.9999 3.9093 1.9364 0.0000 -10597.4231 1390.7822 0.0000 0.0000 1714.2791 -7482.5163 291.5392 -9196.7953 -7482.5163 291.5392 -151.0933 -79.9482 30517.7720 -151.0933 -79.9482
ENERGY: 300000 2.1189 1.5760 2.7748 0.0000 -10733.8327 1420.4957 0.0000 0.0000 1806.5601 -7500.3073 307.2330 -9306.8673 -7494.0939 301.0080 -117.9477 -45.0896 30001.3053 -168.5455 -109.9457
ENERGY: 600000 3.0038 3.6832 3.1127 0.0000 -10768.3604 1487.6061 0.0000 0.0000 1736.0041 -7534.9504 295.2339 -9270.9546 -7499.5203 300.2255 275.3421 326.7075 30454.7614 -79.9283 -24.6902
ENERGY: 900000 1.7947 1.0882 3.1200 0.0000 -10687.9861 1486.8329 0.0000 0.0000 1750.1550 -7444.9953 297.6404 -9195.1503 -7486.1413 299.5043 486.7634 541.3464 30555.3112 128.5195 195.2773
ENERGY: 1200000 1.0728 2.1313 3.0511 0.0000 -10777.5557 1475.8323 0.0000 0.0000 1845.6800 -7449.7882 313.8859 -9295.4681 -7487.9783 300.2705 483.4794 522.1968 30060.1492 144.3647 210.7674
ENERGY: 1500000 2.3787 0.7591 1.8727 0.0000 -10651.6895 1423.8302 0.0000 0.0000 1826.6476 -7396.2012 310.6492 -9222.8488 -7489.8819 300.9621 76.3981 92.3774 30299.7423 130.3133 190.5115
TCL: Running FEP window  19: Lambda1 0.09999999999999969 Lambda2 0.049999999999999684 [dLambda -0.05 ]
TCL: Setting parameter firsttimestep to 0
TCL: Setting parameter alchLambda to 0.09999999999999969
Info: NONBONDED TABLE R-SQUARED SPACING: 0.0625
Info: NONBONDED TABLE SIZE: 705 POINTS
TCL: Setting parameter alchLambda2 to 0.049999999999999684
Info: NONBONDED TABLE R-SQUARED SPACING: 0.0625
Info: NONBONDED TABLE SIZE: 705 POINTS
TCL: Running for 1500000 steps
ETITLE: TS BOND ANGLE DIHED IMPRP ELECT VDW BOUNDARY MISC KINETIC TOTAL TEMP POTENTIAL TOTALAVG TEMPAVG PRESSURE GPRESSURE VOLUME PRESSAVG GPRESSAVG
ENERGY: 0 2.3787 0.7591 1.8727 0.0000 -10651.6921 1423.0499 0.0000 0.0000 1825.7528 -7397.8789 310.4970 -9223.6317 -7397.8789 310.4970 -0.5493 87.5690 30299.7423 -0.5493 87.5690
ENERGY: 300000 2.2270 2.5600 4.5713 0.0000 -10892.4347 1498.5217 0.0000 0.0000 1750.1207 -7634.4340 297.6346 -9384.5548 -7476.6900 303.4187 377.1974 446.5438 29365.0754 -86.3059 -18.3868
ENERGY: 600000 1.9498 1.4199 3.5144 0.0000 -10749.6957 1490.4760 0.0000 0.0000 1749.1561 -7503.1795 297.4706 -9252.3356 -7484.7653 301.4660 381.9247 397.2497 30583.4848 -115.9293 -43.4796
ENERGY: 900000 2.5863 2.9691 3.4673 0.0000 -10594.3828 1401.5808 0.0000 0.0000 1737.7486 -7446.0308 295.5305 -9183.7794 -7473.2925 300.8368 -373.5939 -293.2426 30746.4216 -97.6151 -27.3064
ENERGY: 1200000 1.4014 3.5344 1.3892 0.0000 -10732.8044 1449.6483 0.0000 0.0000 1790.9458 -7485.8853 304.5775 -9276.8311 -7465.3465 301.8049 142.5702 175.1671 30292.2886 -7.4690 58.3715
ENERGY: 1500000 4.3235 0.5075 5.2597 0.0000 -10680.5568 1430.3424 0.0000 0.0000 1762.3270 -7477.7967 299.7105 -9240.1237 -7474.0253 301.4771 -619.9277 -549.7157 30897.9789 -27.7251 41.1072
TCL: Running FEP window  20: Lambda1 0.049999999999999684 Lambda2 0.0    [dLambda -0.049999999999999684]
TCL: Setting parameter firsttimestep to 0
TCL: Setting parameter alchLambda to 0.049999999999999684
Info: NONBONDED TABLE R-SQUARED SPACING: 0.0625
Info: NONBONDED TABLE SIZE: 705 POINTS
TCL: Setting parameter alchLambda2 to 0.0
Info: NONBONDED TABLE R-SQUARED SPACING: 0.0625
Info: NONBONDED TABLE SIZE: 705 POINTS
TCL: Running for 1500000 steps
ETITLE: TS BOND ANGLE DIHED IMPRP ELECT VDW BOUNDARY MISC KINETIC TOTAL TEMP POTENTIAL TOTALAVG TEMPAVG PRESSURE GPRESSURE VOLUME PRESSAVG GPRESSAVG
ENERGY: 0 4.3236 0.5075 5.2597 0.0000 -10680.5575 1429.2273 0.0000 0.0000 1761.4286 -7479.8109 299.5577 -9241.2395 -7479.8109 299.5577 -650.2455 -553.3965 30897.9789 -650.2455 -553.3965
ENERGY: 300000 5.1329 3.1951 1.6797 0.0000 -10789.8091 1477.7333 0.0000 0.0000 1791.8728 -7510.1954 304.7352 -9302.0682 -7457.7256 303.1983 175.9236 191.8618 29842.1808 -251.8957 -192.2234
ENERGY: 600000 5.5705 1.4399 2.2745 0.0000 -10616.6112 1423.6778 0.0000 0.0000 1750.3172 -7433.3313 297.6680 -9183.6485 -7461.9291 302.1235 -58.7282 -17.8602 30164.3950 -72.3809 -28.1894
ENERGY: 900000 2.6168 2.9094 3.1390 0.0000 -10901.6049 1547.3819 0.0000 0.0000 1788.8615 -7556.6964 304.2231 -9345.5578 -7484.9961 301.2073 918.2199 1006.8751 29679.6556 45.8314 90.7152
ENERGY: 1200000 1.9570 2.6806 1.8417 0.0000 -10736.0691 1509.4502 0.0000 0.0000 1754.2381 -7465.9015 298.3348 -9220.1396 -7489.3102 300.7767 608.4335 692.7689 30251.6781 54.3258 106.1558
ENERGY: 1500000 6.0313 1.3031 3.3817 0.0000 -10707.8214 1431.2555 0.0000 0.0000 1736.6453 -7529.2045 295.3429 -9265.8498 -7493.6518 300.4261 -507.4119 -392.3014 30309.7771 -76.9894 -14.1981
TCL: Exiting due to exit command.
