Info: SIMULATION PARAMETERS:
Info: TIMESTEP               2
Info: NUMBER OF STEPS        0
Info: STEPS PER CYCLE        10
Info: PERIODIC CELL BASIS 1  31.4196 0 0
Info: PERIODIC CELL BASIS 2  0 31.3224 0
Info: PERIODIC CELL BASIS 3  0 0 30.3603
Info: PERIODIC CELL CENTER   0 0 0
Info: WRAPPING WATERS AROUND PERIODIC BOUNDARIES ON OUTPUT.
Info: WRAPPING ALL CLUSTERS AROUND PERIODIC BOUNDARIES ON OUTPUT.
Info: FIRST LDB TIMESTEP     50
Info: LAST LDB TIMESTEP     -1
Info: HOM BACKGROUND SCALING 1
Info: PME BACKGROUND SCALING 1
Info: MIN ATOMS PER PATCH    40
Info: EMPTY PATCH LOAD       40 ATOMS
Info: VELOCITY FILE          mobley_9209581_equil.vel
Info: CENTER OF MASS MOVING INITIALLY? NO
Info: DIELECTRIC             1
Info: EXCLUDE                SCALED ONE-FOUR
Info: 1-4 ELECTROSTATICS SCALED BY 0.833333
Info: MODIFIED 1-4 VDW PARAMETERS WILL BE USED
Info: DCD FILENAME           mobley_9209581_prod.dcd
Info: DCD FREQUENCY          100000
Info: DCD FIRST STEP         100000
Info: DCD FILE WILL CONTAIN UNIT CELL DATA
Info: XST FILENAME           mobley_9209581_prod.xst
Info: XST FREQUENCY          100000
Info: NO VELOCITY DCD OUTPUT
Info: NO FORCE DCD OUTPUT
Info: OUTPUT FILENAME        mobley_9209581_prod
Info: BINARY OUTPUT FILES WILL BE USED
Info: RESTART FILENAME       mobley_9209581_prod.restart
Info: RESTART FREQUENCY      100000
Info: BINARY RESTART FILES WILL BE USED
Info: CUTOFF                 9
Info: PAIRLIST DISTANCE      11
Info: PAIRLIST SHRINK RATE   0.01
Info: PAIRLIST GROW RATE     0.01
Info: PAIRLIST TRIGGER       0.3
Info: PAIRLISTS PER CYCLE    2
Info: PAIRLISTS ENABLED
Info: MARGIN                 2
Info: HYDROGEN GROUP CUTOFF  2.5
Info: PATCH DIMENSION        15.5
Info: ENERGY OUTPUT STEPS    100000
Info: ENERGY EVALUATION STEPS    100000
Info: OUTPUT ENERGY PRECISION 4
Info: CROSSTERM ENERGY INCLUDED IN DIHEDRAL
Info: TIMING OUTPUT STEPS    1000000
Info: PRESSURE OUTPUT STEPS  100000
Info: ALCHEMICAL FEP ON
Info: FEP CURRENT LAMBDA VALUE     1
Info: FEP COMPARISON LAMBDA VALUE  0.95
Info: FEP INTRA-ALCHEMICAL NON-BONDED INTERACTIONS WILL BE RETAINED
Info: FEP INTRA-ALCHEMICAL BONDED INTERACTIONS WILL BE RETAINED
Info: FEP VDW SHIFTING COEFFICIENT 5
Info: FEP ELEC. ACTIVE FOR ANNIHILATED PARTICLES BETWEEN LAMBDA = 0 AND LAMBDA = 0.5
Info: FEP ELEC. ACTIVE FOR EXNIHILATED PARTICLES BETWEEN LAMBDA = 0.5 AND LAMBDA = 1
Info: FEP VDW ACTIVE FOR ANNIHILATED PARTICLES BETWEEN LAMBDA = 0 AND LAMBDA = 1
Info: FEP VDW ACTIVE FOR EXNIHILATED PARTICLES BETWEEN LAMBDA = 0 AND LAMBDA = 1
Info: FEP BOND ACTIVE FOR ANNIHILATED PARTICLES BETWEEN LAMBDA = 1 AND LAMBDA = 1
Info: FEP BOND ACTIVE FOR EXNIHILATED PARTICLES BETWEEN LAMBDA = 0 AND LAMBDA = 0
Info: LANGEVIN DYNAMICS ACTIVE
Info: LANGEVIN TEMPERATURE   300
Info: LANGEVIN USING BBK INTEGRATOR
Info: LANGEVIN DAMPING COEFFICIENT IS 1 INVERSE PS
Info: LANGEVIN DYNAMICS APPLIED TO HYDROGENS
Info: LANGEVIN PISTON PRESSURE CONTROL ACTIVE
Info:        TARGET PRESSURE IS 1.01325 BAR
Info:     OSCILLATION PERIOD IS 50 FS
Info:             DECAY TIME IS 25 FS
Info:     PISTON TEMPERATURE IS 300 K
Info:       PRESSURE CONTROL IS GROUP-BASED
Info:    INITIAL STRAIN RATE IS -0.000343566 -0.000343566 -0.000343566
Info:       CELL FLUCTUATION IS ISOTROPIC
Info: PARTICLE MESH EWALD (PME) ACTIVE
Info: PME TOLERANCE               1e-06
Info: PME EWALD COEFFICIENT       0.348832
Info: PME INTERPOLATION ORDER     4
Info: PME GRID DIMENSIONS         32 32 32
Info: PME MAXIMUM GRID SPACING    1
Info: PME CALCULATION WILL BE PERFORMED ON GPU
Info: FULL ELECTROSTATIC EVALUATION FREQUENCY      2
Info: USING VERLET I (r-RESPA) MTS SCHEME.
Info: C1 SPLITTING OF LONG RANGE ELECTROSTATICS
Info: PLACING ATOMS IN PATCHES BY HYDROGEN GROUPS
Info: RIGID BONDS TO HYDROGEN : ALL
Info:         ERROR TOLERANCE : 1e-08
Info:          MAX ITERATIONS : 100
Info: RIGID WATER USING SETTLE ALGORITHM
Info: RANDOM NUMBER SEED     1743570649
Info: USE HYDROGEN BONDS?    NO
Info: Using AMBER format force field!
Info: AMBER PARM FILE        mobley_9209581.prmtop
Info: COORDINATE PDB         mobley_9209581.pdb
Info: Exclusions will be read from PARM file!
Info: SCNB (VDW SCALING)     2
Info: USING ARITHMETIC MEAN TO COMBINE L-J SIGMA PARAMETERS
Info: BINARY COORDINATES     mobley_9209581_equil.coor
Info: SUMMARY OF PARAMETERS:
Info: 4 BONDS
Info: 3 ANGLES
Info:   3 HARMONIC
Info:   0 COSINE-BASED
Info: 1 DIHEDRAL
Info: 0 IMPROPER
Info: 0 CROSSTERM
Info: 0 VDW
Info: 15 VDW_PAIRS
Info: 0 NBTHOLE_PAIRS
Info: To read alchdata from file: mobley_9209581.pdb
Info: To read alchflag data from column: 5
Info: STRUCTURE SUMMARY:
Info: 2920 ATOMS
Info: 2919 BONDS
Info: 21 ANGLES
Info: 18 DIHEDRALS
Info: 0 IMPROPERS
Info: 0 CROSSTERMS
Info: 2958 EXCLUSIONS
Info: 2916 RIGID BONDS
Info: ALCH: 0 ATOMS TO DISAPPEAR IN FINAL STATE
Info: ALCH: 13 ATOMS TO APPEAR IN FINAL STATE
Info: 5844 DEGREES OF FREEDOM
Info: 973 HYDROGEN GROUPS
Info: 4 ATOMS IN LARGEST HYDROGEN GROUP
Info: 973 MIGRATION GROUPS
Info: 4 ATOMS IN LARGEST MIGRATION GROUP
Info: TOTAL MASS = 17516.6 amu
Info: TOTAL CHARGE = 0.000399988 e
Info: MASS DENSITY = 0.973527 g/cm^3
Info: ATOM DENSITY = 0.0977286 atoms/A^3
Info: ADDED 0 IMPLICIT EXCLUSIONS
Info: NONBONDED TABLE R-SQUARED SPACING: 0.0625
Info: NONBONDED TABLE SIZE: 705 POINTS
Info: REDUCING NUMBER OF PATCHES TO IMPROVE LOAD BALANCE
Info: REMOVING COM VELOCITY 0.219545 -0.0131256 -0.0737108
Info: Use 3D box decompostion in PME FFT.
Info: Updated CUDA force table with 4096 elements.
Info: Updated CUDA LJ table with 5 x 5 elements.
Info: Found 16 unique exclusion lists needing 28 bytes
TCL: Running for 1500000 steps
ETITLE: TS BOND ANGLE DIHED IMPRP ELECT VDW BOUNDARY MISC KINETIC TOTAL TEMP POTENTIAL TOTALAVG TEMPAVG PRESSURE GPRESSURE VOLUME PRESSAVG GPRESSAVG
ENERGY: 0 1.6844 4.5817 0.4226 0.0000 -10700.5962 1477.7752 0.0000 0.0000 1740.9627 -7475.1696 299.8262 -9216.1323 -7475.1696 299.8262 140.9335 232.4700 29878.6756 140.9335 232.4700
ENERGY: 300000 1.6181 4.8094 1.7457 0.0000 -10360.9624 1292.7159 0.0000 0.0000 1756.9632 -7303.1101 302.5818 -9060.0733 -7392.3810 301.3924 -851.3803 -821.6749 30232.5394 59.0675 109.9602
ENERGY: 600000 3.5454 5.8050 1.6215 0.0000 -10409.1446 1237.1651 0.0000 0.0000 1737.1207 -7423.8869 299.1646 -9161.0076 -7388.9476 300.5615 -1481.1431 -1461.5627 30273.0042 -233.0777 -182.0306
ENERGY: 900000 0.7945 5.2653 0.8330 0.0000 -10534.4006 1379.5790 0.0000 0.0000 1764.2659 -7383.6628 303.8395 -9147.9287 -7380.1722 301.6063 -160.6323 -171.1672 29931.1432 -202.6024 -160.6953
ENERGY: 1200000 0.1070 5.7123 0.6227 0.0000 -10609.6398 1396.7081 0.0000 0.0000 1760.2412 -7446.2486 303.1464 -9206.4897 -7387.3231 301.9730 -29.6108 16.0594 29438.5558 -166.8239 -120.2172
ENERGY: 1500000 0.6019 2.4687 1.7566 0.0000 -10611.6996 1443.6456 0.0000 0.0000 1708.0205 -7455.2063 294.1530 -9163.2269 -7394.8378 301.6961 307.3722 297.4418 29785.1968 -91.2666 -39.0702
TCL: Running FEP window   2: Lambda1 0.95   Lambda2 0.8999999999999999 [dLambda -0.050000000000000044]
TCL: Setting parameter firsttimestep to 0
TCL: Setting parameter alchLambda to 0.95
Info: NONBONDED TABLE R-SQUARED SPACING: 0.0625
Info: NONBONDED TABLE SIZE: 705 POINTS
TCL: Setting parameter alchLambda2 to 0.8999999999999999
Info: NONBONDED TABLE R-SQUARED SPACING: 0.0625
Info: NONBONDED TABLE SIZE: 705 POINTS
TCL: Running for 1500000 steps
ETITLE: TS BOND ANGLE DIHED IMPRP ELECT VDW BOUNDARY MISC KINETIC TOTAL TEMP POTENTIAL TOTALAVG TEMPAVG PRESSURE GPRESSURE VOLUME PRESSAVG GPRESSAVG
ENERGY: 0 0.6019 2.4687 1.7566 0.0000 -10610.6672 1443.4783 0.0000 0.0000 1707.1759 -7455.1858 294.0075 -9162.3617 -7455.1858 294.0075 187.0954 286.2759 29785.1968 187.0954 286.2759
ENERGY: 300000 0.2787 4.9136 0.7547 0.0000 -10644.1422 1449.0138 0.0000 0.0000 1749.1325 -7440.0489 301.2332 -9189.1814 -7449.1025 297.3294 136.1878 174.8443 29851.7113 -105.9200 -49.4412
ENERGY: 600000 0.3443 4.4195 2.3469 0.0000 -10483.8660 1396.2920 0.0000 0.0000 1717.8606 -7362.6027 295.8476 -9080.4632 -7418.0591 298.2809 -354.2883 -335.0340 30633.8317 -305.1060 -245.3880
ENERGY: 900000 0.7069 3.7645 1.9101 0.0000 -10473.4950 1404.0137 0.0000 0.0000 1799.2973 -7263.8025 309.8726 -9063.0999 -7407.5665 298.5306 295.7140 290.0799 30005.3925 -187.0559 -129.8409
ENERGY: 1200000 0.7802 6.3746 2.1988 0.0000 -10676.5196 1559.4420 0.0000 0.0000 1720.8443 -7386.8796 296.3615 -9107.7239 -7404.2994 298.8694 1421.0830 1412.0923 29728.6419 -96.4950 -36.9271
ENERGY: 1500000 0.5871 3.4585 0.6090 0.0000 -10464.9642 1335.4937 0.0000 0.0000 1769.0724 -7355.7435 304.6673 -9124.8159 -7402.3085 299.5643 -661.6788 -583.8925 30164.2838 -164.4396 -107.3529
TCL: Running FEP window   3: Lambda1 0.8999999999999999 Lambda2 0.8499999999999999 [dLambda -0.050000000000000044]
TCL: Setting parameter firsttimestep to 0
TCL: Setting parameter alchLambda to 0.8999999999999999
Info: NONBONDED TABLE R-SQUARED SPACING: 0.0625
Info: NONBONDED TABLE SIZE: 705 POINTS
TCL: Setting parameter alchLambda2 to 0.8499999999999999
Info: NONBONDED TABLE R-SQUARED SPACING: 0.0625
Info: NONBONDED TABLE SIZE: 705 POINTS
TCL: Running for 1500000 steps
ETITLE: TS BOND ANGLE DIHED IMPRP ELECT VDW BOUNDARY MISC KINETIC TOTAL TEMP POTENTIAL TOTALAVG TEMPAVG PRESSURE GPRESSURE VOLUME PRESSAVG GPRESSAVG
ENERGY: 0 0.5871 3.4585 0.6090 0.0000 -10464.2312 1335.7309 0.0000 0.0000 1768.1691 -7355.6765 304.5117 -9123.8456 -7355.6765 304.5117 -668.2314 -587.1527 30164.2838 -668.2314 -587.1527
ENERGY: 300000 1.7915 7.1914 1.9044 0.0000 -10413.7764 1333.8919 0.0000 0.0000 1745.7956 -7323.2015 300.6586 -9068.9971 -7386.0915 301.1922 -780.2140 -664.2422 30524.0257 -399.0623 -300.9250
ENERGY: 600000 1.7896 5.7789 0.4437 0.0000 -10515.6929 1367.1414 0.0000 0.0000 1759.1010 -7381.4382 302.9500 -9140.5392 -7405.8636 301.4201 -294.6065 -254.9877 29976.6018 -375.0319 -289.9577
ENERGY: 900000 0.1450 4.8643 1.7377 0.0000 -10635.2492 1452.2921 0.0000 0.0000 1717.9501 -7458.2600 295.8631 -9176.2102 -7409.7544 300.6938 -65.9253 35.1592 30130.3036 -253.3491 -171.1110
ENERGY: 1200000 0.0671 6.6099 2.2161 0.0000 -10509.9731 1384.0336 0.0000 0.0000 1714.3442 -7402.7022 295.2420 -9117.0464 -7416.7550 299.0083 -254.0277 -187.2919 30023.4229 -249.0883 -170.7957
ENERGY: 1500000 3.6597 5.6279 1.5987 0.0000 -10617.4164 1466.4172 0.0000 0.0000 1704.8750 -7435.2379 293.6113 -9140.1129 -7401.8292 299.3193 331.3658 415.2370 30008.2042 -116.0832 -42.8594
TCL: Running FEP window   4: Lambda1 0.8499999999999999 Lambda2 0.7999999999999998 [dLambda -0.050000000000000044]
TCL: Setting parameter firsttimestep to 0
TCL: Setting parameter alchLambda to 0.8499999999999999
Info: NONBONDED TABLE R-SQUARED SPACING: 0.0625
Info: NONBONDED TABLE SIZE: 705 POINTS
TCL: Setting parameter alchLambda2 to 0.7999999999999998
Info: NONBONDED TABLE R-SQUARED SPACING: 0.0625
Info: NONBONDED TABLE SIZE: 705 POINTS
TCL: Running for 1500000 steps
ETITLE: TS BOND ANGLE DIHED IMPRP ELECT VDW BOUNDARY MISC KINETIC TOTAL TEMP POTENTIAL TOTALAVG TEMPAVG PRESSURE GPRESSURE VOLUME PRESSAVG GPRESSAVG
ENERGY: 0 3.6597 5.6279 1.5987 0.0000 -10616.4531 1466.5872 0.0000 0.0000 1703.9783 -7435.0013 293.4568 -9138.9796 -7435.0013 293.4568 319.2322 411.6837 30008.2042 319.2322 411.6837
ENERGY: 300000 0.1839 3.1349 0.8220 0.0000 -10466.3082 1345.8356 0.0000 0.0000 1747.9219 -7368.4098 301.0247 -9116.3317 -7384.2741 299.3783 -617.2167 -553.7518 30243.7644 288.4102 356.5327
ENERGY: 600000 0.5002 3.3446 0.7573 0.0000 -10586.8373 1391.8953 0.0000 0.0000 1671.4602 -7518.8798 287.8566 -9190.3400 -7418.9472 296.2547 -414.8317 -399.1385 30202.3483 68.4403 131.3222
ENERGY: 900000 0.3158 4.3822 0.8338 0.0000 -10534.9549 1373.7138 0.0000 0.0000 1730.2300 -7425.4794 297.9779 -9155.7094 -7421.3904 296.8843 -658.1182 -556.3213 30470.9968 26.5093 77.9052
ENERGY: 1200000 1.4241 9.7620 1.4925 0.0000 -10635.8785 1469.8106 0.0000 0.0000 1762.1691 -7391.2201 303.4784 -9153.3892 -7414.4714 298.0437 203.5699 315.4212 30158.3547 116.8013 167.1808
ENERGY: 1500000 0.0712 4.9739 1.4974 0.0000 -10671.6172 1499.5180 0.0000 0.0000 1707.2144 -7458.3423 294.0142 -9165.5567 -7406.1050 298.0041 589.6367 655.7027 29832.1444 195.6712 244.5870
TCL: Running FEP window   5: Lambda1 0.7999999999999998 Lambda2 0.7499999999999998 [dLambda -0.050000000000000044]
TCL: Setting parameter firsttimestep to 0
TCL: Setting parameter alchLambda to 0.7999999999999998
Info: NONBONDED TABLE R-SQUARED SPACING: 0.0625
Info: NONBONDED TABLE SIZE: 705 POINTS
TCL: Setting parameter alchLambda2 to 0.7499999999999998
Info: NONBONDED TABLE R-SQUARED SPACING: 0.0625
Info: NONBONDED TABLE SIZE: 705 POINTS
TCL: Running for 1500000 steps
ETITLE: TS BOND ANGLE DIHED IMPRP ELECT VDW BOUNDARY MISC KINETIC TOTAL TEMP POTENTIAL TOTALAVG TEMPAVG PRESSURE GPRESSURE VOLUME PRESSAVG GPRESSAVG
ENERGY: 0 0.0712 4.9739 1.4974 0.0000 -10670.3104 1498.7031 0.0000 0.0000 1706.3363 -7458.7286 293.8629 -9165.0648 -7458.7286 293.8629 561.7292 642.9717 29832.1444 561.7292 642.9717
ENERGY: 300000 0.4574 4.5277 0.5542 0.0000 -10404.7327 1328.6070 0.0000 0.0000 1759.9734 -7310.6129 303.1002 -9070.5863 -7398.3791 302.6109 -948.6815 -905.4293 31133.7853 7.8498 72.2227
ENERGY: 600000 2.4156 5.5007 0.7532 0.0000 -10471.1716 1292.2248 0.0000 0.0000 1715.6829 -7454.5944 295.4726 -9170.2773 -7405.4294 301.5830 -1166.0215 -1105.4201 30049.2131 -264.6857 -197.8599
ENERGY: 900000 0.4260 5.5396 1.3781 0.0000 -10664.3822 1446.6034 0.0000 0.0000 1682.6287 -7527.8064 289.7800 -9210.4351 -7395.3449 302.4809 236.4839 281.7662 29658.9824 -184.1296 -130.9023
ENERGY: 1200000 0.8827 5.8496 1.6467 0.0000 -10569.0330 1479.1892 0.0000 0.0000 1740.1296 -7341.3353 299.6828 -9081.4648 -7393.4792 301.9836 671.3426 819.2984 29682.6190 -151.7770 -93.0580
ENERGY: 1500000 1.1956 2.5438 0.4729 0.0000 -10546.3335 1407.2317 0.0000 0.0000 1771.6822 -7363.2072 305.1167 -9134.8895 -7400.6620 301.3236 -64.8609 -111.9335 30409.9336 -176.4810 -123.5990
TCL: Running FEP window   6: Lambda1 0.7499999999999998 Lambda2 0.6999999999999997 [dLambda -0.050000000000000044]
TCL: Setting parameter firsttimestep to 0
TCL: Setting parameter alchLambda to 0.7499999999999998
Info: NONBONDED TABLE R-SQUARED SPACING: 0.0625
Info: NONBONDED TABLE SIZE: 705 POINTS
TCL: Setting parameter alchLambda2 to 0.6999999999999997
Info: NONBONDED TABLE R-SQUARED SPACING: 0.0625
Info: NONBONDED TABLE SIZE: 705 POINTS
TCL: Running for 1500000 steps
ETITLE: TS BOND ANGLE DIHED IMPRP ELECT VDW BOUNDARY MISC KINETIC TOTAL TEMP POTENTIAL TOTALAVG TEMPAVG PRESSURE GPRESSURE VOLUME PRESSAVG GPRESSAVG
ENERGY: 0 1.1956 2.5438 0.4729 0.0000 -10545.2266 1407.1935 0.0000 0.0000 1770.7984 -7363.0223 304.9645 -9133.8207 -7363.0223 304.9645 -192.6623 -116.3300 30409.9336 -192.6623 -116.3300
ENERGY: 300000 0.5682 6.1559 0.4549 0.0000 -10508.0156 1362.0612 0.0000 0.0000 1727.1068 -7411.6685 297.4400 -9138.7754 -7407.0244 298.0322 -463.3359 -396.4521 29774.7925 -438.1120 -380.7775
ENERGY: 600000 1.7379 5.4534 1.1501 0.0000 -10550.8369 1430.1184 0.0000 0.0000 1772.3182 -7340.0590 305.2262 -9112.3772 -7413.3761 297.6830 -6.9597 14.8796 30365.3661 -273.5945 -222.1377
ENERGY: 900000 0.0997 5.0813 0.9814 0.0000 -10649.2702 1484.7268 0.0000 0.0000 1745.0738 -7413.3071 300.5343 -9158.3809 -7422.0567 297.7874 235.7690 288.8747 30393.7639 -265.8707 -213.9650
ENERGY: 1200000 1.1429 6.1054 1.6605 0.0000 -10539.1396 1403.6664 0.0000 0.0000 1698.9006 -7427.6638 292.5824 -9126.5644 -7422.3403 296.7926 7.2314 37.7254 29779.7576 -110.2939 -59.1824
ENERGY: 1500000 0.5296 6.3120 0.9277 0.0000 -10476.4446 1380.7597 0.0000 0.0000 1757.5354 -7330.3803 302.6804 -9087.9156 -7411.8742 298.1807 -70.8908 -27.8521 29876.2516 -117.8682 -62.5057
TCL: Running FEP window   7: Lambda1 0.6999999999999997 Lambda2 0.6499999999999997 [dLambda -0.050000000000000044]
TCL: Setting parameter firsttimestep to 0
TCL: Setting parameter alchLambda to 0.6999999999999997
Info: NONBONDED TABLE R-SQUARED SPACING: 0.0625
Info: NONBONDED TABLE SIZE: 705 POINTS
TCL: Setting parameter alchLambda2 to 0.6499999999999997
Info: NONBONDED TABLE R-SQUARED SPACING: 0.0625
Info: NONBONDED TABLE SIZE: 705 POINTS
TCL: Running for 1500000 steps
ETITLE: TS BOND ANGLE DIHED IMPRP ELECT VDW BOUNDARY MISC KINETIC TOTAL TEMP POTENTIAL TOTALAVG TEMPAVG PRESSURE GPRESSURE VOLUME PRESSAVG GPRESSAVG
ENERGY: 0 0.5296 6.3120 0.9277 0.0000 -10475.9428 1380.3492 0.0000 0.0000 1756.6967 -7331.1276 302.5359 -9087.8243 -7331.1276 302.5359 -114.5168 -41.7922 29876.2516 -114.5168 -41.7922
ENERGY: 300000 0.7199 5.1779 1.5759 0.0000 -10620.1412 1403.6777 0.0000 0.0000 1788.7384 -7420.2514 308.0541 -9208.9898 -7388.9284 302.8821 -205.0113 -142.7196 29882.9778 85.1956 161.9255
ENERGY: 600000 1.6399 2.2811 1.5256 0.0000 -10653.4162 1479.5238 0.0000 0.0000 1740.1362 -7428.3095 299.6839 -9168.4458 -7382.5948 302.5520 276.9680 333.7427 30021.1767 79.2800 139.2121
ENERGY: 900000 3.0596 4.6992 1.3863 0.0000 -10583.4159 1381.6358 0.0000 0.0000 1765.4635 -7427.1715 304.0457 -9192.6350 -7398.1450 302.3108 -704.2724 -648.0060 30276.2964 -0.0565 57.2479
ENERGY: 1200000 0.0351 3.6363 0.6704 0.0000 -10587.1770 1400.6524 0.0000 0.0000 1719.5116 -7462.6712 296.1320 -9182.1828 -7404.1082 301.1612 -385.8542 -298.9300 29932.1496 -12.3774 50.9275
ENERGY: 1500000 0.1626 8.5302 1.0325 0.0000 -10543.2930 1404.8217 0.0000 0.0000 1736.8946 -7391.8514 299.1256 -9128.7460 -7401.3358 300.7774 -203.6429 -127.3528 30045.2685 13.2018 80.3648
TCL: Running FEP window   8: Lambda1 0.6499999999999997 Lambda2 0.5999999999999996 [dLambda -0.050000000000000044]
TCL: Setting parameter firsttimestep to 0
TCL: Setting parameter alchLambda to 0.6499999999999997
Info: NONBONDED TABLE R-SQUARED SPACING: 0.0625
Info: NONBONDED TABLE SIZE: 705 POINTS
TCL: Setting parameter alchLambda2 to 0.5999999999999996
Info: NONBONDED TABLE R-SQUARED SPACING: 0.0625
Info: NONBONDED TABLE SIZE: 705 POINTS
TCL: Running for 1500000 steps
ETITLE: TS BOND ANGLE DIHED IMPRP ELECT VDW BOUNDARY MISC KINETIC TOTAL TEMP POTENTIAL TOTALAVG TEMPAVG PRESSURE GPRESSURE VOLUME PRESSAVG GPRESSAVG
ENERGY: 0 0.1626 8.5302 1.0325 0.0000 -10542.0521 1404.3922 0.0000 0.0000 1736.0245 -7391.9100 298.9758 -9127.9345 -7391.9100 298.9758 -225.9720 -136.1085 30045.2685 -225.9720 -136.1085
ENERGY: 300000 1.1739 7.9928 0.4124 0.0000 -10655.5825 1486.8921 0.0000 0.0000 1742.8367 -7416.2745 300.1490 -9159.1113 -7374.7555 302.7318 609.2827 611.0779 29633.2922 314.0269 368.2241
ENERGY: 600000 0.8736 7.3347 2.1323 0.0000 -10557.4201 1407.5020 0.0000 0.0000 1727.4510 -7412.1267 297.4993 -9139.5776 -7395.0500 301.6814 -147.8005 -114.1850 30020.2745 99.9181 141.2943
ENERGY: 900000 0.6691 7.0747 2.2425 0.0000 -10422.6645 1284.4581 0.0000 0.0000 1727.7599 -7400.4601 297.5525 -9128.2200 -7407.5602 299.8237 -1231.9498 -1162.1190 30222.2334 -15.7519 24.9135
ENERGY: 1200000 0.7928 6.5250 1.8695 0.0000 -10702.3230 1495.7818 0.0000 0.0000 1763.6279 -7433.7260 303.7296 -9197.3539 -7411.1388 299.9879 521.6252 573.1679 29747.3762 -2.3056 46.6480
ENERGY: 1500000 1.7251 6.5992 0.4197 0.0000 -10445.3103 1310.4982 0.0000 0.0000 1750.2087 -7375.8595 301.4186 -9126.0682 -7408.1597 299.8764 -895.9867 -921.1226 30339.3996 -94.7207 -46.0469
TCL: Running FEP window   9: Lambda1 0.5999999999999996 Lambda2 0.5499999999999996 [dLambda -0.050000000000000044]
TCL: Setting parameter firsttimestep to 0
TCL: Setting parameter alchLambda to 0.5999999999999996
Info: NONBONDED TABLE R-SQUARED SPACING: 0.0625
Info: NONBONDED TABLE SIZE: 705 POINTS
TCL: Setting parameter alchLambda2 to 0.5499999999999996
Info: NONBONDED TABLE R-SQUARED SPACING: 0.0625
Info: NONBONDED TABLE SIZE: 705 POINTS
TCL: Running for 1500000 steps
ETITLE: TS BOND ANGLE DIHED IMPRP ELECT VDW BOUNDARY MISC KINETIC TOTAL TEMP POTENTIAL TOTALAVG TEMPAVG PRESSURE GPRESSURE VOLUME PRESSAVG GPRESSAVG
ENERGY: 0 1.7251 6.5992 0.4197 0.0000 -10444.8486 1310.3257 0.0000 0.0000 1749.3101 -7376.4689 301.2638 -9125.7790 -7376.4689 301.2638 -982.3754 -927.9879 30339.3996 -982.3754 -927.9879
ENERGY: 300000 2.2733 4.2783 0.4978 0.0000 -10472.5269 1354.7134 0.0000 0.0000 1745.9221 -7364.8420 300.6803 -9110.7641 -7376.7078 300.6085 -612.5219 -543.3893 30153.9863 -475.7466 -427.6797
ENERGY: 600000 1.1354 1.9469 0.4479 0.0000 -10435.7406 1314.3235 0.0000 0.0000 1721.2854 -7396.6014 296.4375 -9117.8869 -7379.3038 300.9502 -870.6591 -831.9687 30323.1846 -518.0468 -461.4178
ENERGY: 900000 1.3587 6.2163 0.8492 0.0000 -10611.9459 1517.4760 0.0000 0.0000 1749.8377 -7336.2080 301.3547 -9086.0457 -7386.0280 299.7280 846.3993 867.9899 30111.6339 -235.5468 -183.4059
ENERGY: 1200000 0.6885 6.9252 0.5107 0.0000 -10645.1577 1468.2557 0.0000 0.0000 1777.0506 -7391.7271 306.0413 -9168.7777 -7401.2616 299.8659 152.9280 228.9123 30195.8598 -158.6267 -101.7590
ENERGY: 1500000 0.6187 4.9696 0.4821 0.0000 -10628.4165 1453.8076 0.0000 0.0000 1759.6724 -7408.8661 303.0484 -9168.5385 -7399.3978 300.5360 44.1249 72.1657 30237.7464 -113.7313 -53.2700
TCL: Running FEP window  10: Lambda1 0.5499999999999996 Lambda2 0.4999999999999996 [dLambda -0.04999999999999999]
TCL: Setting parameter firsttimestep to 0
TCL: Setting parameter alchLambda to 0.5499999999999996
Info: NONBONDED TABLE R-SQUARED SPACING: 0.0625
Info: NONBONDED TABLE SIZE: 705 POINTS
TCL: Setting parameter alchLambda2 to 0.4999999999999996
Info: NONBONDED TABLE R-SQUARED SPACING: 0.0625
Info: NONBONDED TABLE SIZE: 705 POINTS
TCL: Running for 1500000 steps
ETITLE: TS BOND ANGLE DIHED IMPRP ELECT VDW BOUNDARY MISC KINETIC TOTAL TEMP POTENTIAL TOTALAVG TEMPAVG PRESSURE GPRESSURE VOLUME PRESSAVG GPRESSAVG
ENERGY: 0 0.6187 4.9696 0.4821 0.0000 -10628.0452 1454.3081 0.0000 0.0000 1758.8228 -7408.8439 302.9021 -9167.6667 -7408.8439 302.9021 -7.5242 71.9394 30237.7464 -7.5242 71.9394
ENERGY: 300000 0.2189 6.4227 1.1014 0.0000 -10560.5634 1443.7113 0.0000 0.0000 1728.3755 -7380.7336 297.6585 -9109.1091 -7363.4872 304.0083 88.6945 123.2491 30412.8924 41.1560 111.6017
ENERGY: 600000 1.8850 6.8457 0.3611 0.0000 -10507.4012 1357.2299 0.0000 0.0000 1787.6433 -7353.4363 307.8655 -9141.0795 -7358.1390 302.5774 -741.8045 -604.1113 30400.9290 -192.4411 -120.0902
ENERGY: 900000 0.5334 9.0472 0.5195 0.0000 -10417.4218 1354.1396 0.0000 0.0000 1737.9298 -7315.2523 299.3039 -9053.1821 -7360.8562 302.2781 -413.6376 -318.0538 30181.9292 -152.0540 -73.3833
ENERGY: 1200000 1.6973 4.6304 0.7220 0.0000 -10551.8182 1436.4452 0.0000 0.0000 1774.8090 -7333.5142 305.6552 -9108.3232 -7365.4821 302.5937 14.7922 107.9529 30630.2048 -211.1757 -132.1847
ENERGY: 1500000 1.2678 5.1116 1.9741 0.0000 -10477.9292 1352.2483 0.0000 0.0000 1704.8394 -7412.4881 293.6051 -9117.3275 -7379.9283 300.8392 -569.1765 -522.7729 30157.1091 -204.1938 -130.0026
TCL: Running FEP window  11: Lambda1 0.4999999999999996 Lambda2 0.4499999999999996 [dLambda -0.04999999999999999]
TCL: Setting parameter firsttimestep to 0
TCL: Setting parameter alchLambda to 0.4999999999999996
Info: NONBONDED TABLE R-SQUARED SPACING: 0.0625
Info: NONBONDED TABLE SIZE: 705 POINTS
TCL: Setting parameter alchLambda2 to 0.4499999999999996
Info: NONBONDED TABLE R-SQUARED SPACING: 0.0625
Info: NONBONDED TABLE SIZE: 705 POINTS
TCL: Running for 1500000 steps
ETITLE: TS BOND ANGLE DIHED IMPRP ELECT VDW BOUNDARY MISC KINETIC TOTAL TEMP POTENTIAL TOTALAVG TEMPAVG PRESSURE GPRESSURE VOLUME PRESSAVG GPRESSAVG
ENERGY: 0 1.2678 5.1116 1.9741 0.0000 -10477.7200 1352.6329 0.0000 0.0000 1703.9616 -7412.7721 293.4540 -9116.7337 -7412.7721 293.4540 -618.8592 -524.0047 30157.1091 -618.8592 -524.0047
ENERGY: 300000 0.7637 4.4976 0.5418 0.0000 -10561.5131 1488.4614 0.0000 0.0000 1750.4953 -7316.7532 301.4679 -9067.2485 -7389.2081 297.1196 697.3233 768.0032 30177.7303 153.8006 215.8563
ENERGY: 600000 0.8603 6.3532 0.9027 0.0000 -10385.9891 1338.1316 0.0000 0.0000 1729.6238 -7310.1175 297.8735 -9039.7413 -7412.1208 296.0462 -537.7832 -524.0179 30361.1062 -92.7634 -43.0162
ENERGY: 900000 0.7155 7.5306 0.5528 0.0000 -10592.9214 1374.0854 0.0000 0.0000 1761.2888 -7448.7482 303.3268 -9210.0370 -7408.9324 298.2293 -489.3389 -506.4706 30124.1999 -153.7798 -107.8016
ENERGY: 1200000 1.3505 4.9493 0.9779 0.0000 -10608.7330 1471.9023 0.0000 0.0000 1715.1997 -7414.3533 295.3894 -9129.5529 -7403.7375 298.6284 433.8183 429.1684 29767.2483 -104.6219 -57.6731
ENERGY: 1500000 0.2404 4.3107 1.4382 0.0000 -10484.3282 1374.7617 0.0000 0.0000 1749.7145 -7353.8626 301.3335 -9103.5771 -7403.2280 298.9642 -442.3488 -322.2990 30522.4760 -85.4941 -36.2244
TCL: Running FEP window  12: Lambda1 0.4499999999999996 Lambda2 0.39999999999999963 [dLambda -0.04999999999999999]
TCL: Setting parameter firsttimestep to 0
TCL: Setting parameter alchLambda to 0.4499999999999996
Info: NONBONDED TABLE R-SQUARED SPACING: 0.0625
Info: NONBONDED TABLE SIZE: 705 POINTS
TCL: Setting parameter alchLambda2 to 0.39999999999999963
Info: NONBONDED TABLE R-SQUARED SPACING: 0.0625
Info: NONBONDED TABLE SIZE: 705 POINTS
TCL: Running for 1500000 steps
ETITLE: TS BOND ANGLE DIHED IMPRP ELECT VDW BOUNDARY MISC KINETIC TOTAL TEMP POTENTIAL TOTALAVG TEMPAVG PRESSURE GPRESSURE VOLUME PRESSAVG GPRESSAVG
ENERGY: 0 0.2404 4.3107 1.4382 0.0000 -10484.3279 1375.0687 0.0000 0.0000 1748.8408 -7354.4290 301.1830 -9103.2698 -7354.4290 301.1830 -416.2390 -324.0139 30522.4760 -416.2390 -324.0139
ENERGY: 300000 0.5398 6.1116 0.5925 0.0000 -10581.1445 1466.2653 0.0000 0.0000 1718.9121 -7388.7232 296.0287 -9107.6353 -7405.2443 295.7249 109.3140 166.4291 30336.8720 -203.0698 -117.7690
ENERGY: 600000 1.7735 2.5150 0.6832 0.0000 -10454.8071 1346.7286 0.0000 0.0000 1757.0126 -7346.0942 302.5903 -9103.1068 -7381.8711 297.5018 -604.2623 -614.6084 30250.1816 -281.8211 -222.6227
ENERGY: 900000 1.5696 6.7933 0.5349 0.0000 -10603.4622 1431.6104 0.0000 0.0000 1739.8504 -7423.1037 299.6347 -9162.9541 -7394.3611 298.8670 -90.3721 -112.5244 30240.2263 -285.6720 -230.1582
ENERGY: 1200000 0.0619 6.1445 2.0697 0.0000 -10635.5402 1485.1637 0.0000 0.0000 1769.1292 -7372.9711 304.6770 -9142.1003 -7386.6869 300.4701 911.7323 911.2040 29369.8772 -150.7926 -95.2140
ENERGY: 1500000 0.4899 9.1031 0.6491 0.0000 -10455.8930 1359.3775 0.0000 0.0000 1784.3832 -7301.8901 307.3041 -9086.2733 -7390.1567 299.8383 -497.8457 -421.2550 30362.9157 -180.1309 -121.5654
TCL: Running FEP window  13: Lambda1 0.39999999999999963 Lambda2 0.34999999999999964 [dLambda -0.04999999999999999]
TCL: Setting parameter firsttimestep to 0
TCL: Setting parameter alchLambda to 0.39999999999999963
Info: NONBONDED TABLE R-SQUARED SPACING: 0.0625
Info: NONBONDED TABLE SIZE: 705 POINTS
TCL: Setting parameter alchLambda2 to 0.34999999999999964
Info: NONBONDED TABLE R-SQUARED SPACING: 0.0625
Info: NONBONDED TABLE SIZE: 705 POINTS
TCL: Running for 1500000 steps
ETITLE: TS BOND ANGLE DIHED IMPRP ELECT VDW BOUNDARY MISC KINETIC TOTAL TEMP POTENTIAL TOTALAVG TEMPAVG PRESSURE GPRESSURE VOLUME PRESSAVG GPRESSAVG
ENERGY: 0 0.4899 9.1031 0.6491 0.0000 -10455.8927 1359.3792 0.0000 0.0000 1783.4957 -7302.7757 307.1512 -9086.2714 -7302.7757 307.1512 -487.0537 -425.4263 30362.9157 -487.0537 -425.4263
ENERGY: 300000 0.4275 4.3840 0.8278 0.0000 -10645.2978 1468.6394 0.0000 0.0000 1710.5843 -7460.4347 294.5945 -9171.0190 -7402.2428 297.3268 282.5883 334.0722 29905.3724 -374.9027 -321.1714
ENERGY: 600000 0.4725 7.3893 0.7201 0.0000 -10495.2328 1403.2947 0.0000 0.0000 1773.2538 -7310.1025 305.3874 -9083.3563 -7391.7441 300.3486 70.7117 133.5789 30006.7688 -275.0167 -228.1003
ENERGY: 900000 0.6815 5.6078 0.1737 0.0000 -10536.6945 1420.5817 0.0000 0.0000 1734.4290 -7375.2208 298.7010 -9109.6498 -7395.6637 300.2771 -209.9099 -93.2774 30336.3508 -292.1617 -235.2722
ENERGY: 1200000 1.3100 4.0735 1.0153 0.0000 -10680.0976 1499.2395 0.0000 0.0000 1712.9843 -7461.4751 295.0078 -9174.4594 -7406.3829 299.4682 509.6688 513.3376 30004.5628 -215.0757 -159.8206
ENERGY: 1500000 0.8743 3.4344 0.7088 0.0000 -10637.2950 1492.3007 0.0000 0.0000 1721.7329 -7418.2438 296.5145 -9139.9767 -7411.7084 298.7829 689.9447 677.4761 29795.5414 -127.1183 -76.7417
TCL: Running FEP window  14: Lambda1 0.34999999999999964 Lambda2 0.29999999999999966 [dLambda -0.04999999999999999]
TCL: Setting parameter firsttimestep to 0
TCL: Setting parameter alchLambda to 0.34999999999999964
Info: NONBONDED TABLE R-SQUARED SPACING: 0.0625
Info: NONBONDED TABLE SIZE: 705 POINTS
TCL: Setting parameter alchLambda2 to 0.29999999999999966
Info: NONBONDED TABLE R-SQUARED SPACING: 0.0625
Info: NONBONDED TABLE SIZE: 705 POINTS
TCL: Running for 1500000 steps
ETITLE: TS BOND ANGLE DIHED IMPRP ELECT VDW BOUNDARY MISC KINETIC TOTAL TEMP POTENTIAL TOTALAVG TEMPAVG PRESSURE GPRESSURE VOLUME PRESSAVG GPRESSAVG
ENERGY: 0 0.8743 3.4344 0.7088 0.0000 -10637.2967 1492.6442 0.0000 0.0000 1720.9033 -7418.7317 296.3716 -9139.6349 -7418.7317 296.3716 603.5645 678.9621 29795.5414 603.5645 678.9621
ENERGY: 300000 2.3098 5.2454 0.2738 0.0000 -10494.5595 1352.8174 0.0000 0.0000 1724.2584 -7409.6547 296.9495 -9133.9132 -7391.6445 296.3102 -464.7301 -450.2389 29765.0877 44.9001 121.3372
ENERGY: 600000 0.1220 5.3933 2.1923 0.0000 -10613.2292 1444.9593 0.0000 0.0000 1776.7972 -7383.7651 305.9976 -9160.5623 -7393.0629 297.8412 -144.5815 -26.5990 30173.5552 -3.3372 73.9787
ENERGY: 900000 1.1218 7.1928 1.9984 0.0000 -10464.2759 1375.4281 0.0000 0.0000 1757.5276 -7321.0072 302.6790 -9078.5348 -7383.5656 298.9784 -100.6327 -57.2456 29766.1543 -91.3481 -20.4032
ENERGY: 1200000 2.1211 5.1665 0.3065 0.0000 -10538.3219 1396.1910 0.0000 0.0000 1769.9713 -7364.5655 304.8221 -9134.5369 -7390.1137 299.5058 -159.0525 -68.7603 29759.5426 -122.1983 -54.9165
ENERGY: 1500000 0.1852 4.6291 0.4919 0.0000 -10711.7940 1511.3814 0.0000 0.0000 1728.9816 -7466.1248 297.7629 -9195.1064 -7389.7421 299.4984 593.6377 646.4921 29784.1227 16.1317 79.2577
TCL: Running FEP window  15: Lambda1 0.29999999999999966 Lambda2 0.24999999999999967 [dLambda -0.04999999999999999]
TCL: Setting parameter firsttimestep to 0
TCL: Setting parameter alchLambda to 0.29999999999999966
Info: NONBONDED TABLE R-SQUARED SPACING: 0.0625
Info: NONBONDED TABLE SIZE: 705 POINTS
TCL: Setting parameter alchLambda2 to 0.24999999999999967
Info: NONBONDED TABLE R-SQUARED SPACING: 0.0625
Info: NONBONDED TABLE SIZE: 705 POINTS
TCL: Running for 1500000 steps
ETITLE: TS BOND ANGLE DIHED IMPRP ELECT VDW BOUNDARY MISC KINETIC TOTAL TEMP POTENTIAL TOTALAVG TEMPAVG PRESSURE GPRESSURE VOLUME PRESSAVG GPRESSAVG
ENERGY: 0 0.1852 4.6291 0.4919 0.0000 -10711.7956 1511.6431 0.0000 0.0000 1728.1244 -7466.7219 297.6153 -9194.8463 -7466.7219 297.6153 572.7021 649.0623 29784.1227 572.7021 649.0623
ENERGY: 300000 0.7191 8.2992 3.9203 0.0000 -10575.3785 1440.7381 0.0000 0.0000 1792.1401 -7329.5617 308.6399 -9121.7018 -7408.5987 302.4688 207.0678 246.5647 30026.1384 277.1116 347.5351
ENERGY: 600000 0.7465 6.9168 2.7879 0.0000 -10515.8074 1387.0559 0.0000 0.0000 1704.0705 -7414.2297 293.4727 -9118.3003 -7403.1473 299.5287 -379.6288 -289.8342 30075.8594 -61.6081 19.9372
ENERGY: 900000 0.0723 9.2787 2.9141 0.0000 -10573.1637 1403.0828 0.0000 0.0000 1765.5325 -7392.2834 304.0576 -9157.8159 -7408.4401 299.6363 -251.4120 -178.0201 30010.3449 -69.4292 9.7340
ENERGY: 1200000 0.3153 5.2999 0.3885 0.0000 -10661.2490 1437.3803 0.0000 0.0000 1720.2874 -7497.5776 296.2656 -9217.8651 -7416.2216 299.4279 -76.8414 -58.6716 30082.4903 -55.1475 10.4722
ENERGY: 1500000 1.5177 6.3131 0.3676 0.0000 -10645.8188 1431.4791 0.0000 0.0000 1727.4111 -7478.7301 297.4924 -9206.1412 -7407.5427 299.5710 23.3340 105.0712 29411.7139 11.2282 80.6787
TCL: Running FEP window  16: Lambda1 0.24999999999999967 Lambda2 0.19999999999999968 [dLambda -0.04999999999999999]
TCL: Setting parameter firsttimestep to 0
TCL: Setting parameter alchLambda to 0.24999999999999967
Info: NONBONDED TABLE R-SQUARED SPACING: 0.0625
Info: NONBONDED TABLE SIZE: 705 POINTS
TCL: Setting parameter alchLambda2 to 0.19999999999999968
Info: NONBONDED TABLE R-SQUARED SPACING: 0.0625
Info: NONBONDED TABLE SIZE: 705 POINTS
TCL: Running for 1500000 steps
ETITLE: TS BOND ANGLE DIHED IMPRP ELECT VDW BOUNDARY MISC KINETIC TOTAL TEMP POTENTIAL TOTALAVG TEMPAVG PRESSURE GPRESSURE VOLUME PRESSAVG GPRESSAVG
ENERGY: 0 1.5177 6.3131 0.3676 0.0000 -10645.8186 1431.1143 0.0000 0.0000 1726.4978 -7480.0081 297.3351 -9206.5059 -7480.0081 297.3351 -0.3685 97.3062 29411.7139 -0.3685 97.3062
ENERGY: 300000 1.3590 4.2109 2.2336 0.0000 -10447.4341 1346.1122 0.0000 0.0000 1763.6227 -7329.8957 303.7287 -9093.5185 -7392.1880 298.1464 -702.8584 -621.9231 30357.5863 -338.1622 -248.3633
ENERGY: 600000 0.5371 5.5044 1.7149 0.0000 -10823.1451 1529.0945 0.0000 0.0000 1787.2252 -7499.0690 307.7935 -9286.2942 -7420.7367 299.1063 319.5931 351.5066 29939.4143 30.6059 102.5037
ENERGY: 900000 1.4717 6.6652 0.2891 0.0000 -10664.0530 1538.0136 0.0000 0.0000 1730.9750 -7386.6384 298.1062 -9117.6134 -7416.0686 298.2211 777.2822 847.6138 30343.6849 50.1619 122.3855
ENERGY: 1200000 1.3821 3.7135 0.3736 0.0000 -10422.0219 1397.0245 0.0000 0.0000 1661.7494 -7357.7788 286.1842 -9019.5282 -7406.5475 297.1222 -84.3837 12.7660 30041.8887 -38.8463 30.7880
ENERGY: 1500000 1.0211 4.7730 0.4267 0.0000 -10525.0087 1407.4380 0.0000 0.0000 1703.4685 -7407.8814 293.3690 -9111.3499 -7408.0833 297.1557 -118.6168 -21.0532 30019.0813 19.7126 90.1341
TCL: Running FEP window  17: Lambda1 0.19999999999999968 Lambda2 0.1499999999999997 [dLambda -0.04999999999999999]
TCL: Setting parameter firsttimestep to 0
TCL: Setting parameter alchLambda to 0.19999999999999968
Info: NONBONDED TABLE R-SQUARED SPACING: 0.0625
Info: NONBONDED TABLE SIZE: 705 POINTS
TCL: Setting parameter alchLambda2 to 0.1499999999999997
Info: NONBONDED TABLE R-SQUARED SPACING: 0.0625
Info: NONBONDED TABLE SIZE: 705 POINTS
TCL: Running for 1500000 steps
ETITLE: TS BOND ANGLE DIHED IMPRP ELECT VDW BOUNDARY MISC KINETIC TOTAL TEMP POTENTIAL TOTALAVG TEMPAVG PRESSURE GPRESSURE VOLUME PRESSAVG GPRESSAVG
ENERGY: 0 1.0211 4.7730 0.4267 0.0000 -10525.0097 1407.4249 0.0000 0.0000 1702.5843 -7408.7797 293.2168 -9111.3640 -7408.7797 293.2168 -99.5619 -24.2586 30019.0813 -99.5619 -24.2586
ENERGY: 300000 0.0770 4.9277 1.4947 0.0000 -10593.3516 1399.6858 0.0000 0.0000 1737.7857 -7449.3806 299.2791 -9187.1663 -7442.8115 295.3710 -283.5451 -185.7922 29647.5508 8.9014 62.2170
ENERGY: 600000 2.6669 9.4834 0.8964 0.0000 -10740.8617 1534.8213 0.0000 0.0000 1739.6327 -7453.3609 299.5972 -9192.9937 -7424.2450 297.2880 673.7156 730.0675 29566.2615 85.5155 147.2896
ENERGY: 900000 1.8496 10.6052 0.8636 0.0000 -10479.1788 1426.7798 0.0000 0.0000 1762.3109 -7276.7698 303.5028 -9039.0807 -7392.1894 298.1042 290.0596 293.9824 30265.0615 155.0303 210.3533
ENERGY: 1200000 0.7400 4.4565 0.3165 0.0000 -10527.2322 1398.5331 0.0000 0.0000 1774.6167 -7348.5693 305.6221 -9123.1860 -7376.9627 299.1632 -201.7836 -135.2597 30132.5088 106.9042 165.5461
ENERGY: 1500000 0.5272 3.0995 1.5384 0.0000 -10557.8425 1438.7416 0.0000 0.0000 1703.7118 -7410.2240 293.4109 -9113.9358 -7388.8028 298.7169 185.2549 292.2076 29713.0088 48.7430 109.5412
TCL: Running FEP window  18: Lambda1 0.1499999999999997 Lambda2 0.09999999999999969 [dLambda -0.05 ]
TCL: Setting parameter firsttimestep to 0
TCL: Setting parameter alchLambda to 0.1499999999999997
Info: NONBONDED TABLE R-SQUARED SPACING: 0.0625
Info: NONBONDED TABLE SIZE: 705 POINTS
TCL: Setting parameter alchLambda2 to 0.09999999999999969
Info: NONBONDED TABLE R-SQUARED SPACING: 0.0625
Info: NONBONDED TABLE SIZE: 705 POINTS
TCL: Running for 1500000 steps
ETITLE: TS BOND ANGLE DIHED IMPRP ELECT VDW BOUNDARY MISC KINETIC TOTAL TEMP POTENTIAL TOTALAVG TEMPAVG PRESSURE GPRESSURE VOLUME PRESSAVG GPRESSAVG
ENERGY: 0 0.5272 3.0995 1.5384 0.0000 -10557.8429 1438.9433 0.0000 0.0000 1702.8646 -7410.8699 293.2650 -9113.7345 -7410.8699 293.2650 210.9587 290.4003 29713.0088 210.9587 290.4003
ENERGY: 300000 0.9574 5.6621 0.9812 0.0000 -10588.8068 1457.8201 0.0000 0.0000 1730.7657 -7392.6204 298.0701 -9123.3861 -7395.2688 301.2262 444.5007 458.2499 29612.3556 338.7657 403.7085
ENERGY: 600000 1.1115 3.0331 0.8810 0.0000 -10503.3014 1441.1910 0.0000 0.0000 1752.3809 -7304.7038 301.7927 -9057.0848 -7390.5474 298.6619 186.9123 269.7819 30291.0515 116.4617 189.7875
ENERGY: 900000 1.9939 6.4100 1.4063 0.0000 -10561.1213 1401.3096 0.0000 0.0000 1776.3970 -7373.6045 305.9287 -9150.0015 -7403.1155 298.7380 -118.2408 -101.8868 29933.6602 16.7949 87.5652
ENERGY: 1200000 0.3065 3.4164 1.2831 0.0000 -10489.9790 1347.8043 0.0000 0.0000 1745.2790 -7391.8899 300.5696 -9137.1688 -7393.9816 299.8123 -651.2100 -484.2803 29877.2525 22.3303 101.1983
ENERGY: 1500000 0.4001 3.2262 2.9087 0.0000 -10572.5533 1492.7570 0.0000 0.0000 1761.3390 -7311.9221 303.3354 -9073.2611 -7393.4599 300.4794 491.2056 514.8807 30506.5402 45.2119 115.6819
TCL: Running FEP window  19: Lambda1 0.09999999999999969 Lambda2 0.049999999999999684 [dLambda -0.05 ]
TCL: Setting parameter firsttimestep to 0
TCL: Setting parameter alchLambda to 0.09999999999999969
Info: NONBONDED TABLE R-SQUARED SPACING: 0.0625
Info: NONBONDED TABLE SIZE: 705 POINTS
TCL: Setting parameter alchLambda2 to 0.049999999999999684
Info: NONBONDED TABLE R-SQUARED SPACING: 0.0625
Info: NONBONDED TABLE SIZE: 705 POINTS
TCL: Running for 1500000 steps
ETITLE: TS BOND ANGLE DIHED IMPRP ELECT VDW BOUNDARY MISC KINETIC TOTAL TEMP POTENTIAL TOTALAVG TEMPAVG PRESSURE GPRESSURE VOLUME PRESSAVG GPRESSAVG
ENERGY: 0 0.4001 3.2262 2.9087 0.0000 -10572.5515 1492.5243 0.0000 0.0000 1760.4640 -7313.0281 303.1847 -9073.4921 -7313.0281 303.1847 434.1349 508.9237 30506.5402 434.1349 508.9237
ENERGY: 300000 1.1412 3.5414 1.0481 0.0000 -10630.2740 1442.8631 0.0000 0.0000 1777.8321 -7403.8480 306.1758 -9181.6801 -7382.1736 302.3841 111.3182 187.9181 29681.4408 96.9628 179.1992
ENERGY: 600000 2.0433 8.4194 0.9747 0.0000 -10523.6829 1417.3304 0.0000 0.0000 1754.5590 -7340.3560 302.1678 -9094.9150 -7388.2227 301.8122 -163.7624 -138.2285 30182.7361 -26.8585 48.0376
ENERGY: 900000 1.3111 6.0188 1.6772 0.0000 -10595.9252 1459.3147 0.0000 0.0000 1714.3411 -7413.2623 295.2415 -9127.6034 -7385.6787 300.4922 297.0163 345.8912 29890.6172 85.3311 159.5614
ENERGY: 1200000 0.8590 4.2002 0.7755 0.0000 -10446.0110 1330.0764 0.0000 0.0000 1760.6502 -7349.4497 303.2168 -9110.0999 -7391.8394 300.8145 -555.9908 -504.2201 29828.0820 71.4975 139.7605
ENERGY: 1500000 0.5040 5.3454 0.8693 0.0000 -10584.8407 1429.9206 0.0000 0.0000 1733.8597 -7414.3417 298.6030 -9148.2014 -7391.0391 301.0138 334.0358 418.4225 29469.4236 55.2794 122.1878
TCL: Running FEP window  20: Lambda1 0.049999999999999684 Lambda2 0.0    [dLambda -0.049999999999999684]
TCL: Setting parameter firsttimestep to 0
TCL: Setting parameter alchLambda to 0.049999999999999684
Info: NONBONDED TABLE R-SQUARED SPACING: 0.0625
Info: NONBONDED TABLE SIZE: 705 POINTS
TCL: Setting parameter alchLambda2 to 0.0
Info: NONBONDED TABLE R-SQUARED SPACING: 0.0625
Info: NONBONDED TABLE SIZE: 705 POINTS
TCL: Running for 1500000 steps
ETITLE: TS BOND ANGLE DIHED IMPRP ELECT VDW BOUNDARY MISC KINETIC TOTAL TEMP POTENTIAL TOTALAVG TEMPAVG PRESSURE GPRESSURE VOLUME PRESSAVG GPRESSAVG
ENERGY: 0 0.5040 5.3454 0.8693 0.0000 -10584.8396 1430.0120 0.0000 0.0000 1732.9995 -7415.1094 298.4548 -9148.1089 -7415.1094 298.4548 340.1260 418.2384 29469.4236 340.1260 418.2384
ENERGY: 300000 1.1615 2.3793 0.5647 0.0000 -10474.1574 1307.6260 0.0000 0.0000 1697.9598 -7464.4662 292.4203 -9162.4260 -7412.8995 297.4163 -975.2992 -920.5958 30218.4759 45.8350 106.9282
ENERGY: 600000 0.2927 5.5673 1.5682 0.0000 -10675.0537 1508.9712 0.0000 0.0000 1718.2131 -7440.4412 295.9083 -9158.6543 -7421.1387 298.8562 845.2354 911.1872 29493.4337 -93.2305 -30.0375
ENERGY: 900000 0.5175 6.8005 0.7022 0.0000 -10669.5063 1440.7265 0.0000 0.0000 1744.7135 -7476.0462 300.4722 -9220.7597 -7418.4780 299.9132 -106.5748 -61.4852 29792.2409 -26.8176 40.1741
ENERGY: 1200000 1.8132 6.5575 3.8788 0.0000 -10657.8693 1467.2624 0.0000 0.0000 1700.5213 -7477.8360 292.8615 -9178.3574 -7414.5543 299.0983 195.7473 221.6425 29669.6338 -75.1967 -11.2767
ENERGY: 1500000 4.1458 6.8496 2.3590 0.0000 -10590.5510 1445.9595 0.0000 0.0000 1794.0282 -7337.2090 308.9651 -9131.2372 -7406.8181 299.4533 210.8654 217.5928 30102.9539 -51.1489 2.5380
TCL: Exiting due to exit command.
