Info: SIMULATION PARAMETERS:
Info: TIMESTEP               2
Info: NUMBER OF STEPS        0
Info: STEPS PER CYCLE        10
Info: PERIODIC CELL BASIS 1  32.3911 0 0
Info: PERIODIC CELL BASIS 2  0 32.5416 0
Info: PERIODIC CELL BASIS 3  0 0 29.346
Info: PERIODIC CELL CENTER   0 0 0
Info: WRAPPING WATERS AROUND PERIODIC BOUNDARIES ON OUTPUT.
Info: WRAPPING ALL CLUSTERS AROUND PERIODIC BOUNDARIES ON OUTPUT.
Info: FIRST LDB TIMESTEP     50
Info: LAST LDB TIMESTEP     -1
Info: HOM BACKGROUND SCALING 1
Info: PME BACKGROUND SCALING 1
Info: MIN ATOMS PER PATCH    40
Info: EMPTY PATCH LOAD       40 ATOMS
Info: VELOCITY FILE          mobley_3843583_equil.vel
Info: CENTER OF MASS MOVING INITIALLY? NO
Info: DIELECTRIC             1
Info: EXCLUDE                SCALED ONE-FOUR
Info: 1-4 ELECTROSTATICS SCALED BY 0.833333
Info: MODIFIED 1-4 VDW PARAMETERS WILL BE USED
Info: DCD FILENAME           mobley_3843583_prod.dcd
Info: DCD FREQUENCY          100000
Info: DCD FIRST STEP         100000
Info: DCD FILE WILL CONTAIN UNIT CELL DATA
Info: XST FILENAME           mobley_3843583_prod.xst
Info: XST FREQUENCY          100000
Info: NO VELOCITY DCD OUTPUT
Info: NO FORCE DCD OUTPUT
Info: OUTPUT FILENAME        mobley_3843583_prod
Info: BINARY OUTPUT FILES WILL BE USED
Info: RESTART FILENAME       mobley_3843583_prod.restart
Info: RESTART FREQUENCY      100000
Info: BINARY RESTART FILES WILL BE USED
Info: CUTOFF                 9
Info: PAIRLIST DISTANCE      11
Info: PAIRLIST SHRINK RATE   0.01
Info: PAIRLIST GROW RATE     0.01
Info: PAIRLIST TRIGGER       0.3
Info: PAIRLISTS PER CYCLE    2
Info: PAIRLISTS ENABLED
Info: MARGIN                 2
Info: HYDROGEN GROUP CUTOFF  2.5
Info: PATCH DIMENSION        15.5
Info: ENERGY OUTPUT STEPS    100000
Info: ENERGY EVALUATION STEPS    100000
Info: OUTPUT ENERGY PRECISION 4
Info: CROSSTERM ENERGY INCLUDED IN DIHEDRAL
Info: TIMING OUTPUT STEPS    1000000
Info: PRESSURE OUTPUT STEPS  100000
Info: ALCHEMICAL FEP ON
Info: FEP CURRENT LAMBDA VALUE     0
Info: FEP COMPARISON LAMBDA VALUE  0.05
Info: FEP INTRA-ALCHEMICAL NON-BONDED INTERACTIONS WILL BE RETAINED
Info: FEP INTRA-ALCHEMICAL BONDED INTERACTIONS WILL BE RETAINED
Info: FEP VDW SHIFTING COEFFICIENT 5
Info: FEP ELEC. ACTIVE FOR ANNIHILATED PARTICLES BETWEEN LAMBDA = 0 AND LAMBDA = 0.5
Info: FEP ELEC. ACTIVE FOR EXNIHILATED PARTICLES BETWEEN LAMBDA = 0.5 AND LAMBDA = 1
Info: FEP VDW ACTIVE FOR ANNIHILATED PARTICLES BETWEEN LAMBDA = 0 AND LAMBDA = 1
Info: FEP VDW ACTIVE FOR EXNIHILATED PARTICLES BETWEEN LAMBDA = 0 AND LAMBDA = 1
Info: FEP BOND ACTIVE FOR ANNIHILATED PARTICLES BETWEEN LAMBDA = 1 AND LAMBDA = 1
Info: FEP BOND ACTIVE FOR EXNIHILATED PARTICLES BETWEEN LAMBDA = 0 AND LAMBDA = 0
Info: LANGEVIN DYNAMICS ACTIVE
Info: LANGEVIN TEMPERATURE   300
Info: LANGEVIN USING BBK INTEGRATOR
Info: LANGEVIN DAMPING COEFFICIENT IS 1 INVERSE PS
Info: LANGEVIN DYNAMICS APPLIED TO HYDROGENS
Info: LANGEVIN PISTON PRESSURE CONTROL ACTIVE
Info:        TARGET PRESSURE IS 1.01325 BAR
Info:     OSCILLATION PERIOD IS 50 FS
Info:             DECAY TIME IS 25 FS
Info:     PISTON TEMPERATURE IS 300 K
Info:       PRESSURE CONTROL IS GROUP-BASED
Info:    INITIAL STRAIN RATE IS -0.000179145 -0.000179145 -0.000179145
Info:       CELL FLUCTUATION IS ISOTROPIC
Info: PARTICLE MESH EWALD (PME) ACTIVE
Info: PME TOLERANCE               1e-06
Info: PME EWALD COEFFICIENT       0.348832
Info: PME INTERPOLATION ORDER     4
Info: PME GRID DIMENSIONS         36 36 32
Info: PME MAXIMUM GRID SPACING    1
Info: PME CALCULATION WILL BE PERFORMED ON GPU
Info: FULL ELECTROSTATIC EVALUATION FREQUENCY      2
Info: USING VERLET I (r-RESPA) MTS SCHEME.
Info: C1 SPLITTING OF LONG RANGE ELECTROSTATICS
Info: PLACING ATOMS IN PATCHES BY HYDROGEN GROUPS
Info: RIGID BONDS TO HYDROGEN : ALL
Info:         ERROR TOLERANCE : 1e-08
Info:          MAX ITERATIONS : 100
Info: RIGID WATER USING SETTLE ALGORITHM
Info: RANDOM NUMBER SEED     1743620719
Info: USE HYDROGEN BONDS?    NO
Info: Using AMBER format force field!
Info: AMBER PARM FILE        mobley_3843583.prmtop
Info: COORDINATE PDB         mobley_3843583.pdb
Info: Exclusions will be read from PARM file!
Info: SCNB (VDW SCALING)     2
Info: USING ARITHMETIC MEAN TO COMBINE L-J SIGMA PARAMETERS
Info: BINARY COORDINATES     mobley_3843583_equil.coor
Info: SUMMARY OF PARAMETERS:
Info: 6 BONDS
Info: 5 ANGLES
Info:   5 HARMONIC
Info:   0 COSINE-BASED
Info: 3 DIHEDRAL
Info: 0 IMPROPER
Info: 0 CROSSTERM
Info: 0 VDW
Info: 21 VDW_PAIRS
Info: 0 NBTHOLE_PAIRS
Info: To read alchdata from file: mobley_3843583.pdb
Info: To read alchflag data from column: 5
Info: STRUCTURE SUMMARY:
Info: 2960 ATOMS
Info: 2961 BONDS
Info: 33 ANGLES
Info: 59 DIHEDRALS
Info: 0 IMPROPERS
Info: 0 CROSSTERMS
Info: 3036 EXCLUSIONS
Info: 2949 RIGID BONDS
Info: ALCH: 0 ATOMS TO DISAPPEAR IN FINAL STATE
Info: ALCH: 20 ATOMS TO APPEAR IN FINAL STATE
Info: 5931 DEGREES OF FREEDOM
Info: 991 HYDROGEN GROUPS
Info: 3 ATOMS IN LARGEST HYDROGEN GROUP
Info: 991 MIGRATION GROUPS
Info: 3 ATOMS IN LARGEST MIGRATION GROUP
Info: TOTAL MASS = 17798.9 amu
Info: TOTAL CHARGE = 0.000199977 e
Info: MASS DENSITY = 0.955517 g/cm^3
Info: ATOM DENSITY = 0.0956927 atoms/A^3
Info: ADDED 0 IMPLICIT EXCLUSIONS
Info: NONBONDED TABLE R-SQUARED SPACING: 0.0625
Info: NONBONDED TABLE SIZE: 705 POINTS
Info: REDUCING NUMBER OF PATCHES TO IMPROVE LOAD BALANCE
Info: REMOVING COM VELOCITY -0.223442 0.0474718 -0.180852
Info: Use 3D box decompostion in PME FFT.
Info: Updated CUDA force table with 4096 elements.
Info: Updated CUDA LJ table with 6 x 6 elements.
Info: Found 21 unique exclusion lists needing 52 bytes
TCL: Running for 1500000 steps
ETITLE: TS BOND ANGLE DIHED IMPRP ELECT VDW BOUNDARY MISC KINETIC TOTAL TEMP POTENTIAL TOTALAVG TEMPAVG PRESSURE GPRESSURE VOLUME PRESSAVG GPRESSAVG
ENERGY: 0 5.1750 6.0365 2.3784 0.0000 -10705.5501 1481.3940 0.0000 0.0000 1765.5718 -7444.9945 299.6042 -9210.5663 -7444.9945 299.6042 93.8766 176.3091 30932.3625 93.8766 176.3091
ENERGY: 300000 4.4885 5.8375 2.3551 0.0000 -10647.4664 1434.1711 0.0000 0.0000 1774.6249 -7425.9894 301.1404 -9200.6143 -7464.9946 301.5055 45.1403 135.4902 30518.8134 -224.4749 -146.7369
ENERGY: 600000 4.2550 6.5424 11.0983 0.0000 -10667.7863 1399.7768 0.0000 0.0000 1812.7588 -7433.3549 307.6114 -9246.1138 -7455.0212 301.9991 -313.6267 -181.8917 30361.2912 -223.3513 -143.7182
ENERGY: 900000 2.2685 3.0630 7.6641 0.0000 -10654.4862 1400.4958 0.0000 0.0000 1780.7704 -7460.2243 302.1833 -9240.9948 -7474.1367 302.1302 -355.6387 -316.5075 30567.2843 -186.5959 -114.4450
ENERGY: 1200000 3.3552 3.5666 4.9030 0.0000 -10793.1221 1462.4636 0.0000 0.0000 1767.5279 -7551.3058 299.9361 -9318.8337 -7489.2763 301.7638 -163.7872 -128.5586 30472.4500 -200.7760 -132.1004
ENERGY: 1500000 6.6440 6.2595 3.7455 0.0000 -10631.4456 1342.5789 0.0000 0.0000 1676.7587 -7595.4590 284.5333 -9272.2177 -7492.5806 300.2421 -1060.3512 -996.2172 30123.5423 -227.8073 -160.0188
TCL: Running FEP window   2: Lambda1 0.05   Lambda2 0.1    [dLambda 0.05  ]
TCL: Setting parameter firsttimestep to 0
TCL: Setting parameter alchLambda to 0.05
Info: NONBONDED TABLE R-SQUARED SPACING: 0.0625
Info: NONBONDED TABLE SIZE: 705 POINTS
TCL: Setting parameter alchLambda2 to 0.1
Info: NONBONDED TABLE R-SQUARED SPACING: 0.0625
Info: NONBONDED TABLE SIZE: 705 POINTS
TCL: Running for 1500000 steps
ETITLE: TS BOND ANGLE DIHED IMPRP ELECT VDW BOUNDARY MISC KINETIC TOTAL TEMP POTENTIAL TOTALAVG TEMPAVG PRESSURE GPRESSURE VOLUME PRESSAVG GPRESSAVG
ENERGY: 0 6.6440 6.2595 3.7455 0.0000 -10631.4458 1345.6318 0.0000 0.0000 1675.8717 -7593.2933 284.3827 -9269.1650 -7593.2933 284.3827 -1070.7259 -990.5445 30123.5423 -1070.7259 -990.5445
ENERGY: 300000 1.3609 6.5838 11.5748 0.0000 -10657.1347 1453.5870 0.0000 0.0000 1761.3665 -7422.6617 298.8906 -9184.0282 -7503.3519 294.3664 256.3077 328.6409 30371.7821 -35.6935 41.3803
ENERGY: 600000 4.3036 6.5692 9.7106 0.0000 -10663.9695 1428.0963 0.0000 0.0000 1755.2165 -7460.0734 297.8470 -9215.2899 -7497.0917 298.1141 -442.8099 -323.4891 30962.1414 -48.2648 29.8614
ENERGY: 900000 6.6167 4.6810 6.1139 0.0000 -10682.0469 1395.2054 0.0000 0.0000 1796.7846 -7472.6453 304.9007 -9269.4299 -7501.7458 298.4188 -596.0752 -575.6848 30253.4704 -33.2204 35.8241
ENERGY: 1200000 6.8802 3.1543 3.0096 0.0000 -10629.3269 1405.6888 0.0000 0.0000 1755.5795 -7455.0145 297.9085 -9210.5940 -7506.3761 297.8735 -315.8813 -196.5407 30313.4065 -192.5248 -122.3089
ENERGY: 1500000 3.6408 7.9399 8.5156 0.0000 -10665.9159 1448.7737 0.0000 0.0000 1774.2200 -7422.8259 301.0717 -9197.0459 -7501.8928 298.1158 181.2082 255.2861 30322.0655 -131.9050 -58.2851
TCL: Running FEP window   3: Lambda1 0.1    Lambda2 0.15000000000000002 [dLambda 0.05000000000000002]
TCL: Setting parameter firsttimestep to 0
TCL: Setting parameter alchLambda to 0.1
Info: NONBONDED TABLE R-SQUARED SPACING: 0.0625
Info: NONBONDED TABLE SIZE: 705 POINTS
TCL: Setting parameter alchLambda2 to 0.15000000000000002
Info: NONBONDED TABLE R-SQUARED SPACING: 0.0625
Info: NONBONDED TABLE SIZE: 705 POINTS
TCL: Running for 1500000 steps
ETITLE: TS BOND ANGLE DIHED IMPRP ELECT VDW BOUNDARY MISC KINETIC TOTAL TEMP POTENTIAL TOTALAVG TEMPAVG PRESSURE GPRESSURE VOLUME PRESSAVG GPRESSAVG
ENERGY: 0 3.6408 7.9399 8.5156 0.0000 -10665.9165 1450.0585 0.0000 0.0000 1773.3569 -7422.4048 300.9252 -9195.7617 -7422.4048 300.9252 185.2842 260.6926 30322.0655 185.2842 260.6926
ENERGY: 300000 7.1165 7.3282 5.5218 0.0000 -10661.8235 1396.0702 0.0000 0.0000 1763.6804 -7482.1063 299.2832 -9245.7866 -7442.5548 302.1851 -482.8399 -346.7394 30530.8685 115.6074 202.7523
ENERGY: 600000 2.1874 3.8048 6.9081 0.0000 -10638.0416 1441.0700 0.0000 0.0000 1772.6856 -7411.3859 300.8113 -9184.0715 -7436.7901 304.1296 175.0330 204.3680 30307.1704 -0.3960 78.7194
ENERGY: 900000 3.0430 2.9700 3.5502 0.0000 -10750.0232 1439.3698 0.0000 0.0000 1761.9238 -7539.1664 298.9851 -9301.0902 -7444.9805 304.5798 -275.0614 -248.8307 30341.2220 61.7262 115.8151
ENERGY: 1200000 5.0727 5.1417 3.0808 0.0000 -10690.1624 1411.9252 0.0000 0.0000 1764.8128 -7500.1292 299.4754 -9264.9420 -7450.7770 302.9809 -533.4734 -465.9113 30421.2036 -135.7299 -71.8822
ENERGY: 1500000 5.3034 5.3629 7.5188 0.0000 -10949.6649 1624.6365 0.0000 0.0000 1783.0955 -7523.7480 302.5778 -9306.8434 -7455.2929 302.6094 1206.1451 1218.1162 30141.6201 25.0459 82.0098
TCL: Running FEP window   4: Lambda1 0.15000000000000002 Lambda2 0.2    [dLambda 0.04999999999999999]
TCL: Setting parameter firsttimestep to 0
TCL: Setting parameter alchLambda to 0.15000000000000002
Info: NONBONDED TABLE R-SQUARED SPACING: 0.0625
Info: NONBONDED TABLE SIZE: 705 POINTS
TCL: Setting parameter alchLambda2 to 0.2
Info: NONBONDED TABLE R-SQUARED SPACING: 0.0625
Info: NONBONDED TABLE SIZE: 705 POINTS
TCL: Running for 1500000 steps
ETITLE: TS BOND ANGLE DIHED IMPRP ELECT VDW BOUNDARY MISC KINETIC TOTAL TEMP POTENTIAL TOTALAVG TEMPAVG PRESSURE GPRESSURE VOLUME PRESSAVG GPRESSAVG
ENERGY: 0 5.3034 5.3629 7.5188 0.0000 -10949.6652 1625.9188 0.0000 0.0000 1782.2433 -7523.3180 302.4332 -9305.5614 -7523.3180 302.4332 1143.3464 1226.1950 30141.6201 1143.3464 1226.1950
ENERGY: 300000 4.2002 5.9680 4.0539 0.0000 -10877.0705 1510.0840 0.0000 0.0000 1742.0639 -7610.7005 295.6150 -9352.7644 -7502.6466 299.7200 276.8970 294.0426 30099.1515 245.9098 310.2420
ENERGY: 600000 2.5358 2.6927 8.2856 0.0000 -10657.2781 1373.7612 0.0000 0.0000 1806.2810 -7463.7218 306.5122 -9270.0028 -7485.2981 302.0442 -819.5563 -715.8796 30418.2165 -101.1183 -29.1699
ENERGY: 900000 4.7467 6.6082 7.1237 0.0000 -10687.6047 1419.3313 0.0000 0.0000 1782.6940 -7467.1008 302.5097 -9249.7948 -7480.8598 301.9334 -388.7340 -407.2871 30540.1545 -136.0441 -73.7936
ENERGY: 1200000 6.1590 7.8842 6.6526 0.0000 -10720.4554 1481.9717 0.0000 0.0000 1746.6397 -7471.1482 296.3915 -9217.7879 -7482.9759 300.8894 245.0701 252.8701 30419.4664 -94.0444 -35.4860
ENERGY: 1500000 2.9931 4.4373 6.7503 0.0000 -10758.9596 1541.9894 0.0000 0.0000 1778.5477 -7424.2419 301.8061 -9202.7896 -7470.3087 300.6826 869.5778 896.6507 30521.5773 -23.1790 39.5646
TCL: Running FEP window   5: Lambda1 0.2    Lambda2 0.25   [dLambda 0.04999999999999999]
TCL: Setting parameter firsttimestep to 0
TCL: Setting parameter alchLambda to 0.2
Info: NONBONDED TABLE R-SQUARED SPACING: 0.0625
Info: NONBONDED TABLE SIZE: 705 POINTS
TCL: Setting parameter alchLambda2 to 0.25
Info: NONBONDED TABLE R-SQUARED SPACING: 0.0625
Info: NONBONDED TABLE SIZE: 705 POINTS
TCL: Running for 1500000 steps
ETITLE: TS BOND ANGLE DIHED IMPRP ELECT VDW BOUNDARY MISC KINETIC TOTAL TEMP POTENTIAL TOTALAVG TEMPAVG PRESSURE GPRESSURE VOLUME PRESSAVG GPRESSAVG
ENERGY: 0 2.9931 4.4373 6.7503 0.0000 -10758.9599 1542.3861 0.0000 0.0000 1777.6779 -7424.7154 301.6585 -9202.3932 -7424.7154 301.6585 838.9536 902.9240 30521.5773 838.9536 902.9240
ENERGY: 300000 2.8087 7.5174 5.3756 0.0000 -10686.8131 1431.5284 0.0000 0.0000 1794.4354 -7445.1475 304.5021 -9239.5830 -7457.3605 301.4473 161.0076 254.0817 30174.5643 -71.3484 -6.6989
ENERGY: 600000 7.8933 4.0374 4.3859 0.0000 -10701.6372 1415.3465 0.0000 0.0000 1796.1394 -7473.8346 304.7913 -9269.9740 -7488.1761 299.7661 -471.4776 -403.2676 29955.6695 -66.6148 -6.9994
ENERGY: 900000 4.8464 8.5752 4.3398 0.0000 -10677.6870 1439.7672 0.0000 0.0000 1818.5289 -7401.6295 308.5906 -9220.1584 -7489.6245 300.1187 -130.9981 -69.8836 30662.8820 -27.1817 25.0880
ENERGY: 1200000 3.1552 4.5437 7.3733 0.0000 -10861.7927 1546.3099 0.0000 0.0000 1811.5938 -7488.8168 307.4138 -9300.4106 -7495.3657 300.0135 671.2363 760.7885 30228.5197 -0.1719 58.9984
ENERGY: 1500000 1.7506 7.1954 6.7114 0.0000 -10510.6062 1320.8863 0.0000 0.0000 1754.8155 -7419.2470 297.7789 -9174.0625 -7478.2497 300.2887 -691.5823 -584.8873 30728.0267 -62.5878 -0.0805
TCL: Running FEP window   6: Lambda1 0.25   Lambda2 0.3    [dLambda 0.04999999999999999]
TCL: Setting parameter firsttimestep to 0
TCL: Setting parameter alchLambda to 0.25
Info: NONBONDED TABLE R-SQUARED SPACING: 0.0625
Info: NONBONDED TABLE SIZE: 705 POINTS
TCL: Setting parameter alchLambda2 to 0.3
Info: NONBONDED TABLE R-SQUARED SPACING: 0.0625
Info: NONBONDED TABLE SIZE: 705 POINTS
TCL: Running for 1500000 steps
ETITLE: TS BOND ANGLE DIHED IMPRP ELECT VDW BOUNDARY MISC KINETIC TOTAL TEMP POTENTIAL TOTALAVG TEMPAVG PRESSURE GPRESSURE VOLUME PRESSAVG GPRESSAVG
ENERGY: 0 1.7506 7.1954 6.7114 0.0000 -10510.6056 1321.5820 0.0000 0.0000 1753.9709 -7419.3953 297.6356 -9173.3662 -7419.3953 297.6356 -673.3248 -576.4380 30728.0267 -673.3248 -576.4380
ENERGY: 300000 2.8120 8.9409 5.0664 0.0000 -10821.9353 1530.3855 0.0000 0.0000 1814.7643 -7459.9662 307.9518 -9274.7305 -7471.0977 299.5916 506.1513 602.9585 30519.3909 -240.2101 -154.6505
ENERGY: 600000 6.0465 4.8475 4.8083 0.0000 -10600.4817 1337.3035 0.0000 0.0000 1837.7773 -7409.6985 311.8569 -9247.4759 -7482.1447 300.2325 -1097.0211 -1043.4193 30742.5324 -210.1691 -117.7423
ENERGY: 900000 3.5508 3.4488 5.4535 0.0000 -10675.8333 1452.7429 0.0000 0.0000 1712.9774 -7497.6600 290.6793 -9210.6374 -7480.1186 299.0978 132.9805 145.6597 30509.4153 -30.7292 49.1962
ENERGY: 1200000 4.4567 3.9730 6.5640 0.0000 -10686.1385 1501.5798 0.0000 0.0000 1749.8476 -7419.7174 296.9359 -9169.5650 -7480.4783 298.7234 766.6164 765.1258 30773.8454 78.1908 146.1037
ENERGY: 1500000 5.0674 8.8911 4.6984 0.0000 -10751.4337 1442.3293 0.0000 0.0000 1716.2865 -7574.1610 291.2408 -9290.4475 -7484.8971 298.6689 -138.4328 -68.8105 30001.3223 96.8039 162.8351
TCL: Running FEP window   7: Lambda1 0.3    Lambda2 0.35   [dLambda 0.04999999999999999]
TCL: Setting parameter firsttimestep to 0
TCL: Setting parameter alchLambda to 0.3
Info: NONBONDED TABLE R-SQUARED SPACING: 0.0625
Info: NONBONDED TABLE SIZE: 705 POINTS
TCL: Setting parameter alchLambda2 to 0.35
Info: NONBONDED TABLE R-SQUARED SPACING: 0.0625
Info: NONBONDED TABLE SIZE: 705 POINTS
TCL: Running for 1500000 steps
ETITLE: TS BOND ANGLE DIHED IMPRP ELECT VDW BOUNDARY MISC KINETIC TOTAL TEMP POTENTIAL TOTALAVG TEMPAVG PRESSURE GPRESSURE VOLUME PRESSAVG GPRESSAVG
ENERGY: 0 5.0674 8.8911 4.6984 0.0000 -10751.4330 1443.9481 0.0000 0.0000 1715.4133 -7573.4146 291.0926 -9288.8279 -7573.4146 291.0926 -147.3640 -54.6051 30001.3223 -147.3640 -54.6051
ENERGY: 300000 4.5213 9.1649 7.4792 0.0000 -10797.4910 1544.3390 0.0000 0.0000 1769.7284 -7462.2582 300.3095 -9231.9866 -7501.4993 300.3154 560.5489 589.0840 30585.8369 202.4681 278.0678
ENERGY: 600000 1.8146 7.0279 4.2955 0.0000 -10750.0792 1487.2067 0.0000 0.0000 1778.6917 -7471.0428 301.8305 -9249.7345 -7466.0050 300.5834 254.3129 302.6794 30447.6863 46.3480 104.3835
ENERGY: 900000 4.1344 5.8624 6.6028 0.0000 -10645.4125 1417.5945 0.0000 0.0000 1778.8770 -7432.3414 301.8620 -9211.2184 -7474.0470 300.2817 -359.2776 -293.2041 30907.1930 -25.6480 28.4577
ENERGY: 1200000 2.1932 9.0772 9.1757 0.0000 -10836.2867 1501.7874 0.0000 0.0000 1751.1370 -7562.9161 297.1547 -9314.0532 -7474.2969 300.1839 2.2318 109.9679 30552.2792 1.9314 66.3984
ENERGY: 1500000 4.0122 6.8941 5.6802 0.0000 -10718.6657 1428.8521 0.0000 0.0000 1763.4279 -7509.7991 299.2404 -9273.2271 -7483.1865 300.0557 -7.0925 57.6493 30040.9064 18.5080 84.2238
TCL: Running FEP window   8: Lambda1 0.35   Lambda2 0.39999999999999997 [dLambda 0.04999999999999999]
TCL: Setting parameter firsttimestep to 0
TCL: Setting parameter alchLambda to 0.35
Info: NONBONDED TABLE R-SQUARED SPACING: 0.0625
Info: NONBONDED TABLE SIZE: 705 POINTS
TCL: Setting parameter alchLambda2 to 0.39999999999999997
Info: NONBONDED TABLE R-SQUARED SPACING: 0.0625
Info: NONBONDED TABLE SIZE: 705 POINTS
TCL: Running for 1500000 steps
ETITLE: TS BOND ANGLE DIHED IMPRP ELECT VDW BOUNDARY MISC KINETIC TOTAL TEMP POTENTIAL TOTALAVG TEMPAVG PRESSURE GPRESSURE VOLUME PRESSAVG GPRESSAVG
ENERGY: 0 4.0122 6.8941 5.6802 0.0000 -10718.6643 1429.2664 0.0000 0.0000 1762.5634 -7510.2479 299.0937 -9272.8113 -7510.2479 299.0937 -12.5979 64.2015 30040.9064 -12.5979 64.2015
ENERGY: 300000 3.8053 4.8800 2.7761 0.0000 -10704.1391 1436.5965 0.0000 0.0000 1771.0392 -7485.0420 300.5319 -9256.0812 -7516.1024 300.2593 -432.6799 -354.0624 30749.2728 -47.3137 8.1273
ENERGY: 600000 7.7550 9.8804 3.4701 0.0000 -10833.9569 1490.2852 0.0000 0.0000 1833.0352 -7489.5310 311.0522 -9322.5662 -7519.8842 300.2804 63.2991 133.7377 30110.7335 -32.7131 22.7739
ENERGY: 900000 2.7153 5.5871 3.5734 0.0000 -10484.4415 1290.9530 0.0000 0.0000 1780.4133 -7401.1995 302.1227 -9181.6128 -7508.9607 299.5769 -1269.6324 -1161.4989 30892.5417 -23.7397 34.5406
ENERGY: 1200000 2.7968 12.4985 5.2787 0.0000 -10692.1353 1411.0894 0.0000 0.0000 1751.9257 -7508.5463 297.2885 -9260.4720 -7500.9764 299.0578 -236.2318 -136.0136 30351.9044 37.0971 102.1425
ENERGY: 1500000 3.0232 6.4491 6.2531 0.0000 -10656.2907 1434.7965 0.0000 0.0000 1733.7855 -7471.9832 294.2103 -9205.7688 -7487.2680 299.1919 -169.8954 -98.1855 30463.8441 77.3431 142.7362
TCL: Running FEP window   9: Lambda1 0.39999999999999997 Lambda2 0.44999999999999996 [dLambda 0.04999999999999999]
TCL: Setting parameter firsttimestep to 0
TCL: Setting parameter alchLambda to 0.39999999999999997
Info: NONBONDED TABLE R-SQUARED SPACING: 0.0625
Info: NONBONDED TABLE SIZE: 705 POINTS
TCL: Setting parameter alchLambda2 to 0.44999999999999996
Info: NONBONDED TABLE R-SQUARED SPACING: 0.0625
Info: NONBONDED TABLE SIZE: 705 POINTS
TCL: Running for 1500000 steps
ETITLE: TS BOND ANGLE DIHED IMPRP ELECT VDW BOUNDARY MISC KINETIC TOTAL TEMP POTENTIAL TOTALAVG TEMPAVG PRESSURE GPRESSURE VOLUME PRESSAVG GPRESSAVG
ENERGY: 0 3.0232 6.4491 6.2531 0.0000 -10656.2899 1434.2689 0.0000 0.0000 1732.9295 -7473.3662 294.0650 -9206.2957 -7473.3662 294.0650 -177.4885 -93.4990 30463.8441 -177.4885 -93.4990
ENERGY: 300000 2.2846 6.1635 6.4706 0.0000 -10788.3261 1507.1594 0.0000 0.0000 1769.7783 -7496.4698 300.3180 -9266.2481 -7520.2301 296.6357 232.1872 344.0053 30793.4571 -27.1230 43.4791
ENERGY: 600000 3.4209 4.7980 5.4038 0.0000 -10808.0487 1478.1776 0.0000 0.0000 1718.5265 -7597.7220 291.6209 -9316.2485 -7517.9487 297.7891 295.0870 380.8768 30101.6334 3.5997 65.9403
ENERGY: 900000 3.6291 5.4515 7.8417 0.0000 -10685.0910 1415.9722 0.0000 0.0000 1826.9405 -7425.2559 310.0180 -9252.1964 -7503.7267 299.2367 -290.4591 -321.6427 30913.4161 -21.0811 26.8130
ENERGY: 1200000 4.2848 3.5207 2.9504 0.0000 -10748.9741 1475.0756 0.0000 0.0000 1731.8715 -7531.2712 293.8855 -9263.1427 -7498.9689 299.1928 108.8450 163.2745 30754.0129 -92.5806 -41.9828
ENERGY: 1500000 3.7214 5.7950 5.6336 0.0000 -10701.2562 1463.6545 0.0000 0.0000 1779.1954 -7443.2563 301.9160 -9222.4517 -7495.7746 299.5799 122.0495 119.2947 30470.8315 -149.7761 -96.2985
TCL: Running FEP window  10: Lambda1 0.44999999999999996 Lambda2 0.49999999999999994 [dLambda 0.04999999999999999]
TCL: Setting parameter firsttimestep to 0
TCL: Setting parameter alchLambda to 0.44999999999999996
Info: NONBONDED TABLE R-SQUARED SPACING: 0.0625
Info: NONBONDED TABLE SIZE: 705 POINTS
TCL: Setting parameter alchLambda2 to 0.49999999999999994
Info: NONBONDED TABLE R-SQUARED SPACING: 0.0625
Info: NONBONDED TABLE SIZE: 705 POINTS
TCL: Running for 1500000 steps
ETITLE: TS BOND ANGLE DIHED IMPRP ELECT VDW BOUNDARY MISC KINETIC TOTAL TEMP POTENTIAL TOTALAVG TEMPAVG PRESSURE GPRESSURE VOLUME PRESSAVG GPRESSAVG
ENERGY: 0 3.7214 5.7950 5.6336 0.0000 -10701.2574 1463.2768 0.0000 0.0000 1778.3269 -7444.5037 301.7686 -9222.8306 -7444.5037 301.7686 46.5834 125.5511 30470.8315 46.5834 125.5511
ENERGY: 300000 2.4082 5.0015 3.0160 0.0000 -10699.2114 1434.0998 0.0000 0.0000 1807.2401 -7447.4458 306.6750 -9254.6859 -7472.1539 301.8521 -111.9543 -24.0918 30398.8837 60.3453 140.8804
ENERGY: 600000 1.2524 3.4054 5.4935 0.0000 -10906.2532 1551.0467 0.0000 0.0000 1743.4668 -7601.5883 295.8531 -9345.0551 -7490.2758 300.8934 825.8246 890.5490 29895.6089 228.6720 297.7387
ENERGY: 900000 2.3244 4.7800 6.9478 0.0000 -10774.7863 1532.4305 0.0000 0.0000 1784.2634 -7444.0402 302.7760 -9228.3036 -7478.6142 301.2695 896.4051 970.0270 30351.9225 310.7233 386.2941
ENERGY: 1200000 3.5688 6.7012 5.6406 0.0000 -10733.9841 1460.0937 0.0000 0.0000 1786.2068 -7471.7730 303.1058 -9257.9797 -7478.7700 301.4125 406.0946 479.0936 30221.3170 244.5226 318.4948
ENERGY: 1500000 3.2194 6.4191 10.3688 0.0000 -10754.7023 1470.0528 0.0000 0.0000 1824.3310 -7440.3112 309.5751 -9264.6421 -7478.2822 301.8229 525.6176 549.0115 30181.2638 260.7762 327.4403
TCL: Running FEP window  11: Lambda1 0.49999999999999994 Lambda2 0.5499999999999999 [dLambda 0.04999999999999999]
TCL: Setting parameter firsttimestep to 0
TCL: Setting parameter alchLambda to 0.49999999999999994
Info: NONBONDED TABLE R-SQUARED SPACING: 0.0625
Info: NONBONDED TABLE SIZE: 705 POINTS
TCL: Setting parameter alchLambda2 to 0.5499999999999999
Info: NONBONDED TABLE R-SQUARED SPACING: 0.0625
Info: NONBONDED TABLE SIZE: 705 POINTS
TCL: Running for 1500000 steps
ETITLE: TS BOND ANGLE DIHED IMPRP ELECT VDW BOUNDARY MISC KINETIC TOTAL TEMP POTENTIAL TOTALAVG TEMPAVG PRESSURE GPRESSURE VOLUME PRESSAVG GPRESSAVG
ENERGY: 0 3.2194 6.4191 10.3688 0.0000 -10754.7018 1469.6630 0.0000 0.0000 1823.4426 -7441.5889 309.4244 -9265.0315 -7441.5889 309.4244 477.0306 550.0113 30181.2638 477.0306 550.0113
ENERGY: 300000 2.8816 2.5693 4.9262 0.0000 -10944.0793 1640.4366 0.0000 0.0000 1744.2099 -7549.0556 295.9792 -9293.2655 -7450.8511 302.0939 1614.7699 1663.4910 29803.3489 474.3620 555.6600
ENERGY: 600000 6.6275 4.4587 6.7349 0.0000 -10553.8887 1368.4003 0.0000 0.0000 1759.4077 -7408.2595 298.5582 -9167.6672 -7468.3818 300.0963 -433.8000 -393.5341 30700.3155 68.6463 150.1883
ENERGY: 900000 4.2779 3.0355 4.6827 0.0000 -10583.8515 1365.5419 0.0000 0.0000 1745.0847 -7461.2287 296.1277 -9206.3134 -7474.1181 300.0066 -506.1305 -419.2333 30376.6974 8.5731 86.7437
ENERGY: 1200000 3.0175 4.8105 5.1504 0.0000 -10546.8795 1380.0185 0.0000 0.0000 1794.0084 -7359.8742 304.4296 -9153.8826 -7464.9386 299.9426 -139.1628 -88.4057 30480.2443 20.8379 93.0353
ENERGY: 1500000 2.7562 5.7743 7.4122 0.0000 -10723.8400 1445.7249 0.0000 0.0000 1734.0588 -7528.1136 294.2566 -9262.1724 -7475.2819 299.8671 114.6917 253.4180 30015.7477 74.2810 149.7695
TCL: Running FEP window  12: Lambda1 0.5499999999999999 Lambda2 0.6    [dLambda 0.050000000000000044]
TCL: Setting parameter firsttimestep to 0
TCL: Setting parameter alchLambda to 0.5499999999999999
Info: NONBONDED TABLE R-SQUARED SPACING: 0.0625
Info: NONBONDED TABLE SIZE: 705 POINTS
TCL: Setting parameter alchLambda2 to 0.6
Info: NONBONDED TABLE R-SQUARED SPACING: 0.0625
Info: NONBONDED TABLE SIZE: 705 POINTS
TCL: Running for 1500000 steps
ETITLE: TS BOND ANGLE DIHED IMPRP ELECT VDW BOUNDARY MISC KINETIC TOTAL TEMP POTENTIAL TOTALAVG TEMPAVG PRESSURE GPRESSURE VOLUME PRESSAVG GPRESSAVG
ENERGY: 0 2.7562 5.7742 7.4122 0.0000 -10724.2535 1445.2570 0.0000 0.0000 1733.1595 -7529.8944 294.1040 -9263.0539 -7529.8944 294.1040 155.2729 255.0637 30015.7477 155.2729 255.0637
ENERGY: 300000 3.5403 6.4014 6.6733 0.0000 -10666.3005 1380.7239 0.0000 0.0000 1715.2563 -7553.7052 291.0660 -9268.9616 -7517.3763 294.1879 -465.3559 -428.8869 30452.2884 -171.1563 -93.7367
ENERGY: 600000 5.5013 6.5186 7.8282 0.0000 -10557.5999 1401.1900 0.0000 0.0000 1764.0798 -7372.4820 299.3510 -9136.5618 -7504.1898 296.2328 -268.5924 -231.5191 31122.3690 -111.0460 -57.6832
ENERGY: 900000 3.1717 4.2442 6.6594 0.0000 -10610.7519 1396.5721 0.0000 0.0000 1730.4656 -7469.6390 293.6469 -9200.1046 -7489.7172 297.3997 -255.6165 -166.9319 30726.6317 -138.3354 -81.6415
ENERGY: 1200000 4.4581 4.5390 5.2171 0.0000 -10748.2945 1460.7178 0.0000 0.0000 1767.8355 -7505.5270 299.9883 -9273.3625 -7495.4019 297.1654 149.4044 136.3017 30462.9279 -197.8965 -144.4395
ENERGY: 1500000 3.4875 4.0581 4.9166 0.0000 -10744.1650 1419.0520 0.0000 0.0000 1724.5743 -7588.0766 292.6472 -9312.6509 -7508.2179 296.9553 -530.9679 -390.9102 30253.9407 -262.2422 -197.6877
TCL: Running FEP window  13: Lambda1 0.6    Lambda2 0.65   [dLambda 0.050000000000000044]
TCL: Setting parameter firsttimestep to 0
TCL: Setting parameter alchLambda to 0.6
Info: NONBONDED TABLE R-SQUARED SPACING: 0.0625
Info: NONBONDED TABLE SIZE: 705 POINTS
TCL: Setting parameter alchLambda2 to 0.65
Info: NONBONDED TABLE R-SQUARED SPACING: 0.0625
Info: NONBONDED TABLE SIZE: 705 POINTS
TCL: Running for 1500000 steps
ETITLE: TS BOND ANGLE DIHED IMPRP ELECT VDW BOUNDARY MISC KINETIC TOTAL TEMP POTENTIAL TOTALAVG TEMPAVG PRESSURE GPRESSURE VOLUME PRESSAVG GPRESSAVG
ENERGY: 0 3.4875 4.0581 4.9166 0.0000 -10744.9673 1419.0334 0.0000 0.0000 1723.7384 -7589.7333 292.5054 -9313.4717 -7589.7333 292.5054 -464.1598 -383.8327 30253.9407 -464.1598 -383.8327
ENERGY: 300000 3.8817 2.1968 7.5899 0.0000 -10771.6906 1471.1862 0.0000 0.0000 1769.0084 -7517.8276 300.1873 -9286.8360 -7501.3177 298.0859 152.4637 177.6883 30313.7766 -57.0157 9.4869
ENERGY: 600000 5.2549 6.8014 4.5958 0.0000 -10657.1583 1437.9226 0.0000 0.0000 1791.2808 -7411.3028 303.9668 -9202.5836 -7480.5640 298.8203 -78.7671 -15.0464 30783.5643 -140.0769 -72.4447
ENERGY: 900000 6.5142 3.1776 5.7024 0.0000 -10648.5400 1421.1260 0.0000 0.0000 1801.4722 -7410.5477 305.6962 -9212.0199 -7477.8259 298.5485 12.5072 3.5157 30317.2890 -82.3897 -17.9226
ENERGY: 1200000 4.1832 3.5527 5.7183 0.0000 -10600.6719 1369.8459 0.0000 0.0000 1733.9613 -7483.4105 294.2401 -9217.3718 -7477.0127 297.6540 -239.9116 -144.0774 30539.5009 -136.8848 -65.0669
ENERGY: 1500000 6.9248 5.8931 8.1610 0.0000 -10756.1333 1454.9536 0.0000 0.0000 1764.4530 -7515.7477 299.4143 -9280.2008 -7492.8475 297.9621 -49.1485 19.7830 30248.4178 -138.7381 -66.2577
TCL: Running FEP window  14: Lambda1 0.65   Lambda2 0.7000000000000001 [dLambda 0.050000000000000044]
TCL: Setting parameter firsttimestep to 0
TCL: Setting parameter alchLambda to 0.65
Info: NONBONDED TABLE R-SQUARED SPACING: 0.0625
Info: NONBONDED TABLE SIZE: 705 POINTS
TCL: Setting parameter alchLambda2 to 0.7000000000000001
Info: NONBONDED TABLE R-SQUARED SPACING: 0.0625
Info: NONBONDED TABLE SIZE: 705 POINTS
TCL: Running for 1500000 steps
ETITLE: TS BOND ANGLE DIHED IMPRP ELECT VDW BOUNDARY MISC KINETIC TOTAL TEMP POTENTIAL TOTALAVG TEMPAVG PRESSURE GPRESSURE VOLUME PRESSAVG GPRESSAVG
ENERGY: 0 6.9248 5.8931 8.1610 0.0000 -10756.3434 1454.8607 0.0000 0.0000 1763.5316 -7516.9722 299.2580 -9280.5038 -7516.9722 299.2580 -68.6010 28.5325 30248.4178 -68.6010 28.5325
ENERGY: 300000 4.7536 3.5853 5.1393 0.0000 -10656.4540 1390.7080 0.0000 0.0000 1776.4396 -7475.8282 301.4483 -9252.2678 -7523.9502 299.0818 -298.2405 -312.5220 30420.7200 -142.0921 -63.6177
ENERGY: 600000 5.2804 5.9670 7.2709 0.0000 -10738.0876 1429.1237 0.0000 0.0000 1804.1092 -7486.3365 306.1437 -9290.4457 -7510.5181 299.4213 -77.9270 22.8301 30384.6968 -186.2348 -101.1096
ENERGY: 900000 4.1445 6.4388 8.6570 0.0000 -10663.0819 1438.6823 0.0000 0.0000 1711.4124 -7493.7469 290.4137 -9205.1593 -7509.9395 298.4394 167.8914 280.2124 29995.7143 -121.8817 -39.4140
ENERGY: 1200000 3.6845 7.4504 5.4047 0.0000 -10755.7299 1517.3583 0.0000 0.0000 1812.4784 -7409.3537 307.5639 -9221.8321 -7497.2598 299.9350 642.9301 742.1467 30339.3313 9.2828 87.5236
ENERGY: 1500000 3.9260 2.9529 5.9710 0.0000 -10673.0199 1429.8828 0.0000 0.0000 1798.2241 -7432.0631 305.1450 -9230.2872 -7491.8513 300.2847 -61.5025 10.8204 30594.5834 -7.2391 77.1821
TCL: Running FEP window  15: Lambda1 0.7000000000000001 Lambda2 0.7500000000000001 [dLambda 0.050000000000000044]
TCL: Setting parameter firsttimestep to 0
TCL: Setting parameter alchLambda to 0.7000000000000001
Info: NONBONDED TABLE R-SQUARED SPACING: 0.0625
Info: NONBONDED TABLE SIZE: 705 POINTS
TCL: Setting parameter alchLambda2 to 0.7500000000000001
Info: NONBONDED TABLE R-SQUARED SPACING: 0.0625
Info: NONBONDED TABLE SIZE: 705 POINTS
TCL: Running for 1500000 steps
ETITLE: TS BOND ANGLE DIHED IMPRP ELECT VDW BOUNDARY MISC KINETIC TOTAL TEMP POTENTIAL TOTALAVG TEMPAVG PRESSURE GPRESSURE VOLUME PRESSAVG GPRESSAVG
ENERGY: 0 3.9260 2.9529 5.9710 0.0000 -10674.1665 1430.1872 0.0000 0.0000 1797.3617 -7433.7676 304.9987 -9231.1294 -7433.7676 304.9987 -65.8485 21.0915 30594.5834 -65.8485 21.0915
ENERGY: 300000 1.8518 4.6423 5.3966 0.0000 -10708.3180 1411.2858 0.0000 0.0000 1727.8702 -7557.2714 293.2065 -9285.1416 -7486.9567 298.5066 -296.2106 -270.4214 30552.5457 -459.9528 -376.3534
ENERGY: 600000 5.7111 4.8324 8.8846 0.0000 -10792.0812 1475.5051 0.0000 0.0000 1774.6635 -7522.4845 301.1470 -9297.1480 -7486.1735 301.2312 407.9413 442.3880 30161.6056 -384.9067 -295.3618
ENERGY: 900000 1.9517 5.1196 6.4378 0.0000 -10747.0821 1524.6742 0.0000 0.0000 1679.0739 -7529.8248 284.9261 -9208.8987 -7481.0267 300.9124 591.1604 599.3143 30488.1868 -134.6522 -58.6014
ENERGY: 1200000 1.2173 5.3321 4.8259 0.0000 -10826.6172 1494.4039 0.0000 0.0000 1737.9827 -7582.8553 294.9225 -9320.8380 -7481.5292 300.9571 323.2063 394.7351 30116.7403 -90.0393 -15.6271
ENERGY: 1500000 4.8985 10.1255 4.1673 0.0000 -10586.6196 1331.8079 0.0000 0.0000 1712.6779 -7522.9425 290.6285 -9235.6204 -7477.8251 300.4995 -1000.6550 -898.7800 30773.2744 -197.3417 -119.6020
TCL: Running FEP window  16: Lambda1 0.7500000000000001 Lambda2 0.8000000000000002 [dLambda 0.050000000000000044]
TCL: Setting parameter firsttimestep to 0
TCL: Setting parameter alchLambda to 0.7500000000000001
Info: NONBONDED TABLE R-SQUARED SPACING: 0.0625
Info: NONBONDED TABLE SIZE: 705 POINTS
TCL: Setting parameter alchLambda2 to 0.8000000000000002
Info: NONBONDED TABLE R-SQUARED SPACING: 0.0625
Info: NONBONDED TABLE SIZE: 705 POINTS
TCL: Running for 1500000 steps
ETITLE: TS BOND ANGLE DIHED IMPRP ELECT VDW BOUNDARY MISC KINETIC TOTAL TEMP POTENTIAL TOTALAVG TEMPAVG PRESSURE GPRESSURE VOLUME PRESSAVG GPRESSAVG
ENERGY: 0 4.8985 10.1255 4.1673 0.0000 -10587.4181 1331.9389 0.0000 0.0000 1711.8050 -7524.4829 290.4803 -9236.2879 -7524.4829 290.4803 -967.3976 -888.1980 30773.2744 -967.3976 -888.1980
ENERGY: 300000 3.7479 5.1609 6.1347 0.0000 -10756.2922 1552.8090 0.0000 0.0000 1825.8773 -7362.5624 309.8376 -9188.4397 -7458.1842 300.5066 1140.3692 1243.2671 30279.2132 241.0596 304.9567
ENERGY: 600000 4.3984 6.5134 4.7125 0.0000 -10874.3832 1511.0322 0.0000 0.0000 1781.2371 -7566.4896 302.2624 -9347.7267 -7471.8982 300.4588 324.9147 410.0441 29998.3252 25.6063 95.3801
ENERGY: 900000 2.5177 9.4775 3.2920 0.0000 -10786.0911 1527.4086 0.0000 0.0000 1715.8462 -7527.5492 291.1661 -9243.3953 -7481.0393 300.1085 507.2915 584.5752 30679.6105 141.8929 213.0134
ENERGY: 1200000 1.9308 8.0287 7.6980 0.0000 -10710.6244 1437.0620 0.0000 0.0000 1849.7846 -7406.1203 313.8944 -9255.9049 -7470.8844 301.6190 -243.4643 -167.7950 30797.3284 45.1289 114.0951
ENERGY: 1500000 2.7936 5.9487 4.9227 0.0000 -10881.1765 1550.8251 0.0000 0.0000 1745.4955 -7571.1908 296.1974 -9316.6863 -7475.1015 300.5628 808.5523 874.3933 30527.4520 73.6531 141.9267
TCL: Running FEP window  17: Lambda1 0.8000000000000002 Lambda2 0.8500000000000002 [dLambda 0.050000000000000044]
TCL: Setting parameter firsttimestep to 0
TCL: Setting parameter alchLambda to 0.8000000000000002
Info: NONBONDED TABLE R-SQUARED SPACING: 0.0625
Info: NONBONDED TABLE SIZE: 705 POINTS
TCL: Setting parameter alchLambda2 to 0.8500000000000002
Info: NONBONDED TABLE R-SQUARED SPACING: 0.0625
Info: NONBONDED TABLE SIZE: 705 POINTS
TCL: Running for 1500000 steps
ETITLE: TS BOND ANGLE DIHED IMPRP ELECT VDW BOUNDARY MISC KINETIC TOTAL TEMP POTENTIAL TOTALAVG TEMPAVG PRESSURE GPRESSURE VOLUME PRESSAVG GPRESSAVG
ENERGY: 0 2.7936 5.9487 4.9227 0.0000 -10882.6844 1550.9706 0.0000 0.0000 1744.6583 -7573.3905 296.0553 -9318.0488 -7573.3905 296.0553 815.8994 886.1827 30527.4520 815.8994 886.1827
ENERGY: 300000 2.3641 6.7355 7.8804 0.0000 -10762.7902 1460.4449 0.0000 0.0000 1785.6555 -7499.7099 303.0122 -9285.3655 -7508.7049 300.6708 182.6625 288.5496 30341.9448 399.5384 467.2841
ENERGY: 600000 5.8230 6.4200 4.1773 0.0000 -10732.4384 1440.8686 0.0000 0.0000 1711.5405 -7563.6090 290.4355 -9275.1495 -7514.3381 298.2386 -339.9010 -301.6773 30806.4145 218.2169 281.6489
ENERGY: 900000 8.3816 3.7505 6.9933 0.0000 -10531.8061 1295.0352 0.0000 0.0000 1676.2264 -7541.4191 284.4429 -9217.6455 -7527.4020 296.5825 -1269.2774 -1147.6198 30804.2535 -72.7271 -2.2007
ENERGY: 1200000 7.6246 7.9516 5.8594 0.0000 -10774.6654 1424.9807 0.0000 0.0000 1748.0684 -7580.1806 296.6340 -9328.2490 -7534.1160 297.1792 -435.8281 -388.7873 30139.4598 -146.6644 -84.7088
ENERGY: 1500000 4.3869 6.9018 6.1013 0.0000 -10746.7531 1513.7612 0.0000 0.0000 1759.5913 -7456.0106 298.5893 -9215.6019 -7533.4507 297.3119 636.4880 720.1381 30410.1451 -102.1129 -40.6157
TCL: Running FEP window  18: Lambda1 0.8500000000000002 Lambda2 0.9000000000000002 [dLambda 0.050000000000000044]
TCL: Setting parameter firsttimestep to 0
TCL: Setting parameter alchLambda to 0.8500000000000002
Info: NONBONDED TABLE R-SQUARED SPACING: 0.0625
Info: NONBONDED TABLE SIZE: 705 POINTS
TCL: Setting parameter alchLambda2 to 0.9000000000000002
Info: NONBONDED TABLE R-SQUARED SPACING: 0.0625
Info: NONBONDED TABLE SIZE: 705 POINTS
TCL: Running for 1500000 steps
ETITLE: TS BOND ANGLE DIHED IMPRP ELECT VDW BOUNDARY MISC KINETIC TOTAL TEMP POTENTIAL TOTALAVG TEMPAVG PRESSURE GPRESSURE VOLUME PRESSAVG GPRESSAVG
ENERGY: 0 4.3869 6.9018 6.1013 0.0000 -10748.4323 1513.8303 0.0000 0.0000 1758.7228 -7458.4893 298.4419 -9217.2120 -7458.4893 298.4419 643.9202 727.8144 30410.1451 643.9202 727.8144
ENERGY: 300000 6.6501 7.0327 4.6553 0.0000 -10852.1754 1560.4005 0.0000 0.0000 1774.8622 -7498.5747 301.1807 -9273.4369 -7498.9909 298.2442 901.7621 924.3139 30249.1433 233.5871 289.6497
ENERGY: 600000 4.8683 6.8927 8.3341 0.0000 -10685.8329 1402.4706 0.0000 0.0000 1745.7997 -7517.4674 296.2490 -9263.2672 -7514.1485 298.4074 -564.5270 -493.1592 31003.0156 -28.5666 29.8735
ENERGY: 900000 9.0159 5.3198 6.0259 0.0000 -10757.8331 1414.5867 0.0000 0.0000 1752.0292 -7570.8557 297.3061 -9322.8849 -7493.1735 299.6110 -374.1629 -335.3321 30711.3261 -50.8510 -3.3244
ENERGY: 1200000 5.8604 3.5610 4.2526 0.0000 -10660.2898 1390.2786 0.0000 0.0000 1764.4736 -7491.8637 299.4178 -9256.3373 -7495.4227 299.4342 -50.1800 55.2160 30001.1497 -18.6551 33.5255
ENERGY: 1500000 2.4804 9.6563 7.4451 0.0000 -10692.9187 1405.4002 0.0000 0.0000 1772.3837 -7495.5530 300.7601 -9267.9366 -7497.8155 299.3624 -130.6138 -71.8543 30414.8731 12.8861 69.5191
TCL: Running FEP window  19: Lambda1 0.9000000000000002 Lambda2 0.9500000000000003 [dLambda 0.050000000000000044]
TCL: Setting parameter firsttimestep to 0
TCL: Setting parameter alchLambda to 0.9000000000000002
Info: NONBONDED TABLE R-SQUARED SPACING: 0.0625
Info: NONBONDED TABLE SIZE: 705 POINTS
TCL: Setting parameter alchLambda2 to 0.9500000000000003
Info: NONBONDED TABLE R-SQUARED SPACING: 0.0625
Info: NONBONDED TABLE SIZE: 705 POINTS
TCL: Running for 1500000 steps
ETITLE: TS BOND ANGLE DIHED IMPRP ELECT VDW BOUNDARY MISC KINETIC TOTAL TEMP POTENTIAL TOTALAVG TEMPAVG PRESSURE GPRESSURE VOLUME PRESSAVG GPRESSAVG
ENERGY: 0 2.4804 9.6563 7.4451 0.0000 -10695.1818 1407.4254 0.0000 0.0000 1771.5147 -7496.6599 300.6126 -9268.1746 -7496.6599 300.6126 -127.2234 -44.3747 30414.8731 -127.2234 -44.3747
ENERGY: 300000 7.7308 6.0688 6.6804 0.0000 -10762.4587 1439.9671 0.0000 0.0000 1744.3094 -7557.7022 295.9961 -9302.0116 -7527.4225 298.2324 -29.8955 65.8618 29830.6059 -38.1431 33.0305
ENERGY: 600000 2.7183 2.6963 4.5922 0.0000 -10635.0248 1400.8103 0.0000 0.0000 1758.9270 -7465.2807 298.4766 -9224.2077 -7508.9798 297.7694 -380.0810 -306.6331 31028.6164 54.5228 125.4773
ENERGY: 900000 2.8829 4.8195 5.8774 0.0000 -10821.8690 1483.8567 0.0000 0.0000 1746.0765 -7578.3560 296.2960 -9324.4325 -7505.9969 298.5765 85.9024 142.3439 30584.2672 39.5967 107.1952
ENERGY: 1200000 4.3914 5.2082 3.2389 0.0000 -10658.4148 1373.1437 0.0000 0.0000 1711.0789 -7561.3537 290.3571 -9272.4326 -7498.4988 298.1969 -420.9550 -430.0730 30584.2455 21.5225 85.2132
ENERGY: 1500000 4.0438 4.0624 4.0040 0.0000 -10731.5324 1452.0084 0.0000 0.0000 1794.8210 -7472.5928 304.5675 -9267.4138 -7499.9130 298.7506 206.2584 231.5668 30573.3019 10.1001 74.9695
TCL: Running FEP window  20: Lambda1 0.9500000000000003 Lambda2 1.0    [dLambda 0.04999999999999971]
TCL: Setting parameter firsttimestep to 0
TCL: Setting parameter alchLambda to 0.9500000000000003
Info: NONBONDED TABLE R-SQUARED SPACING: 0.0625
Info: NONBONDED TABLE SIZE: 705 POINTS
TCL: Setting parameter alchLambda2 to 1.0
Info: NONBONDED TABLE R-SQUARED SPACING: 0.0625
Info: NONBONDED TABLE SIZE: 705 POINTS
TCL: Running for 1500000 steps
ETITLE: TS BOND ANGLE DIHED IMPRP ELECT VDW BOUNDARY MISC KINETIC TOTAL TEMP POTENTIAL TOTALAVG TEMPAVG PRESSURE GPRESSURE VOLUME PRESSAVG GPRESSAVG
ENERGY: 0 4.0438 4.0624 4.0040 0.0000 -10732.7572 1452.5433 0.0000 0.0000 1793.9461 -7474.1575 304.4191 -9268.1036 -7474.1575 304.4191 168.8769 249.3373 30573.3019 168.8769 249.3373
ENERGY: 300000 7.9785 7.2124 5.9807 0.0000 -10989.6435 1600.2975 0.0000 0.0000 1690.3460 -7677.8285 286.8389 -9368.1746 -7503.8415 300.0432 979.9828 1027.5990 30115.3258 96.3869 162.7870
ENERGY: 600000 1.5917 5.4300 2.9269 0.0000 -10726.9365 1427.9947 0.0000 0.0000 1740.0243 -7548.9689 295.2690 -9288.9932 -7512.1861 298.8613 -89.0525 -19.2922 30496.7550 153.7001 224.5304
ENERGY: 900000 2.7630 6.4616 7.5023 0.0000 -10735.8099 1508.8666 0.0000 0.0000 1843.2313 -7366.9851 312.7824 -9210.2164 -7507.2172 299.8317 862.9687 954.4922 30310.1411 202.2413 263.0387
ENERGY: 1200000 5.6323 7.1318 7.4929 0.0000 -10726.5283 1428.7815 0.0000 0.0000 1720.8913 -7556.5986 292.0222 -9277.4898 -7510.9168 298.9803 -462.5967 -365.7390 30998.1371 136.5521 201.7750
ENERGY: 1500000 3.3760 3.6822 5.3173 0.0000 -10814.7506 1493.8985 0.0000 0.0000 1762.3920 -7546.0847 299.0646 -9308.4766 -7519.9344 298.7339 446.4292 534.0662 30391.5790 102.7255 170.4174
TCL: Exiting due to exit command.
