Info: SIMULATION PARAMETERS:
Info: TIMESTEP               2
Info: NUMBER OF STEPS        0
Info: STEPS PER CYCLE        10
Info: PERIODIC CELL BASIS 1  31.9908 0 0
Info: PERIODIC CELL BASIS 2  0 30.8277 0
Info: PERIODIC CELL BASIS 3  0 0 31.7402
Info: PERIODIC CELL CENTER   0 0 0
Info: WRAPPING WATERS AROUND PERIODIC BOUNDARIES ON OUTPUT.
Info: WRAPPING ALL CLUSTERS AROUND PERIODIC BOUNDARIES ON OUTPUT.
Info: FIRST LDB TIMESTEP     50
Info: LAST LDB TIMESTEP     -1
Info: HOM BACKGROUND SCALING 1
Info: PME BACKGROUND SCALING 1
Info: MIN ATOMS PER PATCH    40
Info: EMPTY PATCH LOAD       40 ATOMS
Info: VELOCITY FILE          mobley_8048190_equil.vel
Info: CENTER OF MASS MOVING INITIALLY? NO
Info: DIELECTRIC             1
Info: EXCLUDE                SCALED ONE-FOUR
Info: 1-4 ELECTROSTATICS SCALED BY 0.833333
Info: MODIFIED 1-4 VDW PARAMETERS WILL BE USED
Info: DCD FILENAME           mobley_8048190_prod.dcd
Info: DCD FREQUENCY          100000
Info: DCD FIRST STEP         100000
Info: DCD FILE WILL CONTAIN UNIT CELL DATA
Info: XST FILENAME           mobley_8048190_prod.xst
Info: XST FREQUENCY          100000
Info: NO VELOCITY DCD OUTPUT
Info: NO FORCE DCD OUTPUT
Info: OUTPUT FILENAME        mobley_8048190_prod
Info: BINARY OUTPUT FILES WILL BE USED
Info: RESTART FILENAME       mobley_8048190_prod.restart
Info: RESTART FREQUENCY      100000
Info: BINARY RESTART FILES WILL BE USED
Info: CUTOFF                 9
Info: PAIRLIST DISTANCE      11
Info: PAIRLIST SHRINK RATE   0.01
Info: PAIRLIST GROW RATE     0.01
Info: PAIRLIST TRIGGER       0.3
Info: PAIRLISTS PER CYCLE    2
Info: PAIRLISTS ENABLED
Info: MARGIN                 2
Info: HYDROGEN GROUP CUTOFF  2.5
Info: PATCH DIMENSION        15.5
Info: ENERGY OUTPUT STEPS    100000
Info: ENERGY EVALUATION STEPS    100000
Info: OUTPUT ENERGY PRECISION 4
Info: CROSSTERM ENERGY INCLUDED IN DIHEDRAL
Info: TIMING OUTPUT STEPS    1000000
Info: PRESSURE OUTPUT STEPS  100000
Info: ALCHEMICAL FEP ON
Info: FEP CURRENT LAMBDA VALUE     1
Info: FEP COMPARISON LAMBDA VALUE  0.95
Info: FEP INTRA-ALCHEMICAL NON-BONDED INTERACTIONS WILL BE RETAINED
Info: FEP INTRA-ALCHEMICAL BONDED INTERACTIONS WILL BE RETAINED
Info: FEP VDW SHIFTING COEFFICIENT 5
Info: FEP ELEC. ACTIVE FOR ANNIHILATED PARTICLES BETWEEN LAMBDA = 0 AND LAMBDA = 0.5
Info: FEP ELEC. ACTIVE FOR EXNIHILATED PARTICLES BETWEEN LAMBDA = 0.5 AND LAMBDA = 1
Info: FEP VDW ACTIVE FOR ANNIHILATED PARTICLES BETWEEN LAMBDA = 0 AND LAMBDA = 1
Info: FEP VDW ACTIVE FOR EXNIHILATED PARTICLES BETWEEN LAMBDA = 0 AND LAMBDA = 1
Info: FEP BOND ACTIVE FOR ANNIHILATED PARTICLES BETWEEN LAMBDA = 1 AND LAMBDA = 1
Info: FEP BOND ACTIVE FOR EXNIHILATED PARTICLES BETWEEN LAMBDA = 0 AND LAMBDA = 0
Info: LANGEVIN DYNAMICS ACTIVE
Info: LANGEVIN TEMPERATURE   300
Info: LANGEVIN USING BBK INTEGRATOR
Info: LANGEVIN DAMPING COEFFICIENT IS 1 INVERSE PS
Info: LANGEVIN DYNAMICS APPLIED TO HYDROGENS
Info: LANGEVIN PISTON PRESSURE CONTROL ACTIVE
Info:        TARGET PRESSURE IS 1.01325 BAR
Info:     OSCILLATION PERIOD IS 50 FS
Info:             DECAY TIME IS 25 FS
Info:     PISTON TEMPERATURE IS 300 K
Info:       PRESSURE CONTROL IS GROUP-BASED
Info:    INITIAL STRAIN RATE IS 0.000216092 0.000216092 0.000216092
Info:       CELL FLUCTUATION IS ISOTROPIC
Info: PARTICLE MESH EWALD (PME) ACTIVE
Info: PME TOLERANCE               1e-06
Info: PME EWALD COEFFICIENT       0.348832
Info: PME INTERPOLATION ORDER     4
Info: PME GRID DIMENSIONS         32 32 32
Info: PME MAXIMUM GRID SPACING    1
Info: PME CALCULATION WILL BE PERFORMED ON GPU
Info: FULL ELECTROSTATIC EVALUATION FREQUENCY      2
Info: USING VERLET I (r-RESPA) MTS SCHEME.
Info: C1 SPLITTING OF LONG RANGE ELECTROSTATICS
Info: PLACING ATOMS IN PATCHES BY HYDROGEN GROUPS
Info: RIGID BONDS TO HYDROGEN : ALL
Info:         ERROR TOLERANCE : 1e-08
Info:          MAX ITERATIONS : 100
Info: RIGID WATER USING SETTLE ALGORITHM
Info: RANDOM NUMBER SEED     1743516420
Info: USE HYDROGEN BONDS?    NO
Info: Using AMBER format force field!
Info: AMBER PARM FILE        mobley_8048190.prmtop
Info: COORDINATE PDB         mobley_8048190.pdb
Info: Exclusions will be read from PARM file!
Info: SCNB (VDW SCALING)     2
Info: USING ARITHMETIC MEAN TO COMBINE L-J SIGMA PARAMETERS
Info: BINARY COORDINATES     mobley_8048190_equil.coor
Info: SUMMARY OF PARAMETERS:
Info: 7 BONDS
Info: 7 ANGLES
Info:   7 HARMONIC
Info:   0 COSINE-BASED
Info: 8 DIHEDRAL
Info: 0 IMPROPER
Info: 0 CROSSTERM
Info: 0 VDW
Info: 36 VDW_PAIRS
Info: 0 NBTHOLE_PAIRS
Info: To read alchdata from file: mobley_8048190.pdb
Info: To read alchflag data from column: 5
Info: STRUCTURE SUMMARY:
Info: 2988 ATOMS
Info: 2987 BONDS
Info: 12 ANGLES
Info: 20 DIHEDRALS
Info: 0 IMPROPERS
Info: 0 CROSSTERMS
Info: 3009 EXCLUSIONS
Info: 2984 RIGID BONDS
Info: ALCH: 0 ATOMS TO DISAPPEAR IN FINAL STATE
Info: ALCH: 9 ATOMS TO APPEAR IN FINAL STATE
Info: 5980 DEGREES OF FREEDOM
Info: 997 HYDROGEN GROUPS
Info: 4 ATOMS IN LARGEST HYDROGEN GROUP
Info: 997 MIGRATION GROUPS
Info: 4 ATOMS IN LARGEST MIGRATION GROUP
Info: TOTAL MASS = 17949 amu
Info: TOTAL CHARGE = -1.49012e-08 e
Info: MASS DENSITY = 0.952185 g/cm^3
Info: ATOM DENSITY = 0.0954561 atoms/A^3
Info: ADDED 0 IMPLICIT EXCLUSIONS
Info: NONBONDED TABLE R-SQUARED SPACING: 0.0625
Info: NONBONDED TABLE SIZE: 705 POINTS
Info: REMOVING COM VELOCITY 0.158087 0.0539323 -0.162077
Info: Use 3D box decompostion in PME FFT.
Info: Updated CUDA force table with 4096 elements.
Info: Updated CUDA LJ table with 8 x 8 elements.
Info: Found 12 unique exclusion lists needing 16 bytes
TCL: Running for 1500000 steps
ETITLE: TS BOND ANGLE DIHED IMPRP ELECT VDW BOUNDARY MISC KINETIC TOTAL TEMP POTENTIAL TOTALAVG TEMPAVG PRESSURE GPRESSURE VOLUME PRESSAVG GPRESSAVG
ENERGY: 0 2.4292 2.7208 7.1049 0.0000 -10824.7213 1366.2348 0.0000 0.0000 1794.8308 -7651.4009 302.0736 -9446.2317 -7651.4009 302.0736 -927.4107 -834.5754 31302.3547 -927.4107 -834.5754
ENERGY: 300000 0.8781 2.4520 11.5270 0.0000 -10849.9781 1425.7478 0.0000 0.0000 1771.2244 -7638.1488 298.1006 -9409.3732 -7653.2671 302.7226 -15.0300 -24.3487 30691.0063 -11.1790 41.4904
ENERGY: 600000 0.1692 3.0624 6.7226 0.0000 -11015.5863 1612.8218 0.0000 0.0000 1772.5741 -7620.2362 298.3277 -9392.8102 -7651.6537 303.4336 1524.6178 1588.0082 30316.4018 117.4537 166.1447
ENERGY: 900000 1.2614 2.6625 9.8403 0.0000 -10976.3968 1457.7604 0.0000 0.0000 1805.7393 -7699.1328 303.9095 -9504.8721 -7651.7911 303.6562 -134.2057 -60.3325 30648.0228 43.3171 98.7387
ENERGY: 1200000 0.3052 6.7045 7.4243 0.0000 -11000.8224 1524.8498 0.0000 0.0000 1770.3093 -7691.2293 297.9465 -9461.5386 -7662.1744 302.0775 274.1404 345.1838 30838.0730 20.1934 74.6203
ENERGY: 1500000 2.8339 6.8825 8.3513 0.0000 -10815.6071 1418.9355 0.0000 0.0000 1786.2812 -7592.3227 300.6346 -9378.6039 -7658.2208 302.2176 -368.1285 -325.3325 31237.2451 33.9218 90.9060
TCL: Running FEP window   2: Lambda1 0.95   Lambda2 0.8999999999999999 [dLambda -0.050000000000000044]
TCL: Setting parameter firsttimestep to 0
TCL: Setting parameter alchLambda to 0.95
Info: NONBONDED TABLE R-SQUARED SPACING: 0.0625
Info: NONBONDED TABLE SIZE: 705 POINTS
TCL: Setting parameter alchLambda2 to 0.8999999999999999
Info: NONBONDED TABLE R-SQUARED SPACING: 0.0625
Info: NONBONDED TABLE SIZE: 705 POINTS
TCL: Running for 1500000 steps
ETITLE: TS BOND ANGLE DIHED IMPRP ELECT VDW BOUNDARY MISC KINETIC TOTAL TEMP POTENTIAL TOTALAVG TEMPAVG PRESSURE GPRESSURE VOLUME PRESSAVG GPRESSAVG
ENERGY: 0 2.8339 6.8825 8.3513 0.0000 -10813.2638 1418.8716 0.0000 0.0000 1785.4189 -7590.9056 300.4895 -9376.3245 -7590.9056 300.4895 -404.2806 -328.3909 31237.2451 -404.2806 -328.3909
ENERGY: 300000 0.1472 3.3624 6.5408 0.0000 -10911.1936 1436.6756 0.0000 0.0000 1769.1533 -7695.3142 297.7520 -9464.4675 -7668.8151 297.6345 -245.4050 -193.0507 30703.4350 -13.7360 40.4364
ENERGY: 600000 1.0330 2.9035 10.4008 0.0000 -11044.1036 1576.0641 0.0000 0.0000 1804.2030 -7649.4992 303.6509 -9453.7021 -7663.6316 300.3110 1073.4837 1054.6566 30795.0418 234.2096 283.0517
ENERGY: 900000 1.0037 6.0876 8.4307 0.0000 -10722.3977 1311.8432 0.0000 0.0000 1781.3730 -7613.6596 299.8086 -9395.0326 -7668.0822 300.3927 -1205.3142 -1117.6147 31225.2006 157.8875 217.3192
ENERGY: 1200000 3.4786 2.7333 6.9213 0.0000 -11059.4932 1530.3976 0.0000 0.0000 1761.0179 -7754.9447 296.3828 -9515.9625 -7677.5042 299.7300 372.2747 364.9228 30574.2769 54.0235 102.3578
ENERGY: 1500000 0.9921 8.4540 6.9656 0.0000 -10966.3077 1483.3627 0.0000 0.0000 1797.3651 -7669.1683 302.5001 -9466.5334 -7667.8852 300.7847 150.9851 207.7826 30584.4875 57.6402 107.3629
TCL: Running FEP window   3: Lambda1 0.8999999999999999 Lambda2 0.8499999999999999 [dLambda -0.050000000000000044]
TCL: Setting parameter firsttimestep to 0
TCL: Setting parameter alchLambda to 0.8999999999999999
Info: NONBONDED TABLE R-SQUARED SPACING: 0.0625
Info: NONBONDED TABLE SIZE: 705 POINTS
TCL: Setting parameter alchLambda2 to 0.8499999999999999
Info: NONBONDED TABLE R-SQUARED SPACING: 0.0625
Info: NONBONDED TABLE SIZE: 705 POINTS
TCL: Running for 1500000 steps
ETITLE: TS BOND ANGLE DIHED IMPRP ELECT VDW BOUNDARY MISC KINETIC TOTAL TEMP POTENTIAL TOTALAVG TEMPAVG PRESSURE GPRESSURE VOLUME PRESSAVG GPRESSAVG
ENERGY: 0 0.9921 8.4540 6.9656 0.0000 -10964.1206 1482.9039 0.0000 0.0000 1796.5134 -7668.2916 302.3567 -9464.8050 -7668.2916 302.3567 126.7323 201.2421 30584.4875 126.7323 201.2421
ENERGY: 300000 0.1442 3.2986 6.8378 0.0000 -10973.4611 1443.5023 0.0000 0.0000 1740.3212 -7779.3571 292.8995 -9519.6783 -7722.3646 299.3236 -288.1398 -261.8365 30587.8156 213.8820 260.7940
ENERGY: 600000 0.9099 4.1862 7.5795 0.0000 -10973.9958 1456.1260 0.0000 0.0000 1776.4464 -7728.7479 298.9794 -9505.1943 -7701.0211 298.3895 -64.3068 -26.6573 30330.3915 142.6911 188.4446
ENERGY: 900000 0.8765 4.8036 7.1668 0.0000 -10993.2313 1530.3256 0.0000 0.0000 1788.5698 -7661.4889 301.0198 -9450.0588 -7680.0113 298.6143 359.3258 427.9038 30940.0814 117.7407 169.2795
ENERGY: 1200000 0.0778 4.5624 7.6141 0.0000 -10897.0104 1502.6421 0.0000 0.0000 1748.8556 -7633.2584 294.3358 -9382.1140 -7672.2734 298.6943 383.9732 411.3672 30769.3106 100.3888 153.0463
ENERGY: 1500000 0.7433 6.1486 8.4378 0.0000 -10857.9427 1407.1325 0.0000 0.0000 1827.4721 -7608.0083 307.5672 -9435.4805 -7669.1800 299.2541 -241.3744 -230.8379 30667.7521 130.4847 179.5993
TCL: Running FEP window   4: Lambda1 0.8499999999999999 Lambda2 0.7999999999999998 [dLambda -0.050000000000000044]
TCL: Setting parameter firsttimestep to 0
TCL: Setting parameter alchLambda to 0.8499999999999999
Info: NONBONDED TABLE R-SQUARED SPACING: 0.0625
Info: NONBONDED TABLE SIZE: 705 POINTS
TCL: Setting parameter alchLambda2 to 0.7999999999999998
Info: NONBONDED TABLE R-SQUARED SPACING: 0.0625
Info: NONBONDED TABLE SIZE: 705 POINTS
TCL: Running for 1500000 steps
ETITLE: TS BOND ANGLE DIHED IMPRP ELECT VDW BOUNDARY MISC KINETIC TOTAL TEMP POTENTIAL TOTALAVG TEMPAVG PRESSURE GPRESSURE VOLUME PRESSAVG GPRESSAVG
ENERGY: 0 0.7433 6.1486 8.4378 0.0000 -10855.2079 1405.3479 0.0000 0.0000 1826.5889 -7607.9414 307.4185 -9434.5303 -7607.9414 307.4185 -334.3936 -252.3404 30667.7521 -334.3936 -252.3404
ENERGY: 300000 0.6501 2.8417 7.6326 0.0000 -10834.6991 1431.4063 0.0000 0.0000 1783.5631 -7608.6052 300.1772 -9392.1684 -7607.8374 304.2840 41.8960 74.9682 30678.9304 100.2657 161.4456
ENERGY: 600000 0.2756 3.3194 7.0544 0.0000 -10908.5457 1369.7637 0.0000 0.0000 1793.3370 -7734.7956 301.8221 -9528.1325 -7635.2451 302.9720 -891.5002 -876.4810 30923.3814 -183.9910 -128.0354
ENERGY: 900000 0.5520 9.4917 7.7201 0.0000 -10991.3578 1498.9018 0.0000 0.0000 1797.6385 -7677.0536 302.5461 -9474.6922 -7665.8409 301.7594 358.3312 389.1642 30462.2847 -22.8609 33.7428
ENERGY: 1200000 1.2541 2.5483 7.2307 0.0000 -11059.9270 1537.5890 0.0000 0.0000 1794.6557 -7716.6492 302.0441 -9511.3049 -7667.0519 301.7979 347.6874 417.5806 30963.0143 62.3252 116.2041
ENERGY: 1500000 0.2373 5.2114 7.1499 0.0000 -10931.4592 1451.5673 0.0000 0.0000 1841.9487 -7625.3446 310.0036 -9467.2933 -7651.5695 302.2954 -124.1177 -20.2948 30550.7539 -7.8150 47.6444
TCL: Running FEP window   5: Lambda1 0.7999999999999998 Lambda2 0.7499999999999998 [dLambda -0.050000000000000044]
TCL: Setting parameter firsttimestep to 0
TCL: Setting parameter alchLambda to 0.7999999999999998
Info: NONBONDED TABLE R-SQUARED SPACING: 0.0625
Info: NONBONDED TABLE SIZE: 705 POINTS
TCL: Setting parameter alchLambda2 to 0.7499999999999998
Info: NONBONDED TABLE R-SQUARED SPACING: 0.0625
Info: NONBONDED TABLE SIZE: 705 POINTS
TCL: Running for 1500000 steps
ETITLE: TS BOND ANGLE DIHED IMPRP ELECT VDW BOUNDARY MISC KINETIC TOTAL TEMP POTENTIAL TOTALAVG TEMPAVG PRESSURE GPRESSURE VOLUME PRESSAVG GPRESSAVG
ENERGY: 0 0.2373 5.2114 7.1499 0.0000 -10929.7480 1451.2697 0.0000 0.0000 1841.0714 -7624.8083 309.8560 -9465.8797 -7624.8083 309.8560 -105.3940 -25.8266 30550.7539 -105.3940 -25.8266
ENERGY: 300000 1.2034 4.2929 8.7582 0.0000 -10925.2594 1521.6740 0.0000 0.0000 1813.8940 -7575.4369 305.2819 -9389.3310 -7625.7880 305.0904 813.0149 851.8654 30684.1705 159.4180 229.8787
ENERGY: 600000 1.7840 7.0859 7.2226 0.0000 -10782.7647 1329.9219 0.0000 0.0000 1780.9378 -7655.8125 299.7353 -9436.7504 -7642.8421 302.8205 -954.2828 -878.4119 30468.7483 -204.7123 -127.5944
ENERGY: 900000 0.9588 3.5409 10.5234 0.0000 -10772.5394 1334.8409 0.0000 0.0000 1785.5132 -7637.1622 300.5054 -9422.6753 -7628.6457 302.5617 -964.6933 -909.6311 30916.9694 -196.9318 -126.3518
ENERGY: 1200000 1.1112 2.3826 7.1247 0.0000 -10975.4190 1509.6068 0.0000 0.0000 1853.1139 -7602.0798 311.8827 -9455.1937 -7633.3000 304.0280 456.5543 503.9539 30666.0908 -122.0202 -61.1864
ENERGY: 1500000 0.4012 2.9284 7.3637 0.0000 -10924.8392 1444.2800 0.0000 0.0000 1735.3682 -7734.4977 292.0659 -9469.8659 -7649.4856 302.2874 -93.7021 -47.5691 30441.0094 -90.4625 -28.0440
TCL: Running FEP window   6: Lambda1 0.7499999999999998 Lambda2 0.6999999999999997 [dLambda -0.050000000000000044]
TCL: Setting parameter firsttimestep to 0
TCL: Setting parameter alchLambda to 0.7499999999999998
Info: NONBONDED TABLE R-SQUARED SPACING: 0.0625
Info: NONBONDED TABLE SIZE: 705 POINTS
TCL: Setting parameter alchLambda2 to 0.6999999999999997
Info: NONBONDED TABLE R-SQUARED SPACING: 0.0625
Info: NONBONDED TABLE SIZE: 705 POINTS
TCL: Running for 1500000 steps
ETITLE: TS BOND ANGLE DIHED IMPRP ELECT VDW BOUNDARY MISC KINETIC TOTAL TEMP POTENTIAL TOTALAVG TEMPAVG PRESSURE GPRESSURE VOLUME PRESSAVG GPRESSAVG
ENERGY: 0 0.4012 2.9284 7.3637 0.0000 -10922.4232 1443.3021 0.0000 0.0000 1734.5058 -7733.9220 291.9207 -9468.4278 -7733.9220 291.9207 -129.4458 -55.2663 30441.0094 -129.4458 -55.2663
ENERGY: 300000 0.9309 3.4988 6.3838 0.0000 -10822.5884 1443.5340 0.0000 0.0000 1771.5422 -7596.6987 298.1540 -9368.2410 -7706.6892 293.9583 48.5314 152.4134 30779.1721 67.7839 124.0353
ENERGY: 600000 0.8139 3.8074 7.4917 0.0000 -11045.6542 1486.0185 0.0000 0.0000 1816.8623 -7730.6605 305.7815 -9547.5228 -7703.9478 297.6630 -22.9761 79.5304 30488.6071 45.7322 109.0767
ENERGY: 900000 1.5448 3.2574 7.7814 0.0000 -11085.9180 1590.5295 0.0000 0.0000 1785.2351 -7697.5698 300.4586 -9482.8049 -7687.2396 298.4434 1061.9448 1123.9252 30458.4571 160.1909 219.0278
ENERGY: 1200000 1.8054 1.8905 7.0360 0.0000 -10864.1936 1418.0697 0.0000 0.0000 1870.3768 -7565.0153 314.7881 -9435.3921 -7678.0593 299.8130 -465.9677 -433.3522 31129.4053 100.6931 153.9409
ENERGY: 1500000 1.0291 1.1122 6.5537 0.0000 -10895.7020 1465.2001 0.0000 0.0000 1782.8467 -7638.9602 300.0566 -9421.8069 -7676.2697 299.3883 154.0306 185.2348 30762.4571 65.6580 123.4266
TCL: Running FEP window   7: Lambda1 0.6999999999999997 Lambda2 0.6499999999999997 [dLambda -0.050000000000000044]
TCL: Setting parameter firsttimestep to 0
TCL: Setting parameter alchLambda to 0.6999999999999997
Info: NONBONDED TABLE R-SQUARED SPACING: 0.0625
Info: NONBONDED TABLE SIZE: 705 POINTS
TCL: Setting parameter alchLambda2 to 0.6499999999999997
Info: NONBONDED TABLE R-SQUARED SPACING: 0.0625
Info: NONBONDED TABLE SIZE: 705 POINTS
TCL: Running for 1500000 steps
ETITLE: TS BOND ANGLE DIHED IMPRP ELECT VDW BOUNDARY MISC KINETIC TOTAL TEMP POTENTIAL TOTALAVG TEMPAVG PRESSURE GPRESSURE VOLUME PRESSAVG GPRESSAVG
ENERGY: 0 1.0291 1.1122 6.5537 0.0000 -10893.7870 1464.3284 0.0000 0.0000 1781.9491 -7638.8145 299.9055 -9420.7636 -7638.8145 299.9055 113.2513 178.0757 30762.4571 113.2513 178.0757
ENERGY: 300000 1.0156 5.6873 7.6837 0.0000 -10661.9094 1268.6997 0.0000 0.0000 1820.7570 -7558.0661 306.4370 -9378.8231 -7613.6137 301.3568 -1391.6633 -1391.6550 31216.9046 -351.6067 -311.4137
ENERGY: 600000 1.5751 3.0775 8.5318 0.0000 -10970.6963 1459.6464 0.0000 0.0000 1821.6862 -7676.1793 306.5934 -9497.8655 -7633.8849 299.6017 -35.0669 53.8918 30539.1563 -388.2308 -331.2848
ENERGY: 900000 0.4306 3.3389 6.9887 0.0000 -11020.6933 1470.8269 0.0000 0.0000 1807.3010 -7731.8072 304.1723 -9539.1082 -7674.3153 298.6691 -204.8650 -121.0862 30607.4029 -339.6055 -277.6607
ENERGY: 1200000 0.2315 3.7091 9.9337 0.0000 -10882.0971 1425.9091 0.0000 0.0000 1824.2236 -7618.0901 307.0204 -9442.3137 -7660.1508 299.7952 -214.2710 -135.6664 30522.6909 -288.1666 -223.5779
ENERGY: 1500000 4.4385 4.8355 7.0214 0.0000 -10953.6328 1478.3077 0.0000 0.0000 1783.1771 -7675.8526 300.1122 -9459.0297 -7655.9014 299.8260 340.5862 383.1656 30537.5306 -263.6475 -203.8951
TCL: Running FEP window   8: Lambda1 0.6499999999999997 Lambda2 0.5999999999999996 [dLambda -0.050000000000000044]
TCL: Setting parameter firsttimestep to 0
TCL: Setting parameter alchLambda to 0.6499999999999997
Info: NONBONDED TABLE R-SQUARED SPACING: 0.0625
Info: NONBONDED TABLE SIZE: 705 POINTS
TCL: Setting parameter alchLambda2 to 0.5999999999999996
Info: NONBONDED TABLE R-SQUARED SPACING: 0.0625
Info: NONBONDED TABLE SIZE: 705 POINTS
TCL: Running for 1500000 steps
ETITLE: TS BOND ANGLE DIHED IMPRP ELECT VDW BOUNDARY MISC KINETIC TOTAL TEMP POTENTIAL TOTALAVG TEMPAVG PRESSURE GPRESSURE VOLUME PRESSAVG GPRESSAVG
ENERGY: 0 4.4385 4.8355 7.0214 0.0000 -10952.7687 1478.2416 0.0000 0.0000 1782.2751 -7675.9565 299.9604 -9458.2317 -7675.9565 299.9604 293.5272 377.3218 30537.5306 293.5272 377.3218
ENERGY: 300000 3.2374 1.9649 7.4703 0.0000 -10815.9763 1369.7019 0.0000 0.0000 1858.3536 -7575.2483 312.7646 -9433.6018 -7614.4520 304.4863 -574.7983 -493.2395 30675.6764 105.5885 147.6868
ENERGY: 600000 0.2312 2.5820 8.3436 0.0000 -10965.5013 1476.2368 0.0000 0.0000 1775.9300 -7702.1776 298.8925 -9478.1076 -7656.7001 301.7184 -54.0585 33.1113 30465.7285 107.9856 158.4831
ENERGY: 900000 0.1599 2.4336 7.1476 0.0000 -11030.4078 1491.2140 0.0000 0.0000 1854.5631 -7674.8897 312.1266 -9529.4528 -7656.7894 303.1099 171.0925 200.3764 30326.1741 258.1808 294.9815
ENERGY: 1200000 0.7068 6.2076 8.0649 0.0000 -10907.2756 1432.2180 0.0000 0.0000 1818.0841 -7641.9943 305.9871 -9460.0783 -7652.2332 302.8748 -347.3152 -254.5709 30731.9484 191.0776 238.3668
ENERGY: 1500000 1.4328 1.7194 7.1959 0.0000 -10943.1219 1465.5576 0.0000 0.0000 1778.7538 -7688.4624 299.3678 -9467.2162 -7642.9268 302.8901 -20.5282 56.0829 30724.0556 137.6161 189.0328
TCL: Running FEP window   9: Lambda1 0.5999999999999996 Lambda2 0.5499999999999996 [dLambda -0.050000000000000044]
TCL: Setting parameter firsttimestep to 0
TCL: Setting parameter alchLambda to 0.5999999999999996
Info: NONBONDED TABLE R-SQUARED SPACING: 0.0625
Info: NONBONDED TABLE SIZE: 705 POINTS
TCL: Setting parameter alchLambda2 to 0.5499999999999996
Info: NONBONDED TABLE R-SQUARED SPACING: 0.0625
Info: NONBONDED TABLE SIZE: 705 POINTS
TCL: Running for 1500000 steps
ETITLE: TS BOND ANGLE DIHED IMPRP ELECT VDW BOUNDARY MISC KINETIC TOTAL TEMP POTENTIAL TOTALAVG TEMPAVG PRESSURE GPRESSURE VOLUME PRESSAVG GPRESSAVG
ENERGY: 0 1.4328 1.7194 7.1959 0.0000 -10942.2709 1465.6235 0.0000 0.0000 1777.8539 -7688.4454 299.2163 -9466.2993 -7688.4454 299.2163 -26.5784 55.7274 30724.0556 -26.5784 55.7274
ENERGY: 300000 3.6771 2.1354 8.0674 0.0000 -11001.9818 1517.5002 0.0000 0.0000 1823.5510 -7647.0507 306.9072 -9470.6018 -7668.8177 299.5469 506.0193 575.6643 30660.2103 -167.8155 -91.7873
ENERGY: 600000 0.6107 4.8506 6.9168 0.0000 -10871.6977 1434.3539 0.0000 0.0000 1786.4652 -7638.5005 300.6656 -9424.9658 -7651.4287 299.5169 -258.8293 -115.8511 30902.3533 -225.6030 -140.7623
ENERGY: 900000 4.9239 7.0218 8.2362 0.0000 -10799.5201 1403.4635 0.0000 0.0000 1758.0466 -7617.8281 295.8827 -9375.8748 -7646.1398 300.1560 -297.9248 -308.3763 30911.4259 -51.4923 13.6044
ENERGY: 1200000 0.6068 4.1385 6.9481 0.0000 -10976.1273 1470.8895 0.0000 0.0000 1746.9687 -7746.5757 294.0183 -9493.5444 -7660.9355 298.8621 -11.5158 45.6272 30627.6149 -4.6055 55.0841
ENERGY: 1500000 0.2875 2.1127 8.4538 0.0000 -11003.5465 1497.6945 0.0000 0.0000 1850.6063 -7644.3917 311.4607 -9494.9980 -7670.9804 298.7626 300.4212 347.7882 30375.4866 54.5156 118.3645
TCL: Running FEP window  10: Lambda1 0.5499999999999996 Lambda2 0.4999999999999996 [dLambda -0.04999999999999999]
TCL: Setting parameter firsttimestep to 0
TCL: Setting parameter alchLambda to 0.5499999999999996
Info: NONBONDED TABLE R-SQUARED SPACING: 0.0625
Info: NONBONDED TABLE SIZE: 705 POINTS
TCL: Setting parameter alchLambda2 to 0.4999999999999996
Info: NONBONDED TABLE R-SQUARED SPACING: 0.0625
Info: NONBONDED TABLE SIZE: 705 POINTS
TCL: Running for 1500000 steps
ETITLE: TS BOND ANGLE DIHED IMPRP ELECT VDW BOUNDARY MISC KINETIC TOTAL TEMP POTENTIAL TOTALAVG TEMPAVG PRESSURE GPRESSURE VOLUME PRESSAVG GPRESSAVG
ENERGY: 0 0.2875 2.1127 8.4538 0.0000 -11002.0398 1497.6302 0.0000 0.0000 1849.7072 -7643.8485 311.3094 -9493.5557 -7643.8485 311.3094 281.3761 347.0803 30375.4866 281.3761 347.0803
ENERGY: 300000 3.4349 3.9484 7.0672 0.0000 -10965.4697 1517.5148 0.0000 0.0000 1796.6217 -7636.8828 302.3750 -9433.5045 -7625.6864 304.1452 673.5662 716.0861 30653.0483 76.7800 140.0285
ENERGY: 600000 0.2383 4.7509 7.2661 0.0000 -10905.5633 1478.5245 0.0000 0.0000 1812.1782 -7602.6053 304.9932 -9414.7834 -7601.7608 305.1089 275.0592 370.5781 30384.9618 62.8496 128.0266
ENERGY: 900000 3.1575 3.2647 7.5200 0.0000 -10930.7242 1498.5603 0.0000 0.0000 1799.2507 -7618.9711 302.8174 -9418.2218 -7616.1226 303.9198 451.2123 545.6646 30487.9446 -2.1858 54.2901
ENERGY: 1200000 0.7295 1.6236 8.0553 0.0000 -10898.5247 1449.7757 0.0000 0.0000 1789.8608 -7648.4798 301.2371 -9438.3406 -7630.4602 302.9752 -165.1405 -71.8145 30883.0455 -96.5516 -34.9365
ENERGY: 1500000 0.4442 3.6878 7.5795 0.0000 -10793.2126 1370.8665 0.0000 0.0000 1748.9218 -7661.7128 294.3470 -9410.6345 -7628.5939 302.4321 -550.5507 -513.5655 30823.5691 -167.6717 -106.3432
TCL: Running FEP window  11: Lambda1 0.4999999999999996 Lambda2 0.4499999999999996 [dLambda -0.04999999999999999]
TCL: Setting parameter firsttimestep to 0
TCL: Setting parameter alchLambda to 0.4999999999999996
Info: NONBONDED TABLE R-SQUARED SPACING: 0.0625
Info: NONBONDED TABLE SIZE: 705 POINTS
TCL: Setting parameter alchLambda2 to 0.4499999999999996
Info: NONBONDED TABLE R-SQUARED SPACING: 0.0625
Info: NONBONDED TABLE SIZE: 705 POINTS
TCL: Running for 1500000 steps
ETITLE: TS BOND ANGLE DIHED IMPRP ELECT VDW BOUNDARY MISC KINETIC TOTAL TEMP POTENTIAL TOTALAVG TEMPAVG PRESSURE GPRESSURE VOLUME PRESSAVG GPRESSAVG
ENERGY: 0 0.4442 3.6878 7.5795 0.0000 -10791.8190 1370.5397 0.0000 0.0000 1748.0207 -7661.5470 294.1953 -9409.5677 -7661.5470 294.1953 -595.9707 -517.5661 30823.5691 -595.9707 -517.5661
ENERGY: 300000 1.5559 7.7739 7.1461 0.0000 -10854.9837 1387.4606 0.0000 0.0000 1850.0155 -7601.0317 311.3612 -9451.0472 -7646.0895 301.3857 -235.5696 -195.8583 30375.8356 -195.6149 -138.4508
ENERGY: 600000 0.5857 2.3767 7.4474 0.0000 -10925.4411 1504.6308 0.0000 0.0000 1827.7890 -7582.6114 307.6205 -9410.4005 -7635.6541 301.3956 590.3526 642.3385 30509.8957 188.5219 241.5752
ENERGY: 900000 0.7044 1.7743 7.9057 0.0000 -11027.9237 1486.4591 0.0000 0.0000 1763.9933 -7767.0868 296.8836 -9531.0802 -7648.5314 299.8912 39.3849 66.8766 30390.6519 123.5366 170.4342
ENERGY: 1200000 0.5987 6.5209 8.0360 0.0000 -10851.3871 1409.8487 0.0000 0.0000 1788.9369 -7637.4459 301.0816 -9426.3828 -7635.2029 301.0255 -481.3768 -415.0793 31097.8107 56.3667 102.7262
ENERGY: 1500000 2.5149 2.7909 7.3508 0.0000 -10827.8994 1420.7637 0.0000 0.0000 1775.4904 -7618.9888 298.8185 -9394.4792 -7644.7378 300.4771 -238.3083 -167.8245 31151.4570 -17.7247 34.4410
TCL: Running FEP window  12: Lambda1 0.4499999999999996 Lambda2 0.39999999999999963 [dLambda -0.04999999999999999]
TCL: Setting parameter firsttimestep to 0
TCL: Setting parameter alchLambda to 0.4499999999999996
Info: NONBONDED TABLE R-SQUARED SPACING: 0.0625
Info: NONBONDED TABLE SIZE: 705 POINTS
TCL: Setting parameter alchLambda2 to 0.39999999999999963
Info: NONBONDED TABLE R-SQUARED SPACING: 0.0625
Info: NONBONDED TABLE SIZE: 705 POINTS
TCL: Running for 1500000 steps
ETITLE: TS BOND ANGLE DIHED IMPRP ELECT VDW BOUNDARY MISC KINETIC TOTAL TEMP POTENTIAL TOTALAVG TEMPAVG PRESSURE GPRESSURE VOLUME PRESSAVG GPRESSAVG
ENERGY: 0 2.5149 2.7909 7.3508 0.0000 -10827.9007 1420.7877 0.0000 0.0000 1774.6284 -7619.8281 298.6735 -9394.4565 -7619.8281 298.6735 -261.5847 -170.2127 31151.4570 -261.5847 -170.2127
ENERGY: 300000 2.3329 4.0536 7.1865 0.0000 -10907.6751 1500.7778 0.0000 0.0000 1809.6411 -7583.6833 304.5662 -9393.3243 -7633.7087 301.1154 667.4484 640.0067 30328.1718 229.0914 266.9752
ENERGY: 600000 1.4801 5.5357 8.4590 0.0000 -11021.2887 1516.3872 0.0000 0.0000 1756.2968 -7733.1300 295.5882 -9489.4268 -7651.3086 300.4738 273.2579 328.1990 30597.8553 241.0796 277.9770
ENERGY: 900000 1.8609 2.2328 9.1466 0.0000 -10927.3887 1490.4693 0.0000 0.0000 1755.2357 -7668.4435 295.4096 -9423.6791 -7656.0363 299.5938 -69.7169 -5.3603 31383.8893 163.2699 206.6699
ENERGY: 1200000 0.9306 5.1836 7.2392 0.0000 -10766.5784 1379.5593 0.0000 0.0000 1778.3263 -7595.3394 299.2958 -9373.6657 -7647.1132 301.0230 -265.0703 -245.7845 30430.0057 47.1309 90.6340
ENERGY: 1500000 0.7202 5.8152 8.6520 0.0000 -10834.3942 1396.3910 0.0000 0.0000 1881.0919 -7541.7239 316.5915 -9422.8158 -7639.8371 302.5304 -395.6590 -376.5232 30717.3155 16.0429 58.9016
TCL: Running FEP window  13: Lambda1 0.39999999999999963 Lambda2 0.34999999999999964 [dLambda -0.04999999999999999]
TCL: Setting parameter firsttimestep to 0
TCL: Setting parameter alchLambda to 0.39999999999999963
Info: NONBONDED TABLE R-SQUARED SPACING: 0.0625
Info: NONBONDED TABLE SIZE: 705 POINTS
TCL: Setting parameter alchLambda2 to 0.34999999999999964
Info: NONBONDED TABLE R-SQUARED SPACING: 0.0625
Info: NONBONDED TABLE SIZE: 705 POINTS
TCL: Running for 1500000 steps
ETITLE: TS BOND ANGLE DIHED IMPRP ELECT VDW BOUNDARY MISC KINETIC TOTAL TEMP POTENTIAL TOTALAVG TEMPAVG PRESSURE GPRESSURE VOLUME PRESSAVG GPRESSAVG
ENERGY: 0 0.7202 5.8152 8.6520 0.0000 -10834.3939 1396.1242 0.0000 0.0000 1880.2282 -7542.8541 316.4461 -9423.0823 -7542.8541 316.4461 -450.6776 -381.7124 30717.3155 -450.6776 -381.7124
ENERGY: 300000 1.8981 4.0227 7.8597 0.0000 -10739.9917 1346.2388 0.0000 0.0000 1803.1872 -7576.7852 303.4800 -9379.9724 -7611.7502 304.1645 -746.0792 -667.4435 30783.2000 -242.2454 -165.2849
ENERGY: 600000 0.5731 2.2491 7.6290 0.0000 -10825.8270 1391.4613 0.0000 0.0000 1758.7673 -7665.1472 296.0040 -9423.9145 -7617.9734 302.6449 -706.1936 -635.9184 31203.4168 -256.2531 -179.9266
ENERGY: 900000 2.7680 3.4154 8.1937 0.0000 -10856.6854 1460.9744 0.0000 0.0000 1847.4441 -7533.8898 310.9285 -9381.3339 -7620.2016 302.5143 131.4541 237.1515 30608.1714 -93.1349 -10.3449
ENERGY: 1200000 0.2861 5.4050 7.6793 0.0000 -10906.6225 1477.9432 0.0000 0.0000 1803.9901 -7611.3188 303.6151 -9415.3089 -7622.9990 302.7452 299.1487 343.8524 30752.8209 -78.1662 -4.2653
ENERGY: 1500000 0.7692 2.0319 7.3004 0.0000 -10952.8012 1429.3132 0.0000 0.0000 1775.8098 -7737.5767 298.8723 -9513.3866 -7636.6012 302.1480 -337.9185 -376.6962 30456.3099 -77.6853 -18.0720
TCL: Running FEP window  14: Lambda1 0.34999999999999964 Lambda2 0.29999999999999966 [dLambda -0.04999999999999999]
TCL: Setting parameter firsttimestep to 0
TCL: Setting parameter alchLambda to 0.34999999999999964
Info: NONBONDED TABLE R-SQUARED SPACING: 0.0625
Info: NONBONDED TABLE SIZE: 705 POINTS
TCL: Setting parameter alchLambda2 to 0.29999999999999966
Info: NONBONDED TABLE R-SQUARED SPACING: 0.0625
Info: NONBONDED TABLE SIZE: 705 POINTS
TCL: Running for 1500000 steps
ETITLE: TS BOND ANGLE DIHED IMPRP ELECT VDW BOUNDARY MISC KINETIC TOTAL TEMP POTENTIAL TOTALAVG TEMPAVG PRESSURE GPRESSURE VOLUME PRESSAVG GPRESSAVG
ENERGY: 0 0.7692 2.0319 7.3004 0.0000 -10952.8002 1429.0313 0.0000 0.0000 1774.9403 -7738.7272 298.7259 -9513.6675 -7738.7272 298.7259 -438.4378 -380.2545 30456.3099 -438.4378 -380.2545
ENERGY: 300000 0.4274 3.2157 7.0238 0.0000 -10889.5149 1445.8624 0.0000 0.0000 1827.3442 -7605.6414 307.5456 -9432.9856 -7652.7404 302.2631 -245.9261 -161.4671 31044.5600 -211.2397 -137.9500
ENERGY: 600000 2.3525 6.0541 8.4249 0.0000 -10821.5104 1428.0936 0.0000 0.0000 1828.6471 -7547.9381 307.7649 -9376.5852 -7633.5329 303.1584 330.1704 372.8563 30042.5397 -141.2084 -76.3383
ENERGY: 900000 0.3015 5.1114 6.6642 0.0000 -11062.2966 1534.9520 0.0000 0.0000 1733.9016 -7781.3659 291.8191 -9515.2674 -7638.3024 302.9641 291.3543 335.3644 30694.6203 -75.5812 -13.7397
ENERGY: 1200000 0.6045 4.4023 8.3732 0.0000 -10858.1195 1455.3811 0.0000 0.0000 1814.2951 -7575.0633 305.3494 -9389.3584 -7633.5125 302.5928 -75.4547 -0.1657 30718.3952 -85.2044 -16.2279
ENERGY: 1500000 5.6412 7.8714 8.0487 0.0000 -10820.5849 1362.8528 0.0000 0.0000 1786.8400 -7649.3308 300.7287 -9436.1708 -7646.3016 300.9401 -721.1986 -634.3786 30629.8202 -160.5943 -92.3643
TCL: Running FEP window  15: Lambda1 0.29999999999999966 Lambda2 0.24999999999999967 [dLambda -0.04999999999999999]
TCL: Setting parameter firsttimestep to 0
TCL: Setting parameter alchLambda to 0.29999999999999966
Info: NONBONDED TABLE R-SQUARED SPACING: 0.0625
Info: NONBONDED TABLE SIZE: 705 POINTS
TCL: Setting parameter alchLambda2 to 0.24999999999999967
Info: NONBONDED TABLE R-SQUARED SPACING: 0.0625
Info: NONBONDED TABLE SIZE: 705 POINTS
TCL: Running for 1500000 steps
ETITLE: TS BOND ANGLE DIHED IMPRP ELECT VDW BOUNDARY MISC KINETIC TOTAL TEMP POTENTIAL TOTALAVG TEMPAVG PRESSURE GPRESSURE VOLUME PRESSAVG GPRESSAVG
ENERGY: 0 5.6412 7.8714 8.0487 0.0000 -10820.5859 1363.0156 0.0000 0.0000 1785.9636 -7650.0454 300.5812 -9436.0090 -7650.0454 300.5812 -721.3616 -635.1853 30629.8202 -721.3616 -635.1853
ENERGY: 300000 1.3591 3.0713 9.3476 0.0000 -10793.0642 1393.3869 0.0000 0.0000 1775.7798 -7610.1195 298.8672 -9385.8994 -7639.3129 299.1393 -430.8919 -431.8305 31033.3858 -170.2263 -130.8688
ENERGY: 600000 1.2225 4.4192 7.1797 0.0000 -10985.5800 1538.9400 0.0000 0.0000 1823.2415 -7610.5771 306.8551 -9433.8185 -7640.5497 300.7592 490.0209 625.5941 30513.9222 137.0603 200.2212
ENERGY: 900000 3.2653 3.7231 8.8737 0.0000 -11040.2102 1570.0498 0.0000 0.0000 1740.4275 -7713.8707 292.9174 -9454.2983 -7646.1331 300.2050 1127.0327 1208.6217 30285.4977 104.1589 169.5623
ENERGY: 1200000 0.2483 1.8248 9.7575 0.0000 -10901.9948 1513.1741 0.0000 0.0000 1785.0863 -7591.9039 300.4335 -9376.9902 -7631.6523 301.2234 806.4190 884.6374 30235.9604 134.4791 193.4712
ENERGY: 1500000 1.8352 3.0211 7.5024 0.0000 -10902.6219 1483.0067 0.0000 0.0000 1815.1907 -7592.0659 305.5002 -9407.2565 -7628.1758 301.1705 258.9362 353.1811 30610.8537 94.3248 154.1228
TCL: Running FEP window  16: Lambda1 0.24999999999999967 Lambda2 0.19999999999999968 [dLambda -0.04999999999999999]
TCL: Setting parameter firsttimestep to 0
TCL: Setting parameter alchLambda to 0.24999999999999967
Info: NONBONDED TABLE R-SQUARED SPACING: 0.0625
Info: NONBONDED TABLE SIZE: 705 POINTS
TCL: Setting parameter alchLambda2 to 0.19999999999999968
Info: NONBONDED TABLE R-SQUARED SPACING: 0.0625
Info: NONBONDED TABLE SIZE: 705 POINTS
TCL: Running for 1500000 steps
ETITLE: TS BOND ANGLE DIHED IMPRP ELECT VDW BOUNDARY MISC KINETIC TOTAL TEMP POTENTIAL TOTALAVG TEMPAVG PRESSURE GPRESSURE VOLUME PRESSAVG GPRESSAVG
ENERGY: 0 1.8352 3.0211 7.5024 0.0000 -10902.6225 1483.2299 0.0000 0.0000 1814.3002 -7592.7338 305.3503 -9407.0341 -7592.7338 305.3503 247.0814 351.3710 30610.8537 247.0814 351.3710
ENERGY: 300000 0.3505 5.8668 8.4285 0.0000 -10819.3464 1423.6776 0.0000 0.0000 1787.7107 -7593.3122 300.8752 -9381.0229 -7617.5700 303.5728 -285.8422 -211.2385 30958.4676 89.0800 178.6649
ENERGY: 600000 2.5832 2.6578 8.0192 0.0000 -10907.0666 1474.7136 0.0000 0.0000 1785.3308 -7633.7620 300.4747 -9419.0928 -7614.8645 302.6099 152.7923 287.5414 30581.5466 112.9423 192.9629
ENERGY: 900000 0.7665 2.1094 7.1705 0.0000 -10791.3063 1364.6390 0.0000 0.0000 1749.2284 -7667.3926 294.3986 -9416.6210 -7634.9860 301.1039 -654.0353 -611.7037 30659.4402 34.6684 116.2338
ENERGY: 1200000 0.8132 3.0961 7.9622 0.0000 -10884.9681 1441.1917 0.0000 0.0000 1759.6243 -7672.2806 296.1482 -9431.9049 -7639.8600 300.7054 -51.1702 34.8875 30336.5280 -8.9882 73.5035
ENERGY: 1500000 2.1921 6.5555 7.2215 0.0000 -10977.2581 1488.2940 0.0000 0.0000 1776.3584 -7696.6367 298.9646 -9472.9950 -7644.6861 300.0276 -14.0765 72.1572 30741.6347 -3.7885 75.5336
TCL: Running FEP window  17: Lambda1 0.19999999999999968 Lambda2 0.1499999999999997 [dLambda -0.04999999999999999]
TCL: Setting parameter firsttimestep to 0
TCL: Setting parameter alchLambda to 0.19999999999999968
Info: NONBONDED TABLE R-SQUARED SPACING: 0.0625
Info: NONBONDED TABLE SIZE: 705 POINTS
TCL: Setting parameter alchLambda2 to 0.1499999999999997
Info: NONBONDED TABLE R-SQUARED SPACING: 0.0625
Info: NONBONDED TABLE SIZE: 705 POINTS
TCL: Running for 1500000 steps
ETITLE: TS BOND ANGLE DIHED IMPRP ELECT VDW BOUNDARY MISC KINETIC TOTAL TEMP POTENTIAL TOTALAVG TEMPAVG PRESSURE GPRESSURE VOLUME PRESSAVG GPRESSAVG
ENERGY: 0 2.1921 6.5556 7.2215 0.0000 -10977.2572 1488.1753 0.0000 0.0000 1775.4967 -7697.6160 298.8196 -9473.1127 -7697.6160 298.8196 -4.4101 69.3436 30741.6347 -4.4101 69.3436
ENERGY: 300000 0.3001 4.3113 6.9454 0.0000 -10928.1901 1552.9038 0.0000 0.0000 1773.0739 -7590.6556 298.4118 -9363.7295 -7595.8728 304.4219 657.2606 709.0841 31094.6334 236.5402 308.4584
ENERGY: 600000 0.0788 3.9642 6.5271 0.0000 -10933.1803 1490.2213 0.0000 0.0000 1760.3123 -7672.0766 296.2640 -9432.3889 -7629.6304 301.1223 136.4010 207.1093 30720.4122 125.1406 185.3675
ENERGY: 900000 0.4379 4.4466 6.9056 0.0000 -10793.4876 1377.4675 0.0000 0.0000 1795.0755 -7609.1545 302.1147 -9404.2300 -7641.1880 299.6353 -807.2213 -737.4033 31024.0104 34.5406 94.7667
ENERGY: 1200000 1.1142 5.1391 7.4807 0.0000 -10883.5935 1469.5607 0.0000 0.0000 1845.0745 -7555.2243 310.5297 -9400.2989 -7636.4779 299.6010 47.8211 158.7266 30949.2726 126.7056 186.9880
ENERGY: 1500000 0.3797 2.8272 8.5408 0.0000 -10921.9859 1486.4622 0.0000 0.0000 1786.6953 -7637.0807 300.7043 -9423.7760 -7633.0040 299.5968 71.9506 120.4315 30696.3210 108.0601 169.9799
TCL: Running FEP window  18: Lambda1 0.1499999999999997 Lambda2 0.09999999999999969 [dLambda -0.05 ]
TCL: Setting parameter firsttimestep to 0
TCL: Setting parameter alchLambda to 0.1499999999999997
Info: NONBONDED TABLE R-SQUARED SPACING: 0.0625
Info: NONBONDED TABLE SIZE: 705 POINTS
TCL: Setting parameter alchLambda2 to 0.09999999999999969
Info: NONBONDED TABLE R-SQUARED SPACING: 0.0625
Info: NONBONDED TABLE SIZE: 705 POINTS
TCL: Running for 1500000 steps
ETITLE: TS BOND ANGLE DIHED IMPRP ELECT VDW BOUNDARY MISC KINETIC TOTAL TEMP POTENTIAL TOTALAVG TEMPAVG PRESSURE GPRESSURE VOLUME PRESSAVG GPRESSAVG
ENERGY: 0 0.3797 2.8272 8.5408 0.0000 -10921.9853 1486.7686 0.0000 0.0000 1785.7712 -7637.6977 300.5488 -9423.4689 -7637.6977 300.5488 35.7899 119.6512 30696.3210 35.7899 119.6512
ENERGY: 300000 1.2646 2.2666 6.5065 0.0000 -10836.7664 1432.8903 0.0000 0.0000 1754.8130 -7639.0252 295.3385 -9393.8383 -7663.0975 295.7330 -319.5635 -269.9181 31101.3342 -170.8150 -85.7331
ENERGY: 600000 1.1703 4.2336 8.8689 0.0000 -10891.8405 1504.8721 0.0000 0.0000 1796.9832 -7575.7124 302.4358 -9372.6956 -7651.1807 299.6407 318.4985 324.4410 31231.5693 -198.9368 -135.1852
ENERGY: 900000 0.3939 2.5182 6.7233 0.0000 -10929.2494 1474.5349 0.0000 0.0000 1778.7385 -7666.3406 299.3652 -9445.0792 -7654.0946 299.5436 -111.8895 -40.0694 31062.3304 -22.3235 40.5584
ENERGY: 1200000 0.3190 2.7935 7.1763 0.0000 -10823.6202 1372.0281 0.0000 0.0000 1713.5474 -7727.7559 288.3934 -9441.3034 -7646.1475 299.4267 -991.2691 -923.4663 30961.8771 -121.0903 -57.7258
ENERGY: 1500000 0.3634 3.5853 9.7516 0.0000 -11071.5383 1590.6166 0.0000 0.0000 1871.8290 -7595.3924 315.0325 -9467.2215 -7638.9164 300.6392 923.0123 954.9314 30583.2266 -23.8256 36.0599
TCL: Running FEP window  19: Lambda1 0.09999999999999969 Lambda2 0.049999999999999684 [dLambda -0.05 ]
TCL: Setting parameter firsttimestep to 0
TCL: Setting parameter alchLambda to 0.09999999999999969
Info: NONBONDED TABLE R-SQUARED SPACING: 0.0625
Info: NONBONDED TABLE SIZE: 705 POINTS
TCL: Setting parameter alchLambda2 to 0.049999999999999684
Info: NONBONDED TABLE R-SQUARED SPACING: 0.0625
Info: NONBONDED TABLE SIZE: 705 POINTS
TCL: Running for 1500000 steps
ETITLE: TS BOND ANGLE DIHED IMPRP ELECT VDW BOUNDARY MISC KINETIC TOTAL TEMP POTENTIAL TOTALAVG TEMPAVG PRESSURE GPRESSURE VOLUME PRESSAVG GPRESSAVG
ENERGY: 0 0.3634 3.5853 9.7516 0.0000 -11071.5387 1590.6547 0.0000 0.0000 1870.9702 -7596.2136 314.8880 -9467.1837 -7596.2136 314.8880 858.2845 951.9974 30583.2266 858.2845 951.9974
ENERGY: 300000 0.8326 4.8258 6.9011 0.0000 -10902.8533 1419.7477 0.0000 0.0000 1848.8828 -7621.6632 311.1706 -9470.5461 -7649.4720 303.0892 -271.1808 -195.0062 30213.1456 -293.8088 -216.9704
ENERGY: 600000 2.7110 1.4723 7.5232 0.0000 -10909.6868 1533.6805 0.0000 0.0000 1782.9038 -7581.3959 300.0662 -9364.2997 -7647.9890 301.3819 869.8953 868.0082 30429.7093 -72.7519 -8.0659
ENERGY: 900000 0.1191 4.6022 7.7930 0.0000 -10931.9095 1475.5206 0.0000 0.0000 1750.5699 -7693.3048 294.6244 -9443.8747 -7640.8397 301.5895 -248.8811 -150.2091 31037.0905 -198.7416 -128.1734
ENERGY: 1200000 0.0811 2.2383 6.9252 0.0000 -10841.2298 1424.9735 0.0000 0.0000 1781.5283 -7625.4833 299.8347 -9407.0116 -7643.6261 300.9164 -401.5688 -299.2282 30986.9892 -280.3915 -211.3172
ENERGY: 1500000 0.9285 3.1093 8.2692 0.0000 -10868.6249 1437.9199 0.0000 0.0000 1777.1177 -7641.2803 299.0924 -9418.3979 -7643.4131 300.4581 43.9036 50.9769 30325.4703 -233.0657 -165.9670
TCL: Running FEP window  20: Lambda1 0.049999999999999684 Lambda2 0.0    [dLambda -0.049999999999999684]
TCL: Setting parameter firsttimestep to 0
TCL: Setting parameter alchLambda to 0.049999999999999684
Info: NONBONDED TABLE R-SQUARED SPACING: 0.0625
Info: NONBONDED TABLE SIZE: 705 POINTS
TCL: Setting parameter alchLambda2 to 0.0
Info: NONBONDED TABLE R-SQUARED SPACING: 0.0625
Info: NONBONDED TABLE SIZE: 705 POINTS
TCL: Running for 1500000 steps
ETITLE: TS BOND ANGLE DIHED IMPRP ELECT VDW BOUNDARY MISC KINETIC TOTAL TEMP POTENTIAL TOTALAVG TEMPAVG PRESSURE GPRESSURE VOLUME PRESSAVG GPRESSAVG
ENERGY: 0 0.9285 3.1093 8.2692 0.0000 -10868.6247 1436.8271 0.0000 0.0000 1776.2361 -7643.2545 298.9440 -9419.4905 -7643.2545 298.9440 -18.9660 46.8839 30325.4703 -18.9660 46.8839
ENERGY: 300000 1.5934 2.7443 7.2467 0.0000 -10999.7913 1547.8397 0.0000 0.0000 1763.4701 -7676.8971 296.7955 -9440.3672 -7682.4994 295.8242 513.4333 645.9831 30763.3829 250.2655 325.9978
ENERGY: 600000 1.8241 3.8891 7.0379 0.0000 -10798.3658 1386.7459 0.0000 0.0000 1792.2200 -7606.6488 301.6342 -9398.8688 -7652.6232 299.3721 -341.9554 -326.7540 30516.4621 101.2693 167.9135
ENERGY: 900000 1.9087 2.6453 7.2734 0.0000 -10959.5368 1474.9919 0.0000 0.0000 1748.5942 -7724.1233 294.2919 -9472.7175 -7671.9383 298.3083 -230.1179 -150.1019 30932.2332 14.1801 83.7235
ENERGY: 1200000 0.7056 5.8181 9.3773 0.0000 -10912.0501 1442.7341 0.0000 0.0000 1854.4746 -7598.9404 312.1117 -9453.4150 -7665.6129 298.8934 -153.9933 -96.2044 30853.2718 -10.8879 62.2986
ENERGY: 1500000 0.7773 2.1852 6.8932 0.0000 -10934.4178 1484.6023 0.0000 0.0000 1834.4395 -7605.5203 308.7398 -9439.9598 -7659.7780 300.1476 -30.5530 86.8533 31010.6811 -11.2876 62.9400
TCL: Exiting due to exit command.
