Info: SIMULATION PARAMETERS:
Info: TIMESTEP               2
Info: NUMBER OF STEPS        0
Info: STEPS PER CYCLE        10
Info: PERIODIC CELL BASIS 1  31.769 0 0
Info: PERIODIC CELL BASIS 2  0 30.5006 0
Info: PERIODIC CELL BASIS 3  0 0 31.5513
Info: PERIODIC CELL CENTER   0 0 0
Info: WRAPPING WATERS AROUND PERIODIC BOUNDARIES ON OUTPUT.
Info: WRAPPING ALL CLUSTERS AROUND PERIODIC BOUNDARIES ON OUTPUT.
Info: FIRST LDB TIMESTEP     50
Info: LAST LDB TIMESTEP     -1
Info: HOM BACKGROUND SCALING 1
Info: PME BACKGROUND SCALING 1
Info: MIN ATOMS PER PATCH    40
Info: EMPTY PATCH LOAD       40 ATOMS
Info: VELOCITY FILE          mobley_1838110_equil.vel
Info: CENTER OF MASS MOVING INITIALLY? NO
Info: DIELECTRIC             1
Info: EXCLUDE                SCALED ONE-FOUR
Info: 1-4 ELECTROSTATICS SCALED BY 0.833333
Info: MODIFIED 1-4 VDW PARAMETERS WILL BE USED
Info: DCD FILENAME           mobley_1838110_prod.dcd
Info: DCD FREQUENCY          100000
Info: DCD FIRST STEP         100000
Info: DCD FILE WILL CONTAIN UNIT CELL DATA
Info: XST FILENAME           mobley_1838110_prod.xst
Info: XST FREQUENCY          100000
Info: NO VELOCITY DCD OUTPUT
Info: NO FORCE DCD OUTPUT
Info: OUTPUT FILENAME        mobley_1838110_prod
Info: BINARY OUTPUT FILES WILL BE USED
Info: RESTART FILENAME       mobley_1838110_prod.restart
Info: RESTART FREQUENCY      100000
Info: BINARY RESTART FILES WILL BE USED
Info: CUTOFF                 9
Info: PAIRLIST DISTANCE      11
Info: PAIRLIST SHRINK RATE   0.01
Info: PAIRLIST GROW RATE     0.01
Info: PAIRLIST TRIGGER       0.3
Info: PAIRLISTS PER CYCLE    2
Info: PAIRLISTS ENABLED
Info: MARGIN                 2
Info: HYDROGEN GROUP CUTOFF  2.5
Info: PATCH DIMENSION        15.5
Info: ENERGY OUTPUT STEPS    100000
Info: ENERGY EVALUATION STEPS    100000
Info: OUTPUT ENERGY PRECISION 4
Info: CROSSTERM ENERGY INCLUDED IN DIHEDRAL
Info: TIMING OUTPUT STEPS    1000000
Info: PRESSURE OUTPUT STEPS  100000
Info: ALCHEMICAL FEP ON
Info: FEP CURRENT LAMBDA VALUE     1
Info: FEP COMPARISON LAMBDA VALUE  0.95
Info: FEP INTRA-ALCHEMICAL NON-BONDED INTERACTIONS WILL BE RETAINED
Info: FEP INTRA-ALCHEMICAL BONDED INTERACTIONS WILL BE RETAINED
Info: FEP VDW SHIFTING COEFFICIENT 5
Info: FEP ELEC. ACTIVE FOR ANNIHILATED PARTICLES BETWEEN LAMBDA = 0 AND LAMBDA = 0.5
Info: FEP ELEC. ACTIVE FOR EXNIHILATED PARTICLES BETWEEN LAMBDA = 0.5 AND LAMBDA = 1
Info: FEP VDW ACTIVE FOR ANNIHILATED PARTICLES BETWEEN LAMBDA = 0 AND LAMBDA = 1
Info: FEP VDW ACTIVE FOR EXNIHILATED PARTICLES BETWEEN LAMBDA = 0 AND LAMBDA = 1
Info: FEP BOND ACTIVE FOR ANNIHILATED PARTICLES BETWEEN LAMBDA = 1 AND LAMBDA = 1
Info: FEP BOND ACTIVE FOR EXNIHILATED PARTICLES BETWEEN LAMBDA = 0 AND LAMBDA = 0
Info: LANGEVIN DYNAMICS ACTIVE
Info: LANGEVIN TEMPERATURE   300
Info: LANGEVIN USING BBK INTEGRATOR
Info: LANGEVIN DAMPING COEFFICIENT IS 1 INVERSE PS
Info: LANGEVIN DYNAMICS APPLIED TO HYDROGENS
Info: LANGEVIN PISTON PRESSURE CONTROL ACTIVE
Info:        TARGET PRESSURE IS 1.01325 BAR
Info:     OSCILLATION PERIOD IS 50 FS
Info:             DECAY TIME IS 25 FS
Info:     PISTON TEMPERATURE IS 300 K
Info:       PRESSURE CONTROL IS GROUP-BASED
Info:    INITIAL STRAIN RATE IS 0.000127475 0.000127475 0.000127475
Info:       CELL FLUCTUATION IS ISOTROPIC
Info: PARTICLE MESH EWALD (PME) ACTIVE
Info: PME TOLERANCE               1e-06
Info: PME EWALD COEFFICIENT       0.348832
Info: PME INTERPOLATION ORDER     4
Info: PME GRID DIMENSIONS         32 32 32
Info: PME MAXIMUM GRID SPACING    1
Info: PME CALCULATION WILL BE PERFORMED ON GPU
Info: FULL ELECTROSTATIC EVALUATION FREQUENCY      2
Info: USING VERLET I (r-RESPA) MTS SCHEME.
Info: C1 SPLITTING OF LONG RANGE ELECTROSTATICS
Info: PLACING ATOMS IN PATCHES BY HYDROGEN GROUPS
Info: RIGID BONDS TO HYDROGEN : ALL
Info:         ERROR TOLERANCE : 1e-08
Info:          MAX ITERATIONS : 100
Info: RIGID WATER USING SETTLE ALGORITHM
Info: RANDOM NUMBER SEED     1743672368
Info: USE HYDROGEN BONDS?    NO
Info: Using AMBER format force field!
Info: AMBER PARM FILE        mobley_1838110.prmtop
Info: COORDINATE PDB         mobley_1838110.pdb
Info: Exclusions will be read from PARM file!
Info: SCNB (VDW SCALING)     2
Info: USING ARITHMETIC MEAN TO COMBINE L-J SIGMA PARAMETERS
Info: BINARY COORDINATES     mobley_1838110_equil.coor
Info: SUMMARY OF PARAMETERS:
Info: 5 BONDS
Info: 5 ANGLES
Info:   5 HARMONIC
Info:   0 COSINE-BASED
Info: 4 DIHEDRAL
Info: 0 IMPROPER
Info: 0 CROSSTERM
Info: 0 VDW
Info: 15 VDW_PAIRS
Info: 0 NBTHOLE_PAIRS
Info: To read alchdata from file: mobley_1838110.pdb
Info: To read alchflag data from column: 5
Info: STRUCTURE SUMMARY:
Info: 2915 ATOMS
Info: 2914 BONDS
Info: 12 ANGLES
Info: 13 DIHEDRALS
Info: 0 IMPROPERS
Info: 0 CROSSTERMS
Info: 2935 EXCLUSIONS
Info: 2907 RIGID BONDS
Info: ALCH: 0 ATOMS TO DISAPPEAR IN FINAL STATE
Info: ALCH: 8 ATOMS TO APPEAR IN FINAL STATE
Info: 5838 DEGREES OF FREEDOM
Info: 977 HYDROGEN GROUPS
Info: 3 ATOMS IN LARGEST HYDROGEN GROUP
Info: 977 MIGRATION GROUPS
Info: 3 ATOMS IN LARGEST MIGRATION GROUP
Info: TOTAL MASS = 17644.9 amu
Info: TOTAL CHARGE = 0.000100017 e
Info: MASS DENSITY = 0.958406 g/cm^3
Info: ATOM DENSITY = 0.0953477 atoms/A^3
Info: ADDED 0 IMPLICIT EXCLUSIONS
Info: NONBONDED TABLE R-SQUARED SPACING: 0.0625
Info: NONBONDED TABLE SIZE: 705 POINTS
Info: REMOVING COM VELOCITY 0.150713 0.0721373 -0.260168
Info: Use 3D box decompostion in PME FFT.
Info: Updated CUDA force table with 4096 elements.
Info: Updated CUDA LJ table with 5 x 5 elements.
Info: Found 11 unique exclusion lists needing 16 bytes
TCL: Running for 1500000 steps
ETITLE: TS BOND ANGLE DIHED IMPRP ELECT VDW BOUNDARY MISC KINETIC TOTAL TEMP POTENTIAL TOTALAVG TEMPAVG PRESSURE GPRESSURE VOLUME PRESSAVG GPRESSAVG
ENERGY: 0 0.6182 5.0839 1.7248 0.0000 -10588.7494 1444.1430 0.0000 0.0000 1739.5422 -7397.6373 299.8895 -9137.1795 -7397.6373 299.8895 18.0619 109.0026 30572.3087 18.0619 109.0026
ENERGY: 300000 5.5041 3.1893 1.7594 0.0000 -10833.0610 1528.8517 0.0000 0.0000 1708.8368 -7584.9197 294.5960 -9293.7565 -7482.1491 296.3733 374.2863 482.5431 29750.4354 -21.4623 60.6862
ENERGY: 600000 0.7770 2.9201 1.5813 0.0000 -10628.0870 1444.5489 0.0000 0.0000 1704.6854 -7473.5744 293.8803 -9178.2598 -7450.5325 298.1822 -60.1642 -8.2667 30617.9984 115.6543 195.8637
ENERGY: 900000 3.0303 2.1517 1.6596 0.0000 -10711.0175 1507.2130 0.0000 0.0000 1745.8737 -7451.0891 300.9810 -9196.9627 -7447.4437 298.1178 480.7657 585.5287 30121.1268 138.9888 214.8372
ENERGY: 1200000 1.9544 2.6942 1.5238 0.0000 -10493.0676 1395.4364 0.0000 0.0000 1723.2605 -7368.1984 297.0826 -9091.4589 -7436.7883 297.6004 -98.9222 -38.3146 30160.9162 164.8791 238.1778
ENERGY: 1500000 2.2395 3.6515 1.6597 0.0000 -10634.8351 1459.7093 0.0000 0.0000 1759.7356 -7407.8396 303.3708 -9167.5752 -7430.9109 298.0877 726.0329 778.4201 29427.6534 179.0705 251.0036
TCL: Running FEP window   2: Lambda1 0.95   Lambda2 0.8999999999999999 [dLambda -0.050000000000000044]
TCL: Setting parameter firsttimestep to 0
TCL: Setting parameter alchLambda to 0.95
Info: NONBONDED TABLE R-SQUARED SPACING: 0.0625
Info: NONBONDED TABLE SIZE: 705 POINTS
TCL: Setting parameter alchLambda2 to 0.8999999999999999
Info: NONBONDED TABLE R-SQUARED SPACING: 0.0625
Info: NONBONDED TABLE SIZE: 705 POINTS
TCL: Running for 1500000 steps
ETITLE: TS BOND ANGLE DIHED IMPRP ELECT VDW BOUNDARY MISC KINETIC TOTAL TEMP POTENTIAL TOTALAVG TEMPAVG PRESSURE GPRESSURE VOLUME PRESSAVG GPRESSAVG
ENERGY: 0 2.2395 3.6515 1.6597 0.0000 -10634.8317 1460.1081 0.0000 0.0000 1758.8694 -7408.3036 303.2214 -9167.1729 -7408.3036 303.2214 699.6004 773.4567 29427.6534 699.6004 773.4567
ENERGY: 300000 1.6646 5.0923 1.4344 0.0000 -10566.0727 1468.5908 0.0000 0.0000 1742.6289 -7346.6617 300.4216 -9089.2906 -7403.7216 301.2295 581.6933 567.8581 30394.0548 120.7184 168.9597
ENERGY: 600000 2.2714 3.7802 1.7256 0.0000 -10662.2338 1471.6206 0.0000 0.0000 1677.5617 -7505.2743 289.2043 -9182.8360 -7429.1365 298.5191 408.0609 424.1825 29936.6559 255.4594 309.8211
ENERGY: 900000 4.0693 5.0974 1.8051 0.0000 -10608.0851 1406.5578 0.0000 0.0000 1724.2925 -7466.2629 297.2605 -9190.5554 -7426.5444 298.7131 -483.7864 -405.0575 30050.0445 186.1982 250.7729
ENERGY: 1200000 4.2019 1.6793 3.9983 0.0000 -10504.8939 1350.0505 0.0000 0.0000 1725.1107 -7419.8533 297.4016 -9144.9639 -7420.3333 298.9471 -677.5774 -614.9861 29986.5593 72.9646 129.7704
ENERGY: 1500000 1.3183 3.1363 4.0347 0.0000 -10559.5794 1431.0721 0.0000 0.0000 1719.9337 -7400.0843 296.5091 -9120.0180 -7420.4418 298.7419 197.9067 243.5207 30002.6244 -11.8638 40.6398
TCL: Running FEP window   3: Lambda1 0.8999999999999999 Lambda2 0.8499999999999999 [dLambda -0.050000000000000044]
TCL: Setting parameter firsttimestep to 0
TCL: Setting parameter alchLambda to 0.8999999999999999
Info: NONBONDED TABLE R-SQUARED SPACING: 0.0625
Info: NONBONDED TABLE SIZE: 705 POINTS
TCL: Setting parameter alchLambda2 to 0.8499999999999999
Info: NONBONDED TABLE R-SQUARED SPACING: 0.0625
Info: NONBONDED TABLE SIZE: 705 POINTS
TCL: Running for 1500000 steps
ETITLE: TS BOND ANGLE DIHED IMPRP ELECT VDW BOUNDARY MISC KINETIC TOTAL TEMP POTENTIAL TOTALAVG TEMPAVG PRESSURE GPRESSURE VOLUME PRESSAVG GPRESSAVG
ENERGY: 0 1.3183 3.1363 4.0347 0.0000 -10559.5225 1431.5715 0.0000 0.0000 1719.0345 -7400.4272 296.3541 -9119.4616 -7400.4272 296.3541 158.0058 242.9559 30002.6244 158.0058 242.9559
ENERGY: 300000 2.8427 1.8804 2.0909 0.0000 -10489.2146 1317.3856 0.0000 0.0000 1699.0728 -7465.9422 292.9128 -9165.0150 -7428.2156 298.4910 -863.9660 -823.8837 29920.1741 -37.6923 31.8157
ENERGY: 600000 2.9938 3.2169 1.7219 0.0000 -10635.5558 1480.1286 0.0000 0.0000 1767.3075 -7380.1872 304.6761 -9147.4947 -7405.1849 300.3626 426.6933 503.9071 30117.7104 -182.1650 -111.5771
ENERGY: 900000 5.0339 4.3153 1.5720 0.0000 -10569.1411 1401.4849 0.0000 0.0000 1747.4358 -7409.2992 301.2503 -9156.7351 -7409.1076 300.3085 -180.5427 -132.0793 30078.2812 -206.4720 -137.8638
ENERGY: 1200000 1.4400 1.6376 1.6119 0.0000 -10475.3723 1366.6959 0.0000 0.0000 1750.1468 -7353.8402 301.7177 -9103.9869 -7394.3261 301.1351 -326.0272 -269.4443 30117.0593 -212.5322 -143.7376
ENERGY: 1500000 2.9528 5.1655 1.7503 0.0000 -10423.4010 1328.2707 0.0000 0.0000 1693.8889 -7391.3728 292.0191 -9085.2617 -7398.6209 299.8678 -434.5441 -354.6168 30004.0022 -217.3486 -148.5882
TCL: Running FEP window   4: Lambda1 0.8499999999999999 Lambda2 0.7999999999999998 [dLambda -0.050000000000000044]
TCL: Setting parameter firsttimestep to 0
TCL: Setting parameter alchLambda to 0.8499999999999999
Info: NONBONDED TABLE R-SQUARED SPACING: 0.0625
Info: NONBONDED TABLE SIZE: 705 POINTS
TCL: Setting parameter alchLambda2 to 0.7999999999999998
Info: NONBONDED TABLE R-SQUARED SPACING: 0.0625
Info: NONBONDED TABLE SIZE: 705 POINTS
TCL: Running for 1500000 steps
ETITLE: TS BOND ANGLE DIHED IMPRP ELECT VDW BOUNDARY MISC KINETIC TOTAL TEMP POTENTIAL TOTALAVG TEMPAVG PRESSURE GPRESSURE VOLUME PRESSAVG GPRESSAVG
ENERGY: 0 2.9528 5.1655 1.7503 0.0000 -10423.3348 1328.4517 0.0000 0.0000 1692.9976 -7392.0169 291.8654 -9085.0145 -7392.0169 291.8654 -453.9085 -364.8240 30004.0022 -453.9085 -364.8240
ENERGY: 300000 1.8538 5.6812 1.5816 0.0000 -10633.0585 1465.4590 0.0000 0.0000 1724.5161 -7433.9668 297.2991 -9158.4829 -7376.6729 297.9977 322.1362 389.9593 30136.1475 -241.3956 -175.5735
ENERGY: 600000 1.8711 4.7659 1.6879 0.0000 -10572.7906 1482.0306 0.0000 0.0000 1713.6687 -7368.7665 295.4290 -9082.4352 -7374.1168 298.3059 549.4105 541.5829 30254.4581 14.9210 79.1056
ENERGY: 900000 2.1749 4.2972 1.6743 0.0000 -10586.6552 1405.8972 0.0000 0.0000 1698.1789 -7474.4327 292.7586 -9172.6116 -7398.7934 297.6149 -94.9928 -64.6935 29764.5095 31.9903 96.1334
ENERGY: 1200000 0.4782 4.8501 1.7851 0.0000 -10573.1222 1437.5147 0.0000 0.0000 1761.9834 -7366.5107 303.7583 -9128.4941 -7402.2599 298.7115 267.0036 285.0958 29935.0963 104.2258 160.0081
ENERGY: 1500000 1.3279 2.2366 1.7252 0.0000 -10549.8268 1392.6734 0.0000 0.0000 1758.7090 -7393.1548 303.1938 -9151.8638 -7396.8468 299.3434 -255.2118 -146.5943 29950.7461 32.2571 93.3116
TCL: Running FEP window   5: Lambda1 0.7999999999999998 Lambda2 0.7499999999999998 [dLambda -0.050000000000000044]
TCL: Setting parameter firsttimestep to 0
TCL: Setting parameter alchLambda to 0.7999999999999998
Info: NONBONDED TABLE R-SQUARED SPACING: 0.0625
Info: NONBONDED TABLE SIZE: 705 POINTS
TCL: Setting parameter alchLambda2 to 0.7499999999999998
Info: NONBONDED TABLE R-SQUARED SPACING: 0.0625
Info: NONBONDED TABLE SIZE: 705 POINTS
TCL: Running for 1500000 steps
ETITLE: TS BOND ANGLE DIHED IMPRP ELECT VDW BOUNDARY MISC KINETIC TOTAL TEMP POTENTIAL TOTALAVG TEMPAVG PRESSURE GPRESSURE VOLUME PRESSAVG GPRESSAVG
ENERGY: 0 1.3279 2.2365 1.7252 0.0000 -10549.8592 1393.0778 0.0000 0.0000 1757.8167 -7393.6751 303.0400 -9151.4919 -7393.6751 303.0400 -226.0204 -148.7747 29950.7461 -226.0204 -148.7747
ENERGY: 300000 1.1735 2.1574 1.7194 0.0000 -10639.2981 1464.0684 0.0000 0.0000 1840.2717 -7329.9077 317.2548 -9170.1795 -7386.4855 302.8025 481.6356 560.9181 29723.6187 103.6899 142.1334
ENERGY: 600000 3.1482 2.8685 1.7556 0.0000 -10512.5705 1368.7195 0.0000 0.0000 1692.9663 -7443.1124 291.8600 -9136.0787 -7387.7837 302.2651 -501.1367 -444.4065 30238.5452 -7.6391 39.6982
ENERGY: 900000 4.1605 6.2698 4.1161 0.0000 -10558.5304 1452.8323 0.0000 0.0000 1732.5599 -7358.5917 298.6858 -9091.1516 -7380.0147 301.9494 149.7622 202.7199 30463.3901 93.1450 140.1549
ENERGY: 1200000 1.6269 4.2425 1.6364 0.0000 -10590.7080 1440.0033 0.0000 0.0000 1708.8049 -7434.3938 294.5905 -9143.1988 -7390.0729 301.4027 23.7833 90.4359 30178.3134 104.1018 152.6432
ENERGY: 1500000 1.2893 1.9721 1.6793 0.0000 -10542.5985 1401.4173 0.0000 0.0000 1798.1349 -7338.1056 309.9906 -9136.2405 -7382.6540 302.2585 78.9568 108.7259 29846.2278 135.6047 185.2742
TCL: Running FEP window   6: Lambda1 0.7499999999999998 Lambda2 0.6999999999999997 [dLambda -0.050000000000000044]
TCL: Setting parameter firsttimestep to 0
TCL: Setting parameter alchLambda to 0.7499999999999998
Info: NONBONDED TABLE R-SQUARED SPACING: 0.0625
Info: NONBONDED TABLE SIZE: 705 POINTS
TCL: Setting parameter alchLambda2 to 0.6999999999999997
Info: NONBONDED TABLE R-SQUARED SPACING: 0.0625
Info: NONBONDED TABLE SIZE: 705 POINTS
TCL: Running for 1500000 steps
ETITLE: TS BOND ANGLE DIHED IMPRP ELECT VDW BOUNDARY MISC KINETIC TOTAL TEMP POTENTIAL TOTALAVG TEMPAVG PRESSURE GPRESSURE VOLUME PRESSAVG GPRESSAVG
ENERGY: 0 1.2893 1.9721 1.6793 0.0000 -10542.6355 1401.9460 0.0000 0.0000 1797.2807 -7338.4681 309.8434 -9135.7488 -7338.4681 309.8434 35.5934 105.7207 29846.2278 35.5934 105.7207
ENERGY: 300000 2.2635 3.1953 1.5305 0.0000 -10400.4905 1296.7742 0.0000 0.0000 1681.4329 -7415.2942 289.8717 -9096.7271 -7359.0818 301.6027 -852.5681 -924.3162 30131.6349 -281.4547 -265.7708
ENERGY: 600000 1.9274 3.3896 1.6668 0.0000 -10556.5599 1433.5992 0.0000 0.0000 1759.1595 -7356.8175 303.2714 -9115.9770 -7347.6530 303.0546 -353.7497 -269.4628 30991.7427 -165.3462 -123.1163
ENERGY: 900000 3.3076 2.2805 1.5252 0.0000 -10754.6919 1503.8298 0.0000 0.0000 1734.4853 -7509.2634 299.0177 -9243.7487 -7383.3393 301.5072 580.5813 596.3999 29632.8176 -100.0465 -67.8483
ENERGY: 1200000 0.8704 2.7608 1.7691 0.0000 -10667.8083 1506.8836 0.0000 0.0000 1733.4865 -7422.0380 298.8455 -9155.5244 -7398.2216 300.7503 798.3594 815.3642 29972.2834 -70.3067 -37.4496
ENERGY: 1500000 1.9428 2.7807 1.6153 0.0000 -10739.3925 1523.8780 0.0000 0.0000 1748.7638 -7460.4118 301.4793 -9209.1756 -7404.2542 300.5722 833.3201 860.0407 29589.8566 -69.7027 -37.9388
TCL: Running FEP window   7: Lambda1 0.6999999999999997 Lambda2 0.6499999999999997 [dLambda -0.050000000000000044]
TCL: Setting parameter firsttimestep to 0
TCL: Setting parameter alchLambda to 0.6999999999999997
Info: NONBONDED TABLE R-SQUARED SPACING: 0.0625
Info: NONBONDED TABLE SIZE: 705 POINTS
TCL: Setting parameter alchLambda2 to 0.6499999999999997
Info: NONBONDED TABLE R-SQUARED SPACING: 0.0625
Info: NONBONDED TABLE SIZE: 705 POINTS
TCL: Running for 1500000 steps
ETITLE: TS BOND ANGLE DIHED IMPRP ELECT VDW BOUNDARY MISC KINETIC TOTAL TEMP POTENTIAL TOTALAVG TEMPAVG PRESSURE GPRESSURE VOLUME PRESSAVG GPRESSAVG
ENERGY: 0 1.9428 2.7807 1.6153 0.0000 -10739.2960 1524.2155 0.0000 0.0000 1747.8838 -7460.8579 301.3276 -9208.7417 -7460.8579 301.3276 781.4900 853.7418 29589.8566 781.4900 853.7418
ENERGY: 300000 2.6934 3.0548 1.8476 0.0000 -10658.4558 1452.4215 0.0000 0.0000 1747.6479 -7450.7907 301.2869 -9198.4385 -7406.4147 301.8160 219.8379 272.4797 29868.7837 112.5646 169.4350
ENERGY: 600000 3.5318 2.6282 1.6116 0.0000 -10337.4625 1255.5383 0.0000 0.0000 1735.4231 -7338.7295 299.1794 -9074.1526 -7382.0063 302.2458 -1316.7837 -1280.7386 30423.2547 -12.3362 28.5902
ENERGY: 900000 4.4469 1.7137 1.6802 0.0000 -10600.3100 1493.0405 0.0000 0.0000 1747.2709 -7352.1578 301.2219 -9099.4287 -7371.3352 302.1888 576.9222 586.2560 30230.9273 34.6119 74.1434
ENERGY: 1200000 1.1295 1.8154 1.6418 0.0000 -10335.7683 1299.1235 0.0000 0.0000 1711.0761 -7320.9819 294.9821 -9032.0580 -7374.1514 301.8124 -773.8401 -739.5186 30516.3147 -48.8172 -4.8076
ENERGY: 1500000 1.5455 4.2754 1.9539 0.0000 -10515.6068 1291.9803 0.0000 0.0000 1768.0036 -7447.8480 304.7961 -9215.8517 -7382.4221 302.0581 -1274.8359 -1252.3859 30375.1000 -61.5161 -23.4026
TCL: Running FEP window   8: Lambda1 0.6499999999999997 Lambda2 0.5999999999999996 [dLambda -0.050000000000000044]
TCL: Setting parameter firsttimestep to 0
TCL: Setting parameter alchLambda to 0.6499999999999997
Info: NONBONDED TABLE R-SQUARED SPACING: 0.0625
Info: NONBONDED TABLE SIZE: 705 POINTS
TCL: Setting parameter alchLambda2 to 0.5999999999999996
Info: NONBONDED TABLE R-SQUARED SPACING: 0.0625
Info: NONBONDED TABLE SIZE: 705 POINTS
TCL: Running for 1500000 steps
ETITLE: TS BOND ANGLE DIHED IMPRP ELECT VDW BOUNDARY MISC KINETIC TOTAL TEMP POTENTIAL TOTALAVG TEMPAVG PRESSURE GPRESSURE VOLUME PRESSAVG GPRESSAVG
ENERGY: 0 1.5455 4.2754 1.9539 0.0000 -10515.5417 1292.1971 0.0000 0.0000 1767.1350 -7448.4348 304.6464 -9215.5698 -7448.4348 304.6464 -1340.2618 -1258.2874 30375.1000 -1340.2618 -1258.2874
ENERGY: 300000 1.4359 4.0130 1.5530 0.0000 -10492.1721 1343.4919 0.0000 0.0000 1761.7342 -7379.9441 303.7153 -9141.6783 -7420.7966 302.0747 -758.8001 -649.3454 30248.9382 -859.3302 -774.2641
ENERGY: 600000 0.7096 2.9852 1.7766 0.0000 -10627.3953 1471.0902 0.0000 0.0000 1777.2284 -7373.6055 306.3864 -9150.8339 -7404.5066 300.4365 163.0056 175.3068 30160.1144 -587.4457 -519.2341
ENERGY: 900000 2.1119 2.6988 1.8103 0.0000 -10470.1972 1323.7931 0.0000 0.0000 1737.2881 -7402.4951 299.5009 -9139.7832 -7409.8215 299.4288 -563.6367 -632.5522 30014.0584 -544.1894 -490.0896
ENERGY: 1200000 1.0848 4.4550 1.5183 0.0000 -10413.6849 1313.1176 0.0000 0.0000 1743.4931 -7350.0161 300.5706 -9093.5092 -7397.5651 299.8184 -848.7397 -759.4500 30287.0422 -495.5398 -440.2757
ENERGY: 1500000 0.4922 3.6509 1.6483 0.0000 -10532.9212 1352.8745 0.0000 0.0000 1678.8017 -7495.4537 289.4181 -9174.2554 -7400.8817 299.6776 -672.5888 -634.6194 30018.7750 -449.4134 -386.0498
TCL: Running FEP window   9: Lambda1 0.5999999999999996 Lambda2 0.5499999999999996 [dLambda -0.050000000000000044]
TCL: Setting parameter firsttimestep to 0
TCL: Setting parameter alchLambda to 0.5999999999999996
Info: NONBONDED TABLE R-SQUARED SPACING: 0.0625
Info: NONBONDED TABLE SIZE: 705 POINTS
TCL: Setting parameter alchLambda2 to 0.5499999999999996
Info: NONBONDED TABLE R-SQUARED SPACING: 0.0625
Info: NONBONDED TABLE SIZE: 705 POINTS
TCL: Running for 1500000 steps
ETITLE: TS BOND ANGLE DIHED IMPRP ELECT VDW BOUNDARY MISC KINETIC TOTAL TEMP POTENTIAL TOTALAVG TEMPAVG PRESSURE GPRESSURE VOLUME PRESSAVG GPRESSAVG
ENERGY: 0 0.4922 3.6509 1.6483 0.0000 -10533.1446 1353.2326 0.0000 0.0000 1677.9163 -7496.2043 289.2655 -9174.1206 -7496.2043 289.2655 -712.7252 -636.7407 30018.7750 -712.7252 -636.7407
ENERGY: 300000 1.7559 2.9593 1.6991 0.0000 -10524.3237 1360.2404 0.0000 0.0000 1755.8293 -7401.8397 302.6973 -9157.6690 -7418.6280 295.1859 -638.6869 -594.8835 30151.8057 -268.7960 -200.5881
ENERGY: 600000 1.4325 2.5774 1.5767 0.0000 -10543.2661 1366.9143 0.0000 0.0000 1746.0928 -7424.6724 301.0188 -9170.7652 -7427.8303 298.2201 -558.4971 -481.6989 30119.8317 -195.4740 -129.5529
ENERGY: 900000 1.0049 6.2481 1.7099 0.0000 -10435.2243 1328.5263 0.0000 0.0000 1713.9188 -7383.8163 295.4721 -9097.7351 -7419.8625 299.4973 -392.1114 -365.8555 29790.6354 -70.8738 -6.4657
ENERGY: 1200000 2.2659 3.2820 1.6212 0.0000 -10588.7483 1431.8941 0.0000 0.0000 1716.1104 -7433.5747 295.8500 -9149.6851 -7416.6137 299.6722 410.1648 459.2100 29814.3894 -58.4080 2.8145
ENERGY: 1500000 2.5231 2.5568 3.9159 0.0000 -10496.1000 1362.1203 0.0000 0.0000 1724.3196 -7400.6643 297.2652 -9124.9839 -7409.0928 300.3195 -732.2832 -642.0724 30513.9204 -121.5279 -55.5317
TCL: Running FEP window  10: Lambda1 0.5499999999999996 Lambda2 0.4999999999999996 [dLambda -0.04999999999999999]
TCL: Setting parameter firsttimestep to 0
TCL: Setting parameter alchLambda to 0.5499999999999996
Info: NONBONDED TABLE R-SQUARED SPACING: 0.0625
Info: NONBONDED TABLE SIZE: 705 POINTS
TCL: Setting parameter alchLambda2 to 0.4999999999999996
Info: NONBONDED TABLE R-SQUARED SPACING: 0.0625
Info: NONBONDED TABLE SIZE: 705 POINTS
TCL: Running for 1500000 steps
ETITLE: TS BOND ANGLE DIHED IMPRP ELECT VDW BOUNDARY MISC KINETIC TOTAL TEMP POTENTIAL TOTALAVG TEMPAVG PRESSURE GPRESSURE VOLUME PRESSAVG GPRESSAVG
ENERGY: 0 2.5231 2.5568 3.9159 0.0000 -10496.0279 1362.7688 0.0000 0.0000 1723.4900 -7400.7733 297.1222 -9124.2633 -7400.7733 297.1222 -717.4710 -642.0695 30513.9204 -717.4710 -642.0695
ENERGY: 300000 2.2481 3.1332 4.0360 0.0000 -10579.4151 1429.3260 0.0000 0.0000 1749.7264 -7390.9454 301.6452 -9140.6718 -7379.2906 301.4640 142.0921 253.4195 30042.6912 -225.2868 -161.0822
ENERGY: 600000 0.7238 2.1774 1.7079 0.0000 -10544.3023 1359.3325 0.0000 0.0000 1729.3800 -7450.9808 298.1376 -9180.3607 -7399.4940 300.7215 -501.2489 -465.2634 29901.6498 -290.4359 -229.0147
ENERGY: 900000 2.2492 2.0108 1.7977 0.0000 -10679.9892 1446.8321 0.0000 0.0000 1707.6907 -7519.4088 294.3984 -9227.0995 -7397.5482 300.9013 18.6603 92.2034 29711.0763 -156.5878 -90.5763
ENERGY: 1200000 2.9278 5.7838 2.3922 0.0000 -10512.1516 1446.7859 0.0000 0.0000 1704.1001 -7350.1618 293.7794 -9054.2619 -7389.5372 300.2481 254.5036 283.6633 30000.7040 -110.7527 -48.4008
ENERGY: 1500000 1.5110 3.9436 1.6640 0.0000 -10575.4424 1447.8622 0.0000 0.0000 1753.2941 -7367.1675 302.2603 -9120.4616 -7393.6855 300.0521 283.7100 367.2844 30113.0051 -70.8188 -10.7802
TCL: Running FEP window  11: Lambda1 0.4999999999999996 Lambda2 0.4499999999999996 [dLambda -0.04999999999999999]
TCL: Setting parameter firsttimestep to 0
TCL: Setting parameter alchLambda to 0.4999999999999996
Info: NONBONDED TABLE R-SQUARED SPACING: 0.0625
Info: NONBONDED TABLE SIZE: 705 POINTS
TCL: Setting parameter alchLambda2 to 0.4499999999999996
Info: NONBONDED TABLE R-SQUARED SPACING: 0.0625
Info: NONBONDED TABLE SIZE: 705 POINTS
TCL: Running for 1500000 steps
ETITLE: TS BOND ANGLE DIHED IMPRP ELECT VDW BOUNDARY MISC KINETIC TOTAL TEMP POTENTIAL TOTALAVG TEMPAVG PRESSURE GPRESSURE VOLUME PRESSAVG GPRESSAVG
ENERGY: 0 1.5110 3.9436 1.6640 0.0000 -10575.6054 1448.0117 0.0000 0.0000 1752.4330 -7368.0421 302.1118 -9120.4751 -7368.0421 302.1118 282.3807 360.6308 30113.0051 282.3807 360.6308
ENERGY: 300000 2.3348 2.7266 1.5834 0.0000 -10682.3535 1446.6284 0.0000 0.0000 1795.0200 -7434.0604 309.4536 -9229.0803 -7404.2880 303.5072 128.2055 163.9515 29822.5124 391.9891 464.8803
ENERGY: 600000 2.7755 0.9556 1.6878 0.0000 -10548.5787 1432.5472 0.0000 0.0000 1728.4402 -7382.1725 297.9756 -9110.6127 -7391.3462 301.7791 12.6277 37.8829 30405.7784 251.1021 311.6808
ENERGY: 900000 5.3814 4.2824 1.9371 0.0000 -10498.2373 1376.4640 0.0000 0.0000 1778.0018 -7332.1706 306.5198 -9110.1725 -7378.7707 303.0525 -468.1866 -397.7448 30107.1112 216.2568 277.1963
ENERGY: 1200000 2.7276 1.6798 1.7302 0.0000 -10276.5266 1299.0767 0.0000 0.0000 1713.3437 -7257.9686 295.3730 -8971.3124 -7378.7278 301.3078 -767.4500 -744.9821 30771.2396 72.6419 138.9739
ENERGY: 1500000 2.4787 4.9119 1.9087 0.0000 -10598.9663 1463.7339 0.0000 0.0000 1714.3631 -7411.5700 295.5487 -9125.9332 -7383.5038 300.4713 426.1565 523.7296 29652.0777 93.0662 159.7214
TCL: Running FEP window  12: Lambda1 0.4499999999999996 Lambda2 0.39999999999999963 [dLambda -0.04999999999999999]
TCL: Setting parameter firsttimestep to 0
TCL: Setting parameter alchLambda to 0.4499999999999996
Info: NONBONDED TABLE R-SQUARED SPACING: 0.0625
Info: NONBONDED TABLE SIZE: 705 POINTS
TCL: Setting parameter alchLambda2 to 0.39999999999999963
Info: NONBONDED TABLE R-SQUARED SPACING: 0.0625
Info: NONBONDED TABLE SIZE: 705 POINTS
TCL: Running for 1500000 steps
ETITLE: TS BOND ANGLE DIHED IMPRP ELECT VDW BOUNDARY MISC KINETIC TOTAL TEMP POTENTIAL TOTALAVG TEMPAVG PRESSURE GPRESSURE VOLUME PRESSAVG GPRESSAVG
ENERGY: 0 2.4787 4.9119 1.9087 0.0000 -10598.9657 1463.6591 0.0000 0.0000 1713.5286 -7412.4787 295.4049 -9126.0073 -7412.4787 295.4049 425.1929 517.1084 29652.0777 425.1929 517.1084
ENERGY: 300000 2.0396 2.6612 1.7423 0.0000 -10622.2761 1425.1468 0.0000 0.0000 1724.2369 -7466.4494 297.2509 -9190.6863 -7416.4103 298.2623 -7.2896 -2.5281 29767.3455 192.8218 225.9012
ENERGY: 600000 2.7993 3.9336 1.6849 0.0000 -10535.7172 1366.9843 0.0000 0.0000 1737.8067 -7422.5085 299.5903 -9160.3152 -7386.4293 300.4572 -414.5607 -344.5771 29635.4885 105.4940 145.3417
ENERGY: 900000 1.6935 1.6751 1.8950 0.0000 -10590.0675 1437.9416 0.0000 0.0000 1747.4737 -7399.3886 301.2569 -9146.8623 -7393.3061 299.2625 -7.9823 101.8451 30088.5394 162.3373 220.0215
ENERGY: 1200000 1.3399 2.2779 1.6294 0.0000 -10782.8841 1572.9998 0.0000 0.0000 1745.3410 -7459.2962 300.8892 -9204.6372 -7407.5953 299.1936 1211.1467 1318.5639 29457.2176 305.4310 365.6394
ENERGY: 1500000 1.5538 4.5480 1.6737 0.0000 -10544.5649 1379.4509 0.0000 0.0000 1744.3812 -7412.9573 300.7237 -9157.3385 -7409.1559 299.2487 -431.7890 -354.4674 30144.0538 209.7136 279.1585
TCL: Running FEP window  13: Lambda1 0.39999999999999963 Lambda2 0.34999999999999964 [dLambda -0.04999999999999999]
TCL: Setting parameter firsttimestep to 0
TCL: Setting parameter alchLambda to 0.39999999999999963
Info: NONBONDED TABLE R-SQUARED SPACING: 0.0625
Info: NONBONDED TABLE SIZE: 705 POINTS
TCL: Setting parameter alchLambda2 to 0.34999999999999964
Info: NONBONDED TABLE R-SQUARED SPACING: 0.0625
Info: NONBONDED TABLE SIZE: 705 POINTS
TCL: Running for 1500000 steps
ETITLE: TS BOND ANGLE DIHED IMPRP ELECT VDW BOUNDARY MISC KINETIC TOTAL TEMP POTENTIAL TOTALAVG TEMPAVG PRESSURE GPRESSURE VOLUME PRESSAVG GPRESSAVG
ENERGY: 0 1.5538 4.5480 1.6737 0.0000 -10544.5638 1379.6487 0.0000 0.0000 1743.5172 -7413.6224 300.5748 -9157.1396 -7413.6224 300.5748 -442.7113 -357.5197 30144.0538 -442.7113 -357.5197
ENERGY: 300000 1.4637 1.4992 1.6800 0.0000 -10655.3480 1505.5301 0.0000 0.0000 1770.7350 -7374.4399 305.2670 -9145.1749 -7390.2194 301.6713 631.4242 662.3545 30054.6301 108.8847 190.6995
ENERGY: 600000 4.0679 2.1739 1.5239 0.0000 -10519.3134 1377.3715 0.0000 0.0000 1770.9794 -7363.1968 305.3091 -9134.1762 -7391.0006 301.2419 -479.8681 -469.0246 30229.8527 -50.2629 35.3603
ENERGY: 900000 1.1209 3.3215 1.8507 0.0000 -10536.4493 1362.3109 0.0000 0.0000 1760.9933 -7406.8520 303.5876 -9167.8453 -7397.8164 301.5884 -409.5477 -335.6387 29718.9189 -97.4627 -24.0504
ENERGY: 1200000 2.6274 5.1661 1.8896 0.0000 -10646.2211 1485.1718 0.0000 0.0000 1740.6321 -7410.7341 300.0774 -9151.3662 -7402.8726 301.0450 568.5798 637.3739 29758.8225 -40.4282 36.6978
ENERGY: 1500000 1.4818 1.3057 1.5602 0.0000 -10619.1737 1434.5613 0.0000 0.0000 1743.7493 -7436.5154 300.6148 -9180.2647 -7408.5936 300.6842 -284.0652 -219.8637 30268.1910 -107.9921 -37.1862
TCL: Running FEP window  14: Lambda1 0.34999999999999964 Lambda2 0.29999999999999966 [dLambda -0.04999999999999999]
TCL: Setting parameter firsttimestep to 0
TCL: Setting parameter alchLambda to 0.34999999999999964
Info: NONBONDED TABLE R-SQUARED SPACING: 0.0625
Info: NONBONDED TABLE SIZE: 705 POINTS
TCL: Setting parameter alchLambda2 to 0.29999999999999966
Info: NONBONDED TABLE R-SQUARED SPACING: 0.0625
Info: NONBONDED TABLE SIZE: 705 POINTS
TCL: Running for 1500000 steps
ETITLE: TS BOND ANGLE DIHED IMPRP ELECT VDW BOUNDARY MISC KINETIC TOTAL TEMP POTENTIAL TOTALAVG TEMPAVG PRESSURE GPRESSURE VOLUME PRESSAVG GPRESSAVG
ENERGY: 0 1.4818 1.3057 1.5602 0.0000 -10619.1724 1434.6722 0.0000 0.0000 1742.8852 -7437.2673 300.4658 -9180.1526 -7437.2673 300.4658 -298.4674 -225.1353 30268.1910 -298.4674 -225.1353
ENERGY: 300000 2.8770 1.7102 1.6476 0.0000 -10623.8915 1473.4798 0.0000 0.0000 1717.2652 -7426.9116 296.0490 -9144.1768 -7422.7574 301.1079 164.8575 231.7806 30052.2750 -121.0981 -34.9668
ENERGY: 600000 2.3011 3.3670 1.8133 0.0000 -10555.0533 1402.5585 0.0000 0.0000 1779.3215 -7365.6918 306.7473 -9145.0134 -7441.2682 300.8165 -70.2003 -60.2753 29745.3491 -112.3861 -35.4700
ENERGY: 900000 2.0902 5.3412 1.7716 0.0000 -10620.1078 1462.6903 0.0000 0.0000 1759.6564 -7388.5581 303.3571 -9148.2145 -7433.8641 301.5915 308.3904 407.9770 29804.9098 -199.2976 -108.8369
ENERGY: 1200000 3.4962 3.1131 1.6931 0.0000 -10431.0862 1327.1188 0.0000 0.0000 1747.8516 -7347.8134 301.3220 -9095.6650 -7425.4632 301.5497 -641.2975 -628.6285 29926.1383 -317.3190 -226.0532
ENERGY: 1500000 3.2569 3.6578 1.5675 0.0000 -10661.5607 1472.2469 0.0000 0.0000 1740.9805 -7439.8511 300.1375 -9180.8317 -7412.9817 301.0394 60.6636 223.7127 30145.3357 -211.2681 -119.5134
TCL: Running FEP window  15: Lambda1 0.29999999999999966 Lambda2 0.24999999999999967 [dLambda -0.04999999999999999]
TCL: Setting parameter firsttimestep to 0
TCL: Setting parameter alchLambda to 0.29999999999999966
Info: NONBONDED TABLE R-SQUARED SPACING: 0.0625
Info: NONBONDED TABLE SIZE: 705 POINTS
TCL: Setting parameter alchLambda2 to 0.24999999999999967
Info: NONBONDED TABLE R-SQUARED SPACING: 0.0625
Info: NONBONDED TABLE SIZE: 705 POINTS
TCL: Running for 1500000 steps
ETITLE: TS BOND ANGLE DIHED IMPRP ELECT VDW BOUNDARY MISC KINETIC TOTAL TEMP POTENTIAL TOTALAVG TEMPAVG PRESSURE GPRESSURE VOLUME PRESSAVG GPRESSAVG
ENERGY: 0 3.2569 3.6578 1.5675 0.0000 -10661.5601 1472.3546 0.0000 0.0000 1740.1154 -7440.6079 299.9883 -9180.7234 -7440.6079 299.9883 131.2363 220.2934 30145.3357 131.2363 220.2934
ENERGY: 300000 0.8371 3.4964 1.7746 0.0000 -10677.0647 1443.9060 0.0000 0.0000 1741.2136 -7485.8369 300.1777 -9227.0505 -7429.7463 299.1857 -100.0505 -30.1761 29784.3064 195.7739 253.8355
ENERGY: 600000 0.3930 1.7375 1.5883 0.0000 -10622.6337 1447.9974 0.0000 0.0000 1783.5735 -7387.3440 307.4803 -9170.9175 -7418.9802 300.7136 67.7670 161.7877 30019.8835 95.8077 161.0702
ENERGY: 900000 3.1652 2.9199 1.9485 0.0000 -10491.2930 1385.2682 0.0000 0.0000 1742.6595 -7355.3317 300.4269 -9097.9912 -7410.3635 300.2451 -248.5496 -183.3293 30020.3089 155.9088 216.5440
ENERGY: 1200000 5.2676 5.1251 1.6469 0.0000 -10589.9710 1448.6557 0.0000 0.0000 1691.1446 -7438.1310 291.5460 -9129.2756 -7417.6319 299.9643 172.5128 286.7370 29862.8989 144.9963 214.0740
ENERGY: 1500000 1.9193 2.7636 1.7864 0.0000 -10635.0211 1388.4050 0.0000 0.0000 1771.6298 -7468.5169 305.4213 -9240.1468 -7422.6317 300.4787 -575.8595 -570.7786 29984.5370 44.4018 111.2125
TCL: Running FEP window  16: Lambda1 0.24999999999999967 Lambda2 0.19999999999999968 [dLambda -0.04999999999999999]
TCL: Setting parameter firsttimestep to 0
TCL: Setting parameter alchLambda to 0.24999999999999967
Info: NONBONDED TABLE R-SQUARED SPACING: 0.0625
Info: NONBONDED TABLE SIZE: 705 POINTS
TCL: Setting parameter alchLambda2 to 0.19999999999999968
Info: NONBONDED TABLE R-SQUARED SPACING: 0.0625
Info: NONBONDED TABLE SIZE: 705 POINTS
TCL: Running for 1500000 steps
ETITLE: TS BOND ANGLE DIHED IMPRP ELECT VDW BOUNDARY MISC KINETIC TOTAL TEMP POTENTIAL TOTALAVG TEMPAVG PRESSURE GPRESSURE VOLUME PRESSAVG GPRESSAVG
ENERGY: 0 1.9193 2.7636 1.7864 0.0000 -10635.0207 1388.1884 0.0000 0.0000 1770.7361 -7469.6268 305.2672 -9240.3629 -7469.6268 305.2672 -671.4983 -575.8367 29984.5370 -671.4983 -575.8367
ENERGY: 300000 2.7495 3.8678 1.9580 0.0000 -10719.1413 1465.4940 0.0000 0.0000 1755.0146 -7490.0574 302.5569 -9245.0720 -7441.2647 303.4479 -94.3927 -38.5413 30153.1630 -48.0930 -1.0245
ENERGY: 600000 2.0461 1.3703 1.6283 0.0000 -10529.3634 1414.2142 0.0000 0.0000 1748.2858 -7361.8188 301.3969 -9110.1046 -7396.8507 304.0628 -46.0926 41.8902 30190.3026 -151.2294 -83.8525
ENERGY: 900000 1.4698 3.9704 1.8055 0.0000 -10595.0833 1405.7685 0.0000 0.0000 1760.3114 -7421.7577 303.4700 -9182.0691 -7391.5669 303.3073 85.6011 98.0062 29427.5246 -41.8698 18.5549
ENERGY: 1200000 1.6317 1.1999 1.6241 0.0000 -10685.7613 1516.0651 0.0000 0.0000 1756.3646 -7408.8759 302.7896 -9165.2405 -7392.6269 303.5381 850.0948 875.2154 29509.5830 84.6541 141.3192
ENERGY: 1500000 3.3219 1.3456 1.7699 0.0000 -10479.1241 1384.2637 0.0000 0.0000 1742.1288 -7346.2943 300.3354 -9088.4231 -7394.6738 302.9997 -500.1826 -407.3799 30497.2411 52.1465 110.5723
TCL: Running FEP window  17: Lambda1 0.19999999999999968 Lambda2 0.1499999999999997 [dLambda -0.04999999999999999]
TCL: Setting parameter firsttimestep to 0
TCL: Setting parameter alchLambda to 0.19999999999999968
Info: NONBONDED TABLE R-SQUARED SPACING: 0.0625
Info: NONBONDED TABLE SIZE: 705 POINTS
TCL: Setting parameter alchLambda2 to 0.1499999999999997
Info: NONBONDED TABLE R-SQUARED SPACING: 0.0625
Info: NONBONDED TABLE SIZE: 705 POINTS
TCL: Running for 1500000 steps
ETITLE: TS BOND ANGLE DIHED IMPRP ELECT VDW BOUNDARY MISC KINETIC TOTAL TEMP POTENTIAL TOTALAVG TEMPAVG PRESSURE GPRESSURE VOLUME PRESSAVG GPRESSAVG
ENERGY: 0 3.3219 1.3456 1.7699 0.0000 -10479.1243 1384.3773 0.0000 0.0000 1741.2406 -7347.0690 300.1823 -9088.3096 -7347.0690 300.1823 -491.6068 -410.2181 30497.2411 -491.6068 -410.2181
ENERGY: 300000 1.8811 2.3817 1.6383 0.0000 -10396.8006 1350.6627 0.0000 0.0000 1743.2386 -7296.9982 300.5267 -9040.2368 -7416.0133 297.1886 -546.9748 -562.2259 30544.8057 -17.3742 36.7674
ENERGY: 600000 2.9216 3.6025 1.6558 0.0000 -10648.7737 1441.7007 0.0000 0.0000 1752.7647 -7446.1284 302.1690 -9198.8931 -7404.2457 299.1592 340.6678 435.2765 29353.3343 -13.1224 52.7151
ENERGY: 900000 2.8463 1.6339 1.8216 0.0000 -10543.9215 1445.3065 0.0000 0.0000 1779.8624 -7312.4508 306.8405 -9092.3132 -7393.9938 299.5933 -75.7686 -22.7235 30366.9053 65.3445 123.1309
ENERGY: 1200000 1.3253 3.6756 1.6015 0.0000 -10532.6084 1361.0881 0.0000 0.0000 1759.1284 -7405.7895 303.2661 -9164.9179 -7403.6800 299.3733 -607.1664 -520.4859 30009.9858 27.0353 88.6419
ENERGY: 1500000 0.9532 3.0146 4.0438 0.0000 -10515.7524 1396.1117 0.0000 0.0000 1751.2211 -7360.4080 301.9029 -9111.6291 -7401.0165 299.8781 -55.5155 14.8755 29929.5420 -20.4281 44.2779
TCL: Running FEP window  18: Lambda1 0.1499999999999997 Lambda2 0.09999999999999969 [dLambda -0.05 ]
TCL: Setting parameter firsttimestep to 0
TCL: Setting parameter alchLambda to 0.1499999999999997
Info: NONBONDED TABLE R-SQUARED SPACING: 0.0625
Info: NONBONDED TABLE SIZE: 705 POINTS
TCL: Setting parameter alchLambda2 to 0.09999999999999969
Info: NONBONDED TABLE R-SQUARED SPACING: 0.0625
Info: NONBONDED TABLE SIZE: 705 POINTS
TCL: Running for 1500000 steps
ETITLE: TS BOND ANGLE DIHED IMPRP ELECT VDW BOUNDARY MISC KINETIC TOTAL TEMP POTENTIAL TOTALAVG TEMPAVG PRESSURE GPRESSURE VOLUME PRESSAVG GPRESSAVG
ENERGY: 0 0.9532 3.0146 4.0438 0.0000 -10515.7512 1396.3234 0.0000 0.0000 1750.3580 -7361.0582 301.7541 -9111.4162 -7361.0582 301.7541 -61.6010 13.6525 29929.5420 -61.6010 13.6525
ENERGY: 300000 2.2350 1.7234 4.1971 0.0000 -10438.3116 1406.7082 0.0000 0.0000 1753.8545 -7269.5933 302.3569 -9023.4478 -7378.3311 299.5339 -229.9210 -165.8569 30924.9027 -129.3753 -69.0945
ENERGY: 600000 3.3998 3.6371 1.9322 0.0000 -10503.1719 1340.3085 0.0000 0.0000 1724.8652 -7429.0291 297.3593 -9153.8943 -7389.7226 298.4805 -812.3989 -767.0836 29995.2332 -194.1828 -131.8184
ENERGY: 900000 1.6666 2.8744 1.7468 0.0000 -10562.2695 1447.5783 0.0000 0.0000 1718.8064 -7389.5970 296.3147 -9108.4034 -7400.2803 296.9735 539.1933 605.8699 29430.5530 -206.5305 -139.3728
ENERGY: 1200000 0.9617 5.2642 1.8107 0.0000 -10515.1379 1401.3235 0.0000 0.0000 1786.2897 -7319.4880 307.9486 -9105.7778 -7402.5605 297.1614 6.1331 90.2149 29990.4277 -147.1642 -84.6862
ENERGY: 1500000 8.5329 3.1610 2.0436 0.0000 -10537.9338 1442.2094 0.0000 0.0000 1729.6289 -7352.3579 298.1805 -9081.9868 -7406.2632 297.2883 -6.1931 60.9192 30036.2057 -153.0071 -91.8573
TCL: Running FEP window  19: Lambda1 0.09999999999999969 Lambda2 0.049999999999999684 [dLambda -0.05 ]
TCL: Setting parameter firsttimestep to 0
TCL: Setting parameter alchLambda to 0.09999999999999969
Info: NONBONDED TABLE R-SQUARED SPACING: 0.0625
Info: NONBONDED TABLE SIZE: 705 POINTS
TCL: Setting parameter alchLambda2 to 0.049999999999999684
Info: NONBONDED TABLE R-SQUARED SPACING: 0.0625
Info: NONBONDED TABLE SIZE: 705 POINTS
TCL: Running for 1500000 steps
ETITLE: TS BOND ANGLE DIHED IMPRP ELECT VDW BOUNDARY MISC KINETIC TOTAL TEMP POTENTIAL TOTALAVG TEMPAVG PRESSURE GPRESSURE VOLUME PRESSAVG GPRESSAVG
ENERGY: 0 8.5329 3.1610 2.0436 0.0000 -10537.9328 1442.2988 0.0000 0.0000 1728.7552 -7353.1412 298.0299 -9081.8964 -7353.1412 298.0299 -33.4983 59.4627 30036.2057 -33.4983 59.4627
ENERGY: 300000 3.2083 4.9078 1.5899 0.0000 -10582.7216 1393.5699 0.0000 0.0000 1703.2903 -7476.1555 293.6398 -9179.4458 -7418.6306 299.2140 -234.8899 -144.4066 29887.6382 -13.4101 57.0240
ENERGY: 600000 2.4751 2.6918 1.5998 0.0000 -10596.5182 1435.0163 0.0000 0.0000 1757.7767 -7396.9585 303.0331 -9154.7352 -7407.5611 300.8917 -243.0682 -149.0866 30292.9657 -252.2584 -190.2820
ENERGY: 900000 1.5369 5.8557 1.8803 0.0000 -10505.7906 1325.9844 0.0000 0.0000 1706.7639 -7463.7695 294.2387 -9170.5334 -7421.2029 300.3287 -958.1604 -934.6296 30015.7041 -370.0934 -312.5577
ENERGY: 1200000 2.0544 3.1584 1.6611 0.0000 -10605.5244 1448.3190 0.0000 0.0000 1740.9534 -7409.3783 300.1328 -9150.3316 -7420.9157 300.1160 -5.5426 55.5868 30168.0259 -254.6681 -199.4847
ENERGY: 1500000 3.2170 4.4000 2.1610 0.0000 -10468.8488 1320.4118 0.0000 0.0000 1763.4232 -7375.2357 304.0065 -9138.6589 -7417.6039 299.8779 -1190.8934 -1081.6671 30193.5683 -257.8068 -199.7352
TCL: Running FEP window  20: Lambda1 0.049999999999999684 Lambda2 0.0    [dLambda -0.049999999999999684]
TCL: Setting parameter firsttimestep to 0
TCL: Setting parameter alchLambda to 0.049999999999999684
Info: NONBONDED TABLE R-SQUARED SPACING: 0.0625
Info: NONBONDED TABLE SIZE: 705 POINTS
TCL: Setting parameter alchLambda2 to 0.0
Info: NONBONDED TABLE R-SQUARED SPACING: 0.0625
Info: NONBONDED TABLE SIZE: 705 POINTS
TCL: Running for 1500000 steps
ETITLE: TS BOND ANGLE DIHED IMPRP ELECT VDW BOUNDARY MISC KINETIC TOTAL TEMP POTENTIAL TOTALAVG TEMPAVG PRESSURE GPRESSURE VOLUME PRESSAVG GPRESSAVG
ENERGY: 0 3.2170 4.4000 2.1610 0.0000 -10468.8493 1319.1643 0.0000 0.0000 1762.5835 -7377.3234 303.8617 -9139.9069 -7377.3234 303.8617 -1171.7582 -1087.5415 30193.5683 -1171.7582 -1087.5415
ENERGY: 300000 1.6050 3.9126 1.6084 0.0000 -10580.1338 1459.6539 0.0000 0.0000 1703.0596 -7410.2942 293.6001 -9113.3538 -7386.4409 297.7646 275.5243 341.4846 29989.9053 -171.2551 -95.2693
ENERGY: 600000 2.0159 3.8802 4.0190 0.0000 -10626.5049 1477.0390 0.0000 0.0000 1722.5106 -7417.0403 296.9533 -9139.5509 -7409.7339 297.5210 323.1286 360.7903 30076.3893 -133.7121 -60.0026
ENERGY: 900000 1.6264 2.4612 1.5949 0.0000 -10518.7529 1372.4009 0.0000 0.0000 1734.9045 -7405.7650 299.0900 -9140.6695 -7419.3894 296.8971 -588.8925 -500.0971 30034.6468 -102.7366 -33.7164
ENERGY: 1200000 0.8591 6.3017 2.2287 0.0000 -10425.8037 1387.5596 0.0000 0.0000 1674.4595 -7354.3952 288.6695 -9028.8546 -7397.5558 296.3058 -167.0964 -46.4378 29928.0493 -117.6504 -43.8065
ENERGY: 1500000 1.6733 2.6456 1.8442 0.0000 -10587.3822 1434.1619 0.0000 0.0000 1727.0151 -7420.0421 297.7299 -9147.0572 -7395.6271 296.6170 -93.5288 -37.3033 30224.6926 -51.3657 16.7999
TCL: Exiting due to exit command.
