Info: SIMULATION PARAMETERS:
Info: TIMESTEP               2
Info: NUMBER OF STEPS        0
Info: STEPS PER CYCLE        10
Info: PERIODIC CELL BASIS 1  30.9955 0 0
Info: PERIODIC CELL BASIS 2  0 29.5142 0
Info: PERIODIC CELL BASIS 3  0 0 33.1794
Info: PERIODIC CELL CENTER   0 0 0
Info: WRAPPING WATERS AROUND PERIODIC BOUNDARIES ON OUTPUT.
Info: WRAPPING ALL CLUSTERS AROUND PERIODIC BOUNDARIES ON OUTPUT.
Info: FIRST LDB TIMESTEP     50
Info: LAST LDB TIMESTEP     -1
Info: HOM BACKGROUND SCALING 1
Info: PME BACKGROUND SCALING 1
Info: MIN ATOMS PER PATCH    40
Info: EMPTY PATCH LOAD       40 ATOMS
Info: VELOCITY FILE          mobley_8789465_equil.vel
Info: CENTER OF MASS MOVING INITIALLY? NO
Info: DIELECTRIC             1
Info: EXCLUDE                SCALED ONE-FOUR
Info: 1-4 ELECTROSTATICS SCALED BY 0.833333
Info: MODIFIED 1-4 VDW PARAMETERS WILL BE USED
Info: DCD FILENAME           mobley_8789465_prod.dcd
Info: DCD FREQUENCY          100000
Info: DCD FIRST STEP         100000
Info: DCD FILE WILL CONTAIN UNIT CELL DATA
Info: XST FILENAME           mobley_8789465_prod.xst
Info: XST FREQUENCY          100000
Info: NO VELOCITY DCD OUTPUT
Info: NO FORCE DCD OUTPUT
Info: OUTPUT FILENAME        mobley_8789465_prod
Info: BINARY OUTPUT FILES WILL BE USED
Info: RESTART FILENAME       mobley_8789465_prod.restart
Info: RESTART FREQUENCY      100000
Info: BINARY RESTART FILES WILL BE USED
Info: CUTOFF                 9
Info: PAIRLIST DISTANCE      11
Info: PAIRLIST SHRINK RATE   0.01
Info: PAIRLIST GROW RATE     0.01
Info: PAIRLIST TRIGGER       0.3
Info: PAIRLISTS PER CYCLE    2
Info: PAIRLISTS ENABLED
Info: MARGIN                 2
Info: HYDROGEN GROUP CUTOFF  2.5
Info: PATCH DIMENSION        15.5
Info: ENERGY OUTPUT STEPS    100000
Info: ENERGY EVALUATION STEPS    100000
Info: OUTPUT ENERGY PRECISION 4
Info: CROSSTERM ENERGY INCLUDED IN DIHEDRAL
Info: TIMING OUTPUT STEPS    1000000
Info: PRESSURE OUTPUT STEPS  100000
Info: ALCHEMICAL FEP ON
Info: FEP CURRENT LAMBDA VALUE     0
Info: FEP COMPARISON LAMBDA VALUE  0.05
Info: FEP INTRA-ALCHEMICAL NON-BONDED INTERACTIONS WILL BE RETAINED
Info: FEP INTRA-ALCHEMICAL BONDED INTERACTIONS WILL BE RETAINED
Info: FEP VDW SHIFTING COEFFICIENT 5
Info: FEP ELEC. ACTIVE FOR ANNIHILATED PARTICLES BETWEEN LAMBDA = 0 AND LAMBDA = 0.5
Info: FEP ELEC. ACTIVE FOR EXNIHILATED PARTICLES BETWEEN LAMBDA = 0.5 AND LAMBDA = 1
Info: FEP VDW ACTIVE FOR ANNIHILATED PARTICLES BETWEEN LAMBDA = 0 AND LAMBDA = 1
Info: FEP VDW ACTIVE FOR EXNIHILATED PARTICLES BETWEEN LAMBDA = 0 AND LAMBDA = 1
Info: FEP BOND ACTIVE FOR ANNIHILATED PARTICLES BETWEEN LAMBDA = 1 AND LAMBDA = 1
Info: FEP BOND ACTIVE FOR EXNIHILATED PARTICLES BETWEEN LAMBDA = 0 AND LAMBDA = 0
Info: LANGEVIN DYNAMICS ACTIVE
Info: LANGEVIN TEMPERATURE   300
Info: LANGEVIN USING BBK INTEGRATOR
Info: LANGEVIN DAMPING COEFFICIENT IS 1 INVERSE PS
Info: LANGEVIN DYNAMICS APPLIED TO HYDROGENS
Info: LANGEVIN PISTON PRESSURE CONTROL ACTIVE
Info:        TARGET PRESSURE IS 1.01325 BAR
Info:     OSCILLATION PERIOD IS 50 FS
Info:             DECAY TIME IS 25 FS
Info:     PISTON TEMPERATURE IS 300 K
Info:       PRESSURE CONTROL IS GROUP-BASED
Info:    INITIAL STRAIN RATE IS -0.000160253 -0.000160253 -0.000160253
Info:       CELL FLUCTUATION IS ISOTROPIC
Info: PARTICLE MESH EWALD (PME) ACTIVE
Info: PME TOLERANCE               1e-06
Info: PME EWALD COEFFICIENT       0.348832
Info: PME INTERPOLATION ORDER     4
Info: PME GRID DIMENSIONS         32 32 36
Info: PME MAXIMUM GRID SPACING    1
Info: PME CALCULATION WILL BE PERFORMED ON GPU
Info: FULL ELECTROSTATIC EVALUATION FREQUENCY      2
Info: USING VERLET I (r-RESPA) MTS SCHEME.
Info: C1 SPLITTING OF LONG RANGE ELECTROSTATICS
Info: PLACING ATOMS IN PATCHES BY HYDROGEN GROUPS
Info: RIGID BONDS TO HYDROGEN : ALL
Info:         ERROR TOLERANCE : 1e-08
Info:          MAX ITERATIONS : 100
Info: RIGID WATER USING SETTLE ALGORITHM
Info: RANDOM NUMBER SEED     1743551883
Info: USE HYDROGEN BONDS?    NO
Info: Using AMBER format force field!
Info: AMBER PARM FILE        mobley_8789465.prmtop
Info: COORDINATE PDB         mobley_8789465.pdb
Info: Exclusions will be read from PARM file!
Info: SCNB (VDW SCALING)     2
Info: USING ARITHMETIC MEAN TO COMBINE L-J SIGMA PARAMETERS
Info: BINARY COORDINATES     mobley_8789465_equil.coor
Info: SUMMARY OF PARAMETERS:
Info: 7 BONDS
Info: 5 ANGLES
Info:   5 HARMONIC
Info:   0 COSINE-BASED
Info: 3 DIHEDRAL
Info: 0 IMPROPER
Info: 0 CROSSTERM
Info: 0 VDW
Info: 21 VDW_PAIRS
Info: 0 NBTHOLE_PAIRS
Info: To read alchdata from file: mobley_8789465.pdb
Info: To read alchflag data from column: 5
Info: STRUCTURE SUMMARY:
Info: 2932 ATOMS
Info: 2932 BONDS
Info: 19 ANGLES
Info: 32 DIHEDRALS
Info: 0 IMPROPERS
Info: 0 CROSSTERMS
Info: 2974 EXCLUSIONS
Info: 2924 RIGID BONDS
Info: ALCH: 0 ATOMS TO DISAPPEAR IN FINAL STATE
Info: ALCH: 13 ATOMS TO APPEAR IN FINAL STATE
Info: 5872 DEGREES OF FREEDOM
Info: 981 HYDROGEN GROUPS
Info: 3 ATOMS IN LARGEST HYDROGEN GROUP
Info: 981 MIGRATION GROUPS
Info: 3 ATOMS IN LARGEST MIGRATION GROUP
Info: TOTAL MASS = 17749.6 amu
Info: TOTAL CHARGE = 7.45058e-09 e
Info: MASS DENSITY = 0.971065 g/cm^3
Info: ATOM DENSITY = 0.0965974 atoms/A^3
Info: ADDED 0 IMPLICIT EXCLUSIONS
Info: NONBONDED TABLE R-SQUARED SPACING: 0.0625
Info: NONBONDED TABLE SIZE: 705 POINTS
Info: REMOVING COM VELOCITY 0.129709 -0.0273046 0.142613
Info: Use 3D box decompostion in PME FFT.
Info: Updated CUDA force table with 4096 elements.
Info: Updated CUDA LJ table with 6 x 6 elements.
Info: Found 15 unique exclusion lists needing 28 bytes
TCL: Running for 1500000 steps
ETITLE: TS BOND ANGLE DIHED IMPRP ELECT VDW BOUNDARY MISC KINETIC TOTAL TEMP POTENTIAL TOTALAVG TEMPAVG PRESSURE GPRESSURE VOLUME PRESSAVG GPRESSAVG
ENERGY: 0 4.5204 2.8767 3.0166 0.0000 -10681.9079 1476.5394 0.0000 0.0000 1721.3900 -7473.5649 295.0418 -9194.9548 -7473.5649 295.0418 109.6798 201.1070 30352.7985 109.6798 201.1070
ENERGY: 300000 3.4727 1.5982 2.5146 0.0000 -10572.5737 1392.3569 0.0000 0.0000 1729.0604 -7443.5709 296.3565 -9172.6313 -7436.0734 299.1755 -565.1867 -503.4023 30744.9628 -87.9067 -41.5833
ENERGY: 600000 1.7812 1.8035 3.9496 0.0000 -10588.1586 1428.4571 0.0000 0.0000 1743.1767 -7408.9905 298.7760 -9152.1672 -7443.4329 298.1900 -40.2419 18.8817 30326.7776 60.0368 103.6104
ENERGY: 900000 2.8553 2.7532 2.2730 0.0000 -10548.7944 1376.1470 0.0000 0.0000 1727.4967 -7437.2692 296.0885 -9164.7659 -7431.6766 298.0874 -668.0419 -539.4913 30076.0063 20.7018 76.9866
ENERGY: 1200000 3.2020 6.1218 5.2391 0.0000 -10833.3597 1610.7592 0.0000 0.0000 1723.3028 -7484.7348 295.3697 -9208.0376 -7428.2127 298.7459 1609.7530 1655.5025 29702.8039 18.3334 79.8716
ENERGY: 1500000 3.1068 1.8480 3.1958 0.0000 -10626.3899 1420.8098 0.0000 0.0000 1724.1685 -7473.2610 295.5181 -9197.4295 -7432.8931 297.8158 -286.0336 -304.5553 30371.9604 -28.7397 28.1342
TCL: Running FEP window   2: Lambda1 0.05   Lambda2 0.1    [dLambda 0.05  ]
TCL: Setting parameter firsttimestep to 0
TCL: Setting parameter alchLambda to 0.05
Info: NONBONDED TABLE R-SQUARED SPACING: 0.0625
Info: NONBONDED TABLE SIZE: 705 POINTS
TCL: Setting parameter alchLambda2 to 0.1
Info: NONBONDED TABLE R-SQUARED SPACING: 0.0625
Info: NONBONDED TABLE SIZE: 705 POINTS
TCL: Running for 1500000 steps
ETITLE: TS BOND ANGLE DIHED IMPRP ELECT VDW BOUNDARY MISC KINETIC TOTAL TEMP POTENTIAL TOTALAVG TEMPAVG PRESSURE GPRESSURE VOLUME PRESSAVG GPRESSAVG
ENERGY: 0 3.1068 1.8480 3.1958 0.0000 -10626.3898 1434.0307 0.0000 0.0000 1723.2960 -7460.9125 295.3685 -9184.2085 -7460.9125 295.3685 -376.7415 -297.6920 30371.9604 -376.7415 -297.6920
ENERGY: 300000 1.6252 2.8946 1.6123 0.0000 -10640.2722 1424.3772 0.0000 0.0000 1804.9434 -7404.8194 309.3627 -9209.7629 -7431.3169 303.5706 -386.0847 -360.5380 30595.0844 -426.1302 -380.1492
ENERGY: 600000 1.8749 1.8921 3.2552 0.0000 -10630.1682 1384.6775 0.0000 0.0000 1709.1477 -7529.3208 292.9435 -9238.4685 -7439.2911 302.7069 -401.5398 -445.4833 29721.9856 -567.1826 -528.0100
ENERGY: 900000 2.8823 6.1994 2.6593 0.0000 -10691.6620 1459.7645 0.0000 0.0000 1708.0472 -7512.1093 292.7549 -9220.1565 -7445.2069 301.8358 52.9504 88.5196 29951.5734 -397.3077 -355.9206
ENERGY: 1200000 1.6863 3.6536 2.4152 0.0000 -10513.6045 1371.6151 0.0000 0.0000 1753.3228 -7380.9116 300.5150 -9134.2344 -7444.1926 301.1901 -581.8297 -525.3017 30489.2580 -371.6086 -329.0069
ENERGY: 1500000 2.9560 1.9380 3.1785 0.0000 -10669.2269 1474.6997 0.0000 0.0000 1780.7047 -7405.7501 305.2082 -9186.4548 -7446.4793 301.3099 641.4589 660.7186 29525.0844 -345.8916 -300.8438
TCL: Running FEP window   3: Lambda1 0.1    Lambda2 0.15000000000000002 [dLambda 0.05000000000000002]
TCL: Setting parameter firsttimestep to 0
TCL: Setting parameter alchLambda to 0.1
Info: NONBONDED TABLE R-SQUARED SPACING: 0.0625
Info: NONBONDED TABLE SIZE: 705 POINTS
TCL: Setting parameter alchLambda2 to 0.15000000000000002
Info: NONBONDED TABLE R-SQUARED SPACING: 0.0625
Info: NONBONDED TABLE SIZE: 705 POINTS
TCL: Running for 1500000 steps
ETITLE: TS BOND ANGLE DIHED IMPRP ELECT VDW BOUNDARY MISC KINETIC TOTAL TEMP POTENTIAL TOTALAVG TEMPAVG PRESSURE GPRESSURE VOLUME PRESSAVG GPRESSAVG
ENERGY: 0 2.9560 1.9380 3.1785 0.0000 -10669.2277 1476.3036 0.0000 0.0000 1779.8446 -7405.0070 305.0608 -9184.8516 -7405.0070 305.0608 590.6556 665.8630 29525.0844 590.6556 665.8630
ENERGY: 300000 2.2759 6.7837 6.4240 0.0000 -10667.4564 1469.6138 0.0000 0.0000 1735.7725 -7446.5866 297.5070 -9182.3591 -7433.7300 298.7172 187.4008 244.9549 30335.8618 -56.0723 18.7344
ENERGY: 600000 4.1677 2.9481 1.5694 0.0000 -10629.9283 1453.7663 0.0000 0.0000 1767.1559 -7400.3208 302.8860 -9167.4767 -7440.6045 298.2947 84.9096 119.2024 30749.9973 -93.8259 -29.9148
ENERGY: 900000 2.5321 0.9668 1.6231 0.0000 -10568.7223 1399.7722 0.0000 0.0000 1737.8107 -7426.0173 297.8563 -9163.8281 -7431.9967 298.8037 -189.0547 -121.3811 30377.4058 -182.5933 -131.9404
ENERGY: 1200000 1.4434 2.1307 2.4205 0.0000 -10556.2621 1430.0218 0.0000 0.0000 1746.7312 -7373.5145 299.3853 -9120.2457 -7421.6530 299.0615 -140.7440 -97.0665 30754.2689 -165.4844 -120.8902
ENERGY: 1500000 5.7779 4.0203 3.0228 0.0000 -10719.8000 1516.9409 0.0000 0.0000 1724.1903 -7465.8478 295.5218 -9190.0381 -7434.7587 299.0724 966.1429 993.3310 29456.0437 -92.8656 -41.8358
TCL: Running FEP window   4: Lambda1 0.15000000000000002 Lambda2 0.2    [dLambda 0.04999999999999999]
TCL: Setting parameter firsttimestep to 0
TCL: Setting parameter alchLambda to 0.15000000000000002
Info: NONBONDED TABLE R-SQUARED SPACING: 0.0625
Info: NONBONDED TABLE SIZE: 705 POINTS
TCL: Setting parameter alchLambda2 to 0.2
Info: NONBONDED TABLE R-SQUARED SPACING: 0.0625
Info: NONBONDED TABLE SIZE: 705 POINTS
TCL: Running for 1500000 steps
ETITLE: TS BOND ANGLE DIHED IMPRP ELECT VDW BOUNDARY MISC KINETIC TOTAL TEMP POTENTIAL TOTALAVG TEMPAVG PRESSURE GPRESSURE VOLUME PRESSAVG GPRESSAVG
ENERGY: 0 5.7780 4.0203 3.0228 0.0000 -10719.8011 1517.8479 0.0000 0.0000 1723.3011 -7465.8310 295.3694 -9189.1322 -7465.8310 295.3694 930.4988 1004.1278 29456.0437 930.4988 1004.1278
ENERGY: 300000 4.3924 3.9077 4.4326 0.0000 -10656.3701 1434.3035 0.0000 0.0000 1764.5856 -7444.7483 302.4455 -9209.3340 -7475.3783 296.1139 -286.9653 -290.3518 30558.0243 207.7644 263.0127
ENERGY: 600000 0.6322 6.3978 2.0750 0.0000 -10741.7588 1458.0288 0.0000 0.0000 1666.1331 -7608.4918 285.5710 -9274.6249 -7503.7555 294.5570 -314.2218 -271.0125 30415.7003 141.2693 195.4717
ENERGY: 900000 1.9937 2.2291 2.7939 0.0000 -10738.7468 1511.2418 0.0000 0.0000 1771.7885 -7448.6998 303.6800 -9220.4883 -7483.4772 295.7691 334.9608 430.4081 30384.6314 221.1120 288.2882
ENERGY: 1200000 2.6774 5.9533 1.3541 0.0000 -10462.8819 1355.0782 0.0000 0.0000 1739.7916 -7358.0272 298.1958 -9097.8188 -7472.2352 296.2407 -440.3647 -340.0868 30240.2251 172.5642 236.9866
ENERGY: 1500000 3.5236 3.6612 0.5754 0.0000 -10579.1815 1369.1097 0.0000 0.0000 1689.6243 -7512.6873 289.5973 -9202.3116 -7472.8743 295.8768 -615.2291 -574.2357 30220.7770 96.3498 152.1366
TCL: Running FEP window   5: Lambda1 0.2    Lambda2 0.25   [dLambda 0.04999999999999999]
TCL: Setting parameter firsttimestep to 0
TCL: Setting parameter alchLambda to 0.2
Info: NONBONDED TABLE R-SQUARED SPACING: 0.0625
Info: NONBONDED TABLE SIZE: 705 POINTS
TCL: Setting parameter alchLambda2 to 0.25
Info: NONBONDED TABLE R-SQUARED SPACING: 0.0625
Info: NONBONDED TABLE SIZE: 705 POINTS
TCL: Running for 1500000 steps
ETITLE: TS BOND ANGLE DIHED IMPRP ELECT VDW BOUNDARY MISC KINETIC TOTAL TEMP POTENTIAL TOTALAVG TEMPAVG PRESSURE GPRESSURE VOLUME PRESSAVG GPRESSAVG
ENERGY: 0 3.5236 3.6612 0.5754 0.0000 -10579.1829 1368.7494 0.0000 0.0000 1688.7630 -7513.9103 289.4497 -9202.6733 -7513.9103 289.4497 -679.8909 -575.6971 30220.7770 -679.8909 -575.6971
ENERGY: 300000 2.0485 6.6589 3.9165 0.0000 -10687.7156 1462.3870 0.0000 0.0000 1779.1119 -7433.5929 304.9352 -9212.7048 -7475.2507 298.5937 463.3442 558.5336 29827.0032 -68.7154 -7.4391
ENERGY: 600000 2.2612 2.3042 1.6087 0.0000 -10734.2428 1449.1871 0.0000 0.0000 1829.9849 -7448.8968 313.6547 -9278.8817 -7457.2071 302.8966 29.7526 81.8207 29879.2012 -74.3537 -6.2080
ENERGY: 900000 1.9787 3.1136 4.9966 0.0000 -10578.1770 1393.7660 0.0000 0.0000 1795.7597 -7378.5624 307.7886 -9174.3221 -7439.8844 303.1747 -331.3445 -246.4623 30348.3443 -228.8657 -154.6444
ENERGY: 1200000 0.3759 3.8868 3.3830 0.0000 -10609.4091 1428.1971 0.0000 0.0000 1799.9779 -7373.5884 308.5116 -9173.5663 -7432.9677 303.2642 44.0353 139.0634 30144.4456 -72.2458 2.9938
ENERGY: 1500000 2.3172 2.8318 2.8349 0.0000 -10713.1479 1460.5721 0.0000 0.0000 1764.3513 -7480.2406 302.4053 -9244.5919 -7439.4490 302.4572 256.3830 336.6924 29697.8083 -69.5890 0.5263
TCL: Running FEP window   6: Lambda1 0.25   Lambda2 0.3    [dLambda 0.04999999999999999]
TCL: Setting parameter firsttimestep to 0
TCL: Setting parameter alchLambda to 0.25
Info: NONBONDED TABLE R-SQUARED SPACING: 0.0625
Info: NONBONDED TABLE SIZE: 705 POINTS
TCL: Setting parameter alchLambda2 to 0.3
Info: NONBONDED TABLE R-SQUARED SPACING: 0.0625
Info: NONBONDED TABLE SIZE: 705 POINTS
TCL: Running for 1500000 steps
ETITLE: TS BOND ANGLE DIHED IMPRP ELECT VDW BOUNDARY MISC KINETIC TOTAL TEMP POTENTIAL TOTALAVG TEMPAVG PRESSURE GPRESSURE VOLUME PRESSAVG GPRESSAVG
ENERGY: 0 2.3172 2.8318 2.8349 0.0000 -10713.1487 1461.2499 0.0000 0.0000 1763.5091 -7480.4059 302.2609 -9243.9150 -7480.4059 302.2609 268.2972 344.2416 29697.8083 268.2972 344.2416
ENERGY: 300000 2.6971 1.5798 3.7631 0.0000 -10700.6933 1458.2894 0.0000 0.0000 1768.3192 -7466.0447 303.0854 -9234.3640 -7417.3922 304.2509 286.9443 388.2930 29687.4768 17.0808 89.8774
ENERGY: 600000 3.9478 3.1200 3.2226 0.0000 -10739.9355 1518.1846 0.0000 0.0000 1817.3133 -7394.1471 311.4829 -9211.4605 -7428.6809 303.0176 797.3068 864.9972 29730.1371 298.9230 370.9804
ENERGY: 900000 2.1001 3.6411 1.1821 0.0000 -10593.1542 1423.7180 0.0000 0.0000 1782.1978 -7380.3151 305.4641 -9162.5129 -7430.6227 303.7299 35.3943 70.4836 30102.2111 44.2711 109.7998
ENERGY: 1200000 2.0310 4.5725 1.0317 0.0000 -10556.5595 1381.0791 0.0000 0.0000 1770.4401 -7397.4052 303.4489 -9167.8452 -7433.4140 303.7222 -205.9107 -167.1821 30065.6231 -36.5654 24.3509
ENERGY: 1500000 3.7095 3.7300 2.7495 0.0000 -10593.1608 1352.7702 0.0000 0.0000 1796.9301 -7433.2716 307.9892 -9230.2017 -7430.0758 303.7478 -1010.9417 -940.7079 30439.4127 -29.5219 26.2688
TCL: Running FEP window   7: Lambda1 0.3    Lambda2 0.35   [dLambda 0.04999999999999999]
TCL: Setting parameter firsttimestep to 0
TCL: Setting parameter alchLambda to 0.3
Info: NONBONDED TABLE R-SQUARED SPACING: 0.0625
Info: NONBONDED TABLE SIZE: 705 POINTS
TCL: Setting parameter alchLambda2 to 0.35
Info: NONBONDED TABLE R-SQUARED SPACING: 0.0625
Info: NONBONDED TABLE SIZE: 705 POINTS
TCL: Running for 1500000 steps
ETITLE: TS BOND ANGLE DIHED IMPRP ELECT VDW BOUNDARY MISC KINETIC TOTAL TEMP POTENTIAL TOTALAVG TEMPAVG PRESSURE GPRESSURE VOLUME PRESSAVG GPRESSAVG
ENERGY: 0 3.7095 3.7300 2.7495 0.0000 -10593.1614 1353.3852 0.0000 0.0000 1796.0425 -7433.5448 307.8371 -9229.5873 -7433.5448 307.8371 -1017.9778 -930.6935 30439.4127 -1017.9778 -930.6935
ENERGY: 300000 0.8088 1.0686 2.3070 0.0000 -10454.4224 1356.5663 0.0000 0.0000 1775.6950 -7317.9767 304.3496 -9093.6717 -7413.8707 305.1492 -414.7723 -352.4981 30819.4678 -715.7992 -658.9604
ENERGY: 600000 2.2864 1.5067 2.7917 0.0000 -10472.4958 1318.7346 0.0000 0.0000 1710.8678 -7436.3086 293.2384 -9147.1764 -7437.8077 302.2584 -1089.8620 -1073.3531 30714.1703 -666.8844 -597.5327
ENERGY: 900000 5.3117 1.5786 3.1573 0.0000 -10673.9757 1428.7843 0.0000 0.0000 1726.0286 -7509.1153 295.8369 -9235.1439 -7449.3308 301.4114 -254.5805 -210.7485 30066.4219 -415.3004 -349.2391
ENERGY: 1200000 2.9520 2.3299 0.9145 0.0000 -10588.5265 1414.1751 0.0000 0.0000 1786.6062 -7381.5489 306.2197 -9168.1551 -7439.9508 301.3683 -35.3924 35.3173 30125.4395 -373.9635 -308.9241
ENERGY: 1500000 1.6268 5.2070 2.1596 0.0000 -10607.9592 1415.3144 0.0000 0.0000 1820.6767 -7362.9746 312.0593 -9183.6514 -7437.1762 301.8103 -196.6416 -128.1489 30271.3797 -292.1118 -220.9286
TCL: Running FEP window   8: Lambda1 0.35   Lambda2 0.39999999999999997 [dLambda 0.04999999999999999]
TCL: Setting parameter firsttimestep to 0
TCL: Setting parameter alchLambda to 0.35
Info: NONBONDED TABLE R-SQUARED SPACING: 0.0625
Info: NONBONDED TABLE SIZE: 705 POINTS
TCL: Setting parameter alchLambda2 to 0.39999999999999997
Info: NONBONDED TABLE R-SQUARED SPACING: 0.0625
Info: NONBONDED TABLE SIZE: 705 POINTS
TCL: Running for 1500000 steps
ETITLE: TS BOND ANGLE DIHED IMPRP ELECT VDW BOUNDARY MISC KINETIC TOTAL TEMP POTENTIAL TOTALAVG TEMPAVG PRESSURE GPRESSURE VOLUME PRESSAVG GPRESSAVG
ENERGY: 0 1.6268 5.2070 2.1596 0.0000 -10607.9611 1415.4477 0.0000 0.0000 1819.8131 -7363.7069 311.9113 -9183.5200 -7363.7069 311.9113 -197.4617 -120.7225 30271.3797 -197.4617 -120.7225
ENERGY: 300000 1.6175 6.3985 8.5136 0.0000 -10504.3615 1284.9664 0.0000 0.0000 1806.6520 -7396.2135 309.6555 -9202.8656 -7422.5805 303.9426 -1032.8396 -985.5735 30112.6379 -410.7319 -344.9924
ENERGY: 600000 3.2198 2.9847 2.9636 0.0000 -10743.1433 1489.3290 0.0000 0.0000 1717.3977 -7527.2484 294.3576 -9244.6462 -7441.8675 301.6058 444.7144 474.3123 29965.3447 -263.5282 -203.9223
ENERGY: 900000 4.0324 2.6477 2.7948 0.0000 -10626.7380 1381.0636 0.0000 0.0000 1837.3016 -7398.8979 314.9088 -9236.1995 -7435.5029 303.0062 -604.8994 -512.9465 30401.2858 -224.8606 -158.5748
ENERGY: 1200000 1.2753 4.7461 2.0948 0.0000 -10600.6224 1416.2743 0.0000 0.0000 1753.4329 -7422.7989 300.5339 -9176.2318 -7434.4727 302.7445 -102.0116 -40.1123 30162.1633 -195.3489 -134.2274
ENERGY: 1500000 4.4600 6.7343 1.7515 0.0000 -10634.3345 1385.1789 0.0000 0.0000 1705.2177 -7530.9921 292.2700 -9236.2098 -7442.6528 302.2860 -361.9689 -289.6326 29653.5879 -199.4791 -135.5645
TCL: Running FEP window   9: Lambda1 0.39999999999999997 Lambda2 0.44999999999999996 [dLambda 0.04999999999999999]
TCL: Setting parameter firsttimestep to 0
TCL: Setting parameter alchLambda to 0.39999999999999997
Info: NONBONDED TABLE R-SQUARED SPACING: 0.0625
Info: NONBONDED TABLE SIZE: 705 POINTS
TCL: Setting parameter alchLambda2 to 0.44999999999999996
Info: NONBONDED TABLE R-SQUARED SPACING: 0.0625
Info: NONBONDED TABLE SIZE: 705 POINTS
TCL: Running for 1500000 steps
ETITLE: TS BOND ANGLE DIHED IMPRP ELECT VDW BOUNDARY MISC KINETIC TOTAL TEMP POTENTIAL TOTALAVG TEMPAVG PRESSURE GPRESSURE VOLUME PRESSAVG GPRESSAVG
ENERGY: 0 4.4600 6.7343 1.7515 0.0000 -10634.3343 1384.9010 0.0000 0.0000 1704.3707 -7532.1168 292.1248 -9236.4875 -7532.1168 292.1248 -370.5775 -285.5221 29653.5879 -370.5775 -285.5221
ENERGY: 300000 2.0306 4.5332 1.5515 0.0000 -10567.6377 1334.9435 0.0000 0.0000 1732.2315 -7492.3474 296.9000 -9224.5789 -7494.9920 298.2282 -772.8881 -726.8905 30119.6856 -287.3260 -225.5282
ENERGY: 600000 2.8329 2.5524 4.5208 0.0000 -10658.7778 1462.5379 0.0000 0.0000 1720.1290 -7466.2047 294.8257 -9186.3337 -7469.9618 298.4840 275.7994 268.4329 30304.0261 -11.0206 44.2710
ENERGY: 900000 2.7835 4.2480 2.4304 0.0000 -10652.4570 1455.0710 0.0000 0.0000 1774.6590 -7413.2650 304.1720 -9187.9240 -7474.1386 298.1257 -74.4396 20.8997 30202.9513 -150.3719 -89.4660
ENERGY: 1200000 2.2278 3.6623 1.5081 0.0000 -10626.1507 1449.3352 0.0000 0.0000 1768.3687 -7401.0486 303.0939 -9169.4173 -7464.2801 298.9289 -270.9073 -190.6842 30949.9365 -171.9916 -109.6052
ENERGY: 1500000 1.9708 3.3373 2.3664 0.0000 -10637.1114 1388.9661 0.0000 0.0000 1756.9770 -7483.4937 301.1414 -9240.4708 -7464.1323 299.4454 -293.2428 -323.5643 29797.4177 -144.3744 -92.7605
TCL: Running FEP window  10: Lambda1 0.44999999999999996 Lambda2 0.49999999999999994 [dLambda 0.04999999999999999]
TCL: Setting parameter firsttimestep to 0
TCL: Setting parameter alchLambda to 0.44999999999999996
Info: NONBONDED TABLE R-SQUARED SPACING: 0.0625
Info: NONBONDED TABLE SIZE: 705 POINTS
TCL: Setting parameter alchLambda2 to 0.49999999999999994
Info: NONBONDED TABLE R-SQUARED SPACING: 0.0625
Info: NONBONDED TABLE SIZE: 705 POINTS
TCL: Running for 1500000 steps
ETITLE: TS BOND ANGLE DIHED IMPRP ELECT VDW BOUNDARY MISC KINETIC TOTAL TEMP POTENTIAL TOTALAVG TEMPAVG PRESSURE GPRESSURE VOLUME PRESSAVG GPRESSAVG
ENERGY: 0 1.9708 3.3373 2.3664 0.0000 -10637.1096 1388.4933 0.0000 0.0000 1756.1258 -7484.8160 300.9955 -9240.9418 -7484.8160 300.9955 -408.5866 -320.9161 29797.4177 -408.5866 -320.9161
ENERGY: 300000 0.1947 1.4627 3.5456 0.0000 -10677.1141 1365.0189 0.0000 0.0000 1742.9714 -7563.9208 298.7408 -9306.8922 -7498.9169 299.6728 -1045.2099 -1041.9855 30617.1161 -429.4227 -366.4739
ENERGY: 600000 0.6343 4.0527 3.1669 0.0000 -10450.1111 1318.6055 0.0000 0.0000 1781.4868 -7342.1650 305.3423 -9123.6518 -7433.4151 302.7922 -864.3282 -838.7373 30918.1980 -306.7669 -250.8032
ENERGY: 900000 1.5621 2.1641 5.4661 0.0000 -10639.1001 1438.6532 0.0000 0.0000 1786.2312 -7405.0234 306.1555 -9191.2546 -7430.7219 302.5992 -144.3566 -2.8580 30454.5279 -306.7244 -232.7395
ENERGY: 1200000 2.3564 3.0767 2.4638 0.0000 -10633.4311 1382.0865 0.0000 0.0000 1796.1469 -7447.3008 307.8550 -9243.4477 -7430.2162 302.0048 -589.9663 -482.1443 30173.2877 -297.0049 -218.3051
ENERGY: 1500000 4.4559 2.6038 2.3388 0.0000 -10660.0212 1448.4110 0.0000 0.0000 1758.5849 -7443.6268 301.4170 -9202.2117 -7433.5859 300.9011 528.3430 591.0200 29551.2789 -148.1304 -76.0472
TCL: Running FEP window  11: Lambda1 0.49999999999999994 Lambda2 0.5499999999999999 [dLambda 0.04999999999999999]
TCL: Setting parameter firsttimestep to 0
TCL: Setting parameter alchLambda to 0.49999999999999994
Info: NONBONDED TABLE R-SQUARED SPACING: 0.0625
Info: NONBONDED TABLE SIZE: 705 POINTS
TCL: Setting parameter alchLambda2 to 0.5499999999999999
Info: NONBONDED TABLE R-SQUARED SPACING: 0.0625
Info: NONBONDED TABLE SIZE: 705 POINTS
TCL: Running for 1500000 steps
ETITLE: TS BOND ANGLE DIHED IMPRP ELECT VDW BOUNDARY MISC KINETIC TOTAL TEMP POTENTIAL TOTALAVG TEMPAVG PRESSURE GPRESSURE VOLUME PRESSAVG GPRESSAVG
ENERGY: 0 4.4559 2.6038 2.3388 0.0000 -10660.0232 1448.2166 0.0000 0.0000 1757.7276 -7444.6805 301.2700 -9202.4081 -7444.6805 301.2700 512.3602 594.9533 29551.2789 512.3602 594.9533
ENERGY: 300000 2.7862 1.4388 1.7492 0.0000 -10549.5658 1383.7861 0.0000 0.0000 1746.8708 -7412.9345 299.4092 -9159.8054 -7450.1934 299.0974 -319.5814 -301.9528 30301.5362 98.5947 138.9551
ENERGY: 600000 2.0712 4.9268 2.9248 0.0000 -10757.7339 1531.9794 0.0000 0.0000 1730.0887 -7485.7430 296.5328 -9215.8317 -7449.1628 299.5800 619.5562 609.6143 30274.0071 194.0331 222.4797
ENERGY: 900000 3.2397 8.3944 1.8833 0.0000 -10673.5955 1378.7139 0.0000 0.0000 1774.6458 -7506.7185 304.1698 -9281.3643 -7470.5300 299.1465 -723.9312 -661.7984 30088.6227 152.7439 187.3068
ENERGY: 1200000 1.3995 3.3670 3.1819 0.0000 -10680.0434 1383.3036 0.0000 0.0000 1766.5412 -7522.2501 302.7807 -9288.7914 -7473.9722 298.7968 -476.3936 -437.0146 29732.1585 132.0377 169.8084
ENERGY: 1500000 1.4919 2.9879 3.0489 0.0000 -10725.7853 1517.0312 0.0000 0.0000 1766.5793 -7434.6461 302.7872 -9201.2254 -7472.8269 298.8563 918.1132 964.6916 29943.4300 194.3896 239.2338
TCL: Running FEP window  12: Lambda1 0.5499999999999999 Lambda2 0.6    [dLambda 0.050000000000000044]
TCL: Setting parameter firsttimestep to 0
TCL: Setting parameter alchLambda to 0.5499999999999999
Info: NONBONDED TABLE R-SQUARED SPACING: 0.0625
Info: NONBONDED TABLE SIZE: 705 POINTS
TCL: Setting parameter alchLambda2 to 0.6
Info: NONBONDED TABLE R-SQUARED SPACING: 0.0625
Info: NONBONDED TABLE SIZE: 705 POINTS
TCL: Running for 1500000 steps
ETITLE: TS BOND ANGLE DIHED IMPRP ELECT VDW BOUNDARY MISC KINETIC TOTAL TEMP POTENTIAL TOTALAVG TEMPAVG PRESSURE GPRESSURE VOLUME PRESSAVG GPRESSAVG
ENERGY: 0 1.4919 2.9879 3.0489 0.0000 -10725.7325 1516.6681 0.0000 0.0000 1765.6923 -7435.8434 302.6351 -9201.5357 -7435.8434 302.6351 890.4338 972.7896 29943.4300 890.4338 972.7896
ENERGY: 300000 6.1863 4.0490 2.9920 0.0000 -10629.6959 1455.5591 0.0000 0.0000 1780.7889 -7380.1206 305.2227 -9160.9095 -7414.0826 303.2576 180.0439 244.8358 30311.8548 129.9822 212.8468
ENERGY: 600000 1.3384 4.2495 2.2795 0.0000 -10651.9322 1498.6248 0.0000 0.0000 1739.9042 -7405.5358 298.2151 -9145.4400 -7400.9666 303.5008 792.0410 837.4542 29793.8111 61.6463 138.3263
ENERGY: 900000 2.7281 8.3939 2.7725 0.0000 -10636.1096 1478.4430 0.0000 0.0000 1751.7220 -7392.0502 300.2407 -9143.7722 -7409.2624 303.0953 778.1715 878.8051 29655.9123 190.5313 265.2598
ENERGY: 1200000 3.7145 5.1959 2.0103 0.0000 -10720.1468 1470.8048 0.0000 0.0000 1720.7607 -7517.6605 294.9340 -9238.4213 -7422.9343 301.1490 10.3802 108.5110 29971.4657 143.0589 218.3788
ENERGY: 1500000 2.1150 3.3896 2.4750 0.0000 -10760.1059 1485.7001 0.0000 0.0000 1704.6302 -7561.7960 292.1693 -9266.4262 -7428.3691 300.6034 261.7306 308.3982 30117.5176 50.1285 118.2843
TCL: Running FEP window  13: Lambda1 0.6    Lambda2 0.65   [dLambda 0.050000000000000044]
TCL: Setting parameter firsttimestep to 0
TCL: Setting parameter alchLambda to 0.6
Info: NONBONDED TABLE R-SQUARED SPACING: 0.0625
Info: NONBONDED TABLE SIZE: 705 POINTS
TCL: Setting parameter alchLambda2 to 0.65
Info: NONBONDED TABLE R-SQUARED SPACING: 0.0625
Info: NONBONDED TABLE SIZE: 705 POINTS
TCL: Running for 1500000 steps
ETITLE: TS BOND ANGLE DIHED IMPRP ELECT VDW BOUNDARY MISC KINETIC TOTAL TEMP POTENTIAL TOTALAVG TEMPAVG PRESSURE GPRESSURE VOLUME PRESSAVG GPRESSAVG
ENERGY: 0 2.1150 3.3896 2.4750 0.0000 -10760.2822 1485.3377 0.0000 0.0000 1703.7714 -7563.1935 292.0221 -9266.9649 -7563.1935 292.0221 232.6150 311.2130 30117.5176 232.6150 311.2130
ENERGY: 300000 0.7501 1.8159 2.3762 0.0000 -10741.0782 1513.6121 0.0000 0.0000 1809.4828 -7413.0411 310.1407 -9222.5239 -7428.2565 303.0383 729.7580 821.9432 29921.7874 306.3057 392.3602
ENERGY: 600000 4.2980 1.9805 4.1471 0.0000 -10652.5539 1485.6170 0.0000 0.0000 1749.6635 -7406.8479 299.8878 -9156.5114 -7424.6270 300.9424 452.3115 515.7910 30415.4814 194.6098 259.2309
ENERGY: 900000 3.3773 3.6839 3.4264 0.0000 -10705.9644 1476.0695 0.0000 0.0000 1769.3259 -7450.0813 303.2579 -9219.4073 -7436.3649 300.9988 189.8154 229.3972 30391.4999 115.9357 179.7191
ENERGY: 1200000 2.8519 2.6911 2.4055 0.0000 -10573.5374 1388.4266 0.0000 0.0000 1679.0011 -7498.1612 287.7765 -9177.1623 -7448.4873 299.4627 -428.2173 -396.9315 30305.4598 -33.9155 26.5908
ENERGY: 1500000 3.0049 3.6785 0.9902 0.0000 -10686.5574 1445.8644 0.0000 0.0000 1741.4135 -7491.6060 298.4738 -9233.0194 -7445.1499 299.3465 -201.0327 -116.7386 30405.6149 -5.9945 53.7505
TCL: Running FEP window  14: Lambda1 0.65   Lambda2 0.7000000000000001 [dLambda 0.050000000000000044]
TCL: Setting parameter firsttimestep to 0
TCL: Setting parameter alchLambda to 0.65
Info: NONBONDED TABLE R-SQUARED SPACING: 0.0625
Info: NONBONDED TABLE SIZE: 705 POINTS
TCL: Setting parameter alchLambda2 to 0.7000000000000001
Info: NONBONDED TABLE R-SQUARED SPACING: 0.0625
Info: NONBONDED TABLE SIZE: 705 POINTS
TCL: Running for 1500000 steps
ETITLE: TS BOND ANGLE DIHED IMPRP ELECT VDW BOUNDARY MISC KINETIC TOTAL TEMP POTENTIAL TOTALAVG TEMPAVG PRESSURE GPRESSURE VOLUME PRESSAVG GPRESSAVG
ENERGY: 0 3.0049 3.6785 0.9902 0.0000 -10686.7255 1445.2648 0.0000 0.0000 1740.5500 -7493.2371 298.3258 -9233.7872 -7493.2371 298.3258 -209.4104 -113.2122 30405.6149 -209.4104 -113.2122
ENERGY: 300000 1.2398 2.2765 2.5942 0.0000 -10471.8283 1299.9021 0.0000 0.0000 1708.3229 -7457.4927 292.8022 -9165.8157 -7463.0209 300.0130 -612.4799 -607.2496 29776.4824 -133.3855 -71.1301
ENERGY: 600000 1.1541 2.1661 5.2467 0.0000 -10750.4314 1514.1944 0.0000 0.0000 1726.3821 -7501.2879 295.8975 -9227.6700 -7455.9398 298.7826 578.1549 657.9330 30026.9338 -210.2351 -150.3780
ENERGY: 900000 2.2619 6.1786 2.5394 0.0000 -10701.1085 1453.7374 0.0000 0.0000 1767.7704 -7468.6209 302.9913 -9236.3913 -7448.9805 299.4618 446.1267 464.2316 29856.1889 -108.3040 -52.5043
ENERGY: 1200000 2.4801 0.8003 3.6155 0.0000 -10608.0406 1426.3483 0.0000 0.0000 1751.0907 -7423.7056 300.1325 -9174.7964 -7441.4930 300.4274 -129.4284 -41.8940 30365.5974 -80.3175 -27.8963
ENERGY: 1500000 3.5652 4.3041 2.5129 0.0000 -10619.7582 1455.1723 0.0000 0.0000 1793.6791 -7360.5245 307.4320 -9154.2036 -7427.3835 301.7821 379.0190 477.8912 30422.2331 -26.2186 22.7126
TCL: Running FEP window  15: Lambda1 0.7000000000000001 Lambda2 0.7500000000000001 [dLambda 0.050000000000000044]
TCL: Setting parameter firsttimestep to 0
TCL: Setting parameter alchLambda to 0.7000000000000001
Info: NONBONDED TABLE R-SQUARED SPACING: 0.0625
Info: NONBONDED TABLE SIZE: 705 POINTS
TCL: Setting parameter alchLambda2 to 0.7500000000000001
Info: NONBONDED TABLE R-SQUARED SPACING: 0.0625
Info: NONBONDED TABLE SIZE: 705 POINTS
TCL: Running for 1500000 steps
ETITLE: TS BOND ANGLE DIHED IMPRP ELECT VDW BOUNDARY MISC KINETIC TOTAL TEMP POTENTIAL TOTALAVG TEMPAVG PRESSURE GPRESSURE VOLUME PRESSAVG GPRESSAVG
ENERGY: 0 3.5652 4.3042 2.5129 0.0000 -10620.2281 1454.7341 0.0000 0.0000 1792.8326 -7362.2791 307.2869 -9155.1117 -7362.2791 307.2869 396.2027 481.6182 30422.2331 396.2027 481.6182
ENERGY: 300000 4.2306 2.2661 4.7486 0.0000 -10536.7646 1354.8085 0.0000 0.0000 1749.5606 -7421.1502 299.8702 -9170.7108 -7372.8461 301.3153 -732.7086 -704.3680 30586.4617 -116.8268 -81.2039
ENERGY: 600000 1.6186 0.8806 4.2480 0.0000 -10615.7581 1415.4995 0.0000 0.0000 1765.4891 -7428.0223 302.6003 -9193.5114 -7424.9197 299.5061 -180.3642 -150.7348 30459.9139 -97.1073 -38.8982
ENERGY: 900000 1.6191 4.6434 3.9041 0.0000 -10661.1885 1489.6230 0.0000 0.0000 1706.3909 -7455.0081 292.4710 -9161.3990 -7427.9702 298.8353 440.6306 506.7842 30211.8550 -62.8838 -4.1106
ENERGY: 1200000 2.7562 1.2141 2.2862 0.0000 -10724.2085 1521.8584 0.0000 0.0000 1714.8240 -7481.2696 293.9164 -9196.0936 -7432.9023 298.6272 709.0213 742.8218 30596.7715 54.8622 107.8016
ENERGY: 1500000 2.5529 2.4431 1.4425 0.0000 -10598.3022 1373.4641 0.0000 0.0000 1769.9405 -7448.4591 303.3633 -9218.3997 -7430.9186 298.9656 -291.0291 -233.6238 29854.9545 -9.0062 46.4079
TCL: Running FEP window  16: Lambda1 0.7500000000000001 Lambda2 0.8000000000000002 [dLambda 0.050000000000000044]
TCL: Setting parameter firsttimestep to 0
TCL: Setting parameter alchLambda to 0.7500000000000001
Info: NONBONDED TABLE R-SQUARED SPACING: 0.0625
Info: NONBONDED TABLE SIZE: 705 POINTS
TCL: Setting parameter alchLambda2 to 0.8000000000000002
Info: NONBONDED TABLE R-SQUARED SPACING: 0.0625
Info: NONBONDED TABLE SIZE: 705 POINTS
TCL: Running for 1500000 steps
ETITLE: TS BOND ANGLE DIHED IMPRP ELECT VDW BOUNDARY MISC KINETIC TOTAL TEMP POTENTIAL TOTALAVG TEMPAVG PRESSURE GPRESSURE VOLUME PRESSAVG GPRESSAVG
ENERGY: 0 2.5529 2.4431 1.4425 0.0000 -10598.5764 1372.8300 0.0000 0.0000 1769.0672 -7450.2407 303.2136 -9219.3080 -7450.2407 303.2136 -320.0829 -233.2549 29854.9545 -320.0829 -233.2549
ENERGY: 300000 2.2862 2.6507 7.6932 0.0000 -10670.1369 1433.2174 0.0000 0.0000 1752.1082 -7472.1814 300.3069 -9224.2895 -7442.6413 299.5415 -293.9387 -165.2999 30321.3940 -250.7208 -142.0864
ENERGY: 600000 1.9982 4.8169 6.6322 0.0000 -10470.4025 1334.2594 0.0000 0.0000 1757.0030 -7365.6927 301.1458 -9122.6957 -7434.9859 300.9280 -478.9473 -414.7800 30246.2523 -104.7643 -14.5794
ENERGY: 900000 1.4032 2.0764 3.2380 0.0000 -10670.7591 1474.4459 0.0000 0.0000 1706.9345 -7482.6612 292.5642 -9189.5957 -7436.5005 300.4877 259.4371 357.3637 30320.8131 -13.9417 78.3279
ENERGY: 1200000 1.8580 2.4639 3.7928 0.0000 -10503.3664 1341.7754 0.0000 0.0000 1736.6472 -7416.8290 297.6569 -9153.4762 -7440.3595 300.2299 -638.4392 -536.6506 30526.7853 -75.7083 7.3598
ENERGY: 1500000 0.5082 3.5066 2.9559 0.0000 -10437.0497 1327.1487 0.0000 0.0000 1694.6736 -7408.2567 290.4627 -9102.9303 -7439.1635 300.1672 -609.4368 -563.5784 30424.3112 -152.2944 -78.5193
TCL: Running FEP window  17: Lambda1 0.8000000000000002 Lambda2 0.8500000000000002 [dLambda 0.050000000000000044]
TCL: Setting parameter firsttimestep to 0
TCL: Setting parameter alchLambda to 0.8000000000000002
Info: NONBONDED TABLE R-SQUARED SPACING: 0.0625
Info: NONBONDED TABLE SIZE: 705 POINTS
TCL: Setting parameter alchLambda2 to 0.8500000000000002
Info: NONBONDED TABLE R-SQUARED SPACING: 0.0625
Info: NONBONDED TABLE SIZE: 705 POINTS
TCL: Running for 1500000 steps
ETITLE: TS BOND ANGLE DIHED IMPRP ELECT VDW BOUNDARY MISC KINETIC TOTAL TEMP POTENTIAL TOTALAVG TEMPAVG PRESSURE GPRESSURE VOLUME PRESSAVG GPRESSAVG
ENERGY: 0 0.5082 3.5066 2.9559 0.0000 -10437.2381 1326.8513 0.0000 0.0000 1693.7891 -7409.6271 290.3111 -9103.4162 -7409.6271 290.3111 -647.3096 -558.9842 30424.3112 -647.3096 -558.9842
ENERGY: 300000 0.9242 2.8916 2.9221 0.0000 -10613.4574 1469.8303 0.0000 0.0000 1806.9852 -7329.9040 309.7126 -9136.8893 -7432.7892 300.4238 820.7084 845.7899 29803.8690 18.6261 71.1544
ENERGY: 600000 2.3686 1.1169 5.4693 0.0000 -10621.1323 1391.5086 0.0000 0.0000 1735.2277 -7485.4412 297.4136 -9220.6689 -7441.7557 302.0067 -224.7020 -112.9051 29998.7144 131.4732 195.4258
ENERGY: 900000 1.1137 2.4018 2.2195 0.0000 -10715.9507 1447.2391 0.0000 0.0000 1801.7068 -7461.2698 308.8079 -9262.9766 -7445.4745 301.8640 4.9523 108.7012 30045.4330 -7.2398 66.5602
ENERGY: 1200000 2.3691 4.5138 3.0304 0.0000 -10512.7208 1365.0053 0.0000 0.0000 1688.4123 -7449.3899 289.3896 -9137.8022 -7447.3066 300.4616 -530.4468 -438.8849 30454.9296 -68.0279 1.8180
ENERGY: 1500000 2.0694 2.0832 1.9678 0.0000 -10585.3274 1308.2230 0.0000 0.0000 1712.1727 -7558.8114 293.4620 -9270.9841 -7455.6835 299.4807 -1048.1866 -957.5191 29913.5739 -67.2818 0.8004
TCL: Running FEP window  18: Lambda1 0.8500000000000002 Lambda2 0.9000000000000002 [dLambda 0.050000000000000044]
TCL: Setting parameter firsttimestep to 0
TCL: Setting parameter alchLambda to 0.8500000000000002
Info: NONBONDED TABLE R-SQUARED SPACING: 0.0625
Info: NONBONDED TABLE SIZE: 705 POINTS
TCL: Setting parameter alchLambda2 to 0.9000000000000002
Info: NONBONDED TABLE R-SQUARED SPACING: 0.0625
Info: NONBONDED TABLE SIZE: 705 POINTS
TCL: Running for 1500000 steps
ETITLE: TS BOND ANGLE DIHED IMPRP ELECT VDW BOUNDARY MISC KINETIC TOTAL TEMP POTENTIAL TOTALAVG TEMPAVG PRESSURE GPRESSURE VOLUME PRESSAVG GPRESSAVG
ENERGY: 0 2.0694 2.0832 1.9678 0.0000 -10586.3993 1309.0251 0.0000 0.0000 1711.3534 -7559.9003 293.3216 -9271.2537 -7559.9003 293.3216 -1025.5828 -939.8351 29913.5739 -1025.5828 -939.8351
ENERGY: 300000 2.0964 3.5518 4.1269 0.0000 -10720.4076 1444.2312 0.0000 0.0000 1812.8490 -7453.5522 310.7177 -9266.4012 -7478.2743 297.8814 138.4621 167.8848 29993.0378 -160.2848 -104.9329
ENERGY: 600000 1.5519 3.3421 3.0540 0.0000 -10616.9550 1442.4511 0.0000 0.0000 1742.8408 -7423.7150 298.7185 -9166.5559 -7464.2176 299.0381 175.6747 235.1800 30596.4519 -192.0134 -140.0658
ENERGY: 900000 2.9471 5.7566 1.6352 0.0000 -10650.2207 1462.5709 0.0000 0.0000 1726.5850 -7450.7258 295.9323 -9177.3108 -7456.6638 298.9620 189.6756 265.0710 30361.8208 -110.1638 -49.3919
ENERGY: 1200000 1.7329 1.5799 1.1913 0.0000 -10684.9236 1481.1178 0.0000 0.0000 1784.8070 -7414.4946 305.9114 -9199.3017 -7454.1544 299.2271 480.0478 481.3105 30280.2819 84.0410 135.4643
ENERGY: 1500000 2.4400 2.1272 1.4405 0.0000 -10681.9475 1453.8939 0.0000 0.0000 1807.5399 -7414.5060 309.8077 -9222.0459 -7446.2439 300.5868 167.3052 245.3363 30427.6604 85.8342 135.9062
TCL: Running FEP window  19: Lambda1 0.9000000000000002 Lambda2 0.9500000000000003 [dLambda 0.050000000000000044]
TCL: Setting parameter firsttimestep to 0
TCL: Setting parameter alchLambda to 0.9000000000000002
Info: NONBONDED TABLE R-SQUARED SPACING: 0.0625
Info: NONBONDED TABLE SIZE: 705 POINTS
TCL: Setting parameter alchLambda2 to 0.9500000000000003
Info: NONBONDED TABLE R-SQUARED SPACING: 0.0625
Info: NONBONDED TABLE SIZE: 705 POINTS
TCL: Running for 1500000 steps
ETITLE: TS BOND ANGLE DIHED IMPRP ELECT VDW BOUNDARY MISC KINETIC TOTAL TEMP POTENTIAL TOTALAVG TEMPAVG PRESSURE GPRESSURE VOLUME PRESSAVG GPRESSAVG
ENERGY: 0 2.4401 2.1272 1.4405 0.0000 -10682.7820 1454.2162 0.0000 0.0000 1806.6907 -7415.8673 309.6622 -9222.5580 -7415.8673 309.6622 173.3665 260.5368 30427.6604 173.3665 260.5368
ENERGY: 300000 2.1176 2.6062 4.6906 0.0000 -10581.1203 1416.6460 0.0000 0.0000 1777.5712 -7377.4887 304.6712 -9155.0599 -7372.2686 306.0389 460.9641 440.8739 29930.4436 25.4297 96.3411
ENERGY: 600000 2.8336 2.6488 3.3667 0.0000 -10699.0134 1434.2665 0.0000 0.0000 1751.8499 -7504.0480 300.2626 -9255.8979 -7389.0192 305.7900 -281.2737 -191.0469 30450.6245 -0.1394 74.7177
ENERGY: 900000 1.0975 4.6827 2.6077 0.0000 -10514.3305 1309.3578 0.0000 0.0000 1794.3219 -7402.2630 307.5422 -9196.5848 -7398.9791 305.5918 -753.3557 -733.3786 30174.0424 -100.0579 -36.0538
ENERGY: 1200000 2.1076 2.4364 3.7178 0.0000 -10567.7964 1380.0135 0.0000 0.0000 1692.6234 -7486.8977 290.1113 -9179.5211 -7412.1195 303.0979 -382.9305 -355.4518 30846.2263 -96.8505 -36.5466
ENERGY: 1500000 1.4781 5.7087 4.3064 0.0000 -10651.6239 1423.9630 0.0000 0.0000 1780.7810 -7435.3866 305.2213 -9216.1676 -7415.7333 302.6681 -237.0790 -169.1451 30699.9665 -90.8027 -24.2830
TCL: Running FEP window  20: Lambda1 0.9500000000000003 Lambda2 1.0    [dLambda 0.04999999999999971]
TCL: Setting parameter firsttimestep to 0
TCL: Setting parameter alchLambda to 0.9500000000000003
Info: NONBONDED TABLE R-SQUARED SPACING: 0.0625
Info: NONBONDED TABLE SIZE: 705 POINTS
TCL: Setting parameter alchLambda2 to 1.0
Info: NONBONDED TABLE R-SQUARED SPACING: 0.0625
Info: NONBONDED TABLE SIZE: 705 POINTS
TCL: Running for 1500000 steps
ETITLE: TS BOND ANGLE DIHED IMPRP ELECT VDW BOUNDARY MISC KINETIC TOTAL TEMP POTENTIAL TOTALAVG TEMPAVG PRESSURE GPRESSURE VOLUME PRESSAVG GPRESSAVG
ENERGY: 0 1.4781 5.7087 4.3064 0.0000 -10652.3539 1423.6328 0.0000 0.0000 1779.8944 -7437.3335 305.0693 -9217.2279 -7437.3335 305.0693 -249.4592 -162.6291 30699.9665 -249.4592 -162.6291
ENERGY: 300000 1.8708 4.1922 0.9979 0.0000 -10687.1139 1444.1820 0.0000 0.0000 1750.1829 -7485.6882 299.9769 -9235.8711 -7429.7981 300.9965 -17.1416 10.1065 30451.8367 -108.2470 -32.1413
ENERGY: 600000 2.9395 2.0963 4.1444 0.0000 -10626.5583 1469.9130 0.0000 0.0000 1783.9321 -7363.5329 305.7614 -9147.4650 -7432.5101 300.8837 364.3176 389.0141 30359.6083 68.2828 120.4784
ENERGY: 900000 1.9552 2.8110 1.2674 0.0000 -10717.6013 1533.0820 0.0000 0.0000 1769.4690 -7409.0167 303.2825 -9178.4857 -7436.2527 300.9825 662.5318 698.7522 30650.4865 127.6001 182.3497
ENERGY: 1200000 2.0351 3.1679 3.2375 0.0000 -10798.3134 1521.7787 0.0000 0.0000 1773.7902 -7494.3040 304.0231 -9268.0941 -7440.5864 301.0152 448.5630 585.8032 30318.0195 86.4803 144.4142
ENERGY: 1500000 3.0907 4.6616 1.3300 0.0000 -10604.9355 1425.9193 0.0000 0.0000 1728.5102 -7441.4236 296.2622 -9169.9338 -7434.0502 300.9560 -181.0559 -81.8403 30869.8815 85.7440 152.7758
TCL: Exiting due to exit command.
