Info: SIMULATION PARAMETERS:
Info: TIMESTEP               2
Info: NUMBER OF STEPS        0
Info: STEPS PER CYCLE        10
Info: PERIODIC CELL BASIS 1  30.4148 0 0
Info: PERIODIC CELL BASIS 2  0 31.3573 0
Info: PERIODIC CELL BASIS 3  0 0 31.7627
Info: PERIODIC CELL CENTER   0 0 0
Info: WRAPPING WATERS AROUND PERIODIC BOUNDARIES ON OUTPUT.
Info: WRAPPING ALL CLUSTERS AROUND PERIODIC BOUNDARIES ON OUTPUT.
Info: FIRST LDB TIMESTEP     50
Info: LAST LDB TIMESTEP     -1
Info: HOM BACKGROUND SCALING 1
Info: PME BACKGROUND SCALING 1
Info: MIN ATOMS PER PATCH    40
Info: EMPTY PATCH LOAD       40 ATOMS
Info: VELOCITY FILE          mobley_2972906_equil.vel
Info: CENTER OF MASS MOVING INITIALLY? NO
Info: DIELECTRIC             1
Info: EXCLUDE                SCALED ONE-FOUR
Info: 1-4 ELECTROSTATICS SCALED BY 0.833333
Info: MODIFIED 1-4 VDW PARAMETERS WILL BE USED
Info: DCD FILENAME           mobley_2972906_prod.dcd
Info: DCD FREQUENCY          100000
Info: DCD FIRST STEP         100000
Info: DCD FILE WILL CONTAIN UNIT CELL DATA
Info: XST FILENAME           mobley_2972906_prod.xst
Info: XST FREQUENCY          100000
Info: NO VELOCITY DCD OUTPUT
Info: NO FORCE DCD OUTPUT
Info: OUTPUT FILENAME        mobley_2972906_prod
Info: BINARY OUTPUT FILES WILL BE USED
Info: RESTART FILENAME       mobley_2972906_prod.restart
Info: RESTART FREQUENCY      100000
Info: BINARY RESTART FILES WILL BE USED
Info: CUTOFF                 9
Info: PAIRLIST DISTANCE      11
Info: PAIRLIST SHRINK RATE   0.01
Info: PAIRLIST GROW RATE     0.01
Info: PAIRLIST TRIGGER       0.3
Info: PAIRLISTS PER CYCLE    2
Info: PAIRLISTS ENABLED
Info: MARGIN                 2
Info: HYDROGEN GROUP CUTOFF  2.5
Info: PATCH DIMENSION        15.5
Info: ENERGY OUTPUT STEPS    100000
Info: ENERGY EVALUATION STEPS    100000
Info: OUTPUT ENERGY PRECISION 4
Info: CROSSTERM ENERGY INCLUDED IN DIHEDRAL
Info: TIMING OUTPUT STEPS    1000000
Info: PRESSURE OUTPUT STEPS  100000
Info: ALCHEMICAL FEP ON
Info: FEP CURRENT LAMBDA VALUE     1
Info: FEP COMPARISON LAMBDA VALUE  0.95
Info: FEP INTRA-ALCHEMICAL NON-BONDED INTERACTIONS WILL BE RETAINED
Info: FEP INTRA-ALCHEMICAL BONDED INTERACTIONS WILL BE RETAINED
Info: FEP VDW SHIFTING COEFFICIENT 5
Info: FEP ELEC. ACTIVE FOR ANNIHILATED PARTICLES BETWEEN LAMBDA = 0 AND LAMBDA = 0.5
Info: FEP ELEC. ACTIVE FOR EXNIHILATED PARTICLES BETWEEN LAMBDA = 0.5 AND LAMBDA = 1
Info: FEP VDW ACTIVE FOR ANNIHILATED PARTICLES BETWEEN LAMBDA = 0 AND LAMBDA = 1
Info: FEP VDW ACTIVE FOR EXNIHILATED PARTICLES BETWEEN LAMBDA = 0 AND LAMBDA = 1
Info: FEP BOND ACTIVE FOR ANNIHILATED PARTICLES BETWEEN LAMBDA = 1 AND LAMBDA = 1
Info: FEP BOND ACTIVE FOR EXNIHILATED PARTICLES BETWEEN LAMBDA = 0 AND LAMBDA = 0
Info: LANGEVIN DYNAMICS ACTIVE
Info: LANGEVIN TEMPERATURE   300
Info: LANGEVIN USING BBK INTEGRATOR
Info: LANGEVIN DAMPING COEFFICIENT IS 1 INVERSE PS
Info: LANGEVIN DYNAMICS APPLIED TO HYDROGENS
Info: LANGEVIN PISTON PRESSURE CONTROL ACTIVE
Info:        TARGET PRESSURE IS 1.01325 BAR
Info:     OSCILLATION PERIOD IS 50 FS
Info:             DECAY TIME IS 25 FS
Info:     PISTON TEMPERATURE IS 300 K
Info:       PRESSURE CONTROL IS GROUP-BASED
Info:    INITIAL STRAIN RATE IS -0.000321417 -0.000321417 -0.000321417
Info:       CELL FLUCTUATION IS ISOTROPIC
Info: PARTICLE MESH EWALD (PME) ACTIVE
Info: PME TOLERANCE               1e-06
Info: PME EWALD COEFFICIENT       0.348832
Info: PME INTERPOLATION ORDER     4
Info: PME GRID DIMENSIONS         32 32 32
Info: PME MAXIMUM GRID SPACING    1
Info: PME CALCULATION WILL BE PERFORMED ON GPU
Info: FULL ELECTROSTATIC EVALUATION FREQUENCY      2
Info: USING VERLET I (r-RESPA) MTS SCHEME.
Info: C1 SPLITTING OF LONG RANGE ELECTROSTATICS
Info: PLACING ATOMS IN PATCHES BY HYDROGEN GROUPS
Info: RIGID BONDS TO HYDROGEN : ALL
Info:         ERROR TOLERANCE : 1e-08
Info:          MAX ITERATIONS : 100
Info: RIGID WATER USING SETTLE ALGORITHM
Info: RANDOM NUMBER SEED     1743512400
Info: USE HYDROGEN BONDS?    NO
Info: Using AMBER format force field!
Info: AMBER PARM FILE        mobley_2972906.prmtop
Info: COORDINATE PDB         mobley_2972906.pdb
Info: Exclusions will be read from PARM file!
Info: SCNB (VDW SCALING)     2
Info: USING ARITHMETIC MEAN TO COMBINE L-J SIGMA PARAMETERS
Info: BINARY COORDINATES     mobley_2972906_equil.coor
Info: SUMMARY OF PARAMETERS:
Info: 7 BONDS
Info: 7 ANGLES
Info:   7 HARMONIC
Info:   0 COSINE-BASED
Info: 3 DIHEDRAL
Info: 0 IMPROPER
Info: 0 CROSSTERM
Info: 0 VDW
Info: 21 VDW_PAIRS
Info: 0 NBTHOLE_PAIRS
Info: To read alchdata from file: mobley_2972906.pdb
Info: To read alchflag data from column: 5
Info: STRUCTURE SUMMARY:
Info: 2913 ATOMS
Info: 2913 BONDS
Info: 13 ANGLES
Info: 20 DIHEDRALS
Info: 0 IMPROPERS
Info: 0 CROSSTERMS
Info: 2937 EXCLUSIONS
Info: 2908 RIGID BONDS
Info: ALCH: 0 ATOMS TO DISAPPEAR IN FINAL STATE
Info: ALCH: 9 ATOMS TO APPEAR IN FINAL STATE
Info: 5831 DEGREES OF FREEDOM
Info: 973 HYDROGEN GROUPS
Info: 3 ATOMS IN LARGEST HYDROGEN GROUP
Info: 973 MIGRATION GROUPS
Info: 3 ATOMS IN LARGEST MIGRATION GROUP
Info: TOTAL MASS = 17523.6 amu
Info: TOTAL CHARGE = -0.000100012 e
Info: MASS DENSITY = 0.9606 g/cm^3
Info: ATOM DENSITY = 0.0961612 atoms/A^3
Info: ADDED 0 IMPLICIT EXCLUSIONS
Info: NONBONDED TABLE R-SQUARED SPACING: 0.0625
Info: NONBONDED TABLE SIZE: 705 POINTS
Info: REMOVING COM VELOCITY 0.0553809 -0.0958383 0.187897
Info: Use 3D box decompostion in PME FFT.
Info: Updated CUDA force table with 4096 elements.
Info: Updated CUDA LJ table with 6 x 6 elements.
Info: Found 11 unique exclusion lists needing 16 bytes
TCL: Running for 1500000 steps
ETITLE: TS BOND ANGLE DIHED IMPRP ELECT VDW BOUNDARY MISC KINETIC TOTAL TEMP POTENTIAL TOTALAVG TEMPAVG PRESSURE GPRESSURE VOLUME PRESSAVG GPRESSAVG
ENERGY: 0 2.5535 6.4400 1.3874 0.0000 -10534.8826 1419.7808 0.0000 0.0000 1768.6773 -7336.0437 305.2783 -9104.7210 -7336.0437 305.2783 75.5127 171.5312 30292.8708 75.5127 171.5312
ENERGY: 300000 2.7342 4.8182 0.9782 0.0000 -10565.1221 1395.3079 0.0000 0.0000 1757.6933 -7403.5902 303.3824 -9161.2835 -7367.5301 302.0084 -94.5113 -60.0010 29904.0865 -245.5241 -208.7878
ENERGY: 600000 1.4513 1.9655 0.6956 0.0000 -10703.2050 1495.4153 0.0000 0.0000 1690.5500 -7513.1273 291.7933 -9203.6773 -7405.8043 300.5867 357.7245 409.2562 29901.9912 -174.0202 -121.9228
ENERGY: 900000 1.9510 2.5112 2.2094 0.0000 -10515.1575 1396.6898 0.0000 0.0000 1690.3530 -7421.4432 291.7593 -9111.7962 -7399.0470 299.5543 -28.9689 27.5506 29908.9614 -87.5594 -33.1431
ENERGY: 1200000 1.3999 1.9746 1.8786 0.0000 -10446.8595 1313.9139 0.0000 0.0000 1755.1733 -7372.5191 302.9475 -9127.6924 -7402.7421 299.7700 -904.0349 -820.3988 30367.7745 -176.3927 -113.8659
ENERGY: 1500000 1.5887 1.6888 2.2825 0.0000 -10492.6063 1363.9418 0.0000 0.0000 1728.9894 -7394.1151 298.4281 -9123.1045 -7398.1358 300.3261 -260.2743 -195.1519 30149.4744 -213.7036 -154.0417
TCL: Running FEP window   2: Lambda1 0.95   Lambda2 0.8999999999999999 [dLambda -0.050000000000000044]
TCL: Setting parameter firsttimestep to 0
TCL: Setting parameter alchLambda to 0.95
Info: NONBONDED TABLE R-SQUARED SPACING: 0.0625
Info: NONBONDED TABLE SIZE: 705 POINTS
TCL: Setting parameter alchLambda2 to 0.8999999999999999
Info: NONBONDED TABLE R-SQUARED SPACING: 0.0625
Info: NONBONDED TABLE SIZE: 705 POINTS
TCL: Running for 1500000 steps
ETITLE: TS BOND ANGLE DIHED IMPRP ELECT VDW BOUNDARY MISC KINETIC TOTAL TEMP POTENTIAL TOTALAVG TEMPAVG PRESSURE GPRESSURE VOLUME PRESSAVG GPRESSAVG
ENERGY: 0 1.5887 1.6888 2.2825 0.0000 -10492.0862 1364.1324 0.0000 0.0000 1728.0953 -7394.2985 298.2737 -9122.3938 -7394.2985 298.2737 -294.0142 -200.9110 30149.4744 -294.0142 -200.9110
ENERGY: 300000 2.5394 1.5201 1.1487 0.0000 -10598.6125 1436.9060 0.0000 0.0000 1750.5980 -7405.9004 302.1578 -9156.4984 -7397.4207 300.3659 73.9649 184.2103 29994.3115 -227.0900 -135.9522
ENERGY: 600000 0.8476 0.6622 1.3849 0.0000 -10760.3537 1528.3433 0.0000 0.0000 1706.7234 -7522.3925 294.5849 -9229.1159 -7406.6510 300.7428 902.0780 911.1252 29539.9529 88.1474 154.0686
ENERGY: 900000 1.4222 1.1294 0.6951 0.0000 -10625.5140 1473.4776 0.0000 0.0000 1765.4236 -7383.3661 304.7167 -9148.7897 -7392.0530 301.0876 239.7914 345.9409 29870.4123 38.0219 104.0364
ENERGY: 1200000 0.2877 0.8138 2.1974 0.0000 -10599.9635 1459.3390 0.0000 0.0000 1716.4542 -7420.8714 296.2645 -9137.3256 -7397.4142 300.2278 180.0875 285.0612 30358.7691 4.7689 75.4562
ENERGY: 1500000 0.5113 1.5559 1.2203 0.0000 -10481.6303 1390.6006 0.0000 0.0000 1744.0940 -7343.6483 301.0352 -9087.7422 -7398.4473 300.6733 66.4323 36.2769 30114.0661 -17.4557 53.8166
TCL: Running FEP window   3: Lambda1 0.8999999999999999 Lambda2 0.8499999999999999 [dLambda -0.050000000000000044]
TCL: Setting parameter firsttimestep to 0
TCL: Setting parameter alchLambda to 0.8999999999999999
Info: NONBONDED TABLE R-SQUARED SPACING: 0.0625
Info: NONBONDED TABLE SIZE: 705 POINTS
TCL: Setting parameter alchLambda2 to 0.8499999999999999
Info: NONBONDED TABLE R-SQUARED SPACING: 0.0625
Info: NONBONDED TABLE SIZE: 705 POINTS
TCL: Running for 1500000 steps
ETITLE: TS BOND ANGLE DIHED IMPRP ELECT VDW BOUNDARY MISC KINETIC TOTAL TEMP POTENTIAL TOTALAVG TEMPAVG PRESSURE GPRESSURE VOLUME PRESSAVG GPRESSAVG
ENERGY: 0 0.5113 1.5559 1.2203 0.0000 -10481.2142 1390.5340 0.0000 0.0000 1743.2282 -7344.1645 300.8857 -9087.3927 -7344.1645 300.8857 -47.0037 28.3349 30114.0661 -47.0037 28.3349
ENERGY: 300000 1.5504 2.2794 1.3540 0.0000 -10660.4780 1441.6655 0.0000 0.0000 1674.0253 -7539.6034 288.9411 -9213.6287 -7391.3590 300.3852 -143.1089 -59.0845 30277.0962 -363.0116 -311.4526
ENERGY: 600000 1.7840 3.4714 2.6083 0.0000 -10627.4563 1501.0253 0.0000 0.0000 1741.4646 -7377.1027 300.5813 -9118.5673 -7392.5400 302.7272 604.0478 643.5915 30283.6730 39.1426 76.5431
ENERGY: 900000 1.2247 6.8602 2.1203 0.0000 -10730.2214 1513.2274 0.0000 0.0000 1717.6957 -7489.0930 296.4787 -9206.7887 -7400.5568 301.6067 894.9774 981.3961 29372.2824 153.5503 190.7676
ENERGY: 1200000 0.7839 2.4749 1.9599 0.0000 -10635.4324 1461.8466 0.0000 0.0000 1778.2449 -7390.1222 306.9297 -9168.3672 -7401.7417 301.1563 223.5197 279.4361 30021.0888 67.1436 104.7925
ENERGY: 1500000 0.7809 2.5540 1.3451 0.0000 -10566.9545 1394.9122 0.0000 0.0000 1684.3060 -7483.0563 290.7156 -9167.3623 -7414.5945 299.7362 -400.4348 -361.2047 30270.2636 -2.9973 40.0998
TCL: Running FEP window   4: Lambda1 0.8499999999999999 Lambda2 0.7999999999999998 [dLambda -0.050000000000000044]
TCL: Setting parameter firsttimestep to 0
TCL: Setting parameter alchLambda to 0.8499999999999999
Info: NONBONDED TABLE R-SQUARED SPACING: 0.0625
Info: NONBONDED TABLE SIZE: 705 POINTS
TCL: Setting parameter alchLambda2 to 0.7999999999999998
Info: NONBONDED TABLE R-SQUARED SPACING: 0.0625
Info: NONBONDED TABLE SIZE: 705 POINTS
TCL: Running for 1500000 steps
ETITLE: TS BOND ANGLE DIHED IMPRP ELECT VDW BOUNDARY MISC KINETIC TOTAL TEMP POTENTIAL TOTALAVG TEMPAVG PRESSURE GPRESSURE VOLUME PRESSAVG GPRESSAVG
ENERGY: 0 0.7809 2.5540 1.3451 0.0000 -10566.4383 1395.2558 0.0000 0.0000 1683.4613 -7483.0413 290.5698 -9166.5025 -7483.0413 290.5698 -447.0483 -362.9652 30270.2636 -447.0483 -362.9652
ENERGY: 300000 0.9860 1.4346 2.7860 0.0000 -10576.9668 1422.6419 0.0000 0.0000 1746.1380 -7402.9804 301.3880 -9149.1184 -7428.3538 298.0704 -194.7930 -130.1835 30167.2867 -103.0567 -12.1695
ENERGY: 600000 0.9410 2.6590 1.6040 0.0000 -10490.8776 1374.9070 0.0000 0.0000 1769.0440 -7341.7226 305.3416 -9110.7666 -7410.6754 300.7313 -24.3228 47.2059 29604.4293 -40.9374 37.0515
ENERGY: 900000 1.9233 1.9732 0.6458 0.0000 -10679.7342 1486.0027 0.0000 0.0000 1741.8430 -7447.3463 300.6466 -9189.1893 -7409.2678 301.8082 355.6386 390.8410 30228.7175 98.7877 165.9847
ENERGY: 1200000 1.7154 1.3152 2.0131 0.0000 -10609.9110 1453.1639 0.0000 0.0000 1680.8883 -7470.8152 290.1257 -9151.7035 -7404.4997 301.2044 175.6190 199.0999 30116.5259 85.1778 149.1883
ENERGY: 1500000 3.2061 3.2037 1.1567 0.0000 -10609.6253 1409.7201 0.0000 0.0000 1689.8958 -7502.4429 291.6804 -9192.3387 -7406.1561 300.9505 -71.6535 -4.4540 29780.3855 111.4694 175.8584
TCL: Running FEP window   5: Lambda1 0.7999999999999998 Lambda2 0.7499999999999998 [dLambda -0.050000000000000044]
TCL: Setting parameter firsttimestep to 0
TCL: Setting parameter alchLambda to 0.7999999999999998
Info: NONBONDED TABLE R-SQUARED SPACING: 0.0625
Info: NONBONDED TABLE SIZE: 705 POINTS
TCL: Setting parameter alchLambda2 to 0.7499999999999998
Info: NONBONDED TABLE R-SQUARED SPACING: 0.0625
Info: NONBONDED TABLE SIZE: 705 POINTS
TCL: Running for 1500000 steps
ETITLE: TS BOND ANGLE DIHED IMPRP ELECT VDW BOUNDARY MISC KINETIC TOTAL TEMP POTENTIAL TOTALAVG TEMPAVG PRESSURE GPRESSURE VOLUME PRESSAVG GPRESSAVG
ENERGY: 0 3.2060 3.2037 1.1567 0.0000 -10609.5081 1409.6458 0.0000 0.0000 1689.0785 -7503.2173 291.5393 -9192.2959 -7503.2173 291.5393 -85.1193 -11.9342 29780.3855 -85.1193 -11.9342
ENERGY: 300000 0.2041 2.7807 1.4248 0.0000 -10540.3235 1425.8914 0.0000 0.0000 1716.9458 -7393.0766 296.3493 -9110.0224 -7434.7651 296.5934 170.7497 284.6042 29665.2962 223.4259 297.7945
ENERGY: 600000 1.6670 6.9263 2.2569 0.0000 -10558.9263 1464.2649 0.0000 0.0000 1739.6310 -7344.1802 300.2648 -9083.8112 -7402.0693 300.6682 527.8418 559.3161 29819.7973 135.9769 187.3809
ENERGY: 900000 0.9635 1.5763 1.8252 0.0000 -10533.2178 1410.9351 0.0000 0.0000 1706.7688 -7411.1491 294.5927 -9117.9179 -7401.8313 301.2110 -242.3172 -145.8258 30257.5758 53.8889 119.4853
ENERGY: 1200000 2.0492 1.3443 2.2186 0.0000 -10579.6045 1405.1981 0.0000 0.0000 1745.5964 -7423.1980 301.2945 -9168.7944 -7401.3460 301.2635 274.9307 300.1577 29432.2455 60.8065 128.1102
ENERGY: 1500000 2.3990 1.9804 1.9107 0.0000 -10605.8469 1450.2231 0.0000 0.0000 1671.8139 -7477.5199 288.5594 -9149.3338 -7404.8901 300.8246 159.7897 250.6629 30052.8094 93.5451 162.9026
TCL: Running FEP window   6: Lambda1 0.7499999999999998 Lambda2 0.6999999999999997 [dLambda -0.050000000000000044]
TCL: Setting parameter firsttimestep to 0
TCL: Setting parameter alchLambda to 0.7499999999999998
Info: NONBONDED TABLE R-SQUARED SPACING: 0.0625
Info: NONBONDED TABLE SIZE: 705 POINTS
TCL: Setting parameter alchLambda2 to 0.6999999999999997
Info: NONBONDED TABLE R-SQUARED SPACING: 0.0625
Info: NONBONDED TABLE SIZE: 705 POINTS
TCL: Running for 1500000 steps
ETITLE: TS BOND ANGLE DIHED IMPRP ELECT VDW BOUNDARY MISC KINETIC TOTAL TEMP POTENTIAL TOTALAVG TEMPAVG PRESSURE GPRESSURE VOLUME PRESSAVG GPRESSAVG
ENERGY: 0 2.3990 1.9804 1.9107 0.0000 -10605.6871 1450.5035 0.0000 0.0000 1670.9490 -7477.9445 288.4101 -9148.8935 -7477.9445 288.4101 150.1067 247.6998 30052.8094 150.1067 247.6998
ENERGY: 300000 2.0325 2.3773 0.5193 0.0000 -10624.7163 1470.0419 0.0000 0.0000 1754.9893 -7394.7559 302.9157 -9149.7452 -7427.9369 298.6760 76.9337 131.1409 30570.6626 -149.7221 -95.8086
ENERGY: 600000 1.6201 1.6818 0.2626 0.0000 -10592.9241 1404.6460 0.0000 0.0000 1736.1994 -7448.5141 299.6725 -9184.7135 -7400.7986 301.1454 -256.7161 -230.9753 29922.4195 -78.4808 -21.2722
ENERGY: 900000 0.8338 5.7209 0.2669 0.0000 -10710.0242 1456.5112 0.0000 0.0000 1730.1164 -7516.5751 298.6226 -9246.6915 -7414.4125 300.8291 -24.3946 11.1805 29861.9354 -40.0995 15.8453
ENERGY: 1200000 2.6592 1.3407 2.8157 0.0000 -10704.8929 1485.8563 0.0000 0.0000 1719.1659 -7493.0551 296.7325 -9212.2211 -7426.6200 299.4579 525.5118 625.4928 29888.2482 -24.9523 30.0014
ENERGY: 1500000 2.4445 1.2739 0.9358 0.0000 -10584.6022 1401.6480 0.0000 0.0000 1804.0977 -7374.2024 311.3920 -9178.3000 -7420.6070 299.4382 -111.7299 -57.5151 29989.2524 -89.8484 -32.9036
TCL: Running FEP window   7: Lambda1 0.6999999999999997 Lambda2 0.6499999999999997 [dLambda -0.050000000000000044]
TCL: Setting parameter firsttimestep to 0
TCL: Setting parameter alchLambda to 0.6999999999999997
Info: NONBONDED TABLE R-SQUARED SPACING: 0.0625
Info: NONBONDED TABLE SIZE: 705 POINTS
TCL: Setting parameter alchLambda2 to 0.6499999999999997
Info: NONBONDED TABLE R-SQUARED SPACING: 0.0625
Info: NONBONDED TABLE SIZE: 705 POINTS
TCL: Running for 1500000 steps
ETITLE: TS BOND ANGLE DIHED IMPRP ELECT VDW BOUNDARY MISC KINETIC TOTAL TEMP POTENTIAL TOTALAVG TEMPAVG PRESSURE GPRESSURE VOLUME PRESSAVG GPRESSAVG
ENERGY: 0 2.4445 1.2739 0.9358 0.0000 -10584.4956 1401.6542 0.0000 0.0000 1803.2357 -7374.9516 311.2432 -9178.1873 -7374.9516 311.2432 -149.7088 -63.3115 29989.2524 -149.7088 -63.3115
ENERGY: 300000 0.5152 4.8113 1.1114 0.0000 -10600.0127 1468.9980 0.0000 0.0000 1741.7967 -7382.7800 300.6386 -9124.5767 -7388.4865 300.3473 378.6497 412.8498 29969.0767 199.2794 254.9211
ENERGY: 600000 4.6524 3.0510 0.6058 0.0000 -10737.9840 1481.2933 0.0000 0.0000 1785.4913 -7462.8902 308.1804 -9248.3815 -7409.6657 300.8016 277.4437 332.7675 30116.7695 234.5024 299.6538
ENERGY: 900000 2.0847 2.9973 1.7017 0.0000 -10452.8662 1348.6285 0.0000 0.0000 1717.5718 -7379.8822 296.4574 -9097.4540 -7386.8762 301.0402 -604.7875 -535.5397 30265.0227 53.1849 122.8757
ENERGY: 1200000 0.7807 1.3526 0.9899 0.0000 -10495.8333 1358.0056 0.0000 0.0000 1720.8324 -7413.8722 297.0202 -9134.7046 -7403.4381 299.1663 -200.5471 -133.4804 29502.7688 55.5446 124.9249
ENERGY: 1500000 2.1165 1.3417 0.5841 0.0000 -10661.1236 1436.3674 0.0000 0.0000 1718.8724 -7501.8416 296.6818 -9220.7140 -7414.0311 299.1190 261.7320 246.9536 29348.9844 24.9682 88.1078
TCL: Running FEP window   8: Lambda1 0.6499999999999997 Lambda2 0.5999999999999996 [dLambda -0.050000000000000044]
TCL: Setting parameter firsttimestep to 0
TCL: Setting parameter alchLambda to 0.6499999999999997
Info: NONBONDED TABLE R-SQUARED SPACING: 0.0625
Info: NONBONDED TABLE SIZE: 705 POINTS
TCL: Setting parameter alchLambda2 to 0.5999999999999996
Info: NONBONDED TABLE R-SQUARED SPACING: 0.0625
Info: NONBONDED TABLE SIZE: 705 POINTS
TCL: Running for 1500000 steps
ETITLE: TS BOND ANGLE DIHED IMPRP ELECT VDW BOUNDARY MISC KINETIC TOTAL TEMP POTENTIAL TOTALAVG TEMPAVG PRESSURE GPRESSURE VOLUME PRESSAVG GPRESSAVG
ENERGY: 0 2.1165 1.3417 0.5841 0.0000 -10660.8815 1436.5745 0.0000 0.0000 1718.0101 -7502.2546 296.5330 -9220.2647 -7502.2546 296.5330 169.4735 245.0828 29348.9844 169.4735 245.0828
ENERGY: 300000 0.4233 4.2022 1.0557 0.0000 -10472.8490 1385.3636 0.0000 0.0000 1690.4521 -7391.3520 291.7764 -9081.8041 -7433.4695 298.4410 -114.1918 -106.5235 30204.5304 -217.2912 -177.8472
ENERGY: 600000 0.1998 2.2461 4.3847 0.0000 -10639.8566 1428.2229 0.0000 0.0000 1775.7304 -7429.0726 306.4957 -9204.8031 -7418.0972 299.1838 -186.8257 -189.3408 29957.9182 -235.5048 -190.6047
ENERGY: 900000 2.7276 1.9138 1.5209 0.0000 -10550.2338 1377.5757 0.0000 0.0000 1757.5567 -7408.9392 303.3589 -9166.4958 -7419.3160 298.8938 -379.3068 -298.5952 29871.8469 -236.4934 -184.3895
ENERGY: 1200000 2.0842 2.3398 1.3943 0.0000 -10558.7505 1427.6662 0.0000 0.0000 1730.4881 -7394.7779 298.6867 -9125.2659 -7416.6308 298.8697 371.2110 437.5936 29697.4353 -145.8788 -88.4583
ENERGY: 1500000 1.3250 3.5358 1.9164 0.0000 -10561.5918 1379.6054 0.0000 0.0000 1741.5455 -7433.6639 300.5953 -9175.2093 -7412.6044 299.4122 -607.1538 -480.7505 30050.9410 -172.2742 -114.5574
TCL: Running FEP window   9: Lambda1 0.5999999999999996 Lambda2 0.5499999999999996 [dLambda -0.050000000000000044]
TCL: Setting parameter firsttimestep to 0
TCL: Setting parameter alchLambda to 0.5999999999999996
Info: NONBONDED TABLE R-SQUARED SPACING: 0.0625
Info: NONBONDED TABLE SIZE: 705 POINTS
TCL: Setting parameter alchLambda2 to 0.5499999999999996
Info: NONBONDED TABLE R-SQUARED SPACING: 0.0625
Info: NONBONDED TABLE SIZE: 705 POINTS
TCL: Running for 1500000 steps
ETITLE: TS BOND ANGLE DIHED IMPRP ELECT VDW BOUNDARY MISC KINETIC TOTAL TEMP POTENTIAL TOTALAVG TEMPAVG PRESSURE GPRESSURE VOLUME PRESSAVG GPRESSAVG
ENERGY: 0 1.3250 3.5358 1.9164 0.0000 -10561.2546 1379.4203 0.0000 0.0000 1740.6895 -7434.3677 300.4475 -9175.0572 -7434.3677 300.4475 -580.2602 -488.3405 30050.9410 -580.2602 -488.3405
ENERGY: 300000 0.2813 3.8902 2.1940 0.0000 -10632.2058 1440.9116 0.0000 0.0000 1716.3737 -7468.5551 296.2506 -9184.9288 -7459.1640 298.7088 14.8491 45.6293 29774.3588 -178.3825 -109.8658
ENERGY: 600000 0.3461 1.5085 3.3601 0.0000 -10821.0250 1574.9100 0.0000 0.0000 1701.0900 -7539.8104 293.6126 -9240.9004 -7440.9985 298.4174 1082.8329 1195.4591 29745.6648 161.2195 231.2649
ENERGY: 900000 1.1207 2.2803 2.6572 0.0000 -10554.9867 1378.9193 0.0000 0.0000 1780.2439 -7389.7653 307.2747 -9170.0092 -7422.1197 300.0347 -337.6515 -305.0861 29965.1274 93.6174 160.8305
ENERGY: 1200000 1.6853 4.0648 5.3105 0.0000 -10529.2267 1372.0855 0.0000 0.0000 1732.4317 -7413.6488 299.0222 -9146.0806 -7423.0296 299.8077 -528.4972 -455.0214 30221.3943 -12.3211 44.9256
ENERGY: 1500000 1.6490 2.6354 0.8756 0.0000 -10624.4872 1427.8407 0.0000 0.0000 1764.3691 -7427.1174 304.5347 -9191.4865 -7425.9077 299.6869 43.6351 58.0190 30003.1199 -54.1152 7.9200
TCL: Running FEP window  10: Lambda1 0.5499999999999996 Lambda2 0.4999999999999996 [dLambda -0.04999999999999999]
TCL: Setting parameter firsttimestep to 0
TCL: Setting parameter alchLambda to 0.5499999999999996
Info: NONBONDED TABLE R-SQUARED SPACING: 0.0625
Info: NONBONDED TABLE SIZE: 705 POINTS
TCL: Setting parameter alchLambda2 to 0.4999999999999996
Info: NONBONDED TABLE R-SQUARED SPACING: 0.0625
Info: NONBONDED TABLE SIZE: 705 POINTS
TCL: Running for 1500000 steps
ETITLE: TS BOND ANGLE DIHED IMPRP ELECT VDW BOUNDARY MISC KINETIC TOTAL TEMP POTENTIAL TOTALAVG TEMPAVG PRESSURE GPRESSURE VOLUME PRESSAVG GPRESSAVG
ENERGY: 0 1.6490 2.6354 0.8756 0.0000 -10624.3372 1428.2228 0.0000 0.0000 1763.4926 -7427.4618 304.3834 -9190.9545 -7427.4618 304.3834 -8.4538 58.3231 30003.1199 -8.4538 58.3231
ENERGY: 300000 1.6307 1.0220 0.9068 0.0000 -10482.9856 1322.5514 0.0000 0.0000 1681.8166 -7475.0580 290.2859 -9156.8746 -7413.5789 301.6587 -844.5592 -726.0664 29545.0129 -151.5825 -91.8428
ENERGY: 600000 0.8045 3.9379 1.6087 0.0000 -10582.4852 1405.5600 0.0000 0.0000 1653.7526 -7516.8216 285.4420 -9170.5742 -7439.7222 298.6928 -293.4029 -311.4898 30259.4347 -158.8786 -114.1828
ENERGY: 900000 1.0632 3.3360 2.7644 0.0000 -10574.0301 1454.1282 0.0000 0.0000 1766.4551 -7346.2833 304.8947 -9112.7384 -7428.1918 299.5242 387.4678 373.2941 30182.2765 -147.6645 -108.1364
ENERGY: 1200000 2.9477 2.3360 1.5184 0.0000 -10573.7162 1417.9657 0.0000 0.0000 1684.6819 -7464.2665 290.7805 -9148.9484 -7431.5101 298.9106 -187.0082 -59.5424 29759.0568 -100.3145 -41.6036
ENERGY: 1500000 1.1346 1.3561 2.7596 0.0000 -10578.0613 1395.6825 0.0000 0.0000 1721.3194 -7455.8092 297.1042 -9177.1285 -7428.6592 298.2954 -289.7278 -267.2196 29837.7872 -125.4918 -67.6037
TCL: Running FEP window  11: Lambda1 0.4999999999999996 Lambda2 0.4499999999999996 [dLambda -0.04999999999999999]
TCL: Setting parameter firsttimestep to 0
TCL: Setting parameter alchLambda to 0.4999999999999996
Info: NONBONDED TABLE R-SQUARED SPACING: 0.0625
Info: NONBONDED TABLE SIZE: 705 POINTS
TCL: Setting parameter alchLambda2 to 0.4499999999999996
Info: NONBONDED TABLE R-SQUARED SPACING: 0.0625
Info: NONBONDED TABLE SIZE: 705 POINTS
TCL: Running for 1500000 steps
ETITLE: TS BOND ANGLE DIHED IMPRP ELECT VDW BOUNDARY MISC KINETIC TOTAL TEMP POTENTIAL TOTALAVG TEMPAVG PRESSURE GPRESSURE VOLUME PRESSAVG GPRESSAVG
ENERGY: 0 1.1346 1.3561 2.7596 0.0000 -10577.9026 1396.0538 0.0000 0.0000 1720.3956 -7456.2030 296.9448 -9176.5986 -7456.2030 296.9448 -358.5098 -269.4155 29837.7872 -358.5098 -269.4155
ENERGY: 300000 0.8725 5.6302 1.0895 0.0000 -10618.6444 1421.2013 0.0000 0.0000 1746.7894 -7443.0616 301.5004 -9189.8510 -7434.6519 301.5016 -338.2138 -278.2464 30245.4193 -314.2516 -259.3816
ENERGY: 600000 3.3460 1.7189 0.9085 0.0000 -10507.6672 1392.4260 0.0000 0.0000 1731.7096 -7377.5583 298.8976 -9109.2679 -7424.0563 301.0756 157.6151 266.3818 29673.4514 -104.9853 -41.1868
ENERGY: 900000 7.1979 2.1526 0.5703 0.0000 -10625.3139 1477.6461 0.0000 0.0000 1730.3010 -7407.4459 298.6545 -9137.7469 -7414.2346 300.1114 424.9718 558.0601 29786.8687 -7.2371 62.5461
ENERGY: 1200000 0.9917 1.1463 4.2916 0.0000 -10646.0092 1503.7473 0.0000 0.0000 1762.9533 -7372.8789 304.2903 -9135.8323 -7404.8248 300.5202 527.8069 569.0402 30117.8131 10.4085 67.2513
ENERGY: 1500000 1.6236 2.4664 1.1969 0.0000 -10521.7358 1321.1690 0.0000 0.0000 1759.2914 -7435.9885 303.6583 -9195.2800 -7405.8081 300.6830 -946.0517 -956.4684 30134.1299 -53.4168 2.2506
TCL: Running FEP window  12: Lambda1 0.4499999999999996 Lambda2 0.39999999999999963 [dLambda -0.04999999999999999]
TCL: Setting parameter firsttimestep to 0
TCL: Setting parameter alchLambda to 0.4499999999999996
Info: NONBONDED TABLE R-SQUARED SPACING: 0.0625
Info: NONBONDED TABLE SIZE: 705 POINTS
TCL: Setting parameter alchLambda2 to 0.39999999999999963
Info: NONBONDED TABLE R-SQUARED SPACING: 0.0625
Info: NONBONDED TABLE SIZE: 705 POINTS
TCL: Running for 1500000 steps
ETITLE: TS BOND ANGLE DIHED IMPRP ELECT VDW BOUNDARY MISC KINETIC TOTAL TEMP POTENTIAL TOTALAVG TEMPAVG PRESSURE GPRESSURE VOLUME PRESSAVG GPRESSAVG
ENERGY: 0 1.6236 2.4664 1.1969 0.0000 -10521.7357 1321.2133 0.0000 0.0000 1758.4387 -7436.7969 303.5111 -9195.2356 -7436.7969 303.5111 -1031.3655 -957.1693 30134.1299 -1031.3655 -957.1693
ENERGY: 300000 3.9255 1.0294 2.2667 0.0000 -10450.4901 1357.3595 0.0000 0.0000 1705.4493 -7380.4597 294.3650 -9085.9090 -7419.9237 295.4522 -799.5222 -726.7651 30462.2576 -396.0732 -331.6563
ENERGY: 600000 2.6198 2.4879 2.2285 0.0000 -10571.9005 1415.7891 0.0000 0.0000 1760.8107 -7387.9647 303.9205 -9148.7754 -7411.0062 297.2707 -224.5577 -158.6183 30105.0848 -386.0840 -323.2877
ENERGY: 900000 0.4852 2.4589 1.7452 0.0000 -10599.3333 1444.7275 0.0000 0.0000 1709.0776 -7440.8390 294.9912 -9149.9166 -7403.9036 297.8521 85.9071 148.5287 29895.6076 -349.2022 -280.1456
ENERGY: 1200000 0.6437 3.5103 2.5921 0.0000 -10547.0254 1395.7520 0.0000 0.0000 1753.2379 -7391.2893 302.6134 -9144.5272 -7401.1694 298.9612 167.5496 159.6013 29406.3917 -261.6747 -203.9448
ENERGY: 1500000 1.6143 1.6401 2.1963 0.0000 -10779.9441 1511.7691 0.0000 0.0000 1680.3762 -7582.3480 290.0373 -9262.7243 -7409.5095 298.9238 475.0695 516.9560 29425.1904 -93.8263 -37.9196
TCL: Running FEP window  13: Lambda1 0.39999999999999963 Lambda2 0.34999999999999964 [dLambda -0.04999999999999999]
TCL: Setting parameter firsttimestep to 0
TCL: Setting parameter alchLambda to 0.39999999999999963
Info: NONBONDED TABLE R-SQUARED SPACING: 0.0625
Info: NONBONDED TABLE SIZE: 705 POINTS
TCL: Setting parameter alchLambda2 to 0.34999999999999964
Info: NONBONDED TABLE R-SQUARED SPACING: 0.0625
Info: NONBONDED TABLE SIZE: 705 POINTS
TCL: Running for 1500000 steps
ETITLE: TS BOND ANGLE DIHED IMPRP ELECT VDW BOUNDARY MISC KINETIC TOTAL TEMP POTENTIAL TOTALAVG TEMPAVG PRESSURE GPRESSURE VOLUME PRESSAVG GPRESSAVG
ENERGY: 0 1.6143 1.6401 2.1963 0.0000 -10779.9438 1511.0726 0.0000 0.0000 1679.5148 -7583.9056 289.8886 -9263.4204 -7583.9056 289.8886 424.0544 507.1514 29425.1904 424.0544 507.1514
ENERGY: 300000 1.9808 0.5195 2.0525 0.0000 -10588.6135 1432.6177 0.0000 0.0000 1733.6639 -7417.7791 299.2349 -9151.4430 -7425.4003 299.9729 33.7949 132.5415 29971.4562 353.0170 439.1330
ENERGY: 600000 2.5478 1.3862 0.9173 0.0000 -10545.7538 1351.5236 0.0000 0.0000 1742.2282 -7447.1508 300.7131 -9189.3790 -7416.4350 299.5602 -735.2062 -696.2166 29875.3206 52.4609 121.0952
ENERGY: 900000 4.6513 2.8934 2.9939 0.0000 -10674.0277 1428.4668 0.0000 0.0000 1761.4635 -7473.5588 304.0332 -9235.0223 -7417.0054 299.6338 -245.9646 -241.4269 29663.8992 -60.2622 -2.1211
ENERGY: 1200000 2.2363 1.8050 1.0760 0.0000 -10459.9917 1356.3001 0.0000 0.0000 1740.6851 -7357.8892 300.4468 -9098.5743 -7412.5350 299.7725 -347.4073 -297.6983 29840.1250 -25.5411 27.6655
ENERGY: 1500000 2.2477 2.2808 0.2346 0.0000 -10580.3300 1396.8764 0.0000 0.0000 1750.0568 -7428.6337 302.0644 -9178.6905 -7409.1808 299.8108 -271.0487 -119.3688 29704.7406 -10.5120 46.7737
TCL: Running FEP window  14: Lambda1 0.34999999999999964 Lambda2 0.29999999999999966 [dLambda -0.04999999999999999]
TCL: Setting parameter firsttimestep to 0
TCL: Setting parameter alchLambda to 0.34999999999999964
Info: NONBONDED TABLE R-SQUARED SPACING: 0.0625
Info: NONBONDED TABLE SIZE: 705 POINTS
TCL: Setting parameter alchLambda2 to 0.29999999999999966
Info: NONBONDED TABLE R-SQUARED SPACING: 0.0625
Info: NONBONDED TABLE SIZE: 705 POINTS
TCL: Running for 1500000 steps
ETITLE: TS BOND ANGLE DIHED IMPRP ELECT VDW BOUNDARY MISC KINETIC TOTAL TEMP POTENTIAL TOTALAVG TEMPAVG PRESSURE GPRESSURE VOLUME PRESSAVG GPRESSAVG
ENERGY: 0 2.2477 2.2808 0.2346 0.0000 -10580.3317 1396.8984 0.0000 0.0000 1749.2124 -7429.4579 301.9186 -9178.6702 -7429.4579 301.9186 -221.8607 -122.2718 29704.7406 -221.8607 -122.2718
ENERGY: 300000 0.2256 1.1458 2.3073 0.0000 -10434.1406 1379.3879 0.0000 0.0000 1684.8657 -7366.2082 290.8122 -9051.0739 -7405.3242 297.5455 -187.2979 -157.6923 30487.6200 -329.4522 -261.9156
ENERGY: 600000 1.1683 1.7195 0.8107 0.0000 -10619.5286 1497.3795 0.0000 0.0000 1765.2810 -7353.1696 304.6921 -9118.4506 -7416.6294 299.9376 1251.6351 1331.5242 29265.2199 69.2062 143.6820
ENERGY: 900000 0.1520 1.7623 3.4087 0.0000 -10458.4483 1307.4132 0.0000 0.0000 1681.6539 -7464.0583 290.2578 -9145.7122 -7413.2689 299.9281 -780.4391 -846.4354 29886.3156 -171.1727 -121.4210
ENERGY: 1200000 1.7069 1.4745 1.0708 0.0000 -10550.3758 1372.5069 0.0000 0.0000 1764.2312 -7409.3855 304.5109 -9173.6167 -7415.4752 300.6795 -143.8176 -69.2235 29366.0389 -151.6094 -94.8631
ENERGY: 1500000 1.5439 1.0039 2.2282 0.0000 -10599.0891 1458.4848 0.0000 0.0000 1712.0420 -7423.7864 295.5029 -9135.8283 -7409.4367 301.2100 69.7600 229.3795 30174.5293 -127.7176 -59.7371
TCL: Running FEP window  15: Lambda1 0.29999999999999966 Lambda2 0.24999999999999967 [dLambda -0.04999999999999999]
TCL: Setting parameter firsttimestep to 0
TCL: Setting parameter alchLambda to 0.29999999999999966
Info: NONBONDED TABLE R-SQUARED SPACING: 0.0625
Info: NONBONDED TABLE SIZE: 705 POINTS
TCL: Setting parameter alchLambda2 to 0.24999999999999967
Info: NONBONDED TABLE R-SQUARED SPACING: 0.0625
Info: NONBONDED TABLE SIZE: 705 POINTS
TCL: Running for 1500000 steps
ETITLE: TS BOND ANGLE DIHED IMPRP ELECT VDW BOUNDARY MISC KINETIC TOTAL TEMP POTENTIAL TOTALAVG TEMPAVG PRESSURE GPRESSURE VOLUME PRESSAVG GPRESSAVG
ENERGY: 0 1.5439 1.0039 2.2282 0.0000 -10599.0899 1458.3312 0.0000 0.0000 1711.2333 -7424.7494 295.3633 -9135.9827 -7424.7494 295.3633 140.2775 225.3062 30174.5293 140.2775 225.3062
ENERGY: 300000 1.2715 3.1621 1.9416 0.0000 -10586.5030 1445.0055 0.0000 0.0000 1773.7401 -7361.3823 306.1522 -9135.1223 -7420.6097 300.3871 141.7118 265.2447 30100.5675 -45.8171 25.5488
ENERGY: 600000 0.8845 2.8500 2.5725 0.0000 -10476.0279 1395.7715 0.0000 0.0000 1748.2353 -7325.7141 301.7500 -9073.9494 -7419.2129 299.9777 -347.2709 -286.6447 30351.0134 -108.2831 -38.3509
ENERGY: 900000 0.8297 1.5542 1.2470 0.0000 -10441.3838 1340.9276 0.0000 0.0000 1748.3651 -7348.4603 301.7724 -9096.8253 -7420.8267 298.9471 -744.1774 -698.0997 30416.0966 -148.4047 -79.1695
ENERGY: 1200000 1.7010 1.4251 0.5675 0.0000 -10653.5211 1467.1174 0.0000 0.0000 1737.8063 -7444.9038 299.9499 -9182.7101 -7422.2522 299.0846 226.8228 295.6976 29752.7123 -104.9060 -31.3371
ENERGY: 1500000 1.2216 2.9529 2.7204 0.0000 -10456.2650 1305.0538 0.0000 0.0000 1688.7991 -7455.5172 291.4911 -9144.3163 -7419.1227 298.4259 -1089.1945 -1040.9439 30159.4267 -170.3853 -96.9575
TCL: Running FEP window  16: Lambda1 0.24999999999999967 Lambda2 0.19999999999999968 [dLambda -0.04999999999999999]
TCL: Setting parameter firsttimestep to 0
TCL: Setting parameter alchLambda to 0.24999999999999967
Info: NONBONDED TABLE R-SQUARED SPACING: 0.0625
Info: NONBONDED TABLE SIZE: 705 POINTS
TCL: Setting parameter alchLambda2 to 0.19999999999999968
Info: NONBONDED TABLE R-SQUARED SPACING: 0.0625
Info: NONBONDED TABLE SIZE: 705 POINTS
TCL: Running for 1500000 steps
ETITLE: TS BOND ANGLE DIHED IMPRP ELECT VDW BOUNDARY MISC KINETIC TOTAL TEMP POTENTIAL TOTALAVG TEMPAVG PRESSURE GPRESSURE VOLUME PRESSAVG GPRESSAVG
ENERGY: 0 1.2216 2.9529 2.7204 0.0000 -10456.2650 1305.3609 0.0000 0.0000 1687.9129 -7456.0963 291.3382 -9144.0092 -7456.0963 291.3382 -1109.9736 -1042.9111 30159.4267 -1109.9736 -1042.9111
ENERGY: 300000 1.3578 2.1102 1.3336 0.0000 -10417.5985 1271.6328 0.0000 0.0000 1731.4226 -7409.7417 298.8480 -9141.1643 -7421.4539 298.6046 -1113.7568 -1034.6387 29944.9067 -318.7315 -229.0687
ENERGY: 600000 1.2143 3.7054 1.3826 0.0000 -10708.1365 1565.4519 0.0000 0.0000 1720.0784 -7416.3039 296.8900 -9136.3823 -7408.7683 299.9514 1298.3973 1313.1209 29497.9610 97.0550 164.5913
ENERGY: 900000 1.6390 1.3319 1.3073 0.0000 -10681.4274 1454.1019 0.0000 0.0000 1721.4244 -7501.6229 297.1223 -9223.0474 -7394.5991 300.5591 -52.2859 79.0886 29916.7290 -16.8026 53.7760
ENERGY: 1200000 2.5535 1.9095 3.0750 0.0000 -10484.4931 1415.9171 0.0000 0.0000 1745.4309 -7315.6070 301.2659 -9061.0379 -7397.7698 300.6260 -178.5163 -147.1561 30433.4547 15.0249 82.4566
ENERGY: 1500000 0.6882 1.5263 5.2564 0.0000 -10648.1293 1488.0995 0.0000 0.0000 1759.9419 -7392.6170 303.7706 -9152.5590 -7393.1000 300.9022 680.8614 724.4732 29834.7597 55.7368 121.5751
TCL: Running FEP window  17: Lambda1 0.19999999999999968 Lambda2 0.1499999999999997 [dLambda -0.04999999999999999]
TCL: Setting parameter firsttimestep to 0
TCL: Setting parameter alchLambda to 0.19999999999999968
Info: NONBONDED TABLE R-SQUARED SPACING: 0.0625
Info: NONBONDED TABLE SIZE: 705 POINTS
TCL: Setting parameter alchLambda2 to 0.1499999999999997
Info: NONBONDED TABLE R-SQUARED SPACING: 0.0625
Info: NONBONDED TABLE SIZE: 705 POINTS
TCL: Running for 1500000 steps
ETITLE: TS BOND ANGLE DIHED IMPRP ELECT VDW BOUNDARY MISC KINETIC TOTAL TEMP POTENTIAL TOTALAVG TEMPAVG PRESSURE GPRESSURE VOLUME PRESSAVG GPRESSAVG
ENERGY: 0 0.6882 1.5263 5.2564 0.0000 -10648.1280 1487.9543 0.0000 0.0000 1759.0505 -7393.6524 303.6167 -9152.7029 -7393.6524 303.6167 642.6874 720.5006 29834.7597 642.6874 720.5006
ENERGY: 300000 1.6910 4.9814 1.0356 0.0000 -10714.0681 1527.7162 0.0000 0.0000 1724.8696 -7453.7743 297.7170 -9178.6438 -7405.3291 301.1201 767.6007 834.8329 29659.1774 265.1061 364.3449
ENERGY: 600000 0.1304 2.7813 0.6702 0.0000 -10587.0516 1467.9884 0.0000 0.0000 1737.5478 -7377.9335 299.9053 -9115.4813 -7421.4302 299.3743 460.3137 503.0165 29728.0522 180.5011 256.0791
ENERGY: 900000 0.7741 0.9562 3.4635 0.0000 -10780.4216 1560.4887 0.0000 0.0000 1710.7636 -7503.9757 295.2823 -9214.7393 -7420.0610 298.2115 925.3119 975.7310 29752.4550 287.5875 361.1571
ENERGY: 1200000 1.8288 0.9607 1.4484 0.0000 -10607.0142 1410.9238 0.0000 0.0000 1703.6852 -7488.1673 294.0605 -9191.8525 -7430.1163 297.9732 -290.3266 -171.5611 29734.3356 196.5241 265.3390
ENERGY: 1500000 0.8982 3.1796 3.8213 0.0000 -10588.9802 1436.6683 0.0000 0.0000 1750.2398 -7394.1731 302.0959 -9144.4129 -7425.0356 298.1411 158.9350 148.3679 30104.6956 162.4083 230.9450
TCL: Running FEP window  18: Lambda1 0.1499999999999997 Lambda2 0.09999999999999969 [dLambda -0.05 ]
TCL: Setting parameter firsttimestep to 0
TCL: Setting parameter alchLambda to 0.1499999999999997
Info: NONBONDED TABLE R-SQUARED SPACING: 0.0625
Info: NONBONDED TABLE SIZE: 705 POINTS
TCL: Setting parameter alchLambda2 to 0.09999999999999969
Info: NONBONDED TABLE R-SQUARED SPACING: 0.0625
Info: NONBONDED TABLE SIZE: 705 POINTS
TCL: Running for 1500000 steps
ETITLE: TS BOND ANGLE DIHED IMPRP ELECT VDW BOUNDARY MISC KINETIC TOTAL TEMP POTENTIAL TOTALAVG TEMPAVG PRESSURE GPRESSURE VOLUME PRESSAVG GPRESSAVG
ENERGY: 0 0.8982 3.1796 3.8213 0.0000 -10588.9808 1435.3903 0.0000 0.0000 1749.3986 -7396.2928 301.9508 -9145.6914 -7396.2928 301.9508 62.4692 140.0262 30104.6956 62.4692 140.0262
ENERGY: 300000 2.9925 2.3385 2.9488 0.0000 -10599.5932 1455.6653 0.0000 0.0000 1664.8502 -7470.7978 287.3575 -9135.6480 -7418.3905 296.1917 140.3524 233.6046 30142.6896 -116.6803 -23.0246
ENERGY: 600000 3.0493 2.2050 2.3066 0.0000 -10608.7096 1436.4777 0.0000 0.0000 1700.8185 -7463.8525 293.5657 -9164.6710 -7402.9840 299.0225 302.8809 363.1546 29592.0056 84.1228 165.3569
ENERGY: 900000 1.5717 1.3251 3.4003 0.0000 -10693.3445 1470.6717 0.0000 0.0000 1744.4732 -7471.9025 301.1006 -9216.3757 -7408.0025 299.9304 125.6900 110.4415 29718.0965 86.7885 149.2598
ENERGY: 1200000 1.6487 0.8270 1.3682 0.0000 -10693.5983 1502.4622 0.0000 0.0000 1695.7328 -7491.5594 292.6879 -9187.2922 -7418.4677 299.1200 526.1082 582.9144 29656.3423 106.6017 169.1207
ENERGY: 1500000 1.9315 2.3184 0.4991 0.0000 -10436.4570 1348.3584 0.0000 0.0000 1707.0733 -7376.2764 294.6453 -9083.3497 -7411.9182 299.2287 -443.1486 -441.8420 30029.5194 54.6945 118.7971
TCL: Running FEP window  19: Lambda1 0.09999999999999969 Lambda2 0.049999999999999684 [dLambda -0.05 ]
TCL: Setting parameter firsttimestep to 0
TCL: Setting parameter alchLambda to 0.09999999999999969
Info: NONBONDED TABLE R-SQUARED SPACING: 0.0625
Info: NONBONDED TABLE SIZE: 705 POINTS
TCL: Setting parameter alchLambda2 to 0.049999999999999684
Info: NONBONDED TABLE R-SQUARED SPACING: 0.0625
Info: NONBONDED TABLE SIZE: 705 POINTS
TCL: Running for 1500000 steps
ETITLE: TS BOND ANGLE DIHED IMPRP ELECT VDW BOUNDARY MISC KINETIC TOTAL TEMP POTENTIAL TOTALAVG TEMPAVG PRESSURE GPRESSURE VOLUME PRESSAVG GPRESSAVG
ENERGY: 0 1.9315 2.3184 0.4991 0.0000 -10436.4562 1348.7388 0.0000 0.0000 1706.1921 -7376.7764 294.4932 -9082.9685 -7376.7764 294.4932 -521.4026 -441.8062 30029.5194 -521.4026 -441.8062
ENERGY: 300000 0.6873 5.1007 0.7030 0.0000 -10658.6359 1498.3788 0.0000 0.0000 1708.5676 -7445.1985 294.9032 -9153.7661 -7388.5919 297.3488 576.4353 614.4763 29669.5143 155.8469 212.7467
ENERGY: 600000 0.6378 4.7567 1.1411 0.0000 -10640.0692 1508.6569 0.0000 0.0000 1748.0269 -7376.8498 301.7140 -9124.8767 -7381.0204 299.5399 402.5262 512.6558 30140.9128 196.8479 271.3631
ENERGY: 900000 1.7946 1.4213 0.9744 0.0000 -10452.6055 1303.9790 0.0000 0.0000 1698.1878 -7446.2486 293.1116 -9144.4364 -7401.8284 298.8527 -1027.8245 -964.6424 30039.1990 -45.6713 28.1336
ENERGY: 1200000 2.7929 2.3935 2.5480 0.0000 -10633.9180 1491.0844 0.0000 0.0000 1743.7020 -7391.3971 300.9675 -9135.0992 -7400.3191 300.2120 517.5676 567.7104 29991.4494 -0.0662 66.6761
ENERGY: 1500000 0.5857 3.9745 2.9531 0.0000 -10461.5228 1354.0181 0.0000 0.0000 1768.7460 -7331.2454 305.2902 -9099.9914 -7392.7005 301.0750 -384.4135 -320.9348 29987.3777 -18.2671 43.4549
TCL: Running FEP window  20: Lambda1 0.049999999999999684 Lambda2 0.0    [dLambda -0.049999999999999684]
TCL: Setting parameter firsttimestep to 0
TCL: Setting parameter alchLambda to 0.049999999999999684
Info: NONBONDED TABLE R-SQUARED SPACING: 0.0625
Info: NONBONDED TABLE SIZE: 705 POINTS
TCL: Setting parameter alchLambda2 to 0.0
Info: NONBONDED TABLE R-SQUARED SPACING: 0.0625
Info: NONBONDED TABLE SIZE: 705 POINTS
TCL: Running for 1500000 steps
ETITLE: TS BOND ANGLE DIHED IMPRP ELECT VDW BOUNDARY MISC KINETIC TOTAL TEMP POTENTIAL TOTALAVG TEMPAVG PRESSURE GPRESSURE VOLUME PRESSAVG GPRESSAVG
ENERGY: 0 0.5857 3.9746 2.9531 0.0000 -10461.5219 1353.3788 0.0000 0.0000 1767.8668 -7332.7629 305.1384 -9100.6297 -7332.7629 305.1384 -421.4127 -326.1548 29987.3777 -421.4127 -326.1548
ENERGY: 300000 1.3427 1.6850 2.0789 0.0000 -10599.6284 1458.4794 0.0000 0.0000 1756.8291 -7379.2132 303.2333 -9136.0423 -7379.0679 301.1052 6.1408 103.0876 30395.4331 3.0931 100.8784
ENERGY: 600000 3.9450 1.6118 2.2562 0.0000 -10603.5786 1410.3890 0.0000 0.0000 1778.7161 -7406.6606 307.0110 -9185.3767 -7398.6001 300.1082 -182.9218 -99.8634 29450.4701 -162.4371 -84.3658
ENERGY: 900000 1.8437 1.9949 1.4903 0.0000 -10648.6257 1481.2609 0.0000 0.0000 1777.7499 -7384.2858 306.8443 -9162.0358 -7385.8117 301.8246 525.9714 573.9535 29751.6387 28.9244 98.0584
ENERGY: 1200000 1.5256 0.4999 0.3180 0.0000 -10598.1036 1454.1834 0.0000 0.0000 1702.8291 -7438.7476 293.9127 -9141.5767 -7394.7808 300.6652 35.4872 119.7503 30421.4474 68.5567 139.9074
ENERGY: 1500000 0.5827 2.1559 2.2474 0.0000 -10576.2737 1418.6053 0.0000 0.0000 1705.1142 -7447.5681 294.3072 -9152.6823 -7392.5251 300.4182 -336.4310 -262.8033 30301.4461 -32.6589 39.9965
TCL: Exiting due to exit command.
