Info: SIMULATION PARAMETERS:
Info: TIMESTEP               2
Info: NUMBER OF STEPS        0
Info: STEPS PER CYCLE        10
Info: PERIODIC CELL BASIS 1  31.452 0 0
Info: PERIODIC CELL BASIS 2  0 31.8416 0
Info: PERIODIC CELL BASIS 3  0 0 30.2945
Info: PERIODIC CELL CENTER   0 0 0
Info: WRAPPING WATERS AROUND PERIODIC BOUNDARIES ON OUTPUT.
Info: WRAPPING ALL CLUSTERS AROUND PERIODIC BOUNDARIES ON OUTPUT.
Info: FIRST LDB TIMESTEP     50
Info: LAST LDB TIMESTEP     -1
Info: HOM BACKGROUND SCALING 1
Info: PME BACKGROUND SCALING 1
Info: MIN ATOMS PER PATCH    40
Info: EMPTY PATCH LOAD       40 ATOMS
Info: VELOCITY FILE          mobley_7735340_equil.vel
Info: CENTER OF MASS MOVING INITIALLY? NO
Info: DIELECTRIC             1
Info: EXCLUDE                SCALED ONE-FOUR
Info: 1-4 ELECTROSTATICS SCALED BY 0.833333
Info: MODIFIED 1-4 VDW PARAMETERS WILL BE USED
Info: DCD FILENAME           mobley_7735340_prod.dcd
Info: DCD FREQUENCY          100000
Info: DCD FIRST STEP         100000
Info: DCD FILE WILL CONTAIN UNIT CELL DATA
Info: XST FILENAME           mobley_7735340_prod.xst
Info: XST FREQUENCY          100000
Info: NO VELOCITY DCD OUTPUT
Info: NO FORCE DCD OUTPUT
Info: OUTPUT FILENAME        mobley_7735340_prod
Info: BINARY OUTPUT FILES WILL BE USED
Info: RESTART FILENAME       mobley_7735340_prod.restart
Info: RESTART FREQUENCY      100000
Info: BINARY RESTART FILES WILL BE USED
Info: CUTOFF                 9
Info: PAIRLIST DISTANCE      11
Info: PAIRLIST SHRINK RATE   0.01
Info: PAIRLIST GROW RATE     0.01
Info: PAIRLIST TRIGGER       0.3
Info: PAIRLISTS PER CYCLE    2
Info: PAIRLISTS ENABLED
Info: MARGIN                 2
Info: HYDROGEN GROUP CUTOFF  2.5
Info: PATCH DIMENSION        15.5
Info: ENERGY OUTPUT STEPS    100000
Info: ENERGY EVALUATION STEPS    100000
Info: OUTPUT ENERGY PRECISION 4
Info: CROSSTERM ENERGY INCLUDED IN DIHEDRAL
Info: TIMING OUTPUT STEPS    1000000
Info: PRESSURE OUTPUT STEPS  100000
Info: ALCHEMICAL FEP ON
Info: FEP CURRENT LAMBDA VALUE     0
Info: FEP COMPARISON LAMBDA VALUE  0.05
Info: FEP INTRA-ALCHEMICAL NON-BONDED INTERACTIONS WILL BE RETAINED
Info: FEP INTRA-ALCHEMICAL BONDED INTERACTIONS WILL BE RETAINED
Info: FEP VDW SHIFTING COEFFICIENT 5
Info: FEP ELEC. ACTIVE FOR ANNIHILATED PARTICLES BETWEEN LAMBDA = 0 AND LAMBDA = 0.5
Info: FEP ELEC. ACTIVE FOR EXNIHILATED PARTICLES BETWEEN LAMBDA = 0.5 AND LAMBDA = 1
Info: FEP VDW ACTIVE FOR ANNIHILATED PARTICLES BETWEEN LAMBDA = 0 AND LAMBDA = 1
Info: FEP VDW ACTIVE FOR EXNIHILATED PARTICLES BETWEEN LAMBDA = 0 AND LAMBDA = 1
Info: FEP BOND ACTIVE FOR ANNIHILATED PARTICLES BETWEEN LAMBDA = 1 AND LAMBDA = 1
Info: FEP BOND ACTIVE FOR EXNIHILATED PARTICLES BETWEEN LAMBDA = 0 AND LAMBDA = 0
Info: LANGEVIN DYNAMICS ACTIVE
Info: LANGEVIN TEMPERATURE   300
Info: LANGEVIN USING BBK INTEGRATOR
Info: LANGEVIN DAMPING COEFFICIENT IS 1 INVERSE PS
Info: LANGEVIN DYNAMICS APPLIED TO HYDROGENS
Info: LANGEVIN PISTON PRESSURE CONTROL ACTIVE
Info:        TARGET PRESSURE IS 1.01325 BAR
Info:     OSCILLATION PERIOD IS 50 FS
Info:             DECAY TIME IS 25 FS
Info:     PISTON TEMPERATURE IS 300 K
Info:       PRESSURE CONTROL IS GROUP-BASED
Info:    INITIAL STRAIN RATE IS -0.000403701 -0.000403701 -0.000403701
Info:       CELL FLUCTUATION IS ISOTROPIC
Info: PARTICLE MESH EWALD (PME) ACTIVE
Info: PME TOLERANCE               1e-06
Info: PME EWALD COEFFICIENT       0.348832
Info: PME INTERPOLATION ORDER     4
Info: PME GRID DIMENSIONS         32 32 32
Info: PME MAXIMUM GRID SPACING    1
Info: PME CALCULATION WILL BE PERFORMED ON GPU
Info: FULL ELECTROSTATIC EVALUATION FREQUENCY      2
Info: USING VERLET I (r-RESPA) MTS SCHEME.
Info: C1 SPLITTING OF LONG RANGE ELECTROSTATICS
Info: PLACING ATOMS IN PATCHES BY HYDROGEN GROUPS
Info: RIGID BONDS TO HYDROGEN : ALL
Info:         ERROR TOLERANCE : 1e-08
Info:          MAX ITERATIONS : 100
Info: RIGID WATER USING SETTLE ALGORITHM
Info: RANDOM NUMBER SEED     1743501661
Info: USE HYDROGEN BONDS?    NO
Info: Using AMBER format force field!
Info: AMBER PARM FILE        mobley_7735340.prmtop
Info: COORDINATE PDB         mobley_7735340.pdb
Info: Exclusions will be read from PARM file!
Info: SCNB (VDW SCALING)     2
Info: USING ARITHMETIC MEAN TO COMBINE L-J SIGMA PARAMETERS
Info: BINARY COORDINATES     mobley_7735340_equil.coor
Info: SUMMARY OF PARAMETERS:
Info: 10 BONDS
Info: 12 ANGLES
Info:   12 HARMONIC
Info:   0 COSINE-BASED
Info: 4 DIHEDRAL
Info: 0 IMPROPER
Info: 0 CROSSTERM
Info: 0 VDW
Info: 28 VDW_PAIRS
Info: 0 NBTHOLE_PAIRS
Info: To read alchdata from file: mobley_7735340.pdb
Info: To read alchflag data from column: 5
Info: STRUCTURE SUMMARY:
Info: 2952 ATOMS
Info: 2952 BONDS
Info: 13 ANGLES
Info: 20 DIHEDRALS
Info: 0 IMPROPERS
Info: 0 CROSSTERMS
Info: 2976 EXCLUSIONS
Info: 2947 RIGID BONDS
Info: ALCH: 0 ATOMS TO DISAPPEAR IN FINAL STATE
Info: ALCH: 9 ATOMS TO APPEAR IN FINAL STATE
Info: 5909 DEGREES OF FREEDOM
Info: 986 HYDROGEN GROUPS
Info: 3 ATOMS IN LARGEST HYDROGEN GROUP
Info: 986 MIGRATION GROUPS
Info: 3 ATOMS IN LARGEST MIGRATION GROUP
Info: TOTAL MASS = 17741.8 amu
Info: TOTAL CHARGE = -9.99831e-05 e
Info: MASS DENSITY = 0.971069 g/cm^3
Info: ATOM DENSITY = 0.0972994 atoms/A^3
Info: ADDED 0 IMPLICIT EXCLUSIONS
Info: NONBONDED TABLE R-SQUARED SPACING: 0.0625
Info: NONBONDED TABLE SIZE: 705 POINTS
Info: REDUCING NUMBER OF PATCHES TO IMPROVE LOAD BALANCE
Info: REMOVING COM VELOCITY -0.00506212 -0.00594495 -0.28384
Info: Use 3D box decompostion in PME FFT.
Info: Updated CUDA force table with 4096 elements.
Info: Updated CUDA LJ table with 7 x 7 elements.
Info: Found 12 unique exclusion lists needing 16 bytes
TCL: Running for 1500000 steps
ETITLE: TS BOND ANGLE DIHED IMPRP ELECT VDW BOUNDARY MISC KINETIC TOTAL TEMP POTENTIAL TOTALAVG TEMPAVG PRESSURE GPRESSURE VOLUME PRESSAVG GPRESSAVG
ENERGY: 0 0.5557 7.5342 1.3131 0.0000 -10665.5708 1423.4319 0.0000 0.0000 1710.1222 -7522.6137 291.2752 -9232.7358 -7522.6137 291.2752 -242.3250 -153.9058 30339.3567 -242.3250 -153.9058
ENERGY: 300000 1.2075 2.8362 0.6302 0.0000 -10684.6130 1433.5752 0.0000 0.0000 1788.2096 -7458.1543 304.5754 -9246.3639 -7492.3459 300.4233 5.1805 101.7371 30256.2622 -51.2406 56.1964
ENERGY: 600000 0.7186 2.6967 2.0152 0.0000 -10874.8325 1497.7387 0.0000 0.0000 1736.3188 -7635.3445 295.7371 -9371.6634 -7533.0689 298.5688 415.9186 500.7417 29629.9941 147.9739 230.6536
ENERGY: 900000 1.7289 3.7897 1.4520 0.0000 -10843.2995 1547.8537 0.0000 0.0000 1741.6179 -7546.8573 296.6397 -9288.4752 -7520.0511 298.9544 499.9794 623.0944 30335.8792 166.3475 251.9575
ENERGY: 1200000 1.5404 3.3204 1.8485 0.0000 -10648.3862 1386.8511 0.0000 0.0000 1728.9225 -7525.9034 294.4774 -9254.8258 -7511.7527 299.1706 -660.3232 -575.5276 30609.5510 67.9273 142.8897
ENERGY: 1500000 2.0205 3.0985 2.5368 0.0000 -10738.0419 1418.5910 0.0000 0.0000 1758.2371 -7553.5580 299.4704 -9311.7951 -7516.8370 298.2230 -291.8097 -217.5051 30308.8488 37.1581 103.3755
TCL: Running FEP window   2: Lambda1 0.05   Lambda2 0.1    [dLambda 0.05  ]
TCL: Setting parameter firsttimestep to 0
TCL: Setting parameter alchLambda to 0.05
Info: NONBONDED TABLE R-SQUARED SPACING: 0.0625
Info: NONBONDED TABLE SIZE: 705 POINTS
TCL: Setting parameter alchLambda2 to 0.1
Info: NONBONDED TABLE R-SQUARED SPACING: 0.0625
Info: NONBONDED TABLE SIZE: 705 POINTS
TCL: Running for 1500000 steps
ETITLE: TS BOND ANGLE DIHED IMPRP ELECT VDW BOUNDARY MISC KINETIC TOTAL TEMP POTENTIAL TOTALAVG TEMPAVG PRESSURE GPRESSURE VOLUME PRESSAVG GPRESSAVG
ENERGY: 0 2.0206 3.0985 2.5368 0.0000 -10738.0437 1420.0264 0.0000 0.0000 1757.3501 -7553.0113 299.3193 -9310.3614 -7553.0113 299.3193 -298.7829 -214.3812 30308.8488 -298.7829 -214.3812
ENERGY: 300000 3.7093 1.1938 3.4317 0.0000 -10821.5568 1438.9098 0.0000 0.0000 1708.9501 -7665.3622 291.0756 -9374.3123 -7542.4471 296.8254 -525.5537 -438.0256 30283.9469 -590.2198 -518.3037
ENERGY: 600000 1.4232 2.4263 1.6739 0.0000 -10725.9472 1445.3575 0.0000 0.0000 1774.3239 -7500.7423 302.2103 -9275.0663 -7526.6554 297.8696 198.2354 290.2319 30003.8876 -408.9414 -328.4744
ENERGY: 900000 2.8543 3.2112 2.5990 0.0000 -10660.2477 1376.3308 0.0000 0.0000 1674.1848 -7601.0676 285.1542 -9275.2524 -7534.0633 296.4195 -644.2348 -586.0838 30504.7360 -259.0455 -186.4868
ENERGY: 1200000 0.1922 3.8623 0.8718 0.0000 -10617.9661 1431.5035 0.0000 0.0000 1818.5933 -7362.9430 309.7505 -9181.5363 -7505.8347 299.1351 339.1205 416.5292 29973.6386 -226.0212 -150.4505
ENERGY: 1500000 0.7108 1.4140 2.2535 0.0000 -10678.9432 1462.4300 0.0000 0.0000 1735.5841 -7476.5508 295.6120 -9212.1349 -7502.5736 299.5225 172.8109 208.0458 30524.2144 -120.4899 -50.9329
TCL: Running FEP window   3: Lambda1 0.1    Lambda2 0.15000000000000002 [dLambda 0.05000000000000002]
TCL: Setting parameter firsttimestep to 0
TCL: Setting parameter alchLambda to 0.1
Info: NONBONDED TABLE R-SQUARED SPACING: 0.0625
Info: NONBONDED TABLE SIZE: 705 POINTS
TCL: Setting parameter alchLambda2 to 0.15000000000000002
Info: NONBONDED TABLE R-SQUARED SPACING: 0.0625
Info: NONBONDED TABLE SIZE: 705 POINTS
TCL: Running for 1500000 steps
ETITLE: TS BOND ANGLE DIHED IMPRP ELECT VDW BOUNDARY MISC KINETIC TOTAL TEMP POTENTIAL TOTALAVG TEMPAVG PRESSURE GPRESSURE VOLUME PRESSAVG GPRESSAVG
ENERGY: 0 0.7108 1.4140 2.2535 0.0000 -10678.9427 1462.7739 0.0000 0.0000 1734.6717 -7477.1188 295.4566 -9211.7905 -7477.1188 295.4566 125.0646 211.4515 30524.2144 125.0646 211.4515
ENERGY: 300000 0.3323 1.7329 3.5917 0.0000 -10745.5890 1481.5123 0.0000 0.0000 1793.1716 -7465.2482 305.4205 -9258.4198 -7471.8253 302.2277 392.5969 515.6567 29971.1666 168.5652 261.3606
ENERGY: 600000 1.0701 3.2227 4.3718 0.0000 -10716.0910 1448.5654 0.0000 0.0000 1773.7583 -7485.1027 302.1140 -9258.8610 -7493.3494 300.9751 103.0779 173.8624 29982.7010 97.9629 180.3348
ENERGY: 900000 0.2384 2.2436 0.7438 0.0000 -10764.1616 1423.1773 0.0000 0.0000 1725.9974 -7611.7611 293.9792 -9337.7586 -7511.4854 300.9100 -478.7753 -421.3377 30499.2449 8.8221 82.6483
ENERGY: 1200000 0.9886 2.9293 3.5625 0.0000 -10761.6660 1459.3374 0.0000 0.0000 1779.1476 -7515.7006 303.0319 -9294.8483 -7503.6823 301.5644 -186.0182 -156.9499 30568.4093 -118.5330 -53.4439
ENERGY: 1500000 1.5874 2.5875 1.3575 0.0000 -10674.6466 1348.3877 0.0000 0.0000 1738.7253 -7582.0012 296.1470 -9320.7265 -7518.3182 300.1736 -835.2478 -787.6307 30336.9411 -175.5732 -111.6264
TCL: Running FEP window   4: Lambda1 0.15000000000000002 Lambda2 0.2    [dLambda 0.04999999999999999]
TCL: Setting parameter firsttimestep to 0
TCL: Setting parameter alchLambda to 0.15000000000000002
Info: NONBONDED TABLE R-SQUARED SPACING: 0.0625
Info: NONBONDED TABLE SIZE: 705 POINTS
TCL: Setting parameter alchLambda2 to 0.2
Info: NONBONDED TABLE R-SQUARED SPACING: 0.0625
Info: NONBONDED TABLE SIZE: 705 POINTS
TCL: Running for 1500000 steps
ETITLE: TS BOND ANGLE DIHED IMPRP ELECT VDW BOUNDARY MISC KINETIC TOTAL TEMP POTENTIAL TOTALAVG TEMPAVG PRESSURE GPRESSURE VOLUME PRESSAVG GPRESSAVG
ENERGY: 0 1.5874 2.5875 1.3575 0.0000 -10674.6476 1348.7685 0.0000 0.0000 1737.8540 -7582.4926 295.9986 -9320.3466 -7582.4926 295.9986 -872.4537 -784.5602 30336.9411 -872.4537 -784.5602
ENERGY: 300000 0.9531 1.6930 2.6049 0.0000 -10813.7089 1488.2076 0.0000 0.0000 1743.0183 -7577.2320 296.8782 -9320.2503 -7526.8708 299.3674 86.2062 101.7029 30449.6435 6.0697 44.9816
ENERGY: 600000 1.7291 2.0668 1.0387 0.0000 -10719.3932 1426.3080 0.0000 0.0000 1841.8962 -7446.3546 313.7195 -9288.2507 -7513.4745 301.9310 -339.3870 -283.4615 30496.3831 -56.8030 -9.4522
ENERGY: 900000 2.3054 3.2699 1.7851 0.0000 -10694.6369 1431.3546 0.0000 0.0000 1773.5685 -7482.3533 302.0817 -9255.9219 -7520.5305 300.5564 -274.8236 -268.5362 30786.0141 -124.6660 -78.0691
ENERGY: 1200000 1.4649 3.0965 1.5286 0.0000 -10513.9871 1331.5494 0.0000 0.0000 1767.3137 -7409.0340 301.0163 -9176.3477 -7506.1037 300.3019 -906.5937 -767.1583 30765.0126 -96.2139 -38.4075
ENERGY: 1500000 1.6165 4.7790 1.8822 0.0000 -10656.0690 1376.4619 0.0000 0.0000 1679.9282 -7591.4011 286.1325 -9271.3294 -7505.3340 300.0894 -773.7965 -690.8075 30795.8335 -80.4496 -21.0364
TCL: Running FEP window   5: Lambda1 0.2    Lambda2 0.25   [dLambda 0.04999999999999999]
TCL: Setting parameter firsttimestep to 0
TCL: Setting parameter alchLambda to 0.2
Info: NONBONDED TABLE R-SQUARED SPACING: 0.0625
Info: NONBONDED TABLE SIZE: 705 POINTS
TCL: Setting parameter alchLambda2 to 0.25
Info: NONBONDED TABLE R-SQUARED SPACING: 0.0625
Info: NONBONDED TABLE SIZE: 705 POINTS
TCL: Running for 1500000 steps
ETITLE: TS BOND ANGLE DIHED IMPRP ELECT VDW BOUNDARY MISC KINETIC TOTAL TEMP POTENTIAL TOTALAVG TEMPAVG PRESSURE GPRESSURE VOLUME PRESSAVG GPRESSAVG
ENERGY: 0 1.6165 4.7790 1.8822 0.0000 -10656.0684 1377.2548 0.0000 0.0000 1679.0342 -7591.5018 285.9802 -9270.5360 -7591.5018 285.9802 -753.4405 -684.8095 30795.8335 -753.4405 -684.8095
ENERGY: 300000 2.8585 2.0180 0.6317 0.0000 -10760.2586 1434.0065 0.0000 0.0000 1728.4389 -7592.3051 294.3950 -9320.7440 -7564.2191 292.9016 -162.2458 -95.2062 30159.5950 -194.2236 -135.0807
ENERGY: 600000 2.3604 1.0005 2.3606 0.0000 -10644.4959 1449.3302 0.0000 0.0000 1799.4678 -7389.9764 306.4929 -9189.4442 -7536.2619 296.5519 406.6223 454.4851 30299.0645 -98.6654 -37.8443
ENERGY: 900000 1.1878 2.0721 2.8339 0.0000 -10642.9367 1409.0499 0.0000 0.0000 1797.3433 -7430.4496 306.1311 -9227.7930 -7515.7112 298.1336 -297.9325 -170.1746 30576.9302 -80.9141 -8.6240
ENERGY: 1200000 0.5635 3.6917 2.1073 0.0000 -10677.6744 1440.4717 0.0000 0.0000 1796.5179 -7434.3225 305.9905 -9230.8404 -7503.2421 299.3557 61.9006 140.2770 30380.6136 -157.2409 -80.5351
ENERGY: 1500000 1.7652 4.0372 1.3957 0.0000 -10712.4118 1510.2241 0.0000 0.0000 1749.9679 -7445.0217 298.0619 -9194.9896 -7500.5754 299.2269 808.8645 859.6238 29994.9805 -42.9030 32.1060
TCL: Running FEP window   6: Lambda1 0.25   Lambda2 0.3    [dLambda 0.04999999999999999]
TCL: Setting parameter firsttimestep to 0
TCL: Setting parameter alchLambda to 0.25
Info: NONBONDED TABLE R-SQUARED SPACING: 0.0625
Info: NONBONDED TABLE SIZE: 705 POINTS
TCL: Setting parameter alchLambda2 to 0.3
Info: NONBONDED TABLE R-SQUARED SPACING: 0.0625
Info: NONBONDED TABLE SIZE: 705 POINTS
TCL: Running for 1500000 steps
ETITLE: TS BOND ANGLE DIHED IMPRP ELECT VDW BOUNDARY MISC KINETIC TOTAL TEMP POTENTIAL TOTALAVG TEMPAVG PRESSURE GPRESSURE VOLUME PRESSAVG GPRESSAVG
ENERGY: 0 1.7652 4.0372 1.3957 0.0000 -10712.4118 1510.2423 0.0000 0.0000 1749.0753 -7445.8960 297.9099 -9194.9713 -7445.8960 297.9099 765.1036 861.1413 29994.9805 765.1036 861.1413
ENERGY: 300000 1.7279 3.6037 1.8804 0.0000 -10759.0538 1544.6812 0.0000 0.0000 1725.6409 -7481.5197 293.9184 -9207.1606 -7491.2193 298.1335 1034.4474 1094.1674 30308.1446 192.6302 239.0509
ENERGY: 600000 2.1854 1.9429 3.2246 0.0000 -10735.3335 1473.3002 0.0000 0.0000 1741.1134 -7513.5670 296.5538 -9254.6804 -7515.8138 296.7111 72.3066 189.2320 30208.4494 18.6704 95.5453
ENERGY: 900000 1.4059 5.8512 0.7150 0.0000 -10743.3423 1436.7994 0.0000 0.0000 1826.4144 -7472.1565 311.0826 -9298.5709 -7523.0893 297.7040 204.4374 211.7237 29944.7020 -137.5945 -70.6895
ENERGY: 1200000 2.8091 2.2907 1.4244 0.0000 -10673.0524 1457.4538 0.0000 0.0000 1804.8918 -7404.1825 307.4168 -9209.0743 -7520.6946 298.5173 155.5012 197.3551 30470.0374 -162.9306 -94.6122
ENERGY: 1500000 1.7686 2.0932 1.1014 0.0000 -10997.7061 1597.7172 0.0000 0.0000 1771.2282 -7623.7974 301.6831 -9395.0256 -7525.3426 298.7492 1204.1372 1309.8679 29648.3923 13.5412 84.3419
TCL: Running FEP window   7: Lambda1 0.3    Lambda2 0.35   [dLambda 0.04999999999999999]
TCL: Setting parameter firsttimestep to 0
TCL: Setting parameter alchLambda to 0.3
Info: NONBONDED TABLE R-SQUARED SPACING: 0.0625
Info: NONBONDED TABLE SIZE: 705 POINTS
TCL: Setting parameter alchLambda2 to 0.35
Info: NONBONDED TABLE R-SQUARED SPACING: 0.0625
Info: NONBONDED TABLE SIZE: 705 POINTS
TCL: Running for 1500000 steps
ETITLE: TS BOND ANGLE DIHED IMPRP ELECT VDW BOUNDARY MISC KINETIC TOTAL TEMP POTENTIAL TOTALAVG TEMPAVG PRESSURE GPRESSURE VOLUME PRESSAVG GPRESSAVG
ENERGY: 0 1.7686 2.0932 1.1014 0.0000 -10997.7050 1597.6850 0.0000 0.0000 1770.3616 -7624.6952 301.5354 -9395.0568 -7624.6952 301.5354 1227.8603 1312.9151 29648.3923 1227.8603 1312.9151
ENERGY: 300000 0.6839 1.8050 0.5380 0.0000 -10772.8021 1481.1641 0.0000 0.0000 1751.0416 -7537.5695 298.2448 -9288.6111 -7552.5749 299.2611 376.9598 394.6436 30245.3343 647.5185 722.5045
ENERGY: 600000 1.0292 3.4550 2.1324 0.0000 -10807.3367 1487.8298 0.0000 0.0000 1758.8407 -7554.0495 299.5732 -9312.8901 -7534.2095 300.7851 147.7005 251.2557 30437.9881 260.2758 323.3505
ENERGY: 900000 2.1522 2.1736 1.7103 0.0000 -10735.8097 1459.2794 0.0000 0.0000 1717.0479 -7553.4463 292.4548 -9270.4942 -7531.0730 299.0072 1.1557 58.0210 30439.5566 219.4462 271.3605
ENERGY: 1200000 2.0568 1.8020 3.7843 0.0000 -10809.4523 1492.3644 0.0000 0.0000 1822.4267 -7487.0180 310.4034 -9309.4447 -7525.6594 300.2651 236.0829 232.2433 30176.1216 209.0021 257.8598
ENERGY: 1500000 1.8854 2.9536 0.6517 0.0000 -10742.9963 1445.3734 0.0000 0.0000 1695.8582 -7596.2741 288.8457 -9292.1323 -7532.2219 298.9136 -66.2737 58.1953 30396.5105 152.3927 207.5367
TCL: Running FEP window   8: Lambda1 0.35   Lambda2 0.39999999999999997 [dLambda 0.04999999999999999]
TCL: Setting parameter firsttimestep to 0
TCL: Setting parameter alchLambda to 0.35
Info: NONBONDED TABLE R-SQUARED SPACING: 0.0625
Info: NONBONDED TABLE SIZE: 705 POINTS
TCL: Setting parameter alchLambda2 to 0.39999999999999997
Info: NONBONDED TABLE R-SQUARED SPACING: 0.0625
Info: NONBONDED TABLE SIZE: 705 POINTS
TCL: Running for 1500000 steps
ETITLE: TS BOND ANGLE DIHED IMPRP ELECT VDW BOUNDARY MISC KINETIC TOTAL TEMP POTENTIAL TOTALAVG TEMPAVG PRESSURE GPRESSURE VOLUME PRESSAVG GPRESSAVG
ENERGY: 0 1.8854 2.9536 0.6517 0.0000 -10742.9966 1445.4437 0.0000 0.0000 1694.9789 -7597.0832 288.6960 -9292.0621 -7597.0832 288.6960 -22.4828 61.5769 30396.5105 -22.4828 61.5769
ENERGY: 300000 0.7002 1.7924 2.6659 0.0000 -10681.8972 1418.7026 0.0000 0.0000 1758.7834 -7499.2526 299.5634 -9258.0360 -7517.3406 298.2115 149.6855 226.2706 29920.1888 356.4481 450.1674
ENERGY: 600000 2.4790 2.4813 2.3142 0.0000 -10597.1739 1368.6873 0.0000 0.0000 1714.5763 -7506.6358 292.0339 -9221.2121 -7509.1326 298.8153 -689.8308 -634.8616 30668.7038 90.6656 177.4502
ENERGY: 900000 0.8048 2.1427 1.0863 0.0000 -10758.9865 1508.6651 0.0000 0.0000 1779.8076 -7466.4801 303.1443 -9246.2877 -7509.8192 298.0783 797.7809 867.2672 30006.5664 97.3040 174.4343
ENERGY: 1200000 1.2964 2.2285 2.2294 0.0000 -10731.5882 1477.1151 0.0000 0.0000 1754.3619 -7494.3570 298.8103 -9248.7189 -7516.4321 297.8731 -53.4935 -8.8571 30984.4721 109.2578 181.9105
ENERGY: 1500000 0.6835 2.2197 1.1181 0.0000 -10797.1056 1465.0354 0.0000 0.0000 1774.2652 -7553.7837 302.2003 -9328.0489 -7514.7231 298.6764 -6.1042 19.8930 30250.9311 67.6432 138.5987
TCL: Running FEP window   9: Lambda1 0.39999999999999997 Lambda2 0.44999999999999996 [dLambda 0.04999999999999999]
TCL: Setting parameter firsttimestep to 0
TCL: Setting parameter alchLambda to 0.39999999999999997
Info: NONBONDED TABLE R-SQUARED SPACING: 0.0625
Info: NONBONDED TABLE SIZE: 705 POINTS
TCL: Setting parameter alchLambda2 to 0.44999999999999996
Info: NONBONDED TABLE R-SQUARED SPACING: 0.0625
Info: NONBONDED TABLE SIZE: 705 POINTS
TCL: Running for 1500000 steps
ETITLE: TS BOND ANGLE DIHED IMPRP ELECT VDW BOUNDARY MISC KINETIC TOTAL TEMP POTENTIAL TOTALAVG TEMPAVG PRESSURE GPRESSURE VOLUME PRESSAVG GPRESSAVG
ENERGY: 0 0.6835 2.2197 1.1181 0.0000 -10797.1055 1464.7037 0.0000 0.0000 1773.3204 -7555.0602 302.0394 -9328.3806 -7555.0602 302.0394 -66.9255 20.0386 30250.9311 -66.9255 20.0386
ENERGY: 300000 1.2577 1.3380 2.1639 0.0000 -10787.6113 1461.9356 0.0000 0.0000 1768.9289 -7551.9872 301.2914 -9320.9161 -7490.4231 301.3761 -148.9639 -73.8909 30371.7525 -174.8193 -98.7865
ENERGY: 600000 1.5289 2.3116 1.6370 0.0000 -10752.4219 1450.6387 0.0000 0.0000 1769.0213 -7527.2844 301.3072 -9296.3057 -7509.7379 300.9524 -209.2653 -186.2509 30719.6073 -237.3522 -168.3397
ENERGY: 900000 8.0401 1.0740 2.0160 0.0000 -10675.6417 1401.6080 0.0000 0.0000 1744.8767 -7518.0268 297.1948 -9262.9036 -7505.1956 300.8994 -279.8649 -248.1659 30464.8327 -301.9851 -228.7714
ENERGY: 1200000 2.3052 2.2818 3.2451 0.0000 -10739.0224 1491.9075 0.0000 0.0000 1781.4054 -7457.8775 303.4165 -9239.2828 -7500.3650 301.4510 599.9204 732.1762 30001.0813 -262.8828 -186.8604
ENERGY: 1500000 1.6489 2.5352 0.5792 0.0000 -10736.6815 1428.0792 0.0000 0.0000 1778.6127 -7525.2263 302.9408 -9303.8389 -7503.3370 301.2980 -82.7392 -56.5776 30389.5450 -239.6698 -167.0836
TCL: Running FEP window  10: Lambda1 0.44999999999999996 Lambda2 0.49999999999999994 [dLambda 0.04999999999999999]
TCL: Setting parameter firsttimestep to 0
TCL: Setting parameter alchLambda to 0.44999999999999996
Info: NONBONDED TABLE R-SQUARED SPACING: 0.0625
Info: NONBONDED TABLE SIZE: 705 POINTS
TCL: Setting parameter alchLambda2 to 0.49999999999999994
Info: NONBONDED TABLE R-SQUARED SPACING: 0.0625
Info: NONBONDED TABLE SIZE: 705 POINTS
TCL: Running for 1500000 steps
ETITLE: TS BOND ANGLE DIHED IMPRP ELECT VDW BOUNDARY MISC KINETIC TOTAL TEMP POTENTIAL TOTALAVG TEMPAVG PRESSURE GPRESSURE VOLUME PRESSAVG GPRESSAVG
ENERGY: 0 1.6489 2.5352 0.5792 0.0000 -10736.6827 1428.0653 0.0000 0.0000 1777.7465 -7526.1077 302.7933 -9303.8541 -7526.1077 302.7933 -145.7954 -55.9800 30389.5450 -145.7954 -55.9800
ENERGY: 300000 1.4938 3.2574 0.7512 0.0000 -10650.9516 1446.2304 0.0000 0.0000 1752.5739 -7446.6449 298.5058 -9199.2188 -7488.6053 302.4675 476.2480 474.0069 30277.4180 -19.1435 16.6645
ENERGY: 600000 1.2576 1.8026 0.9181 0.0000 -10777.5037 1469.3332 0.0000 0.0000 1728.7696 -7575.4226 294.4513 -9304.1922 -7509.8473 300.5494 458.2520 494.5513 29961.5351 -41.3788 -3.2460
ENERGY: 900000 1.5990 1.8512 4.0761 0.0000 -10583.4200 1328.9919 0.0000 0.0000 1756.0562 -7490.8456 299.0989 -9246.9017 -7510.6046 300.0267 -1098.5258 -1003.9231 30746.5517 -251.8690 -204.1979
ENERGY: 1200000 1.2865 1.9678 0.6701 0.0000 -10580.9182 1363.3975 0.0000 0.0000 1852.5973 -7360.9990 315.5422 -9213.5963 -7508.2355 300.5042 -343.5061 -292.2242 30563.2948 -303.0899 -258.6627
ENERGY: 1500000 1.4506 1.8887 1.3488 0.0000 -10487.2166 1284.7882 0.0000 0.0000 1723.2254 -7474.5148 293.5070 -9197.7403 -7495.6817 300.6873 -1379.4680 -1332.8467 31122.0764 -341.6632 -295.1617
TCL: Running FEP window  11: Lambda1 0.49999999999999994 Lambda2 0.5499999999999999 [dLambda 0.04999999999999999]
TCL: Setting parameter firsttimestep to 0
TCL: Setting parameter alchLambda to 0.49999999999999994
Info: NONBONDED TABLE R-SQUARED SPACING: 0.0625
Info: NONBONDED TABLE SIZE: 705 POINTS
TCL: Setting parameter alchLambda2 to 0.5499999999999999
Info: NONBONDED TABLE R-SQUARED SPACING: 0.0625
Info: NONBONDED TABLE SIZE: 705 POINTS
TCL: Running for 1500000 steps
ETITLE: TS BOND ANGLE DIHED IMPRP ELECT VDW BOUNDARY MISC KINETIC TOTAL TEMP POTENTIAL TOTALAVG TEMPAVG PRESSURE GPRESSURE VOLUME PRESSAVG GPRESSAVG
ENERGY: 0 1.4506 1.8887 1.3488 0.0000 -10487.2163 1284.5523 0.0000 0.0000 1722.3467 -7475.6292 293.3574 -9197.9759 -7475.6292 293.3574 -1402.2960 -1328.0017 31122.0764 -1402.2960 -1328.0017
ENERGY: 300000 0.8625 1.8205 2.7296 0.0000 -10613.8577 1374.7180 0.0000 0.0000 1782.8119 -7450.9153 303.6560 -9233.7272 -7457.9344 303.1621 -447.6627 -415.9693 30909.8202 -187.3640 -140.2544
ENERGY: 600000 2.4288 3.3339 1.4562 0.0000 -10690.5836 1429.9508 0.0000 0.0000 1718.2286 -7535.1852 292.6559 -9253.4139 -7487.0382 299.9943 20.6912 98.0417 30307.4431 -106.4052 -36.3237
ENERGY: 900000 0.6595 3.9073 3.4112 0.0000 -10710.5946 1413.5925 0.0000 0.0000 1804.0966 -7484.9276 307.2813 -9289.0242 -7484.3763 300.3043 -228.9047 -166.8844 30187.9310 -125.8636 -60.2449
ENERGY: 1200000 1.0311 4.0562 2.1663 0.0000 -10652.2385 1378.7966 0.0000 0.0000 1767.7183 -7498.4700 301.0852 -9266.1883 -7493.0282 300.7950 -465.1391 -400.9394 30264.1920 -272.3285 -204.6589
ENERGY: 1500000 0.9549 4.1802 2.8356 0.0000 -10663.0657 1404.2624 0.0000 0.0000 1845.6087 -7405.2238 314.3518 -9250.8325 -7491.4355 301.1401 -269.8412 -245.2524 30615.6690 -329.8174 -264.5776
TCL: Running FEP window  12: Lambda1 0.5499999999999999 Lambda2 0.6    [dLambda 0.050000000000000044]
TCL: Setting parameter firsttimestep to 0
TCL: Setting parameter alchLambda to 0.5499999999999999
Info: NONBONDED TABLE R-SQUARED SPACING: 0.0625
Info: NONBONDED TABLE SIZE: 705 POINTS
TCL: Setting parameter alchLambda2 to 0.6
Info: NONBONDED TABLE R-SQUARED SPACING: 0.0625
Info: NONBONDED TABLE SIZE: 705 POINTS
TCL: Running for 1500000 steps
ETITLE: TS BOND ANGLE DIHED IMPRP ELECT VDW BOUNDARY MISC KINETIC TOTAL TEMP POTENTIAL TOTALAVG TEMPAVG PRESSURE GPRESSURE VOLUME PRESSAVG GPRESSAVG
ENERGY: 0 0.9549 4.1802 2.8356 0.0000 -10662.7309 1405.7283 0.0000 0.0000 1844.7034 -7404.3283 314.1977 -9249.0317 -7404.3283 314.1977 -309.4822 -227.0214 30615.6690 -309.4822 -227.0214
ENERGY: 300000 1.5131 2.5506 1.1108 0.0000 -10842.1425 1445.1222 0.0000 0.0000 1750.6490 -7641.1968 298.1779 -9391.8459 -7530.0802 301.7080 -303.9795 -204.8034 30210.3728 -482.5550 -379.3291
ENERGY: 600000 1.4648 4.3654 0.6530 0.0000 -10758.0375 1519.0191 0.0000 0.0000 1774.5880 -7457.9472 302.2553 -9232.5352 -7518.9686 300.3292 628.0745 659.6448 30365.9051 -171.1611 -104.6840
ENERGY: 900000 1.3186 1.6922 1.7073 0.0000 -10580.6336 1340.5338 0.0000 0.0000 1812.0498 -7423.3319 308.6360 -9235.3817 -7519.0771 299.6109 -918.3858 -847.7643 30565.3222 -228.1605 -164.0853
ENERGY: 1200000 1.5049 2.4525 3.7497 0.0000 -10707.2801 1443.1795 0.0000 0.0000 1748.9675 -7507.4260 297.8915 -9256.3935 -7514.3297 298.9195 -283.8718 -217.0500 30908.1278 -100.5998 -41.0645
ENERGY: 1500000 1.5391 1.2269 1.7244 0.0000 -10759.3505 1406.6294 0.0000 0.0000 1759.8796 -7588.3511 299.7501 -9348.2307 -7521.7968 299.1218 -627.9930 -568.6208 30389.7048 -130.4058 -73.7451
TCL: Running FEP window  13: Lambda1 0.6    Lambda2 0.65   [dLambda 0.050000000000000044]
TCL: Setting parameter firsttimestep to 0
TCL: Setting parameter alchLambda to 0.6
Info: NONBONDED TABLE R-SQUARED SPACING: 0.0625
Info: NONBONDED TABLE SIZE: 705 POINTS
TCL: Setting parameter alchLambda2 to 0.65
Info: NONBONDED TABLE R-SQUARED SPACING: 0.0625
Info: NONBONDED TABLE SIZE: 705 POINTS
TCL: Running for 1500000 steps
ETITLE: TS BOND ANGLE DIHED IMPRP ELECT VDW BOUNDARY MISC KINETIC TOTAL TEMP POTENTIAL TOTALAVG TEMPAVG PRESSURE GPRESSURE VOLUME PRESSAVG GPRESSAVG
ENERGY: 0 1.5391 1.2269 1.7244 0.0000 -10759.1372 1406.4816 0.0000 0.0000 1759.0026 -7589.1626 299.6007 -9348.1651 -7589.1626 299.6007 -654.8363 -563.9519 30389.7048 -654.8363 -563.9519
ENERGY: 300000 1.3557 1.6481 0.9141 0.0000 -10661.6154 1376.1290 0.0000 0.0000 1783.5935 -7497.9749 303.7892 -9281.5684 -7525.3575 303.5842 -519.5773 -469.0028 30665.1309 -307.2187 -235.8562
ENERGY: 600000 2.1889 0.9786 1.8264 0.0000 -10849.6177 1526.5261 0.0000 0.0000 1721.9606 -7596.1370 293.2916 -9318.0977 -7537.0381 301.6097 590.5209 665.6324 30083.7926 -52.4216 17.3967
ENERGY: 900000 0.6921 2.5976 1.3386 0.0000 -10451.9640 1195.6882 0.0000 0.0000 1773.0786 -7478.5689 301.9982 -9251.6475 -7519.2309 302.9011 -1909.4390 -1792.3620 30481.3565 -256.5324 -183.0199
ENERGY: 1200000 1.9011 2.3830 1.5023 0.0000 -10757.6418 1482.4599 0.0000 0.0000 1778.9628 -7490.4327 303.0004 -9269.3955 -7508.4674 301.4282 349.2396 418.3401 30241.5302 -228.8670 -151.8685
ENERGY: 1500000 2.4424 2.4786 1.9571 0.0000 -10841.9140 1471.7062 0.0000 0.0000 1798.8510 -7564.4787 306.3879 -9363.3298 -7507.0295 301.8805 -10.8422 91.6581 30133.0718 -172.9653 -98.5978
TCL: Running FEP window  14: Lambda1 0.65   Lambda2 0.7000000000000001 [dLambda 0.050000000000000044]
TCL: Setting parameter firsttimestep to 0
TCL: Setting parameter alchLambda to 0.65
Info: NONBONDED TABLE R-SQUARED SPACING: 0.0625
Info: NONBONDED TABLE SIZE: 705 POINTS
TCL: Setting parameter alchLambda2 to 0.7000000000000001
Info: NONBONDED TABLE R-SQUARED SPACING: 0.0625
Info: NONBONDED TABLE SIZE: 705 POINTS
TCL: Running for 1500000 steps
ETITLE: TS BOND ANGLE DIHED IMPRP ELECT VDW BOUNDARY MISC KINETIC TOTAL TEMP POTENTIAL TOTALAVG TEMPAVG PRESSURE GPRESSURE VOLUME PRESSAVG GPRESSAVG
ENERGY: 0 2.4424 2.4786 1.9571 0.0000 -10842.6884 1471.5099 0.0000 0.0000 1797.9766 -7566.3239 306.2390 -9364.3005 -7566.3239 306.2390 0.4191 97.8612 30133.0718 0.4191 97.8612
ENERGY: 300000 0.8623 1.7864 2.2747 0.0000 -10648.9332 1347.9407 0.0000 0.0000 1782.3753 -7513.6938 303.5817 -9296.0691 -7527.8849 304.5041 -856.3053 -732.8606 30543.7621 -447.7486 -370.3025
ENERGY: 600000 1.7175 2.0222 1.7851 0.0000 -10630.3061 1449.5277 0.0000 0.0000 1728.0093 -7447.2443 294.3218 -9175.2536 -7515.3880 301.0630 354.7767 425.0760 30529.0171 -395.0783 -333.7844
ENERGY: 900000 0.7806 2.8222 0.6216 0.0000 -10695.5724 1441.1976 0.0000 0.0000 1771.2418 -7478.9087 301.6854 -9250.1505 -7508.7351 300.5955 411.0275 432.9996 29909.9445 -232.3115 -179.8368
ENERGY: 1200000 2.3986 2.9609 1.2703 0.0000 -10822.7036 1530.2469 0.0000 0.0000 1727.5985 -7558.2285 294.2519 -9285.8270 -7514.2680 300.2037 524.9529 632.5273 30276.8923 -27.1589 29.5010
ENERGY: 1500000 0.8071 2.7061 2.9502 0.0000 -10625.9375 1374.4004 0.0000 0.0000 1725.4927 -7519.5810 293.8932 -9245.0737 -7512.9000 299.5516 -500.1909 -505.6839 30425.6381 -44.8790 3.9255
TCL: Running FEP window  15: Lambda1 0.7000000000000001 Lambda2 0.7500000000000001 [dLambda 0.050000000000000044]
TCL: Setting parameter firsttimestep to 0
TCL: Setting parameter alchLambda to 0.7000000000000001
Info: NONBONDED TABLE R-SQUARED SPACING: 0.0625
Info: NONBONDED TABLE SIZE: 705 POINTS
TCL: Setting parameter alchLambda2 to 0.7500000000000001
Info: NONBONDED TABLE R-SQUARED SPACING: 0.0625
Info: NONBONDED TABLE SIZE: 705 POINTS
TCL: Running for 1500000 steps
ETITLE: TS BOND ANGLE DIHED IMPRP ELECT VDW BOUNDARY MISC KINETIC TOTAL TEMP POTENTIAL TOTALAVG TEMPAVG PRESSURE GPRESSURE VOLUME PRESSAVG GPRESSAVG
ENERGY: 0 0.8071 2.7061 2.9502 0.0000 -10626.6707 1374.4372 0.0000 0.0000 1724.5887 -7521.1814 293.7392 -9245.7701 -7521.1814 293.7392 -591.9914 -498.5757 30425.6381 -591.9914 -498.5757
ENERGY: 300000 1.2347 3.0776 4.0440 0.0000 -10781.6750 1443.2993 0.0000 0.0000 1825.9772 -7504.0424 311.0081 -9330.0195 -7519.5454 302.3640 -22.6399 24.7438 30059.5705 -252.0953 -163.6651
ENERGY: 600000 5.2889 1.9775 1.6282 0.0000 -10616.5787 1404.2134 0.0000 0.0000 1802.1858 -7401.2849 306.9559 -9203.4707 -7505.6716 302.3765 -406.0084 -338.1746 30706.9505 -380.0847 -292.1620
ENERGY: 900000 1.6873 4.1998 1.1244 0.0000 -10768.7208 1488.1423 0.0000 0.0000 1742.1325 -7531.4345 296.7273 -9273.5669 -7513.5085 302.2281 560.1945 635.1488 29912.0862 -162.8982 -86.2257
ENERGY: 1200000 0.6041 1.3475 4.9594 0.0000 -10674.7274 1365.7082 0.0000 0.0000 1761.4594 -7540.6489 300.0192 -9302.1084 -7507.1300 302.1409 -663.1960 -608.3694 30436.6339 -232.3930 -152.7646
ENERGY: 1500000 2.1225 2.0153 3.0859 0.0000 -10642.4696 1379.8336 0.0000 0.0000 1774.5979 -7480.8144 302.2570 -9255.4123 -7495.8406 301.8625 -645.8028 -607.2352 30966.1207 -275.5252 -204.9267
TCL: Running FEP window  16: Lambda1 0.7500000000000001 Lambda2 0.8000000000000002 [dLambda 0.050000000000000044]
TCL: Setting parameter firsttimestep to 0
TCL: Setting parameter alchLambda to 0.7500000000000001
Info: NONBONDED TABLE R-SQUARED SPACING: 0.0625
Info: NONBONDED TABLE SIZE: 705 POINTS
TCL: Setting parameter alchLambda2 to 0.8000000000000002
Info: NONBONDED TABLE R-SQUARED SPACING: 0.0625
Info: NONBONDED TABLE SIZE: 705 POINTS
TCL: Running for 1500000 steps
ETITLE: TS BOND ANGLE DIHED IMPRP ELECT VDW BOUNDARY MISC KINETIC TOTAL TEMP POTENTIAL TOTALAVG TEMPAVG PRESSURE GPRESSURE VOLUME PRESSAVG GPRESSAVG
ENERGY: 0 2.1225 2.0153 3.0859 0.0000 -10643.1073 1379.7814 0.0000 0.0000 1773.7187 -7482.3837 302.1072 -9256.1023 -7482.3837 302.1072 -676.2482 -600.8997 30966.1207 -676.2482 -600.8997
ENERGY: 300000 1.1112 2.9635 2.1366 0.0000 -10887.8866 1550.4119 0.0000 0.0000 1771.1463 -7560.1169 301.6691 -9331.2633 -7523.5136 301.6401 595.0216 644.0167 30371.4415 105.6325 181.3880
ENERGY: 600000 0.7172 1.9555 0.9323 0.0000 -10730.3558 1423.4463 0.0000 0.0000 1775.4238 -7527.8807 302.3977 -9303.3046 -7492.7496 303.5481 -403.3193 -287.1735 30490.5992 -59.9625 18.0698
ENERGY: 900000 2.7235 1.5613 1.4445 0.0000 -10613.9985 1404.7880 0.0000 0.0000 1725.8978 -7477.5834 293.9622 -9203.4811 -7512.9460 300.7172 -144.3134 -153.9311 30635.0200 -161.7058 -100.5985
ENERGY: 1200000 1.1274 3.7263 0.6256 0.0000 -10593.6795 1374.5069 0.0000 0.0000 1797.5906 -7416.1027 306.1732 -9213.6932 -7497.3830 301.1386 -321.8797 -348.2260 30852.4656 -285.7025 -230.1435
ENERGY: 1500000 0.8428 4.0532 1.0519 0.0000 -10714.8836 1432.1371 0.0000 0.0000 1722.5684 -7554.2302 293.3951 -9276.7986 -7504.8984 300.2095 -144.8328 -40.3549 30240.4183 -284.1814 -225.8724
TCL: Running FEP window  17: Lambda1 0.8000000000000002 Lambda2 0.8500000000000002 [dLambda 0.050000000000000044]
TCL: Setting parameter firsttimestep to 0
TCL: Setting parameter alchLambda to 0.8000000000000002
Info: NONBONDED TABLE R-SQUARED SPACING: 0.0625
Info: NONBONDED TABLE SIZE: 705 POINTS
TCL: Setting parameter alchLambda2 to 0.8500000000000002
Info: NONBONDED TABLE R-SQUARED SPACING: 0.0625
Info: NONBONDED TABLE SIZE: 705 POINTS
TCL: Running for 1500000 steps
ETITLE: TS BOND ANGLE DIHED IMPRP ELECT VDW BOUNDARY MISC KINETIC TOTAL TEMP POTENTIAL TOTALAVG TEMPAVG PRESSURE GPRESSURE VOLUME PRESSAVG GPRESSAVG
ENERGY: 0 0.8428 4.0532 1.0519 0.0000 -10716.0764 1432.4888 0.0000 0.0000 1721.7237 -7555.9160 293.2512 -9277.6396 -7555.9160 293.2512 -125.7721 -34.6077 30240.4183 -125.7721 -34.6077
ENERGY: 300000 0.8803 4.0970 1.3487 0.0000 -10679.9900 1385.0752 0.0000 0.0000 1822.8452 -7465.7436 310.4747 -9288.5888 -7529.8337 297.6921 -240.3672 -208.4645 30152.7776 -283.8765 -220.1611
ENERGY: 600000 0.4739 4.4640 0.1525 0.0000 -10778.2215 1444.1271 0.0000 0.0000 1735.2461 -7593.7579 295.5544 -9329.0040 -7546.6097 298.7077 118.8021 194.3176 29767.5242 -208.8490 -148.1857
ENERGY: 900000 2.0051 1.7419 1.0614 0.0000 -10593.2997 1366.2913 0.0000 0.0000 1800.5162 -7421.6837 306.6715 -9222.1999 -7524.1612 300.3000 -592.2500 -525.6283 30556.3325 -170.9382 -117.6656
ENERGY: 1200000 1.4794 1.1002 2.9479 0.0000 -10721.3016 1428.8657 0.0000 0.0000 1765.9037 -7521.0048 300.7762 -9286.9085 -7526.9836 299.9113 -196.3619 -133.8060 30508.1574 -186.0132 -134.4691
ENERGY: 1500000 0.6567 3.7693 0.9117 0.0000 -10794.8790 1462.4059 0.0000 0.0000 1737.3162 -7589.8191 295.9070 -9327.1353 -7525.2741 298.8617 -141.7959 -60.0745 30535.3862 -146.9421 -89.0929
TCL: Running FEP window  18: Lambda1 0.8500000000000002 Lambda2 0.9000000000000002 [dLambda 0.050000000000000044]
TCL: Setting parameter firsttimestep to 0
TCL: Setting parameter alchLambda to 0.8500000000000002
Info: NONBONDED TABLE R-SQUARED SPACING: 0.0625
Info: NONBONDED TABLE SIZE: 705 POINTS
TCL: Setting parameter alchLambda2 to 0.9000000000000002
Info: NONBONDED TABLE R-SQUARED SPACING: 0.0625
Info: NONBONDED TABLE SIZE: 705 POINTS
TCL: Running for 1500000 steps
ETITLE: TS BOND ANGLE DIHED IMPRP ELECT VDW BOUNDARY MISC KINETIC TOTAL TEMP POTENTIAL TOTALAVG TEMPAVG PRESSURE GPRESSURE VOLUME PRESSAVG GPRESSAVG
ENERGY: 0 0.6567 3.7693 0.9117 0.0000 -10796.3964 1463.3368 0.0000 0.0000 1736.3829 -7591.3389 295.7481 -9327.7218 -7591.3389 295.7481 -131.7865 -46.6747 30535.3862 -131.7865 -46.6747
ENERGY: 300000 1.5447 1.2679 1.3560 0.0000 -10762.9336 1519.1566 0.0000 0.0000 1757.7464 -7481.8620 299.3868 -9239.6085 -7532.4361 297.0201 921.1134 922.2478 30350.1699 -44.0191 7.2946
ENERGY: 600000 2.7946 1.5895 1.2387 0.0000 -10694.8330 1405.9714 0.0000 0.0000 1767.8280 -7515.4107 301.1039 -9283.2387 -7522.2213 297.9275 -74.5352 -44.3201 30153.7358 26.7563 79.2144
ENERGY: 900000 2.2759 2.4770 1.6058 0.0000 -10605.0495 1358.6360 0.0000 0.0000 1750.2802 -7489.7746 298.1151 -9240.0548 -7505.5646 299.5589 -723.9102 -672.2043 30810.8934 48.5630 95.0168
ENERGY: 1200000 0.4245 1.8775 0.9885 0.0000 -10741.9952 1438.5666 0.0000 0.0000 1719.1830 -7580.9550 292.8185 -9300.1380 -7511.0659 299.9045 48.3548 208.2336 29999.5147 -56.2186 1.7533
ENERGY: 1500000 3.5437 2.7099 1.0411 0.0000 -10696.7094 1398.6949 0.0000 0.0000 1741.4918 -7549.2281 296.6182 -9290.7199 -7517.7406 299.6565 -419.8754 -418.0903 30351.1364 -96.7678 -40.9541
TCL: Running FEP window  19: Lambda1 0.9000000000000002 Lambda2 0.9500000000000003 [dLambda 0.050000000000000044]
TCL: Setting parameter firsttimestep to 0
TCL: Setting parameter alchLambda to 0.9000000000000002
Info: NONBONDED TABLE R-SQUARED SPACING: 0.0625
Info: NONBONDED TABLE SIZE: 705 POINTS
TCL: Setting parameter alchLambda2 to 0.9500000000000003
Info: NONBONDED TABLE R-SQUARED SPACING: 0.0625
Info: NONBONDED TABLE SIZE: 705 POINTS
TCL: Running for 1500000 steps
ETITLE: TS BOND ANGLE DIHED IMPRP ELECT VDW BOUNDARY MISC KINETIC TOTAL TEMP POTENTIAL TOTALAVG TEMPAVG PRESSURE GPRESSURE VOLUME PRESSAVG GPRESSAVG
ENERGY: 0 3.5437 2.7099 1.0411 0.0000 -10698.6892 1399.0109 0.0000 0.0000 1740.6335 -7551.7501 296.4720 -9292.3836 -7551.7501 296.4720 -499.8302 -411.8005 30351.1364 -499.8302 -411.8005
ENERGY: 300000 1.8780 6.5680 3.5219 0.0000 -10575.8133 1334.1578 0.0000 0.0000 1746.0087 -7483.6788 297.3876 -9229.6876 -7542.7318 297.3196 -1014.7807 -926.7045 30651.9230 -137.3808 -74.9728
ENERGY: 600000 0.7676 1.9149 0.9734 0.0000 -10678.4574 1365.4766 0.0000 0.0000 1678.7637 -7630.5611 285.9341 -9309.3249 -7558.0871 295.0794 -832.7176 -743.9240 30757.9792 -184.0809 -110.0783
ENERGY: 900000 0.6593 2.6476 2.3963 0.0000 -10720.9374 1385.4305 0.0000 0.0000 1751.4282 -7578.3754 298.3106 -9329.8036 -7543.1011 297.5531 -691.8358 -596.9585 30589.8561 -114.9931 -36.5069
ENERGY: 1200000 0.4229 3.6068 3.0702 0.0000 -10703.9817 1405.1777 0.0000 0.0000 1778.6421 -7513.0619 302.9458 -9291.7041 -7519.7594 299.2194 -309.0741 -279.2950 30535.4032 -224.3104 -155.4866
ENERGY: 1500000 1.4784 1.9585 2.2356 0.0000 -10775.2156 1402.6091 0.0000 0.0000 1748.1099 -7618.8242 297.7454 -9366.9341 -7519.9493 300.0408 -193.2319 -162.4872 29920.2110 -226.7671 -159.1191
TCL: Running FEP window  20: Lambda1 0.9500000000000003 Lambda2 1.0    [dLambda 0.04999999999999971]
TCL: Setting parameter firsttimestep to 0
TCL: Setting parameter alchLambda to 0.9500000000000003
Info: NONBONDED TABLE R-SQUARED SPACING: 0.0625
Info: NONBONDED TABLE SIZE: 705 POINTS
TCL: Setting parameter alchLambda2 to 1.0
Info: NONBONDED TABLE R-SQUARED SPACING: 0.0625
Info: NONBONDED TABLE SIZE: 705 POINTS
TCL: Running for 1500000 steps
ETITLE: TS BOND ANGLE DIHED IMPRP ELECT VDW BOUNDARY MISC KINETIC TOTAL TEMP POTENTIAL TOTALAVG TEMPAVG PRESSURE GPRESSURE VOLUME PRESSAVG GPRESSAVG
ENERGY: 0 1.4784 1.9585 2.2356 0.0000 -10776.9847 1404.0763 0.0000 0.0000 1747.2343 -7620.0016 297.5963 -9367.2359 -7620.0016 297.5963 -216.5546 -140.6341 29920.2110 -216.5546 -140.6341
ENERGY: 300000 1.0024 2.6972 3.8427 0.0000 -10770.3658 1492.8558 0.0000 0.0000 1748.3005 -7521.6671 297.7779 -9269.9677 -7556.7603 298.7870 377.0099 461.4472 30650.9464 7.9821 84.0836
ENERGY: 600000 1.4241 0.8018 3.2047 0.0000 -10733.0984 1471.6531 0.0000 0.0000 1775.5391 -7480.4757 302.4173 -9256.0147 -7541.9226 298.4892 328.9500 410.2225 30499.3252 -44.2423 26.6279
ENERGY: 900000 0.6126 2.0827 0.4428 0.0000 -10708.0534 1429.7825 0.0000 0.0000 1722.6044 -7552.5286 293.4012 -9275.1329 -7544.7033 298.1871 -14.5196 10.7265 30110.2204 -120.2936 -57.4460
ENERGY: 1200000 1.4462 3.8550 1.7170 0.0000 -10741.0316 1418.9191 0.0000 0.0000 1793.4223 -7521.6720 305.4632 -9315.0943 -7534.3884 299.4896 -414.3576 -323.6088 30459.3870 -95.3876 -32.4327
ENERGY: 1500000 2.1379 1.5423 1.9367 0.0000 -10761.4233 1472.4732 0.0000 0.0000 1751.0599 -7532.2733 298.2479 -9283.3332 -7530.8334 300.5063 311.2964 330.2440 30238.3100 -85.6543 -23.4324
TCL: Exiting due to exit command.
