Info: SIMULATION PARAMETERS:
Info: TIMESTEP               2
Info: NUMBER OF STEPS        0
Info: STEPS PER CYCLE        10
Info: PERIODIC CELL BASIS 1  31.5956 0 0
Info: PERIODIC CELL BASIS 2  0 31.0744 0
Info: PERIODIC CELL BASIS 3  0 0 30.6734
Info: PERIODIC CELL CENTER   0 0 0
Info: WRAPPING WATERS AROUND PERIODIC BOUNDARIES ON OUTPUT.
Info: WRAPPING ALL CLUSTERS AROUND PERIODIC BOUNDARIES ON OUTPUT.
Info: FIRST LDB TIMESTEP     50
Info: LAST LDB TIMESTEP     -1
Info: HOM BACKGROUND SCALING 1
Info: PME BACKGROUND SCALING 1
Info: MIN ATOMS PER PATCH    40
Info: EMPTY PATCH LOAD       40 ATOMS
Info: VELOCITY FILE          mobley_2410897_equil.vel
Info: CENTER OF MASS MOVING INITIALLY? NO
Info: DIELECTRIC             1
Info: EXCLUDE                SCALED ONE-FOUR
Info: 1-4 ELECTROSTATICS SCALED BY 0.833333
Info: MODIFIED 1-4 VDW PARAMETERS WILL BE USED
Info: DCD FILENAME           mobley_2410897_prod.dcd
Info: DCD FREQUENCY          100000
Info: DCD FIRST STEP         100000
Info: DCD FILE WILL CONTAIN UNIT CELL DATA
Info: XST FILENAME           mobley_2410897_prod.xst
Info: XST FREQUENCY          100000
Info: NO VELOCITY DCD OUTPUT
Info: NO FORCE DCD OUTPUT
Info: OUTPUT FILENAME        mobley_2410897_prod
Info: BINARY OUTPUT FILES WILL BE USED
Info: RESTART FILENAME       mobley_2410897_prod.restart
Info: RESTART FREQUENCY      100000
Info: BINARY RESTART FILES WILL BE USED
Info: CUTOFF                 9
Info: PAIRLIST DISTANCE      11
Info: PAIRLIST SHRINK RATE   0.01
Info: PAIRLIST GROW RATE     0.01
Info: PAIRLIST TRIGGER       0.3
Info: PAIRLISTS PER CYCLE    2
Info: PAIRLISTS ENABLED
Info: MARGIN                 2
Info: HYDROGEN GROUP CUTOFF  2.5
Info: PATCH DIMENSION        15.5
Info: ENERGY OUTPUT STEPS    100000
Info: ENERGY EVALUATION STEPS    100000
Info: OUTPUT ENERGY PRECISION 4
Info: CROSSTERM ENERGY INCLUDED IN DIHEDRAL
Info: TIMING OUTPUT STEPS    1000000
Info: PRESSURE OUTPUT STEPS  100000
Info: ALCHEMICAL FEP ON
Info: FEP CURRENT LAMBDA VALUE     0
Info: FEP COMPARISON LAMBDA VALUE  0.05
Info: FEP INTRA-ALCHEMICAL NON-BONDED INTERACTIONS WILL BE RETAINED
Info: FEP INTRA-ALCHEMICAL BONDED INTERACTIONS WILL BE RETAINED
Info: FEP VDW SHIFTING COEFFICIENT 5
Info: FEP ELEC. ACTIVE FOR ANNIHILATED PARTICLES BETWEEN LAMBDA = 0 AND LAMBDA = 0.5
Info: FEP ELEC. ACTIVE FOR EXNIHILATED PARTICLES BETWEEN LAMBDA = 0.5 AND LAMBDA = 1
Info: FEP VDW ACTIVE FOR ANNIHILATED PARTICLES BETWEEN LAMBDA = 0 AND LAMBDA = 1
Info: FEP VDW ACTIVE FOR EXNIHILATED PARTICLES BETWEEN LAMBDA = 0 AND LAMBDA = 1
Info: FEP BOND ACTIVE FOR ANNIHILATED PARTICLES BETWEEN LAMBDA = 1 AND LAMBDA = 1
Info: FEP BOND ACTIVE FOR EXNIHILATED PARTICLES BETWEEN LAMBDA = 0 AND LAMBDA = 0
Info: LANGEVIN DYNAMICS ACTIVE
Info: LANGEVIN TEMPERATURE   300
Info: LANGEVIN USING BBK INTEGRATOR
Info: LANGEVIN DAMPING COEFFICIENT IS 1 INVERSE PS
Info: LANGEVIN DYNAMICS APPLIED TO HYDROGENS
Info: LANGEVIN PISTON PRESSURE CONTROL ACTIVE
Info:        TARGET PRESSURE IS 1.01325 BAR
Info:     OSCILLATION PERIOD IS 50 FS
Info:             DECAY TIME IS 25 FS
Info:     PISTON TEMPERATURE IS 300 K
Info:       PRESSURE CONTROL IS GROUP-BASED
Info:    INITIAL STRAIN RATE IS 0.000199961 0.000199961 0.000199961
Info:       CELL FLUCTUATION IS ISOTROPIC
Info: PARTICLE MESH EWALD (PME) ACTIVE
Info: PME TOLERANCE               1e-06
Info: PME EWALD COEFFICIENT       0.348832
Info: PME INTERPOLATION ORDER     4
Info: PME GRID DIMENSIONS         32 32 32
Info: PME MAXIMUM GRID SPACING    1
Info: PME CALCULATION WILL BE PERFORMED ON GPU
Info: FULL ELECTROSTATIC EVALUATION FREQUENCY      2
Info: USING VERLET I (r-RESPA) MTS SCHEME.
Info: C1 SPLITTING OF LONG RANGE ELECTROSTATICS
Info: PLACING ATOMS IN PATCHES BY HYDROGEN GROUPS
Info: RIGID BONDS TO HYDROGEN : ALL
Info:         ERROR TOLERANCE : 1e-08
Info:          MAX ITERATIONS : 100
Info: RIGID WATER USING SETTLE ALGORITHM
Info: RANDOM NUMBER SEED     1743505932
Info: USE HYDROGEN BONDS?    NO
Info: Using AMBER format force field!
Info: AMBER PARM FILE        mobley_2410897.prmtop
Info: COORDINATE PDB         mobley_2410897.pdb
Info: Exclusions will be read from PARM file!
Info: SCNB (VDW SCALING)     2
Info: USING ARITHMETIC MEAN TO COMBINE L-J SIGMA PARAMETERS
Info: BINARY COORDINATES     mobley_2410897_equil.coor
Info: SUMMARY OF PARAMETERS:
Info: 7 BONDS
Info: 8 ANGLES
Info:   8 HARMONIC
Info:   0 COSINE-BASED
Info: 2 DIHEDRAL
Info: 0 IMPROPER
Info: 0 CROSSTERM
Info: 0 VDW
Info: 28 VDW_PAIRS
Info: 0 NBTHOLE_PAIRS
Info: To read alchdata from file: mobley_2410897.pdb
Info: To read alchflag data from column: 5
Info: STRUCTURE SUMMARY:
Info: 2962 ATOMS
Info: 2961 BONDS
Info: 15 ANGLES
Info: 15 DIHEDRALS
Info: 0 IMPROPERS
Info: 0 CROSSTERMS
Info: 2991 EXCLUSIONS
Info: 2959 RIGID BONDS
Info: ALCH: 0 ATOMS TO DISAPPEAR IN FINAL STATE
Info: ALCH: 10 ATOMS TO APPEAR IN FINAL STATE
Info: 5927 DEGREES OF FREEDOM
Info: 987 HYDROGEN GROUPS
Info: 4 ATOMS IN LARGEST HYDROGEN GROUP
Info: 987 MIGRATION GROUPS
Info: 4 ATOMS IN LARGEST MIGRATION GROUP
Info: TOTAL MASS = 17772.8 amu
Info: TOTAL CHARGE = -0.000100013 e
Info: MASS DENSITY = 0.979997 g/cm^3
Info: ATOM DENSITY = 0.0983544 atoms/A^3
Info: ADDED 0 IMPLICIT EXCLUSIONS
Info: NONBONDED TABLE R-SQUARED SPACING: 0.0625
Info: NONBONDED TABLE SIZE: 705 POINTS
Info: REDUCING NUMBER OF PATCHES TO IMPROVE LOAD BALANCE
Info: REMOVING COM VELOCITY -0.0545225 0.161047 0.154864
Info: Use 3D box decompostion in PME FFT.
Info: Updated CUDA force table with 4096 elements.
Info: Updated CUDA LJ table with 7 x 7 elements.
Info: Found 13 unique exclusion lists needing 20 bytes
TCL: Running for 1500000 steps
ETITLE: TS BOND ANGLE DIHED IMPRP ELECT VDW BOUNDARY MISC KINETIC TOTAL TEMP POTENTIAL TOTALAVG TEMPAVG PRESSURE GPRESSURE VOLUME PRESSAVG GPRESSAVG
ENERGY: 0 1.5537 1.7096 0.0746 0.0000 -10773.9883 1423.1369 0.0000 0.0000 1771.9919 -7575.5215 300.8965 -9347.5134 -7575.5215 300.8965 -234.1538 -144.0357 30115.5819 -234.1538 -144.0357
ENERGY: 300000 0.8101 2.0624 1.0315 0.0000 -10654.0884 1400.2774 0.0000 0.0000 1764.1871 -7485.7198 299.5712 -9249.9069 -7540.4481 298.1349 -420.2257 -368.6876 30576.3788 -260.0152 -190.9415
ENERGY: 600000 2.3747 4.9756 1.1969 0.0000 -10971.0174 1593.6434 0.0000 0.0000 1807.0002 -7561.8265 306.8412 -9368.8267 -7548.8597 299.0498 1147.4626 1279.9595 29930.7301 -151.9723 -85.1104
ENERGY: 900000 0.0939 6.0091 0.9102 0.0000 -10849.8143 1492.7247 0.0000 0.0000 1777.2834 -7572.7931 301.7951 -9350.0765 -7552.5230 299.3635 89.2673 90.4653 30620.2260 -90.6259 -24.1781
ENERGY: 1200000 0.0690 3.1251 1.5599 0.0000 -10861.6799 1569.0485 0.0000 0.0000 1751.3773 -7536.5002 297.3960 -9287.8775 -7546.2407 299.6194 901.0957 951.3640 30379.7748 -117.9617 -52.5588
ENERGY: 1500000 0.8900 1.8566 0.0628 0.0000 -10737.1608 1440.5139 0.0000 0.0000 1719.1087 -7574.7286 291.9166 -9293.8374 -7544.4182 298.4614 -84.5513 -2.3454 30239.1401 -104.6946 -39.0867
TCL: Running FEP window   2: Lambda1 0.05   Lambda2 0.1    [dLambda 0.05  ]
TCL: Setting parameter firsttimestep to 0
TCL: Setting parameter alchLambda to 0.05
Info: NONBONDED TABLE R-SQUARED SPACING: 0.0625
Info: NONBONDED TABLE SIZE: 705 POINTS
TCL: Setting parameter alchLambda2 to 0.1
Info: NONBONDED TABLE R-SQUARED SPACING: 0.0625
Info: NONBONDED TABLE SIZE: 705 POINTS
TCL: Running for 1500000 steps
ETITLE: TS BOND ANGLE DIHED IMPRP ELECT VDW BOUNDARY MISC KINETIC TOTAL TEMP POTENTIAL TOTALAVG TEMPAVG PRESSURE GPRESSURE VOLUME PRESSAVG GPRESSAVG
ENERGY: 0 0.8900 1.8567 0.0628 0.0000 -10737.1623 1441.6508 0.0000 0.0000 1718.2259 -7574.4761 291.7667 -9292.7020 -7574.4761 291.7667 -98.5391 0.1472 30239.1401 -98.5391 0.1472
ENERGY: 300000 0.1397 5.7970 0.6210 0.0000 -10672.4712 1362.0210 0.0000 0.0000 1783.6334 -7520.2591 302.8733 -9303.8925 -7532.5485 298.3280 -787.1992 -746.4749 30679.6999 -219.9553 -164.3708
ENERGY: 600000 0.0312 5.6646 1.4468 0.0000 -10797.2938 1458.6205 0.0000 0.0000 1789.5832 -7541.9475 303.8837 -9331.5307 -7518.6713 300.8652 119.3957 135.6276 30228.2588 -159.7646 -102.4941
ENERGY: 900000 0.3679 4.2834 1.6815 0.0000 -10800.1706 1426.8289 0.0000 0.0000 1802.1056 -7564.9033 306.0101 -9367.0089 -7544.0158 300.9274 -540.5403 -452.4240 30590.6817 -118.7533 -67.1627
ENERGY: 1200000 0.3418 3.9384 0.5076 0.0000 -10858.7542 1564.7279 0.0000 0.0000 1719.4801 -7569.7583 291.9797 -9289.2384 -7542.2390 299.8039 948.3259 984.6350 30309.2367 -57.8664 -11.7670
ENERGY: 1500000 0.0156 2.3912 0.2577 0.0000 -10816.2014 1512.1558 0.0000 0.0000 1751.4943 -7549.8867 297.4159 -9301.3811 -7533.6553 299.7668 736.4849 774.9964 30151.6905 -3.5159 44.6433
TCL: Running FEP window   3: Lambda1 0.1    Lambda2 0.15000000000000002 [dLambda 0.05000000000000002]
TCL: Setting parameter firsttimestep to 0
TCL: Setting parameter alchLambda to 0.1
Info: NONBONDED TABLE R-SQUARED SPACING: 0.0625
Info: NONBONDED TABLE SIZE: 705 POINTS
TCL: Setting parameter alchLambda2 to 0.15000000000000002
Info: NONBONDED TABLE R-SQUARED SPACING: 0.0625
Info: NONBONDED TABLE SIZE: 705 POINTS
TCL: Running for 1500000 steps
ETITLE: TS BOND ANGLE DIHED IMPRP ELECT VDW BOUNDARY MISC KINETIC TOTAL TEMP POTENTIAL TOTALAVG TEMPAVG PRESSURE GPRESSURE VOLUME PRESSAVG GPRESSAVG
ENERGY: 0 0.0156 2.3912 0.2577 0.0000 -10816.2023 1513.1480 0.0000 0.0000 1750.6142 -7549.7756 297.2665 -9300.3897 -7549.7756 297.2665 696.8352 777.4532 30151.6905 696.8352 777.4532
ENERGY: 300000 0.3457 8.2510 0.5648 0.0000 -10689.0121 1383.2532 0.0000 0.0000 1791.0879 -7505.5096 304.1392 -9296.5975 -7534.5444 296.2884 -577.8476 -562.9529 30657.0065 -116.1029 -57.7771
ENERGY: 600000 0.0471 4.0221 0.3682 0.0000 -10658.6134 1384.9081 0.0000 0.0000 1790.7453 -7478.5227 304.0810 -9269.2679 -7535.4731 300.0605 -397.1814 -341.9184 30384.1490 56.4836 106.3172
ENERGY: 900000 0.3331 3.4676 0.6086 0.0000 -10862.8654 1490.2430 0.0000 0.0000 1759.7769 -7608.4364 298.8223 -9368.2132 -7545.1190 299.5571 242.4761 354.2922 30049.7492 57.5033 116.5313
ENERGY: 1200000 0.7344 3.1490 0.2255 0.0000 -10829.2981 1490.0340 0.0000 0.0000 1775.7753 -7559.3800 301.5390 -9335.1553 -7542.9127 300.0944 122.2396 173.8941 30428.2725 -94.7156 -37.2393
ENERGY: 1500000 0.0322 4.7225 0.8680 0.0000 -10529.6951 1331.7563 0.0000 0.0000 1817.5836 -7374.7324 308.6383 -9192.3160 -7538.6928 300.2584 -549.6676 -513.0047 30630.5599 -159.7721 -99.2748
TCL: Running FEP window   4: Lambda1 0.15000000000000002 Lambda2 0.2    [dLambda 0.04999999999999999]
TCL: Setting parameter firsttimestep to 0
TCL: Setting parameter alchLambda to 0.15000000000000002
Info: NONBONDED TABLE R-SQUARED SPACING: 0.0625
Info: NONBONDED TABLE SIZE: 705 POINTS
TCL: Setting parameter alchLambda2 to 0.2
Info: NONBONDED TABLE R-SQUARED SPACING: 0.0625
Info: NONBONDED TABLE SIZE: 705 POINTS
TCL: Running for 1500000 steps
ETITLE: TS BOND ANGLE DIHED IMPRP ELECT VDW BOUNDARY MISC KINETIC TOTAL TEMP POTENTIAL TOTALAVG TEMPAVG PRESSURE GPRESSURE VOLUME PRESSAVG GPRESSAVG
ENERGY: 0 0.0322 4.7225 0.8680 0.0000 -10529.6960 1331.7694 0.0000 0.0000 1816.7001 -7375.6037 308.4883 -9192.3038 -7375.6037 308.4883 -598.9857 -510.5781 30630.5599 -598.9857 -510.5781
ENERGY: 300000 0.2065 4.1675 0.1720 0.0000 -10658.5543 1439.7965 0.0000 0.0000 1802.0701 -7412.1417 306.0040 -9214.2118 -7464.4433 305.4786 -14.2138 -40.3792 31052.2801 -171.4688 -110.4207
ENERGY: 600000 0.2644 4.3892 0.3191 0.0000 -10788.6689 1489.2574 0.0000 0.0000 1733.6463 -7560.7924 294.3852 -9294.4388 -7499.8526 301.2168 296.1317 349.9153 30560.6463 112.4891 173.8112
ENERGY: 900000 0.5193 2.9462 0.7383 0.0000 -10637.5448 1328.6883 0.0000 0.0000 1849.9897 -7454.6630 314.1411 -9304.6527 -7496.7505 303.2748 -865.9566 -773.5177 30341.9375 -56.9357 2.7667
ENERGY: 1200000 0.0316 6.4548 0.4989 0.0000 -10904.6918 1510.8236 0.0000 0.0000 1818.0090 -7568.8740 308.7106 -9386.8830 -7510.4799 302.3433 300.7690 388.8586 30342.7961 -90.8329 -30.5292
ENERGY: 1500000 0.1601 4.7791 0.8079 0.0000 -10681.8646 1412.8473 0.0000 0.0000 1733.5324 -7529.7379 294.3658 -9263.2703 -7513.4909 301.3335 5.5960 105.1046 30218.4776 -77.2623 -17.2216
TCL: Running FEP window   5: Lambda1 0.2    Lambda2 0.25   [dLambda 0.04999999999999999]
TCL: Setting parameter firsttimestep to 0
TCL: Setting parameter alchLambda to 0.2
Info: NONBONDED TABLE R-SQUARED SPACING: 0.0625
Info: NONBONDED TABLE SIZE: 705 POINTS
TCL: Setting parameter alchLambda2 to 0.25
Info: NONBONDED TABLE R-SQUARED SPACING: 0.0625
Info: NONBONDED TABLE SIZE: 705 POINTS
TCL: Running for 1500000 steps
ETITLE: TS BOND ANGLE DIHED IMPRP ELECT VDW BOUNDARY MISC KINETIC TOTAL TEMP POTENTIAL TOTALAVG TEMPAVG PRESSURE GPRESSURE VOLUME PRESSAVG GPRESSAVG
ENERGY: 0 0.1601 4.7791 0.8079 0.0000 -10681.8658 1412.6731 0.0000 0.0000 1732.6701 -7530.7754 294.2194 -9263.4455 -7530.7754 294.2194 4.5998 103.7842 30218.4776 4.5998 103.7842
ENERGY: 300000 3.1213 5.8099 0.3420 0.0000 -10754.6395 1445.9878 0.0000 0.0000 1740.1902 -7559.1883 295.4964 -9299.3785 -7521.6518 297.2243 -82.0906 -67.6982 30557.6499 -205.2984 -148.3216
ENERGY: 600000 0.5269 4.9847 0.2687 0.0000 -10698.1442 1399.0237 0.0000 0.0000 1775.5030 -7517.8371 301.4928 -9293.3402 -7517.4223 300.0457 -586.9166 -478.3129 30577.5574 -256.9890 -185.9598
ENERGY: 900000 0.3335 4.8729 0.1904 0.0000 -10883.3200 1509.0688 0.0000 0.0000 1713.8080 -7655.0463 291.0165 -9368.8544 -7531.9546 299.3216 542.8367 610.2184 29690.7099 -106.9869 -34.0224
ENERGY: 1200000 0.4543 2.8368 0.3366 0.0000 -10595.1621 1354.6337 0.0000 0.0000 1797.2625 -7439.6381 305.1877 -9236.9006 -7540.4057 299.2484 -490.9999 -447.9303 30532.2943 -90.8623 -17.8481
ENERGY: 1500000 0.3440 2.2581 0.3014 0.0000 -10683.5919 1344.5946 0.0000 0.0000 1836.8981 -7499.1957 311.9181 -9336.0938 -7524.1081 300.9591 -949.1047 -878.8313 30673.3468 -223.3910 -147.1466
TCL: Running FEP window   6: Lambda1 0.25   Lambda2 0.3    [dLambda 0.04999999999999999]
TCL: Setting parameter firsttimestep to 0
TCL: Setting parameter alchLambda to 0.25
Info: NONBONDED TABLE R-SQUARED SPACING: 0.0625
Info: NONBONDED TABLE SIZE: 705 POINTS
TCL: Setting parameter alchLambda2 to 0.3
Info: NONBONDED TABLE R-SQUARED SPACING: 0.0625
Info: NONBONDED TABLE SIZE: 705 POINTS
TCL: Running for 1500000 steps
ETITLE: TS BOND ANGLE DIHED IMPRP ELECT VDW BOUNDARY MISC KINETIC TOTAL TEMP POTENTIAL TOTALAVG TEMPAVG PRESSURE GPRESSURE VOLUME PRESSAVG GPRESSAVG
ENERGY: 0 0.3440 2.2581 0.3014 0.0000 -10683.5919 1344.4052 0.0000 0.0000 1836.0429 -7500.2403 311.7728 -9336.2832 -7500.2403 311.7728 -953.9373 -880.4198 30673.3468 -953.9373 -880.4198
ENERGY: 300000 0.1693 1.2785 1.2507 0.0000 -10794.5775 1430.3983 0.0000 0.0000 1730.0191 -7631.4616 293.7693 -9361.4807 -7549.8904 298.5873 -362.5379 -280.1491 30511.5385 -115.1186 -25.1079
ENERGY: 600000 0.3855 2.8566 0.2559 0.0000 -10866.1071 1505.8771 0.0000 0.0000 1798.0148 -7558.7172 305.3154 -9356.7320 -7546.9600 300.2293 230.2534 272.7494 30234.1124 20.9642 87.5163
ENERGY: 900000 1.0535 5.6936 0.4086 0.0000 -10803.7560 1494.1940 0.0000 0.0000 1825.7285 -7476.6778 310.0214 -9302.4063 -7525.3985 300.9615 470.9054 498.4173 30233.1216 13.4913 79.0021
ENERGY: 1200000 1.2373 5.3536 0.6147 0.0000 -10700.1375 1415.2645 0.0000 0.0000 1777.8263 -7499.8410 301.8873 -9277.6673 -7528.8964 300.2265 -231.1015 -186.3143 30356.5169 19.8574 83.0173
ENERGY: 1500000 0.0561 3.5678 0.0883 0.0000 -10717.7524 1410.7730 0.0000 0.0000 1723.6161 -7579.6512 292.6820 -9303.2673 -7537.0067 299.6898 -625.6294 -543.7963 31001.0674 -60.0828 -2.2674
TCL: Running FEP window   7: Lambda1 0.3    Lambda2 0.35   [dLambda 0.04999999999999999]
TCL: Setting parameter firsttimestep to 0
TCL: Setting parameter alchLambda to 0.3
Info: NONBONDED TABLE R-SQUARED SPACING: 0.0625
Info: NONBONDED TABLE SIZE: 705 POINTS
TCL: Setting parameter alchLambda2 to 0.35
Info: NONBONDED TABLE R-SQUARED SPACING: 0.0625
Info: NONBONDED TABLE SIZE: 705 POINTS
TCL: Running for 1500000 steps
ETITLE: TS BOND ANGLE DIHED IMPRP ELECT VDW BOUNDARY MISC KINETIC TOTAL TEMP POTENTIAL TOTALAVG TEMPAVG PRESSURE GPRESSURE VOLUME PRESSAVG GPRESSAVG
ENERGY: 0 0.0561 3.5678 0.0883 0.0000 -10717.7517 1410.4343 0.0000 0.0000 1722.7067 -7580.8986 292.5276 -9303.6052 -7580.8986 292.5276 -637.0625 -544.9284 31001.0674 -637.0625 -544.9284
ENERGY: 300000 0.9031 3.8266 0.3605 0.0000 -10712.7159 1454.0157 0.0000 0.0000 1755.1020 -7498.5080 298.0285 -9253.6100 -7582.6357 294.4573 135.7815 221.6999 30496.8797 -361.5004 -280.5600
ENERGY: 600000 0.9263 5.4593 1.1596 0.0000 -10862.5030 1472.3107 0.0000 0.0000 1770.9959 -7611.6513 300.7274 -9382.6472 -7563.6394 297.3193 249.4201 272.8253 30113.1130 -81.2196 -11.0924
ENERGY: 900000 1.0300 5.5251 0.6963 0.0000 -10793.6587 1430.7328 0.0000 0.0000 1760.7455 -7594.9292 298.9868 -9355.6746 -7553.0072 300.2356 10.4738 89.4347 29984.6089 -36.3756 35.2287
ENERGY: 1200000 0.6081 5.9861 1.2626 0.0000 -10815.3121 1460.1383 0.0000 0.0000 1767.4596 -7579.8574 300.1269 -9347.3171 -7552.4985 299.9217 -288.9597 -214.8908 30869.6112 -27.9302 44.0596
ENERGY: 1500000 1.3674 7.1034 0.3435 0.0000 -10686.4966 1422.4666 0.0000 0.0000 1772.0605 -7483.1551 300.9082 -9255.2156 -7543.3309 300.9090 -163.9368 -91.8480 30697.8707 -27.5017 47.3808
TCL: Running FEP window   8: Lambda1 0.35   Lambda2 0.39999999999999997 [dLambda 0.04999999999999999]
TCL: Setting parameter firsttimestep to 0
TCL: Setting parameter alchLambda to 0.35
Info: NONBONDED TABLE R-SQUARED SPACING: 0.0625
Info: NONBONDED TABLE SIZE: 705 POINTS
TCL: Setting parameter alchLambda2 to 0.39999999999999997
Info: NONBONDED TABLE R-SQUARED SPACING: 0.0625
Info: NONBONDED TABLE SIZE: 705 POINTS
TCL: Running for 1500000 steps
ETITLE: TS BOND ANGLE DIHED IMPRP ELECT VDW BOUNDARY MISC KINETIC TOTAL TEMP POTENTIAL TOTALAVG TEMPAVG PRESSURE GPRESSURE VOLUME PRESSAVG GPRESSAVG
ENERGY: 0 1.3674 7.1034 0.3435 0.0000 -10686.4966 1422.2467 0.0000 0.0000 1771.1883 -7484.2473 300.7601 -9255.4356 -7484.2473 300.7601 -176.8763 -89.0083 30697.8707 -176.8763 -89.0083
ENERGY: 300000 0.0384 6.1562 0.5612 0.0000 -10749.0619 1453.0371 0.0000 0.0000 1718.0927 -7571.1763 291.7441 -9289.2690 -7537.9278 298.6851 -3.7996 54.0484 30325.4534 26.3025 76.7278
ENERGY: 600000 0.0191 3.6359 1.3198 0.0000 -10801.8853 1503.9593 0.0000 0.0000 1755.3253 -7537.6258 298.0664 -9292.9512 -7546.1369 298.5344 369.9680 347.6299 30762.9276 100.0990 138.0321
ENERGY: 900000 1.3651 2.5570 0.1926 0.0000 -10735.9131 1449.4705 0.0000 0.0000 1740.7547 -7541.5731 295.5922 -9282.3278 -7541.7122 297.6176 90.2877 128.2726 30341.0405 105.5791 156.1580
ENERGY: 1200000 0.3230 2.2138 2.5015 0.0000 -10673.7392 1387.8182 0.0000 0.0000 1752.7291 -7528.1536 297.6256 -9280.8828 -7535.1471 298.6126 -430.4284 -400.4216 30288.5180 40.2334 92.9517
ENERGY: 1500000 0.3243 3.5594 3.7420 0.0000 -10736.0370 1458.0059 0.0000 0.0000 1788.7101 -7481.6953 303.7354 -9270.4054 -7533.3153 299.7601 137.3287 177.6756 30430.1981 11.3784 62.1621
TCL: Running FEP window   9: Lambda1 0.39999999999999997 Lambda2 0.44999999999999996 [dLambda 0.04999999999999999]
TCL: Setting parameter firsttimestep to 0
TCL: Setting parameter alchLambda to 0.39999999999999997
Info: NONBONDED TABLE R-SQUARED SPACING: 0.0625
Info: NONBONDED TABLE SIZE: 705 POINTS
TCL: Setting parameter alchLambda2 to 0.44999999999999996
Info: NONBONDED TABLE R-SQUARED SPACING: 0.0625
Info: NONBONDED TABLE SIZE: 705 POINTS
TCL: Running for 1500000 steps
ETITLE: TS BOND ANGLE DIHED IMPRP ELECT VDW BOUNDARY MISC KINETIC TOTAL TEMP POTENTIAL TOTALAVG TEMPAVG PRESSURE GPRESSURE VOLUME PRESSAVG GPRESSAVG
ENERGY: 0 0.3243 3.5594 3.7420 0.0000 -10736.0365 1458.3167 0.0000 0.0000 1787.8372 -7482.2569 303.5872 -9270.0941 -7482.2569 303.5872 101.1157 183.1208 30430.1981 101.1157 183.1208
ENERGY: 300000 0.2290 5.3898 0.9699 0.0000 -10757.9349 1467.2948 0.0000 0.0000 1811.0486 -7473.0028 307.5286 -9284.0515 -7535.0931 303.3751 16.0630 96.0461 30698.4245 115.7032 167.9009
ENERGY: 600000 0.8653 2.8772 1.3632 0.0000 -10644.1068 1413.7704 0.0000 0.0000 1776.8904 -7448.3402 301.7283 -9225.2306 -7515.7365 301.7821 -215.0787 -126.3701 30878.1141 54.5506 119.3221
ENERGY: 900000 0.7394 1.1175 0.3598 0.0000 -10710.6573 1441.1537 0.0000 0.0000 1786.5126 -7480.7744 303.3623 -9267.2870 -7517.2313 302.7472 -188.2508 -133.5859 31196.4026 184.8061 256.9154
ENERGY: 1200000 1.1454 4.1659 0.3608 0.0000 -10717.9767 1449.1143 0.0000 0.0000 1809.4101 -7453.7802 307.2504 -9263.1903 -7509.0855 302.8796 -61.4720 38.9868 30522.1946 177.0936 245.5727
ENERGY: 1500000 0.3912 3.0184 0.1255 0.0000 -10755.6703 1496.1629 0.0000 0.0000 1810.9737 -7444.9987 307.5159 -9255.9724 -7509.2113 303.1757 506.0547 523.2086 30656.8349 116.9491 175.2870
TCL: Running FEP window  10: Lambda1 0.44999999999999996 Lambda2 0.49999999999999994 [dLambda 0.04999999999999999]
TCL: Setting parameter firsttimestep to 0
TCL: Setting parameter alchLambda to 0.44999999999999996
Info: NONBONDED TABLE R-SQUARED SPACING: 0.0625
Info: NONBONDED TABLE SIZE: 705 POINTS
TCL: Setting parameter alchLambda2 to 0.49999999999999994
Info: NONBONDED TABLE R-SQUARED SPACING: 0.0625
Info: NONBONDED TABLE SIZE: 705 POINTS
TCL: Running for 1500000 steps
ETITLE: TS BOND ANGLE DIHED IMPRP ELECT VDW BOUNDARY MISC KINETIC TOTAL TEMP POTENTIAL TOTALAVG TEMPAVG PRESSURE GPRESSURE VOLUME PRESSAVG GPRESSAVG
ENERGY: 0 0.3912 3.0184 0.1255 0.0000 -10755.6698 1496.4178 0.0000 0.0000 1810.0507 -7445.6662 307.3592 -9255.7170 -7445.6662 307.3592 439.8869 528.7036 30656.8349 439.8869 528.7036
ENERGY: 300000 0.8591 8.6542 1.8327 0.0000 -10757.4404 1496.6163 0.0000 0.0000 1769.1136 -7480.3645 300.4078 -9249.4781 -7474.6458 302.3380 304.4934 435.2623 30240.3718 266.8121 341.6822
ENERGY: 600000 0.3409 4.4409 0.2938 0.0000 -10868.0380 1514.2811 0.0000 0.0000 1812.5527 -7536.1286 307.7840 -9348.6813 -7511.8230 301.6063 550.1782 643.8436 30223.6853 325.4763 412.2632
ENERGY: 900000 0.2978 3.7304 0.4638 0.0000 -10673.0886 1432.2618 0.0000 0.0000 1788.7673 -7447.5676 303.7451 -9236.3349 -7517.6700 299.0037 217.5499 296.6003 30247.8539 230.5466 304.6057
ENERGY: 1200000 1.0496 3.1485 0.3088 0.0000 -10810.1235 1502.4351 0.0000 0.0000 1740.2314 -7562.9500 295.5034 -9303.1814 -7519.3198 298.7113 560.9991 606.5738 29993.5653 215.4037 282.0938
ENERGY: 1500000 0.2276 4.6011 0.2782 0.0000 -10747.4195 1471.7769 0.0000 0.0000 1819.9996 -7450.5362 309.0486 -9270.5357 -7518.3806 299.3179 64.9269 136.4353 30510.4598 146.5267 214.4628
TCL: Running FEP window  11: Lambda1 0.49999999999999994 Lambda2 0.5499999999999999 [dLambda 0.04999999999999999]
TCL: Setting parameter firsttimestep to 0
TCL: Setting parameter alchLambda to 0.49999999999999994
Info: NONBONDED TABLE R-SQUARED SPACING: 0.0625
Info: NONBONDED TABLE SIZE: 705 POINTS
TCL: Setting parameter alchLambda2 to 0.5499999999999999
Info: NONBONDED TABLE R-SQUARED SPACING: 0.0625
Info: NONBONDED TABLE SIZE: 705 POINTS
TCL: Running for 1500000 steps
ETITLE: TS BOND ANGLE DIHED IMPRP ELECT VDW BOUNDARY MISC KINETIC TOTAL TEMP POTENTIAL TOTALAVG TEMPAVG PRESSURE GPRESSURE VOLUME PRESSAVG GPRESSAVG
ENERGY: 0 0.2276 4.6011 0.2782 0.0000 -10747.4212 1471.6350 0.0000 0.0000 1819.0708 -7451.6086 308.8909 -9270.6794 -7451.6086 308.8909 44.4178 137.1797 30510.4598 44.4178 137.1797
ENERGY: 300000 0.4378 4.3913 0.4602 0.0000 -10580.9118 1248.1468 0.0000 0.0000 1817.3267 -7510.1490 308.5947 -9327.4757 -7511.4368 302.7949 -1647.9618 -1606.0736 30581.3256 -220.4722 -166.6395
ENERGY: 600000 0.7817 3.2619 0.1052 0.0000 -10720.3341 1493.1067 0.0000 0.0000 1808.7292 -7414.3493 307.1348 -9223.0785 -7521.1595 302.3122 577.7649 675.1948 30413.0561 -28.2720 31.6549
ENERGY: 900000 0.1226 3.9458 0.1989 0.0000 -10732.6411 1420.9108 0.0000 0.0000 1777.6410 -7529.8219 301.8558 -9307.4630 -7521.8900 301.3286 -380.9776 -235.1668 30599.7994 -139.0313 -69.7897
ENERGY: 1200000 0.6477 4.2933 0.3350 0.0000 -10840.4520 1515.4619 0.0000 0.0000 1739.9533 -7579.7607 295.4562 -9319.7140 -7516.9284 302.5323 541.0366 624.8046 30167.1386 -87.2211 -20.0696
ENERGY: 1500000 1.7776 5.4283 1.6218 0.0000 -10670.3157 1409.1708 0.0000 0.0000 1778.2887 -7474.0286 301.9658 -9252.3173 -7515.8548 301.8664 -208.9125 -146.2912 30374.4545 -106.8532 -41.1770
TCL: Running FEP window  12: Lambda1 0.5499999999999999 Lambda2 0.6    [dLambda 0.050000000000000044]
TCL: Setting parameter firsttimestep to 0
TCL: Setting parameter alchLambda to 0.5499999999999999
Info: NONBONDED TABLE R-SQUARED SPACING: 0.0625
Info: NONBONDED TABLE SIZE: 705 POINTS
TCL: Setting parameter alchLambda2 to 0.6
Info: NONBONDED TABLE R-SQUARED SPACING: 0.0625
Info: NONBONDED TABLE SIZE: 705 POINTS
TCL: Running for 1500000 steps
ETITLE: TS BOND ANGLE DIHED IMPRP ELECT VDW BOUNDARY MISC KINETIC TOTAL TEMP POTENTIAL TOTALAVG TEMPAVG PRESSURE GPRESSURE VOLUME PRESSAVG GPRESSAVG
ENERGY: 0 1.7776 5.4283 1.6218 0.0000 -10670.1174 1409.8995 0.0000 0.0000 1777.4116 -7473.9787 301.8168 -9251.3903 -7473.9787 301.8168 -222.7607 -137.0725 30374.4545 -222.7607 -137.0725
ENERGY: 300000 0.0879 3.7943 0.3682 0.0000 -10794.1189 1505.4354 0.0000 0.0000 1817.2393 -7467.1939 308.5799 -9284.4331 -7499.1879 302.1709 658.9950 750.5350 30089.1632 136.9464 181.9415
ENERGY: 600000 0.0376 2.1681 0.4031 0.0000 -10579.4533 1323.4039 0.0000 0.0000 1707.2293 -7546.2114 289.8994 -9253.4407 -7509.2609 301.2209 -895.3580 -817.0276 30490.4396 -38.4630 17.5614
ENERGY: 900000 0.6220 4.3510 0.3805 0.0000 -10764.9098 1511.5358 0.0000 0.0000 1735.7805 -7512.2399 294.7476 -9248.0205 -7524.9614 300.0545 658.0839 707.5967 30299.7679 -24.6092 35.8379
ENERGY: 1200000 1.2031 9.1181 0.9189 0.0000 -10697.6754 1380.2725 0.0000 0.0000 1807.5132 -7498.6495 306.9283 -9306.1627 -7523.8824 300.4114 -303.5869 -297.6306 30225.6672 5.1523 55.6436
ENERGY: 1500000 0.3316 2.9024 1.1236 0.0000 -10721.8112 1464.9109 0.0000 0.0000 1802.5446 -7449.9982 306.0846 -9252.5427 -7524.4894 300.0772 332.6542 413.3914 30322.2300 -57.5174 -2.5459
TCL: Running FEP window  13: Lambda1 0.6    Lambda2 0.65   [dLambda 0.050000000000000044]
TCL: Setting parameter firsttimestep to 0
TCL: Setting parameter alchLambda to 0.6
Info: NONBONDED TABLE R-SQUARED SPACING: 0.0625
Info: NONBONDED TABLE SIZE: 705 POINTS
TCL: Setting parameter alchLambda2 to 0.65
Info: NONBONDED TABLE R-SQUARED SPACING: 0.0625
Info: NONBONDED TABLE SIZE: 705 POINTS
TCL: Running for 1500000 steps
ETITLE: TS BOND ANGLE DIHED IMPRP ELECT VDW BOUNDARY MISC KINETIC TOTAL TEMP POTENTIAL TOTALAVG TEMPAVG PRESSURE GPRESSURE VOLUME PRESSAVG GPRESSAVG
ENERGY: 0 0.3316 2.9024 1.1236 0.0000 -10721.5545 1465.0747 0.0000 0.0000 1801.6639 -7450.4584 305.9350 -9252.1223 -7450.4584 305.9350 336.2226 421.0273 30322.2300 336.2226 421.0273
ENERGY: 300000 0.4912 1.7479 0.6164 0.0000 -10695.0088 1425.8776 0.0000 0.0000 1783.7822 -7482.4934 302.8986 -9266.2756 -7522.4929 299.2272 -272.5485 -220.7554 30824.0822 -208.8733 -149.0978
ENERGY: 600000 0.2864 4.9424 1.3314 0.0000 -10650.0824 1371.9916 0.0000 0.0000 1827.5356 -7443.9949 310.3283 -9271.5305 -7512.5977 302.6886 -350.3155 -378.4418 30565.8962 167.0465 217.6869
ENERGY: 900000 1.5142 4.4410 0.3355 0.0000 -10647.2949 1426.4280 0.0000 0.0000 1792.7943 -7421.7819 304.4289 -9214.5762 -7504.6940 302.2053 -118.5431 -51.8265 31147.4557 9.2079 58.6008
ENERGY: 1200000 0.9700 3.2342 0.8961 0.0000 -10762.4379 1508.1912 0.0000 0.0000 1766.5394 -7482.6069 299.9707 -9249.1463 -7506.3168 302.2538 654.9462 643.8626 30564.8419 42.4100 87.7463
ENERGY: 1500000 0.5187 4.6619 0.7897 0.0000 -10663.8529 1348.3646 0.0000 0.0000 1798.6366 -7510.8814 305.4210 -9309.5180 -7508.9783 302.8776 -840.7321 -790.2266 30624.4812 -62.0057 -14.7079
TCL: Running FEP window  14: Lambda1 0.65   Lambda2 0.7000000000000001 [dLambda 0.050000000000000044]
TCL: Setting parameter firsttimestep to 0
TCL: Setting parameter alchLambda to 0.65
Info: NONBONDED TABLE R-SQUARED SPACING: 0.0625
Info: NONBONDED TABLE SIZE: 705 POINTS
TCL: Setting parameter alchLambda2 to 0.7000000000000001
Info: NONBONDED TABLE R-SQUARED SPACING: 0.0625
Info: NONBONDED TABLE SIZE: 705 POINTS
TCL: Running for 1500000 steps
ETITLE: TS BOND ANGLE DIHED IMPRP ELECT VDW BOUNDARY MISC KINETIC TOTAL TEMP POTENTIAL TOTALAVG TEMPAVG PRESSURE GPRESSURE VOLUME PRESSAVG GPRESSAVG
ENERGY: 0 0.5187 4.6619 0.7897 0.0000 -10666.0416 1350.0070 0.0000 0.0000 1797.7578 -7512.3065 305.2718 -9310.0643 -7512.3065 305.2718 -858.3199 -779.1548 30624.4812 -858.3199 -779.1548
ENERGY: 300000 1.1621 5.2895 0.5913 0.0000 -10719.2513 1423.6235 0.0000 0.0000 1792.9854 -7495.5994 304.4614 -9288.5849 -7505.7840 302.5994 26.0615 90.8683 30155.2115 -174.1475 -111.9040
ENERGY: 600000 0.2776 2.4807 0.5264 0.0000 -10698.7722 1438.6033 0.0000 0.0000 1786.6919 -7470.1924 303.3927 -9256.8842 -7516.2353 302.6414 177.2540 149.7555 30522.1917 -151.5191 -112.3293
ENERGY: 900000 0.5107 2.0138 0.6594 0.0000 -10665.2641 1369.4658 0.0000 0.0000 1726.0510 -7566.5635 293.0954 -9292.6144 -7531.4792 301.5814 -889.4335 -895.1035 31084.1940 -332.2559 -296.0752
ENERGY: 1200000 0.3539 2.5819 0.1525 0.0000 -10724.6413 1415.1659 0.0000 0.0000 1802.5931 -7503.7939 306.0928 -9306.3870 -7531.4201 301.6990 -400.1989 -292.5301 30787.8148 -250.3530 -206.0084
ENERGY: 1500000 1.0482 2.0969 0.2254 0.0000 -10794.8258 1426.2177 0.0000 0.0000 1720.2764 -7644.9613 292.1149 -9365.2376 -7537.6212 301.5004 -625.2597 -523.6688 30800.1435 -279.5646 -236.5011
TCL: Running FEP window  15: Lambda1 0.7000000000000001 Lambda2 0.7500000000000001 [dLambda 0.050000000000000044]
TCL: Setting parameter firsttimestep to 0
TCL: Setting parameter alchLambda to 0.7000000000000001
Info: NONBONDED TABLE R-SQUARED SPACING: 0.0625
Info: NONBONDED TABLE SIZE: 705 POINTS
TCL: Setting parameter alchLambda2 to 0.7500000000000001
Info: NONBONDED TABLE R-SQUARED SPACING: 0.0625
Info: NONBONDED TABLE SIZE: 705 POINTS
TCL: Running for 1500000 steps
ETITLE: TS BOND ANGLE DIHED IMPRP ELECT VDW BOUNDARY MISC KINETIC TOTAL TEMP POTENTIAL TOTALAVG TEMPAVG PRESSURE GPRESSURE VOLUME PRESSAVG GPRESSAVG
ENERGY: 0 1.0482 2.0969 0.2254 0.0000 -10796.1878 1426.5545 0.0000 0.0000 1719.4457 -7646.8170 291.9738 -9366.2627 -7646.8170 291.9738 -603.7039 -516.8628 30800.1435 -603.7039 -516.8628
ENERGY: 300000 0.2752 3.4388 0.1934 0.0000 -10586.1548 1344.1396 0.0000 0.0000 1743.6994 -7494.4084 296.0923 -9238.1078 -7519.5596 299.7343 -875.0610 -872.7335 31234.0085 -259.7539 -217.9327
ENERGY: 600000 0.1583 5.5331 0.9765 0.0000 -10680.6828 1413.0884 0.0000 0.0000 1730.3114 -7530.6151 293.8189 -9260.9265 -7528.8464 297.7492 -162.1844 -109.5360 30643.4032 -82.2447 -32.2196
ENERGY: 900000 0.7584 3.8348 1.0379 0.0000 -10752.9400 1453.0409 0.0000 0.0000 1770.6205 -7523.6475 300.6637 -9294.2680 -7515.0997 299.0680 105.6204 152.8068 30529.5360 -88.5795 -37.0859
ENERGY: 1200000 0.2371 3.6945 1.0230 0.0000 -10820.2827 1456.5049 0.0000 0.0000 1766.8450 -7591.9780 300.0226 -9358.8230 -7511.3471 300.2981 -180.2143 -162.2899 30505.2293 -68.6995 -23.4462
ENERGY: 1500000 1.6341 2.6005 0.1059 0.0000 -10829.1444 1427.2446 0.0000 0.0000 1795.6251 -7601.9342 304.9096 -9397.5593 -7512.8186 301.0431 -336.2694 -286.5632 30011.3083 -141.0132 -96.9364
TCL: Running FEP window  16: Lambda1 0.7500000000000001 Lambda2 0.8000000000000002 [dLambda 0.050000000000000044]
TCL: Setting parameter firsttimestep to 0
TCL: Setting parameter alchLambda to 0.7500000000000001
Info: NONBONDED TABLE R-SQUARED SPACING: 0.0625
Info: NONBONDED TABLE SIZE: 705 POINTS
TCL: Setting parameter alchLambda2 to 0.8000000000000002
Info: NONBONDED TABLE R-SQUARED SPACING: 0.0625
Info: NONBONDED TABLE SIZE: 705 POINTS
TCL: Running for 1500000 steps
ETITLE: TS BOND ANGLE DIHED IMPRP ELECT VDW BOUNDARY MISC KINETIC TOTAL TEMP POTENTIAL TOTALAVG TEMPAVG PRESSURE GPRESSURE VOLUME PRESSAVG GPRESSAVG
ENERGY: 0 1.6341 2.6005 0.1059 0.0000 -10830.4989 1427.5459 0.0000 0.0000 1794.7362 -7603.8762 304.7587 -9398.6124 -7603.8762 304.7587 -359.9402 -282.7787 30011.3083 -359.9402 -282.7787
ENERGY: 300000 0.6077 4.3152 1.0635 0.0000 -10621.5067 1394.5246 0.0000 0.0000 1731.0556 -7489.9401 293.9453 -9220.9958 -7533.9215 302.1084 -326.3620 -271.6152 30840.8697 -193.4665 -140.8746
ENERGY: 600000 0.9917 3.2353 0.6300 0.0000 -10825.5024 1473.0681 0.0000 0.0000 1749.7946 -7597.7826 297.1273 -9347.5772 -7554.6919 300.4048 282.3272 309.3346 30092.6976 -75.1190 -29.1465
ENERGY: 900000 0.0436 4.2945 0.2396 0.0000 -10703.8143 1384.2544 0.0000 0.0000 1735.3125 -7579.6698 294.6681 -9314.9822 -7559.4709 300.1318 -442.8817 -323.2559 30145.0984 -29.9253 21.7693
ENERGY: 1200000 0.3430 3.4624 0.2760 0.0000 -10701.1877 1418.1763 0.0000 0.0000 1803.3787 -7475.5514 306.2262 -9278.9300 -7561.4829 300.0645 -47.1878 -7.9999 30309.5254 15.7929 73.2046
ENERGY: 1500000 2.5589 5.8778 0.5607 0.0000 -10863.4268 1521.2036 0.0000 0.0000 1750.4234 -7582.8024 297.2341 -9333.2258 -7560.7046 299.7258 619.6196 638.1868 30312.3017 17.5921 71.0219
TCL: Running FEP window  17: Lambda1 0.8000000000000002 Lambda2 0.8500000000000002 [dLambda 0.050000000000000044]
TCL: Setting parameter firsttimestep to 0
TCL: Setting parameter alchLambda to 0.8000000000000002
Info: NONBONDED TABLE R-SQUARED SPACING: 0.0625
Info: NONBONDED TABLE SIZE: 705 POINTS
TCL: Setting parameter alchLambda2 to 0.8500000000000002
Info: NONBONDED TABLE R-SQUARED SPACING: 0.0625
Info: NONBONDED TABLE SIZE: 705 POINTS
TCL: Running for 1500000 steps
ETITLE: TS BOND ANGLE DIHED IMPRP ELECT VDW BOUNDARY MISC KINETIC TOTAL TEMP POTENTIAL TOTALAVG TEMPAVG PRESSURE GPRESSURE VOLUME PRESSAVG GPRESSAVG
ENERGY: 0 2.5589 5.8778 0.5607 0.0000 -10864.6078 1521.1348 0.0000 0.0000 1749.5417 -7584.9339 297.0843 -9334.4756 -7584.9339 297.0843 560.8679 640.6318 30312.3017 560.8679 640.6318
ENERGY: 300000 0.1493 2.3858 0.5654 0.0000 -10830.5923 1559.0652 0.0000 0.0000 1794.4576 -7473.9689 304.7114 -9268.4265 -7559.5288 298.2862 1041.9854 1087.9570 30471.4983 353.2892 400.2127
ENERGY: 600000 0.2117 5.9589 0.2941 0.0000 -10633.0470 1367.2547 0.0000 0.0000 1760.8670 -7498.4607 299.0075 -9259.3277 -7539.8949 300.2491 -533.7088 -456.3854 30637.8152 54.3200 103.5579
ENERGY: 900000 3.3166 3.4219 0.5556 0.0000 -10795.0962 1458.8747 0.0000 0.0000 1776.4704 -7552.4569 301.6570 -9328.9274 -7530.5279 300.8334 243.6416 325.4705 30189.8304 -35.5280 4.7424
ENERGY: 1200000 1.8093 3.8461 0.0847 0.0000 -10875.4515 1526.2725 0.0000 0.0000 1756.5720 -7586.8668 298.2781 -9343.4388 -7542.7563 300.3402 676.3610 711.4911 30220.1056 73.3812 108.7794
ENERGY: 1500000 0.1610 3.1343 0.7738 0.0000 -10700.7743 1393.4853 0.0000 0.0000 1809.9904 -7493.2295 307.3489 -9303.2199 -7534.4833 301.1315 -424.7771 -285.8658 30708.7696 33.7333 79.5028
TCL: Running FEP window  18: Lambda1 0.8500000000000002 Lambda2 0.9000000000000002 [dLambda 0.050000000000000044]
TCL: Setting parameter firsttimestep to 0
TCL: Setting parameter alchLambda to 0.8500000000000002
Info: NONBONDED TABLE R-SQUARED SPACING: 0.0625
Info: NONBONDED TABLE SIZE: 705 POINTS
TCL: Setting parameter alchLambda2 to 0.9000000000000002
Info: NONBONDED TABLE R-SQUARED SPACING: 0.0625
Info: NONBONDED TABLE SIZE: 705 POINTS
TCL: Running for 1500000 steps
ETITLE: TS BOND ANGLE DIHED IMPRP ELECT VDW BOUNDARY MISC KINETIC TOTAL TEMP POTENTIAL TOTALAVG TEMPAVG PRESSURE GPRESSURE VOLUME PRESSAVG GPRESSAVG
ENERGY: 0 0.1610 3.1343 0.7738 0.0000 -10702.1964 1394.1743 0.0000 0.0000 1809.1111 -7494.8418 307.1996 -9303.9530 -7494.8418 307.1996 -363.3425 -274.1021 30708.7696 -363.3425 -274.1021
ENERGY: 300000 0.0987 1.7624 0.4849 0.0000 -10687.2425 1397.7485 0.0000 0.0000 1733.5024 -7553.6456 294.3607 -9287.1479 -7549.0481 300.1405 -663.8832 -658.4416 31395.9063 -371.7352 -326.5430
ENERGY: 600000 0.7846 3.7200 1.0139 0.0000 -10891.9100 1538.8501 0.0000 0.0000 1723.0812 -7624.4603 292.5912 -9347.5415 -7554.2748 297.9853 646.0174 739.0746 30066.4280 -50.2973 19.0287
ENERGY: 900000 1.0127 3.8520 1.6368 0.0000 -10806.5031 1465.5751 0.0000 0.0000 1699.7547 -7634.6718 288.6302 -9334.4265 -7557.9322 297.7659 356.4822 323.9950 29930.9621 97.7167 155.1740
ENERGY: 1200000 0.3071 3.3226 0.5068 0.0000 -10864.1936 1519.0312 0.0000 0.0000 1688.1245 -7652.9013 286.6553 -9341.0258 -7561.9491 297.4586 458.5109 519.6588 30402.2705 101.1661 159.5601
ENERGY: 1500000 0.9080 3.7599 1.4459 0.0000 -10838.7743 1426.0621 0.0000 0.0000 1729.6297 -7676.9687 293.7031 -9406.5984 -7580.4969 296.6809 -93.8117 -89.1898 30019.4699 107.5521 163.0040
TCL: Running FEP window  19: Lambda1 0.9000000000000002 Lambda2 0.9500000000000003 [dLambda 0.050000000000000044]
TCL: Setting parameter firsttimestep to 0
TCL: Setting parameter alchLambda to 0.9000000000000002
Info: NONBONDED TABLE R-SQUARED SPACING: 0.0625
Info: NONBONDED TABLE SIZE: 705 POINTS
TCL: Setting parameter alchLambda2 to 0.9500000000000003
Info: NONBONDED TABLE R-SQUARED SPACING: 0.0625
Info: NONBONDED TABLE SIZE: 705 POINTS
TCL: Running for 1500000 steps
ETITLE: TS BOND ANGLE DIHED IMPRP ELECT VDW BOUNDARY MISC KINETIC TOTAL TEMP POTENTIAL TOTALAVG TEMPAVG PRESSURE GPRESSURE VOLUME PRESSAVG GPRESSAVG
ENERGY: 0 0.9080 3.7599 1.4459 0.0000 -10839.9048 1426.6899 0.0000 0.0000 1728.7299 -7678.3711 293.5504 -9407.1010 -7678.3711 293.5504 -144.2737 -78.1811 30019.4699 -144.2737 -78.1811
ENERGY: 300000 0.0261 6.4139 0.3651 0.0000 -10786.0067 1515.7256 0.0000 0.0000 1709.3513 -7554.1248 290.2597 -9263.4761 -7577.1710 296.3479 425.8687 500.7711 30895.3487 -53.3022 19.7357
ENERGY: 600000 0.1126 3.7153 0.4135 0.0000 -10847.2278 1441.3938 0.0000 0.0000 1766.8100 -7634.7826 300.0166 -9401.5926 -7592.2352 297.2524 -412.5510 -374.8826 30590.4580 -209.3973 -143.6101
ENERGY: 900000 0.4420 3.7579 0.3780 0.0000 -10837.2978 1559.0055 0.0000 0.0000 1797.1521 -7476.5624 305.1689 -9273.7144 -7579.5897 297.8989 892.3849 988.7134 30581.7714 -130.3681 -69.4236
ENERGY: 1200000 0.4488 4.3245 0.1216 0.0000 -10761.6264 1471.5527 0.0000 0.0000 1738.3211 -7546.8576 295.1790 -9285.1788 -7567.2491 297.1964 -82.6283 -38.1110 31324.1730 -108.0300 -53.0979
ENERGY: 1500000 0.7199 9.1040 0.4998 0.0000 -10742.9609 1483.0760 0.0000 0.0000 1775.7701 -7473.7912 301.5381 -9249.5613 -7554.7750 298.2051 651.1654 715.8363 30000.9406 -9.2573 41.6034
TCL: Running FEP window  20: Lambda1 0.9500000000000003 Lambda2 1.0    [dLambda 0.04999999999999971]
TCL: Setting parameter firsttimestep to 0
TCL: Setting parameter alchLambda to 0.9500000000000003
Info: NONBONDED TABLE R-SQUARED SPACING: 0.0625
Info: NONBONDED TABLE SIZE: 705 POINTS
TCL: Setting parameter alchLambda2 to 1.0
Info: NONBONDED TABLE R-SQUARED SPACING: 0.0625
Info: NONBONDED TABLE SIZE: 705 POINTS
TCL: Running for 1500000 steps
ETITLE: TS BOND ANGLE DIHED IMPRP ELECT VDW BOUNDARY MISC KINETIC TOTAL TEMP POTENTIAL TOTALAVG TEMPAVG PRESSURE GPRESSURE VOLUME PRESSAVG GPRESSAVG
ENERGY: 0 0.7199 9.1040 0.4998 0.0000 -10743.1385 1483.1407 0.0000 0.0000 1774.8618 -7474.8123 301.3839 -9249.6741 -7474.8123 301.3839 633.9873 723.0064 30000.9406 633.9873 723.0064
ENERGY: 300000 0.5354 2.6381 0.5145 0.0000 -10769.3883 1412.5150 0.0000 0.0000 1791.6918 -7561.4934 304.2417 -9353.1853 -7557.9200 300.7052 -311.9917 -215.5490 30362.7388 -164.9760 -80.9785
ENERGY: 600000 0.4769 3.2395 0.2077 0.0000 -10848.6171 1462.6389 0.0000 0.0000 1839.3703 -7542.6838 312.3379 -9382.0541 -7550.7028 303.2855 131.6486 180.2841 30253.3922 -49.9208 37.4977
ENERGY: 900000 0.0755 4.3920 1.5632 0.0000 -10688.8432 1349.2343 0.0000 0.0000 1741.3316 -7592.2465 295.6902 -9333.5781 -7555.6751 302.1619 -887.5996 -852.8591 30597.7316 -114.6453 -35.5183
ENERGY: 1200000 0.2123 5.5950 0.4160 0.0000 -10806.2726 1473.2508 0.0000 0.0000 1737.4553 -7589.3432 295.0320 -9326.7985 -7568.1052 300.1251 393.5492 473.5566 30025.6849 -156.6274 -81.5454
ENERGY: 1500000 0.0194 5.5453 1.2764 0.0000 -10812.6179 1433.7649 0.0000 0.0000 1776.7216 -7595.2903 301.6997 -9372.0118 -7563.7195 300.0262 -359.5927 -293.9514 30455.4475 -106.1624 -27.5684
TCL: Exiting due to exit command.
