Info: SIMULATION PARAMETERS:
Info: TIMESTEP               2
Info: NUMBER OF STEPS        0
Info: STEPS PER CYCLE        10
Info: PERIODIC CELL BASIS 1  31.8947 0 0
Info: PERIODIC CELL BASIS 2  0 30.3489 0
Info: PERIODIC CELL BASIS 3  0 0 32.3225
Info: PERIODIC CELL CENTER   0 0 0
Info: WRAPPING WATERS AROUND PERIODIC BOUNDARIES ON OUTPUT.
Info: WRAPPING ALL CLUSTERS AROUND PERIODIC BOUNDARIES ON OUTPUT.
Info: FIRST LDB TIMESTEP     50
Info: LAST LDB TIMESTEP     -1
Info: HOM BACKGROUND SCALING 1
Info: PME BACKGROUND SCALING 1
Info: MIN ATOMS PER PATCH    40
Info: EMPTY PATCH LOAD       40 ATOMS
Info: VELOCITY FILE          mobley_9478823_equil.vel
Info: CENTER OF MASS MOVING INITIALLY? NO
Info: DIELECTRIC             1
Info: EXCLUDE                SCALED ONE-FOUR
Info: 1-4 ELECTROSTATICS SCALED BY 0.833333
Info: MODIFIED 1-4 VDW PARAMETERS WILL BE USED
Info: DCD FILENAME           mobley_9478823_prod.dcd
Info: DCD FREQUENCY          100000
Info: DCD FIRST STEP         100000
Info: DCD FILE WILL CONTAIN UNIT CELL DATA
Info: XST FILENAME           mobley_9478823_prod.xst
Info: XST FREQUENCY          100000
Info: NO VELOCITY DCD OUTPUT
Info: NO FORCE DCD OUTPUT
Info: OUTPUT FILENAME        mobley_9478823_prod
Info: BINARY OUTPUT FILES WILL BE USED
Info: RESTART FILENAME       mobley_9478823_prod.restart
Info: RESTART FREQUENCY      100000
Info: BINARY RESTART FILES WILL BE USED
Info: CUTOFF                 9
Info: PAIRLIST DISTANCE      11
Info: PAIRLIST SHRINK RATE   0.01
Info: PAIRLIST GROW RATE     0.01
Info: PAIRLIST TRIGGER       0.3
Info: PAIRLISTS PER CYCLE    2
Info: PAIRLISTS ENABLED
Info: MARGIN                 2
Info: HYDROGEN GROUP CUTOFF  2.5
Info: PATCH DIMENSION        15.5
Info: ENERGY OUTPUT STEPS    100000
Info: ENERGY EVALUATION STEPS    100000
Info: OUTPUT ENERGY PRECISION 4
Info: CROSSTERM ENERGY INCLUDED IN DIHEDRAL
Info: TIMING OUTPUT STEPS    1000000
Info: PRESSURE OUTPUT STEPS  100000
Info: ALCHEMICAL FEP ON
Info: FEP CURRENT LAMBDA VALUE     0
Info: FEP COMPARISON LAMBDA VALUE  0.05
Info: FEP INTRA-ALCHEMICAL NON-BONDED INTERACTIONS WILL BE RETAINED
Info: FEP INTRA-ALCHEMICAL BONDED INTERACTIONS WILL BE RETAINED
Info: FEP VDW SHIFTING COEFFICIENT 5
Info: FEP ELEC. ACTIVE FOR ANNIHILATED PARTICLES BETWEEN LAMBDA = 0 AND LAMBDA = 0.5
Info: FEP ELEC. ACTIVE FOR EXNIHILATED PARTICLES BETWEEN LAMBDA = 0.5 AND LAMBDA = 1
Info: FEP VDW ACTIVE FOR ANNIHILATED PARTICLES BETWEEN LAMBDA = 0 AND LAMBDA = 1
Info: FEP VDW ACTIVE FOR EXNIHILATED PARTICLES BETWEEN LAMBDA = 0 AND LAMBDA = 1
Info: FEP BOND ACTIVE FOR ANNIHILATED PARTICLES BETWEEN LAMBDA = 1 AND LAMBDA = 1
Info: FEP BOND ACTIVE FOR EXNIHILATED PARTICLES BETWEEN LAMBDA = 0 AND LAMBDA = 0
Info: LANGEVIN DYNAMICS ACTIVE
Info: LANGEVIN TEMPERATURE   300
Info: LANGEVIN USING BBK INTEGRATOR
Info: LANGEVIN DAMPING COEFFICIENT IS 1 INVERSE PS
Info: LANGEVIN DYNAMICS APPLIED TO HYDROGENS
Info: LANGEVIN PISTON PRESSURE CONTROL ACTIVE
Info:        TARGET PRESSURE IS 1.01325 BAR
Info:     OSCILLATION PERIOD IS 50 FS
Info:             DECAY TIME IS 25 FS
Info:     PISTON TEMPERATURE IS 300 K
Info:       PRESSURE CONTROL IS GROUP-BASED
Info:    INITIAL STRAIN RATE IS -0.000809732 -0.000809732 -0.000809732
Info:       CELL FLUCTUATION IS ISOTROPIC
Info: PARTICLE MESH EWALD (PME) ACTIVE
Info: PME TOLERANCE               1e-06
Info: PME EWALD COEFFICIENT       0.348832
Info: PME INTERPOLATION ORDER     4
Info: PME GRID DIMENSIONS         32 32 36
Info: PME MAXIMUM GRID SPACING    1
Info: PME CALCULATION WILL BE PERFORMED ON GPU
Info: FULL ELECTROSTATIC EVALUATION FREQUENCY      2
Info: USING VERLET I (r-RESPA) MTS SCHEME.
Info: C1 SPLITTING OF LONG RANGE ELECTROSTATICS
Info: PLACING ATOMS IN PATCHES BY HYDROGEN GROUPS
Info: RIGID BONDS TO HYDROGEN : ALL
Info:         ERROR TOLERANCE : 1e-08
Info:          MAX ITERATIONS : 100
Info: RIGID WATER USING SETTLE ALGORITHM
Info: RANDOM NUMBER SEED     1743601778
Info: USE HYDROGEN BONDS?    NO
Info: Using AMBER format force field!
Info: AMBER PARM FILE        mobley_9478823.prmtop
Info: COORDINATE PDB         mobley_9478823.pdb
Info: Exclusions will be read from PARM file!
Info: SCNB (VDW SCALING)     2
Info: USING ARITHMETIC MEAN TO COMBINE L-J SIGMA PARAMETERS
Info: BINARY COORDINATES     mobley_9478823_equil.coor
Info: SUMMARY OF PARAMETERS:
Info: 6 BONDS
Info: 5 ANGLES
Info:   5 HARMONIC
Info:   0 COSINE-BASED
Info: 3 DIHEDRAL
Info: 0 IMPROPER
Info: 0 CROSSTERM
Info: 0 VDW
Info: 21 VDW_PAIRS
Info: 0 NBTHOLE_PAIRS
Info: To read alchdata from file: mobley_9478823.pdb
Info: To read alchflag data from column: 5
Info: STRUCTURE SUMMARY:
Info: 2991 ATOMS
Info: 2991 BONDS
Info: 30 ANGLES
Info: 42 DIHEDRALS
Info: 0 IMPROPERS
Info: 0 CROSSTERMS
Info: 3054 EXCLUSIONS
Info: 2983 RIGID BONDS
Info: ALCH: 0 ATOMS TO DISAPPEAR IN FINAL STATE
Info: ALCH: 18 ATOMS TO APPEAR IN FINAL STATE
Info: 5990 DEGREES OF FREEDOM
Info: 999 HYDROGEN GROUPS
Info: 4 ATOMS IN LARGEST HYDROGEN GROUP
Info: 999 MIGRATION GROUPS
Info: 4 ATOMS IN LARGEST MIGRATION GROUP
Info: TOTAL MASS = 17960 amu
Info: TOTAL CHARGE = -9.99719e-05 e
Info: MASS DENSITY = 0.953235 g/cm^3
Info: ATOM DENSITY = 0.0955984 atoms/A^3
Info: ADDED 0 IMPLICIT EXCLUSIONS
Info: NONBONDED TABLE R-SQUARED SPACING: 0.0625
Info: NONBONDED TABLE SIZE: 705 POINTS
Info: REMOVING COM VELOCITY 0.0865001 0.0324629 -0.0374699
Info: Use 3D box decompostion in PME FFT.
Info: Updated CUDA force table with 4096 elements.
Info: Updated CUDA LJ table with 6 x 6 elements.
Info: Found 17 unique exclusion lists needing 40 bytes
TCL: Running for 1500000 steps
ETITLE: TS BOND ANGLE DIHED IMPRP ELECT VDW BOUNDARY MISC KINETIC TOTAL TEMP POTENTIAL TOTALAVG TEMPAVG PRESSURE GPRESSURE VOLUME PRESSAVG GPRESSAVG
ENERGY: 0 2.2941 7.4090 0.5644 0.0000 -10867.0585 1519.2848 0.0000 0.0000 1851.8326 -7485.6738 311.1468 -9337.5064 -7485.6738 311.1468 191.9611 265.7338 31287.1366 191.9611 265.7338
ENERGY: 300000 1.0886 7.7368 2.0265 0.0000 -10826.9160 1444.8194 0.0000 0.0000 1783.6210 -7587.6236 299.6858 -9371.2446 -7512.2065 306.3321 -364.7897 -331.6610 30880.2211 5.1907 55.6405
ENERGY: 600000 1.5892 6.1742 1.2582 0.0000 -10898.9318 1527.2373 0.0000 0.0000 1771.9363 -7590.7366 297.7225 -9362.6728 -7533.3541 303.4818 733.5814 826.8273 30375.7937 192.2655 255.3347
ENERGY: 900000 3.0689 5.0532 1.5361 0.0000 -10797.4363 1440.3522 0.0000 0.0000 1782.6874 -7564.7384 299.5289 -9347.4258 -7533.9014 302.7815 -78.4946 -15.2255 30493.8471 71.0582 135.3560
ENERGY: 1200000 1.5968 8.5416 2.3794 0.0000 -10738.1219 1424.7718 0.0000 0.0000 1804.8923 -7495.9400 303.2598 -9300.8323 -7534.5779 301.9311 -201.7218 -181.5681 30751.3680 10.1608 67.0263
ENERGY: 1500000 3.8394 4.5516 0.8294 0.0000 -10779.7244 1400.3692 0.0000 0.0000 1813.4145 -7556.7203 304.6917 -9370.1348 -7538.1025 301.1595 -629.4788 -590.0009 30795.2473 -84.8039 -26.1938
TCL: Running FEP window   2: Lambda1 0.05   Lambda2 0.1    [dLambda 0.05  ]
TCL: Setting parameter firsttimestep to 0
TCL: Setting parameter alchLambda to 0.05
Info: NONBONDED TABLE R-SQUARED SPACING: 0.0625
Info: NONBONDED TABLE SIZE: 705 POINTS
TCL: Setting parameter alchLambda2 to 0.1
Info: NONBONDED TABLE R-SQUARED SPACING: 0.0625
Info: NONBONDED TABLE SIZE: 705 POINTS
TCL: Running for 1500000 steps
ETITLE: TS BOND ANGLE DIHED IMPRP ELECT VDW BOUNDARY MISC KINETIC TOTAL TEMP POTENTIAL TOTALAVG TEMPAVG PRESSURE GPRESSURE VOLUME PRESSAVG GPRESSAVG
ENERGY: 0 3.8394 4.5516 0.8294 0.0000 -10779.7238 1404.8964 0.0000 0.0000 1812.5125 -7553.0945 304.5402 -9365.6070 -7553.0945 304.5402 -664.9662 -584.9169 30795.2473 -664.9662 -584.9169
ENERGY: 300000 1.5828 4.7267 2.0487 0.0000 -10772.9913 1491.0817 0.0000 0.0000 1818.0217 -7455.5297 305.4658 -9273.5514 -7553.9820 302.9509 384.6227 450.8624 31002.1531 -537.5725 -453.7685
ENERGY: 600000 2.6777 7.9487 0.9298 0.0000 -10807.8403 1495.2614 0.0000 0.0000 1755.4629 -7545.5597 294.9546 -9301.0226 -7544.1486 300.6689 223.3415 235.6455 30783.2305 -248.6425 -179.3326
ENERGY: 900000 6.4364 11.1683 3.3054 0.0000 -10843.2466 1435.0069 0.0000 0.0000 1727.1611 -7660.1685 290.1993 -9387.3297 -7551.8696 298.8948 -584.6586 -555.9995 30750.1278 -333.9565 -263.8035
ENERGY: 1200000 2.7557 8.6520 2.7162 0.0000 -10758.7130 1472.7225 0.0000 0.0000 1797.0375 -7474.8292 301.9400 -9271.8666 -7551.6947 299.1654 373.2356 439.0504 30487.3558 -241.7262 -169.7471
ENERGY: 1500000 1.0103 3.9785 3.6344 0.0000 -11039.5713 1557.3980 0.0000 0.0000 1826.2421 -7647.3081 306.8470 -9473.5502 -7562.0379 299.4744 778.4523 933.6803 29797.6063 -169.6711 -101.0768
TCL: Running FEP window   3: Lambda1 0.1    Lambda2 0.15000000000000002 [dLambda 0.05000000000000002]
TCL: Setting parameter firsttimestep to 0
TCL: Setting parameter alchLambda to 0.1
Info: NONBONDED TABLE R-SQUARED SPACING: 0.0625
Info: NONBONDED TABLE SIZE: 705 POINTS
TCL: Setting parameter alchLambda2 to 0.15000000000000002
Info: NONBONDED TABLE R-SQUARED SPACING: 0.0625
Info: NONBONDED TABLE SIZE: 705 POINTS
TCL: Running for 1500000 steps
ETITLE: TS BOND ANGLE DIHED IMPRP ELECT VDW BOUNDARY MISC KINETIC TOTAL TEMP POTENTIAL TOTALAVG TEMPAVG PRESSURE GPRESSURE VOLUME PRESSAVG GPRESSAVG
ENERGY: 0 1.0103 3.9785 3.6344 0.0000 -11039.5708 1557.7708 0.0000 0.0000 1825.3415 -7647.8353 306.6957 -9473.1768 -7647.8353 306.6957 858.3924 937.0946 29797.6063 858.3924 937.0946
ENERGY: 300000 7.9686 5.3578 2.8569 0.0000 -10858.5257 1472.2871 0.0000 0.0000 1831.4433 -7538.6120 307.7209 -9370.0553 -7590.2179 303.0302 173.2864 235.4181 30320.9943 259.8709 321.8047
ENERGY: 600000 5.0031 7.9355 4.8514 0.0000 -10808.1601 1449.5818 0.0000 0.0000 1777.2647 -7563.5236 298.6178 -9340.7883 -7564.4278 302.6237 -308.0206 -253.2253 30903.9378 167.9647 219.6715
ENERGY: 900000 2.3911 5.2174 5.4699 0.0000 -10976.4817 1573.2310 0.0000 0.0000 1813.6712 -7576.5010 304.7349 -9390.1723 -7576.8072 301.6906 848.0103 950.6627 30621.3182 171.0509 234.6095
ENERGY: 1200000 2.3214 7.3016 3.9767 0.0000 -10856.8338 1545.7588 0.0000 0.0000 1765.2994 -7532.1760 296.6074 -9297.4754 -7573.6091 300.9803 727.2455 781.9145 30605.9000 235.8748 302.9605
ENERGY: 1500000 3.1608 4.2087 1.7166 0.0000 -10770.4470 1399.9001 0.0000 0.0000 1763.1123 -7598.3486 296.2399 -9361.4609 -7567.3532 301.2689 -387.7674 -284.3834 30522.0784 230.4579 299.2127
TCL: Running FEP window   4: Lambda1 0.15000000000000002 Lambda2 0.2    [dLambda 0.04999999999999999]
TCL: Setting parameter firsttimestep to 0
TCL: Setting parameter alchLambda to 0.15000000000000002
Info: NONBONDED TABLE R-SQUARED SPACING: 0.0625
Info: NONBONDED TABLE SIZE: 705 POINTS
TCL: Setting parameter alchLambda2 to 0.2
Info: NONBONDED TABLE R-SQUARED SPACING: 0.0625
Info: NONBONDED TABLE SIZE: 705 POINTS
TCL: Running for 1500000 steps
ETITLE: TS BOND ANGLE DIHED IMPRP ELECT VDW BOUNDARY MISC KINETIC TOTAL TEMP POTENTIAL TOTALAVG TEMPAVG PRESSURE GPRESSURE VOLUME PRESSAVG GPRESSAVG
ENERGY: 0 3.1608 4.2087 1.7166 0.0000 -10770.4460 1399.7966 0.0000 0.0000 1762.1783 -7599.3851 296.0830 -9361.5634 -7599.3851 296.0830 -380.4464 -280.9417 30522.0784 -380.4464 -280.9417
ENERGY: 300000 2.2935 5.9188 2.3364 0.0000 -10831.1553 1463.1547 0.0000 0.0000 1810.7396 -7546.7123 304.2423 -9357.4519 -7556.8388 301.2741 199.1166 267.9118 30459.0395 -195.3727 -118.9755
ENERGY: 600000 2.4372 9.0315 3.6925 0.0000 -10884.5409 1467.8521 0.0000 0.0000 1755.1575 -7646.3701 294.9033 -9401.5276 -7577.1302 299.0890 -67.6273 0.2156 30725.1928 -214.9578 -136.2250
ENERGY: 900000 0.5212 8.2870 1.5049 0.0000 -10624.9097 1314.9830 0.0000 0.0000 1749.0896 -7550.5240 293.8838 -9299.6136 -7570.9612 299.3330 -1029.4192 -1057.1777 30906.6541 -223.7492 -157.7795
ENERGY: 1200000 1.5643 5.0709 2.6406 0.0000 -10764.2610 1423.2008 0.0000 0.0000 1747.9733 -7583.8110 293.6962 -9331.7843 -7567.7115 298.9932 -241.6055 -257.8431 30775.0670 -306.4270 -236.5508
ENERGY: 1500000 0.9940 6.0484 2.6861 0.0000 -10849.5398 1552.5294 0.0000 0.0000 1788.1188 -7499.1630 300.4415 -9287.2818 -7563.9470 298.9465 932.4744 985.5973 30489.8569 -204.7527 -142.6103
TCL: Running FEP window   5: Lambda1 0.2    Lambda2 0.25   [dLambda 0.04999999999999999]
TCL: Setting parameter firsttimestep to 0
TCL: Setting parameter alchLambda to 0.2
Info: NONBONDED TABLE R-SQUARED SPACING: 0.0625
Info: NONBONDED TABLE SIZE: 705 POINTS
TCL: Setting parameter alchLambda2 to 0.25
Info: NONBONDED TABLE R-SQUARED SPACING: 0.0625
Info: NONBONDED TABLE SIZE: 705 POINTS
TCL: Running for 1500000 steps
ETITLE: TS BOND ANGLE DIHED IMPRP ELECT VDW BOUNDARY MISC KINETIC TOTAL TEMP POTENTIAL TOTALAVG TEMPAVG PRESSURE GPRESSURE VOLUME PRESSAVG GPRESSAVG
ENERGY: 0 0.9940 6.0484 2.6861 0.0000 -10849.5393 1553.1011 0.0000 0.0000 1787.1986 -7499.5110 300.2869 -9286.7096 -7499.5110 300.2869 907.1674 996.2013 30489.8569 907.1674 996.2013
ENERGY: 300000 4.4294 7.0169 2.0834 0.0000 -10675.5462 1399.1126 0.0000 0.0000 1809.0746 -7453.8292 303.9625 -9262.9038 -7524.5790 299.0368 -341.6645 -281.8008 30843.8005 257.8898 328.0714
ENERGY: 600000 3.9131 7.1068 0.8594 0.0000 -10808.2229 1420.1115 0.0000 0.0000 1805.6230 -7570.6090 303.3826 -9376.2320 -7549.0252 298.6948 -250.5929 -187.1611 30347.9642 19.6126 90.3845
ENERGY: 900000 2.9852 3.4882 3.2649 0.0000 -10910.2249 1511.5778 0.0000 0.0000 1805.6379 -7583.2709 303.3851 -9388.9088 -7548.0327 301.7946 294.5982 387.6669 30737.4649 -72.5504 1.5372
ENERGY: 1200000 2.3288 4.1830 3.6351 0.0000 -10771.9625 1457.2151 0.0000 0.0000 1828.2217 -7476.3788 307.1796 -9304.6005 -7544.5252 301.5808 85.8129 172.7128 30745.2411 -3.9591 70.5356
ENERGY: 1500000 2.4428 6.6437 1.3107 0.0000 -10875.1171 1513.4494 0.0000 0.0000 1769.3914 -7581.8792 297.2949 -9351.2705 -7547.1557 301.7889 230.2533 367.3367 30972.1641 2.5042 85.5469
TCL: Running FEP window   6: Lambda1 0.25   Lambda2 0.3    [dLambda 0.04999999999999999]
TCL: Setting parameter firsttimestep to 0
TCL: Setting parameter alchLambda to 0.25
Info: NONBONDED TABLE R-SQUARED SPACING: 0.0625
Info: NONBONDED TABLE SIZE: 705 POINTS
TCL: Setting parameter alchLambda2 to 0.3
Info: NONBONDED TABLE R-SQUARED SPACING: 0.0625
Info: NONBONDED TABLE SIZE: 705 POINTS
TCL: Running for 1500000 steps
ETITLE: TS BOND ANGLE DIHED IMPRP ELECT VDW BOUNDARY MISC KINETIC TOTAL TEMP POTENTIAL TOTALAVG TEMPAVG PRESSURE GPRESSURE VOLUME PRESSAVG GPRESSAVG
ENERGY: 0 2.4428 6.6437 1.3107 0.0000 -10875.1176 1513.1997 0.0000 0.0000 1768.5021 -7583.0187 297.1455 -9351.5207 -7583.0187 297.1455 277.0435 368.7300 30972.1641 277.0435 368.7300
ENERGY: 300000 7.2045 3.6180 2.2782 0.0000 -10750.8614 1429.3376 0.0000 0.0000 1847.7318 -7460.6913 310.4577 -9308.4231 -7593.5674 300.9043 -354.5152 -304.0893 30931.6374 159.4437 236.9813
ENERGY: 600000 1.5670 4.5896 1.2148 0.0000 -10957.2081 1556.6579 0.0000 0.0000 1773.9642 -7619.2146 298.0632 -9393.1788 -7603.0261 301.0786 815.1212 906.1993 30248.4966 331.6592 399.3336
ENERGY: 900000 1.0740 4.5814 1.0302 0.0000 -10827.6311 1454.9238 0.0000 0.0000 1819.8002 -7546.2215 305.7647 -9366.0217 -7611.8401 300.5856 170.2065 155.8756 30304.3976 196.1696 256.7637
ENERGY: 1200000 2.9274 3.5440 0.9018 0.0000 -10712.0753 1421.3106 0.0000 0.0000 1787.6338 -7495.7577 300.3600 -9283.3915 -7600.5444 299.9510 -293.1264 -217.7849 31007.9471 76.3193 140.7505
ENERGY: 1500000 2.4777 6.8298 4.0976 0.0000 -10829.6394 1475.0126 0.0000 0.0000 1794.8056 -7546.4161 301.5650 -9341.2217 -7593.7361 299.9185 218.2135 265.2900 30911.6560 59.3567 119.8116
TCL: Running FEP window   7: Lambda1 0.3    Lambda2 0.35   [dLambda 0.04999999999999999]
TCL: Setting parameter firsttimestep to 0
TCL: Setting parameter alchLambda to 0.3
Info: NONBONDED TABLE R-SQUARED SPACING: 0.0625
Info: NONBONDED TABLE SIZE: 705 POINTS
TCL: Setting parameter alchLambda2 to 0.35
Info: NONBONDED TABLE R-SQUARED SPACING: 0.0625
Info: NONBONDED TABLE SIZE: 705 POINTS
TCL: Running for 1500000 steps
ETITLE: TS BOND ANGLE DIHED IMPRP ELECT VDW BOUNDARY MISC KINETIC TOTAL TEMP POTENTIAL TOTALAVG TEMPAVG PRESSURE GPRESSURE VOLUME PRESSAVG GPRESSAVG
ENERGY: 0 2.4777 6.8298 4.0976 0.0000 -10829.6388 1474.4277 0.0000 0.0000 1793.9084 -7547.8976 301.4143 -9341.8060 -7547.8976 301.4143 186.5319 263.3979 30911.6560 186.5319 263.3979
ENERGY: 300000 3.5113 6.8290 3.2793 0.0000 -10773.4442 1466.7314 0.0000 0.0000 1763.7171 -7529.3760 296.3415 -9293.0932 -7532.0108 302.5130 23.6440 86.5019 31026.8614 136.1349 202.3794
ENERGY: 600000 2.6040 6.2469 2.4786 0.0000 -10885.9209 1464.4454 0.0000 0.0000 1761.9863 -7648.1597 296.0507 -9410.1460 -7543.0542 302.2007 -37.8247 -8.8587 30465.3494 29.6329 91.6228
ENERGY: 900000 11.0836 3.4969 1.1623 0.0000 -10746.6058 1400.0858 0.0000 0.0000 1771.8627 -7558.9145 297.7101 -9330.7772 -7566.1014 299.5179 -639.7001 -563.2727 30488.0715 -63.9792 0.1229
ENERGY: 1200000 3.0105 9.1944 3.1548 0.0000 -10753.5422 1376.7003 0.0000 0.0000 1808.4271 -7553.0551 303.8537 -9361.4822 -7565.1950 300.5879 -850.0762 -688.3390 30613.4334 -147.4498 -73.4281
ENERGY: 1500000 3.2670 5.7220 3.2728 0.0000 -10863.6263 1444.9369 0.0000 0.0000 1827.9923 -7578.4354 307.1411 -9406.4276 -7565.9381 301.7418 -319.7847 -205.6928 30531.6022 -71.7203 1.3215
TCL: Running FEP window   8: Lambda1 0.35   Lambda2 0.39999999999999997 [dLambda 0.04999999999999999]
TCL: Setting parameter firsttimestep to 0
TCL: Setting parameter alchLambda to 0.35
Info: NONBONDED TABLE R-SQUARED SPACING: 0.0625
Info: NONBONDED TABLE SIZE: 705 POINTS
TCL: Setting parameter alchLambda2 to 0.39999999999999997
Info: NONBONDED TABLE R-SQUARED SPACING: 0.0625
Info: NONBONDED TABLE SIZE: 705 POINTS
TCL: Running for 1500000 steps
ETITLE: TS BOND ANGLE DIHED IMPRP ELECT VDW BOUNDARY MISC KINETIC TOTAL TEMP POTENTIAL TOTALAVG TEMPAVG PRESSURE GPRESSURE VOLUME PRESSAVG GPRESSAVG
ENERGY: 0 3.2670 5.7220 3.2728 0.0000 -10863.6243 1444.8836 0.0000 0.0000 1827.0666 -7579.4123 306.9855 -9406.4789 -7579.4123 306.9855 -279.3126 -201.1065 30531.6022 -279.3126 -201.1065
ENERGY: 300000 2.1495 7.5981 2.1151 0.0000 -10784.5024 1469.1655 0.0000 0.0000 1744.9926 -7558.4816 293.1954 -9303.4742 -7556.5012 298.6869 228.5307 279.3032 30838.8618 -210.6215 -144.2598
ENERGY: 600000 2.3638 3.8413 1.4700 0.0000 -10783.8213 1420.6641 0.0000 0.0000 1766.5189 -7588.9632 296.8123 -9355.4821 -7559.7716 300.4968 -520.6245 -445.7726 31469.9439 -149.2571 -92.9660
ENERGY: 900000 3.6600 5.5657 3.4564 0.0000 -10855.1873 1454.0388 0.0000 0.0000 1804.4858 -7583.9806 303.1915 -9388.4665 -7562.2437 300.0680 -196.4348 -127.2291 30751.6792 -262.8433 -193.9069
ENERGY: 1200000 2.7508 5.3070 1.6523 0.0000 -10906.6625 1514.1596 0.0000 0.0000 1813.3000 -7569.4928 304.6725 -9382.7928 -7561.7195 300.2333 430.4580 461.9709 30604.1293 -77.9428 -13.7244
ENERGY: 1500000 1.2619 3.7509 3.1345 0.0000 -10871.4864 1474.6224 0.0000 0.0000 1821.2422 -7567.4745 306.0069 -9388.7166 -7554.3288 300.6480 -12.7817 33.1889 30636.7945 -120.4099 -59.9424
TCL: Running FEP window   9: Lambda1 0.39999999999999997 Lambda2 0.44999999999999996 [dLambda 0.04999999999999999]
TCL: Setting parameter firsttimestep to 0
TCL: Setting parameter alchLambda to 0.39999999999999997
Info: NONBONDED TABLE R-SQUARED SPACING: 0.0625
Info: NONBONDED TABLE SIZE: 705 POINTS
TCL: Setting parameter alchLambda2 to 0.44999999999999996
Info: NONBONDED TABLE R-SQUARED SPACING: 0.0625
Info: NONBONDED TABLE SIZE: 705 POINTS
TCL: Running for 1500000 steps
ETITLE: TS BOND ANGLE DIHED IMPRP ELECT VDW BOUNDARY MISC KINETIC TOTAL TEMP POTENTIAL TOTALAVG TEMPAVG PRESSURE GPRESSURE VOLUME PRESSAVG GPRESSAVG
ENERGY: 0 1.2619 3.7509 3.1345 0.0000 -10871.4870 1475.3626 0.0000 0.0000 1820.3428 -7567.6341 305.8558 -9387.9770 -7567.6341 305.8558 -38.9678 40.9206 30636.7945 -38.9678 40.9206
ENERGY: 300000 7.8899 5.7354 2.2906 0.0000 -10728.5385 1364.7111 0.0000 0.0000 1784.4693 -7563.4422 299.8283 -9347.9115 -7571.7578 303.1525 -929.5144 -849.2919 30934.1479 23.9691 100.4989
ENERGY: 600000 2.6726 4.7071 5.0791 0.0000 -10823.6411 1439.6106 0.0000 0.0000 1724.9351 -7646.6367 289.8253 -9371.5718 -7569.6863 299.7207 -153.4288 -85.1933 30391.4270 -92.8298 -32.9804
ENERGY: 900000 1.4385 2.7600 1.1639 0.0000 -10887.0272 1443.3444 0.0000 0.0000 1821.3410 -7616.9795 306.0235 -9438.3205 -7569.0172 302.0929 -144.6599 -105.6288 30289.2411 -91.3163 -30.1604
ENERGY: 1200000 3.5446 3.9298 1.3091 0.0000 -10727.6397 1313.0978 0.0000 0.0000 1796.7974 -7608.9609 301.8997 -9405.7583 -7579.9474 302.0338 -1396.7487 -1397.9557 31104.3172 -245.2378 -191.5819
ENERGY: 1500000 1.5097 5.2994 2.9578 0.0000 -10736.7900 1373.9386 0.0000 0.0000 1830.6630 -7522.4214 307.5898 -9353.0844 -7580.2805 301.9264 -500.4111 -438.1741 30731.9185 -217.3353 -164.7913
TCL: Running FEP window  10: Lambda1 0.44999999999999996 Lambda2 0.49999999999999994 [dLambda 0.04999999999999999]
TCL: Setting parameter firsttimestep to 0
TCL: Setting parameter alchLambda to 0.44999999999999996
Info: NONBONDED TABLE R-SQUARED SPACING: 0.0625
Info: NONBONDED TABLE SIZE: 705 POINTS
TCL: Setting parameter alchLambda2 to 0.49999999999999994
Info: NONBONDED TABLE R-SQUARED SPACING: 0.0625
Info: NONBONDED TABLE SIZE: 705 POINTS
TCL: Running for 1500000 steps
ETITLE: TS BOND ANGLE DIHED IMPRP ELECT VDW BOUNDARY MISC KINETIC TOTAL TEMP POTENTIAL TOTALAVG TEMPAVG PRESSURE GPRESSURE VOLUME PRESSAVG GPRESSAVG
ENERGY: 0 1.5097 5.2994 2.9578 0.0000 -10736.7899 1373.8984 0.0000 0.0000 1829.8123 -7523.3122 307.4469 -9353.1245 -7523.3122 307.4469 -498.3391 -431.3635 30731.9185 -498.3391 -431.3635
ENERGY: 300000 4.5918 3.8951 6.8065 0.0000 -10849.1371 1435.4248 0.0000 0.0000 1794.2621 -7604.1567 301.4737 -9398.4188 -7576.7709 302.5532 -253.8675 -206.9105 30546.0143 -342.2056 -282.9650
ENERGY: 600000 4.8912 8.3793 1.8222 0.0000 -10917.5736 1450.0029 0.0000 0.0000 1780.0037 -7672.4742 299.0780 -9452.4779 -7578.7990 301.0167 -749.5598 -675.8484 31270.8662 -397.6118 -327.7707
ENERGY: 900000 2.9884 5.6906 1.3131 0.0000 -10784.2120 1404.3663 0.0000 0.0000 1796.7038 -7573.1498 301.8840 -9369.8536 -7574.2454 300.2262 -819.0762 -658.2780 31567.8299 -333.8447 -259.2255
ENERGY: 1200000 1.4329 6.7430 2.0825 0.0000 -10829.1204 1485.8267 0.0000 0.0000 1851.5666 -7481.4686 311.1021 -9333.0352 -7572.2474 300.9626 340.1358 417.0483 30554.2088 -273.6562 -203.6685
ENERGY: 1500000 1.3456 10.2863 3.7420 0.0000 -10754.2632 1415.6795 0.0000 0.0000 1821.6434 -7501.5663 306.0743 -9323.2097 -7553.3584 302.0659 -310.4936 -202.2342 30836.2546 -297.4587 -232.8106
TCL: Running FEP window  11: Lambda1 0.49999999999999994 Lambda2 0.5499999999999999 [dLambda 0.04999999999999999]
TCL: Setting parameter firsttimestep to 0
TCL: Setting parameter alchLambda to 0.49999999999999994
Info: NONBONDED TABLE R-SQUARED SPACING: 0.0625
Info: NONBONDED TABLE SIZE: 705 POINTS
TCL: Setting parameter alchLambda2 to 0.5499999999999999
Info: NONBONDED TABLE R-SQUARED SPACING: 0.0625
Info: NONBONDED TABLE SIZE: 705 POINTS
TCL: Running for 1500000 steps
ETITLE: TS BOND ANGLE DIHED IMPRP ELECT VDW BOUNDARY MISC KINETIC TOTAL TEMP POTENTIAL TOTALAVG TEMPAVG PRESSURE GPRESSURE VOLUME PRESSAVG GPRESSAVG
ENERGY: 0 1.3457 10.2863 3.7420 0.0000 -10754.2639 1415.2906 0.0000 0.0000 1820.7355 -7502.8638 305.9218 -9323.5993 -7502.8638 305.9218 -285.2566 -198.6163 30836.2546 -285.2566 -198.6163
ENERGY: 300000 4.0792 8.4149 3.2841 0.0000 -10781.5250 1387.8434 0.0000 0.0000 1698.3549 -7679.5485 285.3593 -9377.9034 -7589.5469 297.5958 -559.1335 -489.3724 30234.8762 -393.2433 -329.6699
ENERGY: 600000 1.9228 7.5940 3.3051 0.0000 -10818.1514 1440.6050 0.0000 0.0000 1785.7524 -7578.9720 300.0439 -9364.7244 -7585.7922 297.8761 191.3157 214.8493 30264.2592 -348.7343 -303.0593
ENERGY: 900000 2.8424 6.3412 3.4141 0.0000 -10853.3079 1456.5938 0.0000 0.0000 1689.5464 -7694.5700 283.8793 -9384.1164 -7590.6551 296.7426 -199.1116 -208.6091 30828.6054 -249.4053 -198.4966
ENERGY: 1200000 3.4686 5.8531 3.4379 0.0000 -10883.8344 1475.3040 0.0000 0.0000 1717.4864 -7678.2843 288.5738 -9395.7707 -7590.7048 296.7057 -23.1346 39.6503 30406.1286 -211.0383 -159.6255
ENERGY: 1500000 3.0014 3.3613 3.3647 0.0000 -10853.9330 1457.8922 0.0000 0.0000 1777.8745 -7608.4388 298.7203 -9386.3133 -7592.2409 296.8995 -149.6450 -56.5553 30829.0145 -222.5318 -166.0846
TCL: Running FEP window  12: Lambda1 0.5499999999999999 Lambda2 0.6    [dLambda 0.050000000000000044]
TCL: Setting parameter firsttimestep to 0
TCL: Setting parameter alchLambda to 0.5499999999999999
Info: NONBONDED TABLE R-SQUARED SPACING: 0.0625
Info: NONBONDED TABLE SIZE: 705 POINTS
TCL: Setting parameter alchLambda2 to 0.6
Info: NONBONDED TABLE R-SQUARED SPACING: 0.0625
Info: NONBONDED TABLE SIZE: 705 POINTS
TCL: Running for 1500000 steps
ETITLE: TS BOND ANGLE DIHED IMPRP ELECT VDW BOUNDARY MISC KINETIC TOTAL TEMP POTENTIAL TOTALAVG TEMPAVG PRESSURE GPRESSURE VOLUME PRESSAVG GPRESSAVG
ENERGY: 0 3.0014 3.3613 3.3647 0.0000 -10853.6775 1457.8809 0.0000 0.0000 1776.9945 -7609.0746 298.5724 -9386.0691 -7609.0746 298.5724 -155.2822 -50.5007 30829.0145 -155.2822 -50.5007
ENERGY: 300000 2.2408 5.9570 4.7056 0.0000 -10875.0417 1477.6208 0.0000 0.0000 1779.5170 -7605.0006 298.9962 -9384.5176 -7590.2406 302.0191 91.4433 165.8520 30698.4024 -156.4202 -102.6454
ENERGY: 600000 0.7106 3.2642 3.4864 0.0000 -10862.5519 1473.5981 0.0000 0.0000 1787.2515 -7594.2412 300.2958 -9381.4926 -7591.8603 301.1287 153.3899 223.1817 30798.5679 -88.3787 -38.9406
ENERGY: 900000 2.5551 5.5311 3.3480 0.0000 -10856.6826 1544.1277 0.0000 0.0000 1829.6043 -7471.5163 307.4119 -9301.1206 -7577.2871 303.1431 931.6502 1023.9975 30841.4370 32.5602 85.2549
ENERGY: 1200000 3.0378 5.8421 3.1442 0.0000 -10822.2581 1383.7009 0.0000 0.0000 1788.0696 -7638.4635 300.4332 -9426.5331 -7577.8249 303.0594 -940.7717 -879.8890 30932.5628 51.1982 101.6919
ENERGY: 1500000 2.0512 4.2912 4.5214 0.0000 -10891.4054 1442.4399 0.0000 0.0000 1775.2268 -7662.8748 298.2754 -9438.1017 -7586.1403 302.7796 -138.7952 -41.9156 30666.7929 96.8478 147.6559
TCL: Running FEP window  13: Lambda1 0.6    Lambda2 0.65   [dLambda 0.050000000000000044]
TCL: Setting parameter firsttimestep to 0
TCL: Setting parameter alchLambda to 0.6
Info: NONBONDED TABLE R-SQUARED SPACING: 0.0625
Info: NONBONDED TABLE SIZE: 705 POINTS
TCL: Setting parameter alchLambda2 to 0.65
Info: NONBONDED TABLE R-SQUARED SPACING: 0.0625
Info: NONBONDED TABLE SIZE: 705 POINTS
TCL: Running for 1500000 steps
ETITLE: TS BOND ANGLE DIHED IMPRP ELECT VDW BOUNDARY MISC KINETIC TOTAL TEMP POTENTIAL TOTALAVG TEMPAVG PRESSURE GPRESSURE VOLUME PRESSAVG GPRESSAVG
ENERGY: 0 2.0513 4.2912 4.5214 0.0000 -10891.4954 1442.2856 0.0000 0.0000 1774.3726 -7663.9734 298.1319 -9438.3460 -7663.9734 298.1319 -118.6415 -36.8732 30666.7929 -118.6415 -36.8732
ENERGY: 300000 1.6177 7.7640 2.5134 0.0000 -10788.2712 1475.5963 0.0000 0.0000 1801.5232 -7499.2565 302.6937 -9300.7797 -7522.1760 303.4377 581.6420 562.0293 30416.7023 58.4636 106.2428
ENERGY: 600000 4.1616 6.8863 3.3158 0.0000 -10852.7436 1511.2995 0.0000 0.0000 1780.3834 -7546.6970 299.1418 -9327.0803 -7547.7486 301.7921 562.5517 596.2287 30609.8671 200.8873 242.4320
ENERGY: 900000 3.5166 6.1842 1.7431 0.0000 -10795.6922 1452.8922 0.0000 0.0000 1789.7008 -7541.6553 300.7073 -9331.3560 -7558.7587 301.2035 -309.4570 -195.9641 31201.1807 242.9344 285.2102
ENERGY: 1200000 1.3110 7.6048 4.6294 0.0000 -10837.2488 1490.2946 0.0000 0.0000 1704.8005 -7628.6086 286.4423 -9333.4090 -7564.7916 299.9938 525.7812 524.7862 30380.1426 337.6491 377.5736
ENERGY: 1500000 2.7573 6.5771 2.5272 0.0000 -10844.7538 1482.9550 0.0000 0.0000 1778.8874 -7571.0498 298.8904 -9349.9372 -7563.6258 300.5457 171.4996 272.6137 30687.3388 289.0106 332.1971
TCL: Running FEP window  14: Lambda1 0.65   Lambda2 0.7000000000000001 [dLambda 0.050000000000000044]
TCL: Setting parameter firsttimestep to 0
TCL: Setting parameter alchLambda to 0.65
Info: NONBONDED TABLE R-SQUARED SPACING: 0.0625
Info: NONBONDED TABLE SIZE: 705 POINTS
TCL: Setting parameter alchLambda2 to 0.7000000000000001
Info: NONBONDED TABLE R-SQUARED SPACING: 0.0625
Info: NONBONDED TABLE SIZE: 705 POINTS
TCL: Running for 1500000 steps
ETITLE: TS BOND ANGLE DIHED IMPRP ELECT VDW BOUNDARY MISC KINETIC TOTAL TEMP POTENTIAL TOTALAVG TEMPAVG PRESSURE GPRESSURE VOLUME PRESSAVG GPRESSAVG
ENERGY: 0 2.7573 6.5771 2.5272 0.0000 -10844.6031 1482.5652 0.0000 0.0000 1777.9949 -7572.1814 298.7405 -9350.1763 -7572.1814 298.7405 199.2711 279.1738 30687.3388 199.2711 279.1738
ENERGY: 300000 1.1086 8.8559 4.3494 0.0000 -10677.1194 1371.5957 0.0000 0.0000 1804.3485 -7486.8613 303.1684 -9291.2098 -7542.3844 299.9746 -723.3784 -614.8099 31277.2124 -75.7627 6.2757
ENERGY: 600000 2.6184 6.3646 2.6003 0.0000 -10790.7074 1459.4683 0.0000 0.0000 1763.6868 -7555.9690 296.3364 -9319.6557 -7565.6240 298.8250 -184.2012 -130.9212 31239.2366 -251.7695 -188.4912
ENERGY: 900000 2.5182 6.0493 3.1970 0.0000 -10766.2550 1443.9702 0.0000 0.0000 1826.0013 -7484.5190 306.8066 -9310.5203 -7558.2899 300.7663 -19.1219 -40.5956 31070.1189 -153.8940 -97.9784
ENERGY: 1200000 1.3371 6.7298 6.0427 0.0000 -10790.4613 1407.1328 0.0000 0.0000 1778.0132 -7591.2058 298.7435 -9369.2190 -7566.4394 300.0462 -544.2532 -462.4541 31109.6223 -98.8973 -42.7981
ENERGY: 1500000 0.9219 5.6162 3.4783 0.0000 -10735.4842 1435.4741 0.0000 0.0000 1780.1114 -7509.8823 299.0961 -9289.9937 -7558.7449 300.7101 5.7281 98.7079 30478.9520 -125.9443 -67.7072
TCL: Running FEP window  15: Lambda1 0.7000000000000001 Lambda2 0.7500000000000001 [dLambda 0.050000000000000044]
TCL: Setting parameter firsttimestep to 0
TCL: Setting parameter alchLambda to 0.7000000000000001
Info: NONBONDED TABLE R-SQUARED SPACING: 0.0625
Info: NONBONDED TABLE SIZE: 705 POINTS
TCL: Setting parameter alchLambda2 to 0.7500000000000001
Info: NONBONDED TABLE R-SQUARED SPACING: 0.0625
Info: NONBONDED TABLE SIZE: 705 POINTS
TCL: Running for 1500000 steps
ETITLE: TS BOND ANGLE DIHED IMPRP ELECT VDW BOUNDARY MISC KINETIC TOTAL TEMP POTENTIAL TOTALAVG TEMPAVG PRESSURE GPRESSURE VOLUME PRESSAVG GPRESSAVG
ENERGY: 0 0.9219 5.6162 3.4783 0.0000 -10736.1955 1435.7181 0.0000 0.0000 1779.2093 -7511.2517 298.9445 -9290.4609 -7511.2517 298.9445 20.5974 107.6695 30478.9520 20.5974 107.6695
ENERGY: 300000 2.8134 5.1696 2.7519 0.0000 -10755.2020 1386.5957 0.0000 0.0000 1741.5339 -7616.3376 292.6143 -9357.8715 -7587.5127 295.9844 -700.3302 -654.1126 31357.0092 -60.0143 9.1624
ENERGY: 600000 2.3151 6.0214 4.1391 0.0000 -10877.1371 1472.9065 0.0000 0.0000 1825.0042 -7566.7509 306.6390 -9391.7550 -7565.4207 298.6353 151.8204 266.2219 30338.3438 -122.5683 -31.3507
ENERGY: 900000 0.4923 7.9573 2.5987 0.0000 -10841.9254 1439.9497 0.0000 0.0000 1794.0613 -7596.8662 301.4400 -9390.9275 -7569.7500 297.5328 -244.0361 -89.9339 30654.7610 -69.1520 22.5518
ENERGY: 1200000 1.5982 6.3104 3.4260 0.0000 -10847.1975 1438.2428 0.0000 0.0000 1796.0840 -7601.5361 301.7798 -9397.6201 -7575.0451 298.2589 -374.4517 -197.5593 30840.9523 -93.7740 -5.6598
ENERGY: 1500000 2.1540 6.8401 1.9675 0.0000 -10759.0513 1473.4992 0.0000 0.0000 1759.4242 -7515.1662 295.6202 -9274.5904 -7567.3092 298.8277 374.8423 496.7504 30575.6341 -13.0802 67.5336
TCL: Running FEP window  16: Lambda1 0.7500000000000001 Lambda2 0.8000000000000002 [dLambda 0.050000000000000044]
TCL: Setting parameter firsttimestep to 0
TCL: Setting parameter alchLambda to 0.7500000000000001
Info: NONBONDED TABLE R-SQUARED SPACING: 0.0625
Info: NONBONDED TABLE SIZE: 705 POINTS
TCL: Setting parameter alchLambda2 to 0.8000000000000002
Info: NONBONDED TABLE R-SQUARED SPACING: 0.0625
Info: NONBONDED TABLE SIZE: 705 POINTS
TCL: Running for 1500000 steps
ETITLE: TS BOND ANGLE DIHED IMPRP ELECT VDW BOUNDARY MISC KINETIC TOTAL TEMP POTENTIAL TOTALAVG TEMPAVG PRESSURE GPRESSURE VOLUME PRESSAVG GPRESSAVG
ENERGY: 0 2.1540 6.8401 1.9675 0.0000 -10759.3008 1473.7565 0.0000 0.0000 1758.5307 -7516.0520 295.4701 -9274.5827 -7516.0520 295.4701 408.8687 508.0060 30575.6341 408.8687 508.0060
ENERGY: 300000 2.6183 4.6526 1.3435 0.0000 -10947.8658 1485.6790 0.0000 0.0000 1799.4777 -7654.0947 302.3500 -9453.5724 -7564.9890 301.2585 -161.9539 -80.9494 30937.8633 20.1096 79.7643
ENERGY: 600000 2.7436 4.8800 1.8771 0.0000 -10754.5171 1411.9366 0.0000 0.0000 1766.7458 -7566.3339 296.8504 -9333.0797 -7573.6206 299.3060 -375.4174 -282.1938 30913.0875 -315.5755 -249.4230
ENERGY: 900000 2.4117 4.4695 2.2175 0.0000 -10851.7923 1503.7154 0.0000 0.0000 1752.3044 -7586.6738 294.4239 -9338.9782 -7562.3446 300.3367 1.7508 72.7782 31289.9149 -301.6220 -230.9498
ENERGY: 1200000 3.5729 8.1795 5.3716 0.0000 -10722.1490 1387.7860 0.0000 0.0000 1808.6715 -7508.5675 303.8948 -9317.2390 -7553.4529 301.1342 -503.2657 -399.2250 30821.9857 -231.1076 -158.6336
ENERGY: 1500000 2.7431 5.0942 1.6184 0.0000 -10868.1399 1540.1286 0.0000 0.0000 1870.1750 -7448.3805 314.2287 -9318.5555 -7550.2103 302.2230 889.0922 954.8876 30674.8331 -162.7666 -91.5923
TCL: Running FEP window  17: Lambda1 0.8000000000000002 Lambda2 0.8500000000000002 [dLambda 0.050000000000000044]
TCL: Setting parameter firsttimestep to 0
TCL: Setting parameter alchLambda to 0.8000000000000002
Info: NONBONDED TABLE R-SQUARED SPACING: 0.0625
Info: NONBONDED TABLE SIZE: 705 POINTS
TCL: Setting parameter alchLambda2 to 0.8500000000000002
Info: NONBONDED TABLE R-SQUARED SPACING: 0.0625
Info: NONBONDED TABLE SIZE: 705 POINTS
TCL: Running for 1500000 steps
ETITLE: TS BOND ANGLE DIHED IMPRP ELECT VDW BOUNDARY MISC KINETIC TOTAL TEMP POTENTIAL TOTALAVG TEMPAVG PRESSURE GPRESSURE VOLUME PRESSAVG GPRESSAVG
ENERGY: 0 2.7431 5.0942 1.6184 0.0000 -10868.3642 1540.1778 0.0000 0.0000 1869.2905 -7449.4401 314.0801 -9318.7307 -7449.4401 314.0801 883.0750 966.3193 30674.8331 883.0750 966.3193
ENERGY: 300000 3.1443 7.2367 1.5145 0.0000 -10860.7798 1430.4025 0.0000 0.0000 1786.8645 -7631.6173 300.2308 -9418.4818 -7550.6821 300.5655 -241.8469 -194.5468 30524.2232 80.4667 153.3062
ENERGY: 600000 2.3687 5.5136 5.1406 0.0000 -10835.8005 1491.3203 0.0000 0.0000 1754.8288 -7576.6286 294.8481 -9331.4574 -7558.4171 299.8997 361.1123 388.4842 30629.6975 51.9034 112.8816
ENERGY: 900000 2.4859 2.5516 0.7960 0.0000 -10850.8601 1438.1158 0.0000 0.0000 1809.3224 -7597.5884 304.0042 -9406.9108 -7562.8362 300.6740 -282.3850 -269.6402 30790.9293 -65.6965 -10.6991
ENERGY: 1200000 2.4986 3.4727 0.8836 0.0000 -10842.2479 1421.0074 0.0000 0.0000 1804.2550 -7610.1306 303.1527 -9414.3855 -7572.1603 300.5192 -367.2753 -340.3269 30776.0153 -38.2757 14.1009
ENERGY: 1500000 6.6722 4.1186 2.1142 0.0000 -10749.5778 1406.7886 0.0000 0.0000 1790.0117 -7539.8724 300.7596 -9329.8841 -7575.9483 299.2673 -383.5883 -366.7660 31084.4889 -60.7156 -16.0575
TCL: Running FEP window  18: Lambda1 0.8500000000000002 Lambda2 0.9000000000000002 [dLambda 0.050000000000000044]
TCL: Setting parameter firsttimestep to 0
TCL: Setting parameter alchLambda to 0.8500000000000002
Info: NONBONDED TABLE R-SQUARED SPACING: 0.0625
Info: NONBONDED TABLE SIZE: 705 POINTS
TCL: Setting parameter alchLambda2 to 0.9000000000000002
Info: NONBONDED TABLE R-SQUARED SPACING: 0.0625
Info: NONBONDED TABLE SIZE: 705 POINTS
TCL: Running for 1500000 steps
ETITLE: TS BOND ANGLE DIHED IMPRP ELECT VDW BOUNDARY MISC KINETIC TOTAL TEMP POTENTIAL TOTALAVG TEMPAVG PRESSURE GPRESSURE VOLUME PRESSAVG GPRESSAVG
ENERGY: 0 6.6723 4.1186 2.1142 0.0000 -10750.1566 1406.9928 0.0000 0.0000 1789.1096 -7541.1492 300.6080 -9330.2588 -7541.1492 300.6080 -435.4601 -353.8806 31084.4889 -435.4601 -353.8806
ENERGY: 300000 2.5791 9.2481 2.8564 0.0000 -10928.2355 1567.1805 0.0000 0.0000 1800.1719 -7546.1995 302.4667 -9346.3715 -7546.4960 298.8311 1012.0756 1128.3957 30262.7174 -89.5787 5.1162
ENERGY: 600000 0.7354 4.5632 1.3577 0.0000 -10912.5161 1529.2007 0.0000 0.0000 1817.8556 -7558.8035 305.4379 -9376.6591 -7578.4805 298.7043 583.7825 656.9682 30495.1578 46.8734 131.9627
ENERGY: 900000 2.9720 10.1541 2.0724 0.0000 -10782.7884 1490.9996 0.0000 0.0000 1776.8591 -7499.7311 298.5496 -9276.5903 -7569.2822 298.3723 438.8314 539.1396 30807.3873 102.0251 181.0345
ENERGY: 1200000 2.9596 4.2281 3.0034 0.0000 -10826.4617 1481.5902 0.0000 0.0000 1804.0219 -7530.6586 303.1136 -9334.6805 -7565.2266 299.5156 258.1205 334.6613 30656.2685 97.1009 173.5373
ENERGY: 1500000 3.4661 5.0806 5.1985 0.0000 -10954.6414 1509.9309 0.0000 0.0000 1783.2096 -7647.7558 299.6167 -9430.9654 -7576.0184 299.8541 65.4863 119.7661 30689.4705 25.7721 102.9256
TCL: Running FEP window  19: Lambda1 0.9000000000000002 Lambda2 0.9500000000000003 [dLambda 0.050000000000000044]
TCL: Setting parameter firsttimestep to 0
TCL: Setting parameter alchLambda to 0.9000000000000002
Info: NONBONDED TABLE R-SQUARED SPACING: 0.0625
Info: NONBONDED TABLE SIZE: 705 POINTS
TCL: Setting parameter alchLambda2 to 0.9500000000000003
Info: NONBONDED TABLE R-SQUARED SPACING: 0.0625
Info: NONBONDED TABLE SIZE: 705 POINTS
TCL: Running for 1500000 steps
ETITLE: TS BOND ANGLE DIHED IMPRP ELECT VDW BOUNDARY MISC KINETIC TOTAL TEMP POTENTIAL TOTALAVG TEMPAVG PRESSURE GPRESSURE VOLUME PRESSAVG GPRESSAVG
ENERGY: 0 3.4661 5.0807 5.1985 0.0000 -10955.1303 1510.1335 0.0000 0.0000 1782.2964 -7648.9553 299.4632 -9431.2517 -7648.9553 299.4632 54.9602 135.5743 30689.4705 54.9602 135.5743
ENERGY: 300000 3.7787 7.6541 2.5979 0.0000 -11022.4491 1565.3487 0.0000 0.0000 1758.6192 -7684.4505 295.4850 -9443.0698 -7594.7137 300.2618 708.9111 818.3401 30371.0370 245.6850 319.7863
ENERGY: 600000 2.1914 9.3604 1.9950 0.0000 -10822.1438 1479.3722 0.0000 0.0000 1814.7181 -7514.5067 304.9107 -9329.2248 -7578.0418 300.8528 217.8026 285.9310 30841.9600 303.5570 367.8277
ENERGY: 900000 2.6942 6.9030 2.5834 0.0000 -10718.7720 1392.7303 0.0000 0.0000 1788.1453 -7525.7158 300.4460 -9313.8611 -7568.7340 300.2346 -555.1699 -520.7831 31113.5235 219.9497 277.2300
ENERGY: 1200000 3.9914 6.8937 2.5988 0.0000 -10951.3184 1545.6853 0.0000 0.0000 1789.9749 -7602.1743 300.7534 -9392.1492 -7569.9839 301.2511 676.8119 722.3200 30410.5807 229.7636 285.4228
ENERGY: 1500000 3.2744 4.8309 3.4437 0.0000 -10716.2658 1406.7893 0.0000 0.0000 1743.5128 -7554.4148 292.9468 -9297.9276 -7575.9236 300.0171 -240.0546 -143.4850 31063.8362 170.8576 229.2103
TCL: Running FEP window  20: Lambda1 0.9500000000000003 Lambda2 1.0    [dLambda 0.04999999999999971]
TCL: Setting parameter firsttimestep to 0
TCL: Setting parameter alchLambda to 0.9500000000000003
Info: NONBONDED TABLE R-SQUARED SPACING: 0.0625
Info: NONBONDED TABLE SIZE: 705 POINTS
TCL: Setting parameter alchLambda2 to 1.0
Info: NONBONDED TABLE R-SQUARED SPACING: 0.0625
Info: NONBONDED TABLE SIZE: 705 POINTS
TCL: Running for 1500000 steps
ETITLE: TS BOND ANGLE DIHED IMPRP ELECT VDW BOUNDARY MISC KINETIC TOTAL TEMP POTENTIAL TOTALAVG TEMPAVG PRESSURE GPRESSURE VOLUME PRESSAVG GPRESSAVG
ENERGY: 0 3.2744 4.8309 3.4437 0.0000 -10716.6494 1407.1486 0.0000 0.0000 1742.5986 -7555.3533 292.7932 -9297.9519 -7555.3533 292.7932 -196.6985 -124.7960 31063.8362 -196.6985 -124.7960
ENERGY: 300000 1.2732 4.4708 0.9783 0.0000 -10904.4697 1455.5434 0.0000 0.0000 1735.5848 -7706.6191 291.6147 -9442.2040 -7583.9795 296.6773 176.7066 325.2492 30230.3911 -75.2163 14.6425
ENERGY: 600000 0.7813 6.6553 2.3546 0.0000 -10861.5927 1495.8319 0.0000 0.0000 1803.4569 -7552.5127 303.0186 -9355.9697 -7579.6892 297.6128 178.7558 255.4271 30967.4881 -164.5267 -94.4064
ENERGY: 900000 0.8811 6.8508 1.9165 0.0000 -10675.9324 1400.9462 0.0000 0.0000 1763.9550 -7501.3827 296.3815 -9265.3378 -7575.4559 297.7392 -165.9057 -98.5117 31022.8664 -136.7421 -66.5928
ENERGY: 1200000 1.3305 4.6088 2.3784 0.0000 -10743.0677 1381.6529 0.0000 0.0000 1782.9088 -7570.1884 299.5661 -9353.0972 -7584.4314 298.1498 -238.7084 -186.6360 30494.4834 -135.8100 -64.1373
ENERGY: 1500000 5.1983 5.5526 0.8889 0.0000 -10790.7701 1438.0740 0.0000 0.0000 1794.7064 -7546.3500 301.5484 -9341.0564 -7590.6625 297.7717 -145.7193 -142.1398 30979.3803 -144.5076 -78.0091
TCL: Exiting due to exit command.
