Info: SIMULATION PARAMETERS:
Info: TIMESTEP               2
Info: NUMBER OF STEPS        0
Info: STEPS PER CYCLE        10
Info: PERIODIC CELL BASIS 1  31.8743 0 0
Info: PERIODIC CELL BASIS 2  0 30.0988 0
Info: PERIODIC CELL BASIS 3  0 0 31.8023
Info: PERIODIC CELL CENTER   0 0 0
Info: WRAPPING WATERS AROUND PERIODIC BOUNDARIES ON OUTPUT.
Info: WRAPPING ALL CLUSTERS AROUND PERIODIC BOUNDARIES ON OUTPUT.
Info: FIRST LDB TIMESTEP     50
Info: LAST LDB TIMESTEP     -1
Info: HOM BACKGROUND SCALING 1
Info: PME BACKGROUND SCALING 1
Info: MIN ATOMS PER PATCH    40
Info: EMPTY PATCH LOAD       40 ATOMS
Info: VELOCITY FILE          mobley_7066554_equil.vel
Info: CENTER OF MASS MOVING INITIALLY? NO
Info: DIELECTRIC             1
Info: EXCLUDE                SCALED ONE-FOUR
Info: 1-4 ELECTROSTATICS SCALED BY 0.833333
Info: MODIFIED 1-4 VDW PARAMETERS WILL BE USED
Info: DCD FILENAME           mobley_7066554_prod.dcd
Info: DCD FREQUENCY          100000
Info: DCD FIRST STEP         100000
Info: DCD FILE WILL CONTAIN UNIT CELL DATA
Info: XST FILENAME           mobley_7066554_prod.xst
Info: XST FREQUENCY          100000
Info: NO VELOCITY DCD OUTPUT
Info: NO FORCE DCD OUTPUT
Info: OUTPUT FILENAME        mobley_7066554_prod
Info: BINARY OUTPUT FILES WILL BE USED
Info: RESTART FILENAME       mobley_7066554_prod.restart
Info: RESTART FREQUENCY      100000
Info: BINARY RESTART FILES WILL BE USED
Info: CUTOFF                 9
Info: PAIRLIST DISTANCE      11
Info: PAIRLIST SHRINK RATE   0.01
Info: PAIRLIST GROW RATE     0.01
Info: PAIRLIST TRIGGER       0.3
Info: PAIRLISTS PER CYCLE    2
Info: PAIRLISTS ENABLED
Info: MARGIN                 2
Info: HYDROGEN GROUP CUTOFF  2.5
Info: PATCH DIMENSION        15.5
Info: ENERGY OUTPUT STEPS    100000
Info: ENERGY EVALUATION STEPS    100000
Info: OUTPUT ENERGY PRECISION 4
Info: CROSSTERM ENERGY INCLUDED IN DIHEDRAL
Info: TIMING OUTPUT STEPS    1000000
Info: PRESSURE OUTPUT STEPS  100000
Info: ALCHEMICAL FEP ON
Info: FEP CURRENT LAMBDA VALUE     0
Info: FEP COMPARISON LAMBDA VALUE  0.05
Info: FEP INTRA-ALCHEMICAL NON-BONDED INTERACTIONS WILL BE RETAINED
Info: FEP INTRA-ALCHEMICAL BONDED INTERACTIONS WILL BE RETAINED
Info: FEP VDW SHIFTING COEFFICIENT 5
Info: FEP ELEC. ACTIVE FOR ANNIHILATED PARTICLES BETWEEN LAMBDA = 0 AND LAMBDA = 0.5
Info: FEP ELEC. ACTIVE FOR EXNIHILATED PARTICLES BETWEEN LAMBDA = 0.5 AND LAMBDA = 1
Info: FEP VDW ACTIVE FOR ANNIHILATED PARTICLES BETWEEN LAMBDA = 0 AND LAMBDA = 1
Info: FEP VDW ACTIVE FOR EXNIHILATED PARTICLES BETWEEN LAMBDA = 0 AND LAMBDA = 1
Info: FEP BOND ACTIVE FOR ANNIHILATED PARTICLES BETWEEN LAMBDA = 1 AND LAMBDA = 1
Info: FEP BOND ACTIVE FOR EXNIHILATED PARTICLES BETWEEN LAMBDA = 0 AND LAMBDA = 0
Info: LANGEVIN DYNAMICS ACTIVE
Info: LANGEVIN TEMPERATURE   300
Info: LANGEVIN USING BBK INTEGRATOR
Info: LANGEVIN DAMPING COEFFICIENT IS 1 INVERSE PS
Info: LANGEVIN DYNAMICS APPLIED TO HYDROGENS
Info: LANGEVIN PISTON PRESSURE CONTROL ACTIVE
Info:        TARGET PRESSURE IS 1.01325 BAR
Info:     OSCILLATION PERIOD IS 50 FS
Info:             DECAY TIME IS 25 FS
Info:     PISTON TEMPERATURE IS 300 K
Info:       PRESSURE CONTROL IS GROUP-BASED
Info:    INITIAL STRAIN RATE IS 0.000228396 0.000228396 0.000228396
Info:       CELL FLUCTUATION IS ISOTROPIC
Info: PARTICLE MESH EWALD (PME) ACTIVE
Info: PME TOLERANCE               1e-06
Info: PME EWALD COEFFICIENT       0.348832
Info: PME INTERPOLATION ORDER     4
Info: PME GRID DIMENSIONS         32 32 32
Info: PME MAXIMUM GRID SPACING    1
Info: PME CALCULATION WILL BE PERFORMED ON GPU
Info: FULL ELECTROSTATIC EVALUATION FREQUENCY      2
Info: USING VERLET I (r-RESPA) MTS SCHEME.
Info: C1 SPLITTING OF LONG RANGE ELECTROSTATICS
Info: PLACING ATOMS IN PATCHES BY HYDROGEN GROUPS
Info: RIGID BONDS TO HYDROGEN : ALL
Info:         ERROR TOLERANCE : 1e-08
Info:          MAX ITERATIONS : 100
Info: RIGID WATER USING SETTLE ALGORITHM
Info: RANDOM NUMBER SEED     1743550364
Info: USE HYDROGEN BONDS?    NO
Info: Using AMBER format force field!
Info: AMBER PARM FILE        mobley_7066554.prmtop
Info: COORDINATE PDB         mobley_7066554.pdb
Info: Exclusions will be read from PARM file!
Info: SCNB (VDW SCALING)     2
Info: USING ARITHMETIC MEAN TO COMBINE L-J SIGMA PARAMETERS
Info: BINARY COORDINATES     mobley_7066554_equil.coor
Info: SUMMARY OF PARAMETERS:
Info: 7 BONDS
Info: 5 ANGLES
Info:   5 HARMONIC
Info:   0 COSINE-BASED
Info: 3 DIHEDRAL
Info: 0 IMPROPER
Info: 0 CROSSTERM
Info: 0 VDW
Info: 21 VDW_PAIRS
Info: 0 NBTHOLE_PAIRS
Info: To read alchdata from file: mobley_7066554.pdb
Info: To read alchflag data from column: 5
Info: STRUCTURE SUMMARY:
Info: 2989 ATOMS
Info: 2989 BONDS
Info: 19 ANGLES
Info: 32 DIHEDRALS
Info: 0 IMPROPERS
Info: 0 CROSSTERMS
Info: 3031 EXCLUSIONS
Info: 2981 RIGID BONDS
Info: ALCH: 0 ATOMS TO DISAPPEAR IN FINAL STATE
Info: ALCH: 13 ATOMS TO APPEAR IN FINAL STATE
Info: 5986 DEGREES OF FREEDOM
Info: 1000 HYDROGEN GROUPS
Info: 3 ATOMS IN LARGEST HYDROGEN GROUP
Info: 1000 MIGRATION GROUPS
Info: 3 ATOMS IN LARGEST MIGRATION GROUP
Info: TOTAL MASS = 18000.4 amu
Info: TOTAL CHARGE = -0.000200016 e
Info: MASS DENSITY = 0.9797 g/cm^3
Info: ATOM DENSITY = 0.0979663 atoms/A^3
Info: ADDED 0 IMPLICIT EXCLUSIONS
Info: NONBONDED TABLE R-SQUARED SPACING: 0.0625
Info: NONBONDED TABLE SIZE: 705 POINTS
Info: REMOVING COM VELOCITY 0.125728 -0.0204913 -0.119212
Info: Use 3D box decompostion in PME FFT.
Info: Updated CUDA force table with 4096 elements.
Info: Updated CUDA LJ table with 6 x 6 elements.
Info: Found 15 unique exclusion lists needing 28 bytes
TCL: Running for 1500000 steps
ETITLE: TS BOND ANGLE DIHED IMPRP ELECT VDW BOUNDARY MISC KINETIC TOTAL TEMP POTENTIAL TOTALAVG TEMPAVG PRESSURE GPRESSURE VOLUME PRESSAVG GPRESSAVG
ENERGY: 0 1.5064 4.0625 1.2310 0.0000 -10916.6849 1514.7326 0.0000 0.0000 1803.3083 -7591.8441 303.1961 -9395.1524 -7591.8441 303.1961 597.4914 691.1726 30510.4767 597.4914 691.1726
ENERGY: 300000 1.7463 1.2924 0.3455 0.0000 -10823.9983 1396.0864 0.0000 0.0000 1745.0006 -7679.5271 293.3927 -9424.5277 -7620.1088 300.0845 -505.6154 -406.2805 30253.1619 -220.9539 -149.9364
ENERGY: 600000 4.9123 6.3109 3.6956 0.0000 -10913.6117 1525.3533 0.0000 0.0000 1781.7872 -7591.5525 299.5777 -9373.3397 -7592.9648 299.9534 328.5736 392.5055 30495.6500 21.2645 80.0081
ENERGY: 900000 1.7684 2.2650 3.1352 0.0000 -10879.0679 1490.3849 0.0000 0.0000 1789.8628 -7591.6515 300.9355 -9381.5144 -7594.1645 300.6182 103.2770 144.5919 30803.6225 -78.7525 -17.2315
ENERGY: 1200000 4.3027 3.1885 1.8246 0.0000 -10808.2239 1421.0681 0.0000 0.0000 1807.9213 -7569.9187 303.9717 -9377.8401 -7599.8905 300.0754 -285.5632 -214.9615 30730.3146 -79.9600 -12.8806
ENERGY: 1500000 2.5791 2.5555 3.5742 0.0000 -10901.4889 1457.5264 0.0000 0.0000 1771.1114 -7664.1422 297.7828 -9435.2536 -7593.1147 300.6721 -286.0926 -191.2267 30701.1932 -98.2768 -32.1033
TCL: Running FEP window   2: Lambda1 0.05   Lambda2 0.1    [dLambda 0.05  ]
TCL: Setting parameter firsttimestep to 0
TCL: Setting parameter alchLambda to 0.05
Info: NONBONDED TABLE R-SQUARED SPACING: 0.0625
Info: NONBONDED TABLE SIZE: 705 POINTS
TCL: Setting parameter alchLambda2 to 0.1
Info: NONBONDED TABLE R-SQUARED SPACING: 0.0625
Info: NONBONDED TABLE SIZE: 705 POINTS
TCL: Running for 1500000 steps
ETITLE: TS BOND ANGLE DIHED IMPRP ELECT VDW BOUNDARY MISC KINETIC TOTAL TEMP POTENTIAL TOTALAVG TEMPAVG PRESSURE GPRESSURE VOLUME PRESSAVG GPRESSAVG
ENERGY: 0 2.5791 2.5555 3.5742 0.0000 -10901.4892 1461.6905 0.0000 0.0000 1770.2433 -7660.8467 297.6368 -9431.0899 -7660.8467 297.6368 -273.3702 -183.8366 30701.1932 -273.3702 -183.8366
ENERGY: 300000 1.4893 3.1247 1.9831 0.0000 -10873.9087 1449.5307 0.0000 0.0000 1770.9330 -7646.8479 297.7528 -9417.7809 -7633.7239 298.0550 119.6309 166.3535 30020.1034 -125.3226 -62.7719
ENERGY: 600000 4.0494 3.0385 2.6624 0.0000 -10921.5420 1496.9523 0.0000 0.0000 1804.6369 -7610.2024 303.4195 -9414.8393 -7595.9857 300.4368 457.4487 482.2507 30321.4343 93.2867 149.5481
ENERGY: 900000 2.5052 6.6715 0.9716 0.0000 -10823.4577 1469.2875 0.0000 0.0000 1735.7981 -7608.2239 291.8454 -9344.0220 -7603.1078 300.2767 89.9498 151.1262 30539.9177 28.1162 86.2639
ENERGY: 1200000 1.6050 1.3784 4.7279 0.0000 -10946.5311 1541.2570 0.0000 0.0000 1752.8952 -7644.6676 294.7200 -9397.5627 -7603.5812 299.6109 744.2247 802.0763 30440.3669 168.2991 232.0795
ENERGY: 1500000 4.7819 2.8323 3.1951 0.0000 -10945.5525 1498.5413 0.0000 0.0000 1803.1248 -7633.0771 303.1653 -9436.2019 -7606.7566 300.0341 141.6953 151.5252 30674.6965 124.1028 184.9656
TCL: Running FEP window   3: Lambda1 0.1    Lambda2 0.15000000000000002 [dLambda 0.05000000000000002]
TCL: Setting parameter firsttimestep to 0
TCL: Setting parameter alchLambda to 0.1
Info: NONBONDED TABLE R-SQUARED SPACING: 0.0625
Info: NONBONDED TABLE SIZE: 705 POINTS
TCL: Setting parameter alchLambda2 to 0.15000000000000002
Info: NONBONDED TABLE R-SQUARED SPACING: 0.0625
Info: NONBONDED TABLE SIZE: 705 POINTS
TCL: Running for 1500000 steps
ETITLE: TS BOND ANGLE DIHED IMPRP ELECT VDW BOUNDARY MISC KINETIC TOTAL TEMP POTENTIAL TOTALAVG TEMPAVG PRESSURE GPRESSURE VOLUME PRESSAVG GPRESSAVG
ENERGY: 0 4.7819 2.8323 3.1951 0.0000 -10945.5519 1499.1037 0.0000 0.0000 1802.2346 -7633.4043 303.0156 -9435.6389 -7633.4043 303.0156 78.6685 155.6742 30674.6965 78.6685 155.6742
ENERGY: 300000 3.5188 2.6214 1.3774 0.0000 -10711.2827 1398.8029 0.0000 0.0000 1769.6372 -7535.3251 297.5349 -9304.9623 -7568.3505 299.1438 -509.0378 -427.7106 30782.1847 -357.7898 -295.9229
ENERGY: 600000 4.9671 2.9198 2.6819 0.0000 -10972.7537 1552.5215 0.0000 0.0000 1763.5986 -7646.0649 296.5196 -9409.6635 -7567.7190 300.5979 574.0392 605.1381 30762.4538 -183.3635 -134.9773
ENERGY: 900000 3.2036 4.6602 3.5950 0.0000 -10849.3650 1474.9990 0.0000 0.0000 1807.9114 -7554.9958 303.9701 -9362.9072 -7562.7361 302.0376 180.3120 265.3815 30528.0130 -153.8407 -106.1990
ENERGY: 1200000 1.7320 2.3430 2.5636 0.0000 -10868.9708 1504.7213 0.0000 0.0000 1831.2274 -7526.3835 307.8903 -9357.6110 -7573.7383 301.5821 491.5151 543.1101 30677.4221 -58.5965 -9.4627
ENERGY: 1500000 3.7423 3.3339 3.1221 0.0000 -10819.3819 1423.3118 0.0000 0.0000 1782.9524 -7602.9194 299.7736 -9385.8718 -7576.3594 301.4795 -379.6673 -313.1908 30658.5115 -44.7721 10.3701
TCL: Running FEP window   4: Lambda1 0.15000000000000002 Lambda2 0.2    [dLambda 0.04999999999999999]
TCL: Setting parameter firsttimestep to 0
TCL: Setting parameter alchLambda to 0.15000000000000002
Info: NONBONDED TABLE R-SQUARED SPACING: 0.0625
Info: NONBONDED TABLE SIZE: 705 POINTS
TCL: Setting parameter alchLambda2 to 0.2
Info: NONBONDED TABLE R-SQUARED SPACING: 0.0625
Info: NONBONDED TABLE SIZE: 705 POINTS
TCL: Running for 1500000 steps
ETITLE: TS BOND ANGLE DIHED IMPRP ELECT VDW BOUNDARY MISC KINETIC TOTAL TEMP POTENTIAL TOTALAVG TEMPAVG PRESSURE GPRESSURE VOLUME PRESSAVG GPRESSAVG
ENERGY: 0 3.7424 3.3339 3.1221 0.0000 -10819.3831 1423.9275 0.0000 0.0000 1782.1047 -7603.1525 299.6311 -9385.2572 -7603.1525 299.6311 -379.2461 -307.5378 30658.5115 -379.2461 -307.5378
ENERGY: 300000 8.4232 4.0180 3.0776 0.0000 -10989.3148 1517.0577 0.0000 0.0000 1726.8620 -7729.8762 290.3430 -9456.7383 -7619.2320 297.9067 302.0535 323.4491 30473.1145 -178.7295 -148.3684
ENERGY: 600000 4.0180 3.8638 2.4581 0.0000 -10821.2323 1505.4220 0.0000 0.0000 1731.3832 -7574.0872 291.1031 -9305.4704 -7617.3848 297.7544 522.3238 577.9634 31077.9973 154.7754 197.9921
ENERGY: 900000 3.8574 6.8152 2.7222 0.0000 -10969.8578 1543.3401 0.0000 0.0000 1876.2191 -7536.9038 315.4549 -9413.1229 -7607.2968 300.5677 603.2768 671.6491 30886.5282 231.2820 274.2606
ENERGY: 1200000 2.5160 4.0331 2.7647 0.0000 -10884.5976 1493.4368 0.0000 0.0000 1766.1396 -7615.7075 296.9468 -9381.8471 -7605.3404 300.2079 262.9859 307.5456 30758.5191 232.2033 273.4952
ENERGY: 1500000 1.3994 2.2521 5.1483 0.0000 -10767.9466 1409.4903 0.0000 0.0000 1797.6269 -7552.0296 302.2409 -9349.6565 -7601.0248 299.8527 -363.0693 -282.4531 30544.2327 225.1067 266.8722
TCL: Running FEP window   5: Lambda1 0.2    Lambda2 0.25   [dLambda 0.04999999999999999]
TCL: Setting parameter firsttimestep to 0
TCL: Setting parameter alchLambda to 0.2
Info: NONBONDED TABLE R-SQUARED SPACING: 0.0625
Info: NONBONDED TABLE SIZE: 705 POINTS
TCL: Setting parameter alchLambda2 to 0.25
Info: NONBONDED TABLE R-SQUARED SPACING: 0.0625
Info: NONBONDED TABLE SIZE: 705 POINTS
TCL: Running for 1500000 steps
ETITLE: TS BOND ANGLE DIHED IMPRP ELECT VDW BOUNDARY MISC KINETIC TOTAL TEMP POTENTIAL TOTALAVG TEMPAVG PRESSURE GPRESSURE VOLUME PRESSAVG GPRESSAVG
ENERGY: 0 1.3994 2.2521 5.1483 0.0000 -10767.9470 1409.6049 0.0000 0.0000 1796.7436 -7552.7986 302.0924 -9349.5422 -7552.7986 302.0924 -358.8284 -279.1290 30544.2327 -358.8284 -279.1290
ENERGY: 300000 2.9811 2.7806 1.8680 0.0000 -10770.6261 1361.8807 0.0000 0.0000 1723.2252 -7677.8905 289.7315 -9401.1157 -7613.1201 296.6561 -735.2742 -641.3740 30420.8085 -201.8710 -148.8115
ENERGY: 600000 1.8808 4.9988 0.8219 0.0000 -10936.5936 1534.9750 0.0000 0.0000 1752.2033 -7641.7137 294.6037 -9393.9170 -7627.7727 295.8385 586.1757 659.7374 30619.4861 -229.5962 -166.0924
ENERGY: 900000 0.9332 3.2503 1.6814 0.0000 -10840.8370 1425.8941 0.0000 0.0000 1727.4106 -7681.6674 290.4352 -9409.0780 -7620.7765 296.5851 -296.0285 -288.6209 30722.9133 -230.7268 -170.9634
ENERGY: 1200000 1.3724 1.9078 2.8872 0.0000 -10748.4071 1314.2031 0.0000 0.0000 1752.4290 -7675.6077 294.6416 -9428.0367 -7620.2147 296.4857 -1359.1371 -1279.8165 31045.4679 -278.2366 -223.4797
ENERGY: 1500000 2.9086 6.1988 1.9457 0.0000 -11016.4229 1585.7542 0.0000 0.0000 1821.4652 -7598.1504 306.2489 -9419.6155 -7611.2182 297.5477 891.8660 1000.0862 30209.5972 -167.6800 -111.9032
TCL: Running FEP window   6: Lambda1 0.25   Lambda2 0.3    [dLambda 0.04999999999999999]
TCL: Setting parameter firsttimestep to 0
TCL: Setting parameter alchLambda to 0.25
Info: NONBONDED TABLE R-SQUARED SPACING: 0.0625
Info: NONBONDED TABLE SIZE: 705 POINTS
TCL: Setting parameter alchLambda2 to 0.3
Info: NONBONDED TABLE R-SQUARED SPACING: 0.0625
Info: NONBONDED TABLE SIZE: 705 POINTS
TCL: Running for 1500000 steps
ETITLE: TS BOND ANGLE DIHED IMPRP ELECT VDW BOUNDARY MISC KINETIC TOTAL TEMP POTENTIAL TOTALAVG TEMPAVG PRESSURE GPRESSURE VOLUME PRESSAVG GPRESSAVG
ENERGY: 0 2.9086 6.1988 1.9457 0.0000 -11016.4231 1586.1127 0.0000 0.0000 1820.5653 -7598.6920 306.0976 -9419.2573 -7598.6920 306.0976 920.9681 1005.2663 30209.5972 920.9681 1005.2663
ENERGY: 300000 1.4874 4.8162 0.8727 0.0000 -10928.8232 1446.5563 0.0000 0.0000 1824.8683 -7650.2222 306.8211 -9475.0906 -7598.0845 307.6431 -306.0338 -258.7413 30820.5695 516.7379 596.3626
ENERGY: 600000 2.2206 1.8949 2.0306 0.0000 -10826.6722 1437.1010 0.0000 0.0000 1798.7728 -7584.6523 302.4336 -9383.4251 -7601.9008 304.1301 -300.5838 -283.6263 30897.1007 352.1557 412.9149
ENERGY: 900000 3.8534 1.2300 2.0027 0.0000 -10749.0757 1391.9748 0.0000 0.0000 1791.5787 -7558.4361 301.2240 -9350.0148 -7601.7420 302.6748 -229.0230 -182.7533 30629.8551 111.1564 171.2278
ENERGY: 1200000 3.8504 1.4346 1.8285 0.0000 -10910.3149 1465.9355 0.0000 0.0000 1716.0383 -7721.2275 288.5231 -9437.2658 -7614.2715 301.1084 -252.4007 -181.3808 30780.6852 21.1852 84.8047
ENERGY: 1500000 3.2048 1.8746 2.4998 0.0000 -10979.2423 1554.5225 0.0000 0.0000 1747.7053 -7669.4355 293.8474 -9417.1408 -7614.0526 300.1458 733.6717 813.5438 30189.1107 86.7815 152.6942
TCL: Running FEP window   7: Lambda1 0.3    Lambda2 0.35   [dLambda 0.04999999999999999]
TCL: Setting parameter firsttimestep to 0
TCL: Setting parameter alchLambda to 0.3
Info: NONBONDED TABLE R-SQUARED SPACING: 0.0625
Info: NONBONDED TABLE SIZE: 705 POINTS
TCL: Setting parameter alchLambda2 to 0.35
Info: NONBONDED TABLE R-SQUARED SPACING: 0.0625
Info: NONBONDED TABLE SIZE: 705 POINTS
TCL: Running for 1500000 steps
ETITLE: TS BOND ANGLE DIHED IMPRP ELECT VDW BOUNDARY MISC KINETIC TOTAL TEMP POTENTIAL TOTALAVG TEMPAVG PRESSURE GPRESSURE VOLUME PRESSAVG GPRESSAVG
ENERGY: 0 3.2048 1.8746 2.4997 0.0000 -10979.2430 1555.2294 0.0000 0.0000 1746.8425 -7669.5920 293.7024 -9416.4345 -7669.5920 293.7024 743.4543 826.0475 30189.1107 743.4543 826.0475
ENERGY: 300000 3.6768 2.2286 4.5372 0.0000 -10889.5563 1475.6222 0.0000 0.0000 1764.5296 -7638.9618 296.6761 -9403.4915 -7608.3455 299.2138 353.2729 479.8975 30524.8128 342.7266 418.3255
ENERGY: 600000 0.8703 2.4212 2.7304 0.0000 -10752.2250 1411.9799 0.0000 0.0000 1703.2183 -7631.0049 286.3677 -9334.2232 -7604.4265 297.4586 -266.6211 -202.2423 30849.5421 181.5817 257.2166
ENERGY: 900000 2.9798 2.5448 1.9897 0.0000 -10891.2406 1438.6631 0.0000 0.0000 1785.0683 -7659.9950 300.1294 -9445.0633 -7611.7832 297.2561 -464.4186 -439.5930 30641.5578 71.5717 143.5782
ENERGY: 1200000 3.2949 0.9860 3.3871 0.0000 -10759.2182 1328.7766 0.0000 0.0000 1761.9409 -7660.8326 296.2409 -9422.7735 -7611.7459 297.0522 -1068.6364 -1069.5497 30934.1843 -56.8524 7.2339
ENERGY: 1500000 1.4546 3.5223 2.2135 0.0000 -11008.0748 1617.7205 0.0000 0.0000 1771.0870 -7612.0769 297.7787 -9383.1639 -7608.7129 297.5970 1212.8810 1242.7078 30506.5232 51.1993 109.3036
TCL: Running FEP window   8: Lambda1 0.35   Lambda2 0.39999999999999997 [dLambda 0.04999999999999999]
TCL: Setting parameter firsttimestep to 0
TCL: Setting parameter alchLambda to 0.35
Info: NONBONDED TABLE R-SQUARED SPACING: 0.0625
Info: NONBONDED TABLE SIZE: 705 POINTS
TCL: Setting parameter alchLambda2 to 0.39999999999999997
Info: NONBONDED TABLE R-SQUARED SPACING: 0.0625
Info: NONBONDED TABLE SIZE: 705 POINTS
TCL: Running for 1500000 steps
ETITLE: TS BOND ANGLE DIHED IMPRP ELECT VDW BOUNDARY MISC KINETIC TOTAL TEMP POTENTIAL TOTALAVG TEMPAVG PRESSURE GPRESSURE VOLUME PRESSAVG GPRESSAVG
ENERGY: 0 1.4546 3.5223 2.2135 0.0000 -11008.0752 1620.4756 0.0000 0.0000 1770.2164 -7610.1927 297.6323 -9380.4091 -7610.1927 297.6323 1183.4348 1263.2527 30506.5232 1183.4348 1263.2527
ENERGY: 300000 3.9605 2.3577 4.5146 0.0000 -10653.9654 1365.4675 0.0000 0.0000 1822.8332 -7454.8319 306.4789 -9277.6651 -7589.9319 299.9588 -518.6234 -494.6244 30865.0658 203.5943 272.3514
ENERGY: 600000 1.6106 6.4820 3.1475 0.0000 -10922.2846 1509.5780 0.0000 0.0000 1784.9953 -7616.4712 300.1171 -9401.4666 -7613.5903 299.4095 349.3355 418.0702 30318.7807 124.7178 193.1244
ENERGY: 900000 1.8490 4.1245 4.2402 0.0000 -10881.7957 1448.2585 0.0000 0.0000 1781.9093 -7641.4142 299.5982 -9423.3235 -7621.1511 299.3175 -142.7635 -94.8927 30628.0238 27.7466 93.5036
ENERGY: 1200000 0.4614 4.3233 4.7307 0.0000 -10750.8695 1373.8970 0.0000 0.0000 1824.0617 -7543.3954 306.6855 -9367.4571 -7627.3484 298.8916 -619.3919 -564.1712 30775.4047 49.0183 108.4872
ENERGY: 1500000 2.0852 2.4630 2.4664 0.0000 -10863.8917 1444.9022 0.0000 0.0000 1754.5698 -7657.4051 295.0016 -9411.9749 -7623.4476 299.7351 -318.2445 -271.2325 30667.2228 30.0398 83.2825
TCL: Running FEP window   9: Lambda1 0.39999999999999997 Lambda2 0.44999999999999996 [dLambda 0.04999999999999999]
TCL: Setting parameter firsttimestep to 0
TCL: Setting parameter alchLambda to 0.39999999999999997
Info: NONBONDED TABLE R-SQUARED SPACING: 0.0625
Info: NONBONDED TABLE SIZE: 705 POINTS
TCL: Setting parameter alchLambda2 to 0.44999999999999996
Info: NONBONDED TABLE R-SQUARED SPACING: 0.0625
Info: NONBONDED TABLE SIZE: 705 POINTS
TCL: Running for 1500000 steps
ETITLE: TS BOND ANGLE DIHED IMPRP ELECT VDW BOUNDARY MISC KINETIC TOTAL TEMP POTENTIAL TOTALAVG TEMPAVG PRESSURE GPRESSURE VOLUME PRESSAVG GPRESSAVG
ENERGY: 0 2.0852 2.4630 2.4664 0.0000 -10863.8918 1445.1733 0.0000 0.0000 1753.6938 -7658.0101 294.8543 -9411.7038 -7658.0101 294.8543 -351.0540 -264.8656 30667.2228 -351.0540 -264.8656
ENERGY: 300000 1.2754 7.7593 6.8776 0.0000 -10799.3435 1418.4221 0.0000 0.0000 1778.2981 -7586.7111 298.9911 -9365.0092 -7605.4837 298.3085 -471.0246 -366.7198 31071.5791 127.9460 200.5338
ENERGY: 600000 4.5481 1.9629 5.2371 0.0000 -10772.6983 1458.8027 0.0000 0.0000 1785.1960 -7516.9514 300.1509 -9302.1475 -7593.5536 298.8099 -43.4151 9.2623 31031.1261 220.4339 278.9137
ENERGY: 900000 1.0473 1.4999 0.9280 0.0000 -10750.4571 1372.6347 0.0000 0.0000 1759.3505 -7614.9967 295.8054 -9374.3472 -7602.9807 297.6932 -978.6807 -893.5271 30949.0173 -98.4594 -35.8803
ENERGY: 1200000 2.6344 4.2564 3.8129 0.0000 -10824.0534 1522.5098 0.0000 0.0000 1736.9259 -7553.9139 292.0350 -9290.8398 -7600.9467 296.7385 738.8146 795.9735 30993.9750 -57.7458 -0.3503
ENERGY: 1500000 1.0912 2.3922 0.8200 0.0000 -10949.0145 1509.5195 0.0000 0.0000 1759.2744 -7675.9171 295.7926 -9435.1916 -7604.5031 297.0290 382.4447 424.5110 30449.2738 -17.0188 42.2987
TCL: Running FEP window  10: Lambda1 0.44999999999999996 Lambda2 0.49999999999999994 [dLambda 0.04999999999999999]
TCL: Setting parameter firsttimestep to 0
TCL: Setting parameter alchLambda to 0.44999999999999996
Info: NONBONDED TABLE R-SQUARED SPACING: 0.0625
Info: NONBONDED TABLE SIZE: 705 POINTS
TCL: Setting parameter alchLambda2 to 0.49999999999999994
Info: NONBONDED TABLE R-SQUARED SPACING: 0.0625
Info: NONBONDED TABLE SIZE: 705 POINTS
TCL: Running for 1500000 steps
ETITLE: TS BOND ANGLE DIHED IMPRP ELECT VDW BOUNDARY MISC KINETIC TOTAL TEMP POTENTIAL TOTALAVG TEMPAVG PRESSURE GPRESSURE VOLUME PRESSAVG GPRESSAVG
ENERGY: 0 1.0912 2.3922 0.8200 0.0000 -10949.0157 1510.7576 0.0000 0.0000 1758.3722 -7675.5824 295.6409 -9433.9546 -7675.5824 295.6409 351.0001 438.2011 30449.2738 351.0001 438.2011
ENERGY: 300000 1.9945 6.2499 3.1629 0.0000 -10949.3764 1503.7366 0.0000 0.0000 1808.2251 -7626.0075 304.0228 -9434.2325 -7607.1553 300.2893 188.3270 188.5528 30984.0256 -54.5421 -0.5448
ENERGY: 600000 5.2886 1.3219 2.7648 0.0000 -10964.6306 1554.4004 0.0000 0.0000 1701.7125 -7699.1423 286.1145 -9400.8548 -7611.2954 298.1013 830.4789 861.8048 30355.0609 209.9836 265.4415
ENERGY: 900000 2.3372 4.3245 3.2783 0.0000 -10840.4419 1529.3746 0.0000 0.0000 1825.8398 -7475.2876 306.9844 -9301.1274 -7599.3301 299.0690 475.4607 554.9084 30931.7738 188.6847 237.6864
ENERGY: 1200000 2.7478 4.4006 0.5960 0.0000 -10805.9145 1483.3242 0.0000 0.0000 1811.2625 -7503.5833 304.5335 -9314.8458 -7593.2508 299.9571 390.4781 405.1343 30776.0464 143.1182 190.4913
ENERGY: 1500000 1.8703 0.9361 1.8345 0.0000 -10937.6741 1513.3835 0.0000 0.0000 1828.6785 -7590.9713 307.4617 -9419.6498 -7588.5503 300.5445 340.3904 468.3051 30658.7463 200.0729 250.0038
TCL: Running FEP window  11: Lambda1 0.49999999999999994 Lambda2 0.5499999999999999 [dLambda 0.04999999999999999]
TCL: Setting parameter firsttimestep to 0
TCL: Setting parameter alchLambda to 0.49999999999999994
Info: NONBONDED TABLE R-SQUARED SPACING: 0.0625
Info: NONBONDED TABLE SIZE: 705 POINTS
TCL: Setting parameter alchLambda2 to 0.5499999999999999
Info: NONBONDED TABLE R-SQUARED SPACING: 0.0625
Info: NONBONDED TABLE SIZE: 705 POINTS
TCL: Running for 1500000 steps
ETITLE: TS BOND ANGLE DIHED IMPRP ELECT VDW BOUNDARY MISC KINETIC TOTAL TEMP POTENTIAL TOTALAVG TEMPAVG PRESSURE GPRESSURE VOLUME PRESSAVG GPRESSAVG
ENERGY: 0 1.8703 0.9361 1.8345 0.0000 -10937.6754 1513.0279 0.0000 0.0000 1827.7874 -7592.2193 307.3119 -9420.0067 -7592.2193 307.3119 395.5161 470.9148 30658.7463 395.5161 470.9148
ENERGY: 300000 2.6635 3.2793 2.4491 0.0000 -10918.3175 1472.2673 0.0000 0.0000 1788.3335 -7649.3248 300.6784 -9437.6583 -7610.4517 302.6569 -250.7763 -137.7291 30616.5458 107.0167 185.0805
ENERGY: 600000 1.0765 3.8570 3.5773 0.0000 -10902.5036 1507.7904 0.0000 0.0000 1803.2473 -7582.9552 303.1859 -9386.2024 -7594.5918 301.8277 737.1081 781.5851 30092.8207 -12.1704 60.0468
ENERGY: 900000 4.9016 2.4448 2.3436 0.0000 -10998.2844 1533.8608 0.0000 0.0000 1763.7348 -7690.9988 296.5425 -9454.7336 -7608.0661 300.3247 273.1830 350.2041 30532.3837 45.1226 121.1658
ENERGY: 1200000 2.3029 4.3011 4.1193 0.0000 -10946.9082 1520.6902 0.0000 0.0000 1751.0027 -7664.4920 294.4018 -9415.4947 -7615.2885 300.2803 544.0260 530.6131 30282.0894 223.4717 274.1539
ENERGY: 1500000 2.4144 2.1974 0.9142 0.0000 -10805.0921 1439.9686 0.0000 0.0000 1863.8980 -7495.6994 313.3833 -9359.5974 -7604.7186 301.1081 259.9107 337.3062 30069.5407 142.8037 200.9120
TCL: Running FEP window  12: Lambda1 0.5499999999999999 Lambda2 0.6    [dLambda 0.050000000000000044]
TCL: Setting parameter firsttimestep to 0
TCL: Setting parameter alchLambda to 0.5499999999999999
Info: NONBONDED TABLE R-SQUARED SPACING: 0.0625
Info: NONBONDED TABLE SIZE: 705 POINTS
TCL: Setting parameter alchLambda2 to 0.6
Info: NONBONDED TABLE R-SQUARED SPACING: 0.0625
Info: NONBONDED TABLE SIZE: 705 POINTS
TCL: Running for 1500000 steps
ETITLE: TS BOND ANGLE DIHED IMPRP ELECT VDW BOUNDARY MISC KINETIC TOTAL TEMP POTENTIAL TOTALAVG TEMPAVG PRESSURE GPRESSURE VOLUME PRESSAVG GPRESSAVG
ENERGY: 0 2.4144 2.1975 0.9142 0.0000 -10805.0038 1440.4730 0.0000 0.0000 1863.0604 -7495.9444 313.2424 -9359.0047 -7495.9444 313.2424 267.2293 351.1927 30069.5407 267.2293 351.1927
ENERGY: 300000 1.9408 3.4149 4.6753 0.0000 -10739.4683 1407.0577 0.0000 0.0000 1762.3339 -7560.0458 296.3070 -9322.3796 -7577.9001 300.6690 36.9381 39.3678 30470.1372 -90.2520 -36.8382
ENERGY: 600000 1.9553 3.2783 3.1416 0.0000 -10918.0340 1444.5712 0.0000 0.0000 1813.9956 -7651.0920 304.9930 -9465.0876 -7593.5610 301.4496 -265.8739 -240.4955 30880.2452 -153.7310 -109.5750
ENERGY: 900000 2.9845 1.2780 3.4099 0.0000 -10921.1409 1486.3281 0.0000 0.0000 1793.4354 -7633.7049 301.5362 -9427.1403 -7602.9017 301.0433 115.3718 190.1816 30582.9563 -240.5859 -184.4818
ENERGY: 1200000 2.0504 1.8559 2.0170 0.0000 -10812.2746 1447.5664 0.0000 0.0000 1781.5156 -7577.2693 299.5321 -9358.7849 -7610.1558 299.5121 223.9482 284.4756 30387.1227 -183.4616 -124.6893
ENERGY: 1500000 0.8717 3.8517 3.9363 0.0000 -10878.3941 1472.2069 0.0000 0.0000 1816.4056 -7581.1219 305.3982 -9397.5275 -7615.1737 299.5599 19.7170 79.2281 30911.0128 -135.0824 -74.3972
TCL: Running FEP window  13: Lambda1 0.6    Lambda2 0.65   [dLambda 0.050000000000000044]
TCL: Setting parameter firsttimestep to 0
TCL: Setting parameter alchLambda to 0.6
Info: NONBONDED TABLE R-SQUARED SPACING: 0.0625
Info: NONBONDED TABLE SIZE: 705 POINTS
TCL: Setting parameter alchLambda2 to 0.65
Info: NONBONDED TABLE R-SQUARED SPACING: 0.0625
Info: NONBONDED TABLE SIZE: 705 POINTS
TCL: Running for 1500000 steps
ETITLE: TS BOND ANGLE DIHED IMPRP ELECT VDW BOUNDARY MISC KINETIC TOTAL TEMP POTENTIAL TOTALAVG TEMPAVG PRESSURE GPRESSURE VOLUME PRESSAVG GPRESSAVG
ENERGY: 0 0.8717 3.8517 3.9363 0.0000 -10879.1916 1473.1079 0.0000 0.0000 1815.4720 -7581.9521 305.2413 -9397.4241 -7581.9521 305.2413 4.3816 91.1171 30911.0128 4.3816 91.1171
ENERGY: 300000 1.1981 4.0203 3.7990 0.0000 -10845.8719 1441.8087 0.0000 0.0000 1783.3577 -7611.6880 299.8418 -9395.0457 -7640.1697 298.4736 -246.5235 -221.3329 31182.7754 -210.7931 -134.1063
ENERGY: 600000 3.8981 5.3868 2.7619 0.0000 -10629.5205 1297.9454 0.0000 0.0000 1817.2670 -7502.2614 305.5431 -9319.5284 -7621.0876 300.2391 -1246.1285 -1166.3963 31037.4325 -193.1653 -117.6300
ENERGY: 900000 4.8267 1.2181 3.2713 0.0000 -10890.4720 1498.6370 0.0000 0.0000 1771.7423 -7610.7765 297.8888 -9382.5188 -7617.3271 299.5493 243.3995 288.9736 30851.4366 -109.3311 -30.4707
ENERGY: 1200000 1.7175 1.9148 3.9404 0.0000 -10895.5150 1500.7449 0.0000 0.0000 1743.3152 -7643.8822 293.1093 -9387.1975 -7615.5511 298.6477 438.9922 555.7466 30474.6807 -62.8823 20.4728
ENERGY: 1500000 3.5683 1.8105 5.0786 0.0000 -10901.8603 1494.6328 0.0000 0.0000 1824.3526 -7572.4175 306.7344 -9396.7701 -7610.3979 299.5402 359.4698 422.4907 30506.7013 -50.8570 31.4770
TCL: Running FEP window  14: Lambda1 0.65   Lambda2 0.7000000000000001 [dLambda 0.050000000000000044]
TCL: Setting parameter firsttimestep to 0
TCL: Setting parameter alchLambda to 0.65
Info: NONBONDED TABLE R-SQUARED SPACING: 0.0625
Info: NONBONDED TABLE SIZE: 705 POINTS
TCL: Setting parameter alchLambda2 to 0.7000000000000001
Info: NONBONDED TABLE R-SQUARED SPACING: 0.0625
Info: NONBONDED TABLE SIZE: 705 POINTS
TCL: Running for 1500000 steps
ETITLE: TS BOND ANGLE DIHED IMPRP ELECT VDW BOUNDARY MISC KINETIC TOTAL TEMP POTENTIAL TOTALAVG TEMPAVG PRESSURE GPRESSURE VOLUME PRESSAVG GPRESSAVG
ENERGY: 0 3.5683 1.8105 5.0786 0.0000 -10901.9202 1494.4090 0.0000 0.0000 1823.4425 -7573.6113 306.5814 -9397.0538 -7573.6113 306.5814 325.4555 426.4926 30506.7013 325.4555 426.4926
ENERGY: 300000 5.8181 4.6230 2.7129 0.0000 -10803.2561 1443.4391 0.0000 0.0000 1763.1227 -7583.5402 296.4396 -9346.6629 -7592.3462 300.7591 -134.4970 -71.1008 30994.1634 -150.9472 -59.9265
ENERGY: 600000 0.9985 1.9125 2.8386 0.0000 -10854.3787 1508.3297 0.0000 0.0000 1740.7625 -7599.5369 292.6801 -9340.2994 -7568.2974 300.8319 443.5591 556.6896 30755.1469 92.4282 181.6276
ENERGY: 900000 3.1099 2.2125 2.0663 0.0000 -10936.6722 1491.2149 0.0000 0.0000 1807.9853 -7630.0833 303.9825 -9438.0686 -7572.5961 300.8591 232.9090 333.7255 30387.1496 -32.9437 54.3345
ENERGY: 1200000 6.0607 3.4774 2.4171 0.0000 -10749.7773 1451.8867 0.0000 0.0000 1768.5021 -7517.4332 297.3441 -9285.9353 -7575.9408 300.2853 78.8552 86.1826 31203.4459 17.8783 95.1255
ENERGY: 1500000 2.0981 4.1951 3.0930 0.0000 -10849.1966 1467.6747 0.0000 0.0000 1825.5083 -7546.6273 306.9287 -9372.1356 -7576.2274 299.8220 202.8045 246.1633 30472.9104 -19.6842 55.4151
TCL: Running FEP window  15: Lambda1 0.7000000000000001 Lambda2 0.7500000000000001 [dLambda 0.050000000000000044]
TCL: Setting parameter firsttimestep to 0
TCL: Setting parameter alchLambda to 0.7000000000000001
Info: NONBONDED TABLE R-SQUARED SPACING: 0.0625
Info: NONBONDED TABLE SIZE: 705 POINTS
TCL: Setting parameter alchLambda2 to 0.7500000000000001
Info: NONBONDED TABLE R-SQUARED SPACING: 0.0625
Info: NONBONDED TABLE SIZE: 705 POINTS
TCL: Running for 1500000 steps
ETITLE: TS BOND ANGLE DIHED IMPRP ELECT VDW BOUNDARY MISC KINETIC TOTAL TEMP POTENTIAL TOTALAVG TEMPAVG PRESSURE GPRESSURE VOLUME PRESSAVG GPRESSAVG
ENERGY: 0 2.0981 4.1951 3.0930 0.0000 -10849.7895 1468.5076 0.0000 0.0000 1824.6225 -7547.2732 306.7797 -9371.8956 -7547.2732 306.7797 173.1661 260.0924 30472.9104 173.1661 260.0924
ENERGY: 300000 2.7263 2.9009 3.1545 0.0000 -10913.7880 1498.4771 0.0000 0.0000 1789.7339 -7616.7954 300.9138 -9406.5292 -7579.5505 304.0420 128.8610 164.9454 30849.2896 -233.2625 -171.7832
ENERGY: 600000 6.6701 6.5727 1.4636 0.0000 -10884.3500 1455.0867 0.0000 0.0000 1788.2235 -7626.3333 300.6599 -9414.5568 -7598.0224 301.5338 -562.6367 -492.4756 31117.6297 -262.5427 -192.9471
ENERGY: 900000 1.7858 2.7914 0.5957 0.0000 -10867.9652 1432.7990 0.0000 0.0000 1766.4437 -7663.5496 296.9980 -9429.9933 -7597.0210 302.3940 -301.0857 -193.8870 30577.6760 -290.1567 -219.2210
ENERGY: 1200000 2.4192 2.6868 2.4617 0.0000 -10805.1672 1412.2215 0.0000 0.0000 1821.2063 -7564.1717 306.2054 -9385.3780 -7596.6434 302.1961 -188.2652 -158.9366 30721.6323 -298.7272 -229.7455
ENERGY: 1500000 4.6948 2.5382 2.4428 0.0000 -10792.7803 1420.5355 0.0000 0.0000 1783.0523 -7579.5166 299.7904 -9362.5690 -7593.4136 302.1476 -389.1236 -305.4184 30944.7092 -242.9318 -175.8726
TCL: Running FEP window  16: Lambda1 0.7500000000000001 Lambda2 0.8000000000000002 [dLambda 0.050000000000000044]
TCL: Setting parameter firsttimestep to 0
TCL: Setting parameter alchLambda to 0.7500000000000001
Info: NONBONDED TABLE R-SQUARED SPACING: 0.0625
Info: NONBONDED TABLE SIZE: 705 POINTS
TCL: Setting parameter alchLambda2 to 0.8000000000000002
Info: NONBONDED TABLE R-SQUARED SPACING: 0.0625
Info: NONBONDED TABLE SIZE: 705 POINTS
TCL: Running for 1500000 steps
ETITLE: TS BOND ANGLE DIHED IMPRP ELECT VDW BOUNDARY MISC KINETIC TOTAL TEMP POTENTIAL TOTALAVG TEMPAVG PRESSURE GPRESSURE VOLUME PRESSAVG GPRESSAVG
ENERGY: 0 4.6948 2.5382 2.4428 0.0000 -10793.2254 1421.0109 0.0000 0.0000 1782.1377 -7580.4009 299.6367 -9362.5387 -7580.4009 299.6367 -393.3533 -293.7329 30944.7092 -393.3533 -293.7329
ENERGY: 300000 1.0736 1.8497 4.8845 0.0000 -10775.5542 1442.9885 0.0000 0.0000 1773.7789 -7550.9789 298.2313 -9324.7579 -7586.9266 301.8942 501.2959 484.4690 30369.7701 -68.8590 -8.7604
ENERGY: 600000 2.8393 2.4005 1.9577 0.0000 -10872.0833 1467.9884 0.0000 0.0000 1738.9893 -7657.9081 292.3820 -9396.8974 -7593.4766 299.2019 307.8206 332.3484 30373.9593 -46.3427 4.3384
ENERGY: 900000 2.1488 1.6531 4.0757 0.0000 -10831.8894 1465.6209 0.0000 0.0000 1830.7343 -7527.6566 307.8073 -9358.3909 -7592.0846 299.3884 95.3472 152.0364 30943.4653 -75.8274 -32.6986
ENERGY: 1200000 1.8196 3.1105 3.3168 0.0000 -10761.0399 1401.0965 0.0000 0.0000 1834.5176 -7517.1790 308.4434 -9351.6966 -7587.4095 300.7513 -465.7580 -396.5370 30746.3486 -130.3782 -80.1239
ENERGY: 1500000 2.4681 3.1497 2.8448 0.0000 -10959.8887 1544.7283 0.0000 0.0000 1769.9027 -7636.7950 297.5795 -9406.6978 -7592.8766 300.0244 472.4837 556.4938 30935.2208 -27.9519 28.9117
TCL: Running FEP window  17: Lambda1 0.8000000000000002 Lambda2 0.8500000000000002 [dLambda 0.050000000000000044]
TCL: Setting parameter firsttimestep to 0
TCL: Setting parameter alchLambda to 0.8000000000000002
Info: NONBONDED TABLE R-SQUARED SPACING: 0.0625
Info: NONBONDED TABLE SIZE: 705 POINTS
TCL: Setting parameter alchLambda2 to 0.8500000000000002
Info: NONBONDED TABLE R-SQUARED SPACING: 0.0625
Info: NONBONDED TABLE SIZE: 705 POINTS
TCL: Running for 1500000 steps
ETITLE: TS BOND ANGLE DIHED IMPRP ELECT VDW BOUNDARY MISC KINETIC TOTAL TEMP POTENTIAL TOTALAVG TEMPAVG PRESSURE GPRESSURE VOLUME PRESSAVG GPRESSAVG
ENERGY: 0 2.4681 3.1497 2.8448 0.0000 -10961.2322 1544.9435 0.0000 0.0000 1769.0392 -7638.7870 297.4343 -9407.8261 -7638.7870 297.4343 483.2549 564.2442 30935.2208 483.2549 564.2442
ENERGY: 300000 5.9065 4.4983 3.9571 0.0000 -10841.1956 1444.0680 0.0000 0.0000 1796.4152 -7586.3506 302.0372 -9382.7658 -7600.6991 302.8273 -218.2662 -117.5558 30854.5890 25.0637 98.0570
ENERGY: 600000 3.1429 2.3908 3.9759 0.0000 -10801.4778 1443.4014 0.0000 0.0000 1856.2755 -7492.2912 312.1017 -9348.5667 -7588.5281 304.0317 -155.8495 -85.8976 31455.5313 53.7142 139.8644
ENERGY: 900000 4.7121 4.7297 8.2346 0.0000 -10874.1222 1437.6746 0.0000 0.0000 1752.6382 -7666.1330 294.6768 -9418.7711 -7599.3817 301.5493 -482.7905 -367.8396 30747.1772 -17.4988 66.4703
ENERGY: 1200000 2.1390 4.8488 2.2608 0.0000 -10765.7265 1390.0146 0.0000 0.0000 1787.3970 -7579.0663 300.5209 -9366.4633 -7598.3495 301.4677 -364.4330 -280.8180 30516.9089 -4.8497 71.5731
ENERGY: 1500000 4.2424 2.2536 2.3444 0.0000 -11019.2529 1559.8989 0.0000 0.0000 1809.1921 -7641.3215 304.1854 -9450.5136 -7610.6869 301.0118 670.7258 767.8231 30463.5982 28.0102 101.7926
TCL: Running FEP window  18: Lambda1 0.8500000000000002 Lambda2 0.9000000000000002 [dLambda 0.050000000000000044]
TCL: Setting parameter firsttimestep to 0
TCL: Setting parameter alchLambda to 0.8500000000000002
Info: NONBONDED TABLE R-SQUARED SPACING: 0.0625
Info: NONBONDED TABLE SIZE: 705 POINTS
TCL: Setting parameter alchLambda2 to 0.9000000000000002
Info: NONBONDED TABLE R-SQUARED SPACING: 0.0625
Info: NONBONDED TABLE SIZE: 705 POINTS
TCL: Running for 1500000 steps
ETITLE: TS BOND ANGLE DIHED IMPRP ELECT VDW BOUNDARY MISC KINETIC TOTAL TEMP POTENTIAL TOTALAVG TEMPAVG PRESSURE GPRESSURE VOLUME PRESSAVG GPRESSAVG
ENERGY: 0 4.2424 2.2536 2.3444 0.0000 -11019.8456 1559.3470 0.0000 0.0000 1808.3344 -7643.3238 304.0412 -9451.6582 -7643.3238 304.0412 689.0015 769.8229 30463.5982 689.0015 769.8229
ENERGY: 300000 1.8807 3.5082 3.3934 0.0000 -10798.1071 1371.7755 0.0000 0.0000 1842.8648 -7574.6846 309.8469 -9417.5494 -7589.1940 306.4135 -733.3654 -648.1443 30633.3193 -30.7045 43.3679
ENERGY: 600000 1.9006 3.7165 2.0853 0.0000 -10810.8704 1455.7477 0.0000 0.0000 1809.9084 -7537.5119 304.3058 -9347.4203 -7578.9606 303.2757 123.4348 226.5398 30746.2503 -34.8815 49.6379
ENERGY: 900000 0.9420 1.6325 4.1759 0.0000 -10838.3343 1430.4800 0.0000 0.0000 1822.6276 -7578.4763 306.4443 -9401.1039 -7582.6878 303.1169 -89.5303 -17.1447 30639.4559 -85.1843 -8.5572
ENERGY: 1200000 2.1573 2.1144 1.4131 0.0000 -10862.5203 1417.6173 0.0000 0.0000 1746.1943 -7693.0239 293.5934 -9439.2182 -7592.7574 301.5296 -516.1963 -421.8690 30744.6889 -88.2037 -9.2338
ENERGY: 1500000 1.5347 1.3121 4.0834 0.0000 -10963.0442 1585.9740 0.0000 0.0000 1761.2997 -7608.8402 296.1331 -9370.1399 -7592.6042 300.4794 1167.1318 1238.0123 30597.6014 7.4736 85.5787
TCL: Running FEP window  19: Lambda1 0.9000000000000002 Lambda2 0.9500000000000003 [dLambda 0.050000000000000044]
TCL: Setting parameter firsttimestep to 0
TCL: Setting parameter alchLambda to 0.9000000000000002
Info: NONBONDED TABLE R-SQUARED SPACING: 0.0625
Info: NONBONDED TABLE SIZE: 705 POINTS
TCL: Setting parameter alchLambda2 to 0.9500000000000003
Info: NONBONDED TABLE R-SQUARED SPACING: 0.0625
Info: NONBONDED TABLE SIZE: 705 POINTS
TCL: Running for 1500000 steps
ETITLE: TS BOND ANGLE DIHED IMPRP ELECT VDW BOUNDARY MISC KINETIC TOTAL TEMP POTENTIAL TOTALAVG TEMPAVG PRESSURE GPRESSURE VOLUME PRESSAVG GPRESSAVG
ENERGY: 0 1.5347 1.3121 4.0834 0.0000 -10965.1884 1587.4580 0.0000 0.0000 1760.4020 -7610.3980 295.9822 -9370.8001 -7610.3980 295.9822 1183.4363 1262.8384 30597.6014 1183.4363 1262.8384
ENERGY: 300000 1.6225 1.4264 2.7047 0.0000 -10980.2469 1526.4548 0.0000 0.0000 1780.2524 -7667.7860 299.3197 -9448.0384 -7608.1876 299.3009 125.8837 215.8171 31096.3826 351.2386 430.5224
ENERGY: 600000 1.9205 2.3326 2.2836 0.0000 -10879.8671 1416.1217 0.0000 0.0000 1733.3399 -7723.8688 291.4321 -9457.2087 -7608.8603 299.7878 -468.1111 -441.3163 30930.4664 80.2491 125.3101
ENERGY: 900000 2.8231 2.8171 4.4668 0.0000 -10702.3346 1341.3322 0.0000 0.0000 1780.6994 -7570.1960 299.3948 -9350.8954 -7597.3525 300.7777 -669.1176 -666.3719 30773.9013 -20.0117 30.2276
ENERGY: 1200000 3.3969 3.2310 6.1470 0.0000 -10909.2706 1464.4013 0.0000 0.0000 1783.8407 -7648.2539 299.9230 -9432.0945 -7610.2240 300.5119 -45.3481 47.7793 30654.5334 -69.8427 -13.4881
ENERGY: 1500000 2.3134 2.3823 3.0492 0.0000 -10984.3887 1550.5568 0.0000 0.0000 1773.0426 -7653.0445 298.1075 -9426.0871 -7612.1936 299.7198 477.4339 587.7416 31025.3755 -48.6796 17.6295
TCL: Running FEP window  20: Lambda1 0.9500000000000003 Lambda2 1.0    [dLambda 0.04999999999999971]
TCL: Setting parameter firsttimestep to 0
TCL: Setting parameter alchLambda to 0.9500000000000003
Info: NONBONDED TABLE R-SQUARED SPACING: 0.0625
Info: NONBONDED TABLE SIZE: 705 POINTS
TCL: Setting parameter alchLambda2 to 1.0
Info: NONBONDED TABLE R-SQUARED SPACING: 0.0625
Info: NONBONDED TABLE SIZE: 705 POINTS
TCL: Running for 1500000 steps
ETITLE: TS BOND ANGLE DIHED IMPRP ELECT VDW BOUNDARY MISC KINETIC TOTAL TEMP POTENTIAL TOTALAVG TEMPAVG PRESSURE GPRESSURE VOLUME PRESSAVG GPRESSAVG
ENERGY: 0 2.3134 2.3823 3.0492 0.0000 -10986.2728 1550.9699 0.0000 0.0000 1772.1490 -7655.4090 297.9572 -9427.5580 -7655.4090 297.9572 505.3315 596.9168 31025.3755 505.3315 596.9168
ENERGY: 300000 1.7685 4.0908 1.8464 0.0000 -10953.2097 1486.2565 0.0000 0.0000 1778.2429 -7681.0046 298.9818 -9459.2475 -7625.8832 297.5847 96.9320 151.2468 30509.4453 48.7397 109.8235
ENERGY: 600000 3.1537 1.0481 3.3638 0.0000 -10860.0294 1393.4566 0.0000 0.0000 1756.9086 -7702.0986 295.3948 -9459.0072 -7620.9049 297.7546 -749.2362 -722.3060 31025.1521 -130.2575 -74.1038
ENERGY: 900000 3.4587 4.5395 3.5270 0.0000 -10778.9022 1413.1423 0.0000 0.0000 1822.6307 -7531.6040 306.4449 -9354.2347 -7601.1365 299.6074 -282.5263 -206.9695 30705.0553 -135.9365 -80.8090
ENERGY: 1200000 2.2728 1.2770 0.9302 0.0000 -11023.2249 1563.5777 0.0000 0.0000 1800.1170 -7655.0503 302.6596 -9455.1672 -7610.2126 299.3190 757.5346 806.0721 30517.3743 -52.2539 2.0903
ENERGY: 1500000 1.1758 3.0056 1.4451 0.0000 -10714.9118 1377.8506 0.0000 0.0000 1833.8242 -7497.6105 308.3269 -9331.4347 -7595.5264 299.8157 -629.4144 -573.4047 31561.1682 -135.2689 -82.3100
TCL: Exiting due to exit command.
