Info: SIMULATION PARAMETERS:
Info: TIMESTEP               2
Info: NUMBER OF STEPS        0
Info: STEPS PER CYCLE        10
Info: PERIODIC CELL BASIS 1  31.7244 0 0
Info: PERIODIC CELL BASIS 2  0 30.0458 0
Info: PERIODIC CELL BASIS 3  0 0 31.8953
Info: PERIODIC CELL CENTER   0 0 0
Info: WRAPPING WATERS AROUND PERIODIC BOUNDARIES ON OUTPUT.
Info: WRAPPING ALL CLUSTERS AROUND PERIODIC BOUNDARIES ON OUTPUT.
Info: FIRST LDB TIMESTEP     50
Info: LAST LDB TIMESTEP     -1
Info: HOM BACKGROUND SCALING 1
Info: PME BACKGROUND SCALING 1
Info: MIN ATOMS PER PATCH    40
Info: EMPTY PATCH LOAD       40 ATOMS
Info: VELOCITY FILE          mobley_6358463_equil.vel
Info: CENTER OF MASS MOVING INITIALLY? NO
Info: DIELECTRIC             1
Info: EXCLUDE                SCALED ONE-FOUR
Info: 1-4 ELECTROSTATICS SCALED BY 0.833333
Info: MODIFIED 1-4 VDW PARAMETERS WILL BE USED
Info: DCD FILENAME           mobley_6358463_prod.dcd
Info: DCD FREQUENCY          100000
Info: DCD FIRST STEP         100000
Info: DCD FILE WILL CONTAIN UNIT CELL DATA
Info: XST FILENAME           mobley_6358463_prod.xst
Info: XST FREQUENCY          100000
Info: NO VELOCITY DCD OUTPUT
Info: NO FORCE DCD OUTPUT
Info: OUTPUT FILENAME        mobley_6358463_prod
Info: BINARY OUTPUT FILES WILL BE USED
Info: RESTART FILENAME       mobley_6358463_prod.restart
Info: RESTART FREQUENCY      100000
Info: BINARY RESTART FILES WILL BE USED
Info: CUTOFF                 9
Info: PAIRLIST DISTANCE      11
Info: PAIRLIST SHRINK RATE   0.01
Info: PAIRLIST GROW RATE     0.01
Info: PAIRLIST TRIGGER       0.3
Info: PAIRLISTS PER CYCLE    2
Info: PAIRLISTS ENABLED
Info: MARGIN                 2
Info: HYDROGEN GROUP CUTOFF  2.5
Info: PATCH DIMENSION        15.5
Info: ENERGY OUTPUT STEPS    100000
Info: ENERGY EVALUATION STEPS    100000
Info: OUTPUT ENERGY PRECISION 4
Info: CROSSTERM ENERGY INCLUDED IN DIHEDRAL
Info: TIMING OUTPUT STEPS    1000000
Info: PRESSURE OUTPUT STEPS  100000
Info: ALCHEMICAL FEP ON
Info: FEP CURRENT LAMBDA VALUE     0
Info: FEP COMPARISON LAMBDA VALUE  0.05
Info: FEP INTRA-ALCHEMICAL NON-BONDED INTERACTIONS WILL BE RETAINED
Info: FEP INTRA-ALCHEMICAL BONDED INTERACTIONS WILL BE RETAINED
Info: FEP VDW SHIFTING COEFFICIENT 5
Info: FEP ELEC. ACTIVE FOR ANNIHILATED PARTICLES BETWEEN LAMBDA = 0 AND LAMBDA = 0.5
Info: FEP ELEC. ACTIVE FOR EXNIHILATED PARTICLES BETWEEN LAMBDA = 0.5 AND LAMBDA = 1
Info: FEP VDW ACTIVE FOR ANNIHILATED PARTICLES BETWEEN LAMBDA = 0 AND LAMBDA = 1
Info: FEP VDW ACTIVE FOR EXNIHILATED PARTICLES BETWEEN LAMBDA = 0 AND LAMBDA = 1
Info: FEP BOND ACTIVE FOR ANNIHILATED PARTICLES BETWEEN LAMBDA = 1 AND LAMBDA = 1
Info: FEP BOND ACTIVE FOR EXNIHILATED PARTICLES BETWEEN LAMBDA = 0 AND LAMBDA = 0
Info: LANGEVIN DYNAMICS ACTIVE
Info: LANGEVIN TEMPERATURE   300
Info: LANGEVIN USING BBK INTEGRATOR
Info: LANGEVIN DAMPING COEFFICIENT IS 1 INVERSE PS
Info: LANGEVIN DYNAMICS APPLIED TO HYDROGENS
Info: LANGEVIN PISTON PRESSURE CONTROL ACTIVE
Info:        TARGET PRESSURE IS 1.01325 BAR
Info:     OSCILLATION PERIOD IS 50 FS
Info:             DECAY TIME IS 25 FS
Info:     PISTON TEMPERATURE IS 300 K
Info:       PRESSURE CONTROL IS GROUP-BASED
Info:    INITIAL STRAIN RATE IS 0.000189367 0.000189367 0.000189367
Info:       CELL FLUCTUATION IS ISOTROPIC
Info: PARTICLE MESH EWALD (PME) ACTIVE
Info: PME TOLERANCE               1e-06
Info: PME EWALD COEFFICIENT       0.348832
Info: PME INTERPOLATION ORDER     4
Info: PME GRID DIMENSIONS         32 32 32
Info: PME MAXIMUM GRID SPACING    1
Info: PME CALCULATION WILL BE PERFORMED ON GPU
Info: FULL ELECTROSTATIC EVALUATION FREQUENCY      2
Info: USING VERLET I (r-RESPA) MTS SCHEME.
Info: C1 SPLITTING OF LONG RANGE ELECTROSTATICS
Info: PLACING ATOMS IN PATCHES BY HYDROGEN GROUPS
Info: RIGID BONDS TO HYDROGEN : ALL
Info:         ERROR TOLERANCE : 1e-08
Info:          MAX ITERATIONS : 100
Info: RIGID WATER USING SETTLE ALGORITHM
Info: RANDOM NUMBER SEED     1743601074
Info: USE HYDROGEN BONDS?    NO
Info: Using AMBER format force field!
Info: AMBER PARM FILE        mobley_6358463.prmtop
Info: COORDINATE PDB         mobley_6358463.pdb
Info: Exclusions will be read from PARM file!
Info: SCNB (VDW SCALING)     2
Info: USING ARITHMETIC MEAN TO COMBINE L-J SIGMA PARAMETERS
Info: BINARY COORDINATES     mobley_6358463_equil.coor
Info: SUMMARY OF PARAMETERS:
Info: 6 BONDS
Info: 5 ANGLES
Info:   5 HARMONIC
Info:   0 COSINE-BASED
Info: 3 DIHEDRAL
Info: 0 IMPROPER
Info: 0 CROSSTERM
Info: 0 VDW
Info: 21 VDW_PAIRS
Info: 0 NBTHOLE_PAIRS
Info: To read alchdata from file: mobley_6358463.pdb
Info: To read alchflag data from column: 5
Info: STRUCTURE SUMMARY:
Info: 2940 ATOMS
Info: 2940 BONDS
Info: 30 ANGLES
Info: 42 DIHEDRALS
Info: 0 IMPROPERS
Info: 0 CROSSTERMS
Info: 3003 EXCLUSIONS
Info: 2926 RIGID BONDS
Info: ALCH: 0 ATOMS TO DISAPPEAR IN FINAL STATE
Info: ALCH: 18 ATOMS TO APPEAR IN FINAL STATE
Info: 5894 DEGREES OF FREEDOM
Info: 988 HYDROGEN GROUPS
Info: 3 ATOMS IN LARGEST HYDROGEN GROUP
Info: 988 MIGRATION GROUPS
Info: 3 ATOMS IN LARGEST MIGRATION GROUP
Info: TOTAL MASS = 17761.7 amu
Info: TOTAL CHARGE = 0.000300027 e
Info: MASS DENSITY = 0.970152 g/cm^3
Info: ATOM DENSITY = 0.0967037 atoms/A^3
Info: ADDED 0 IMPLICIT EXCLUSIONS
Info: NONBONDED TABLE R-SQUARED SPACING: 0.0625
Info: NONBONDED TABLE SIZE: 705 POINTS
Info: REMOVING COM VELOCITY 0.071155 0.138207 -0.0330366
Info: Use 3D box decompostion in PME FFT.
Info: Updated CUDA force table with 4096 elements.
Info: Updated CUDA LJ table with 6 x 6 elements.
Info: Found 20 unique exclusion lists needing 52 bytes
TCL: Running for 1500000 steps
ETITLE: TS BOND ANGLE DIHED IMPRP ELECT VDW BOUNDARY MISC KINETIC TOTAL TEMP POTENTIAL TOTALAVG TEMPAVG PRESSURE GPRESSURE VOLUME PRESSAVG GPRESSAVG
ENERGY: 0 9.2771 8.6763 1.7220 0.0000 -10655.3472 1473.0179 0.0000 0.0000 1777.7528 -7384.9010 303.5649 -9162.6538 -7384.9010 303.5649 0.8144 87.5757 30402.1337 0.8144 87.5757
ENERGY: 300000 7.4114 11.4143 4.9665 0.0000 -10584.7923 1423.1384 0.0000 0.0000 1773.4193 -7364.4425 302.8250 -9137.8618 -7410.1736 300.2098 -372.7172 -256.5952 30383.5729 -113.3542 -18.4966
ENERGY: 600000 5.0043 4.6503 1.1085 0.0000 -10813.6373 1578.2595 0.0000 0.0000 1722.7547 -7501.8600 294.1736 -9224.6147 -7428.4020 298.6349 1044.1415 1054.2723 29913.3342 -21.7870 52.4558
ENERGY: 900000 1.1925 5.5222 1.1769 0.0000 -10691.1840 1503.2078 0.0000 0.0000 1725.2228 -7454.8618 294.5951 -9180.0847 -7429.2724 297.1708 479.6830 540.0736 30319.0568 37.9522 104.1693
ENERGY: 1200000 6.5120 7.3462 1.9143 0.0000 -10556.7299 1404.3265 0.0000 0.0000 1801.5457 -7335.0853 307.6278 -9136.6309 -7417.2221 298.4062 -454.5356 -357.7713 30165.4183 -65.3542 1.0465
ENERGY: 1500000 4.6965 7.6206 1.7600 0.0000 -10630.3106 1449.4746 0.0000 0.0000 1758.3820 -7408.3767 300.2572 -9166.7587 -7413.8548 298.4448 113.3070 195.6286 29849.7161 -104.0051 -42.9188
TCL: Running FEP window   2: Lambda1 0.05   Lambda2 0.1    [dLambda 0.05  ]
TCL: Setting parameter firsttimestep to 0
TCL: Setting parameter alchLambda to 0.05
Info: NONBONDED TABLE R-SQUARED SPACING: 0.0625
Info: NONBONDED TABLE SIZE: 705 POINTS
TCL: Setting parameter alchLambda2 to 0.1
Info: NONBONDED TABLE R-SQUARED SPACING: 0.0625
Info: NONBONDED TABLE SIZE: 705 POINTS
TCL: Running for 1500000 steps
ETITLE: TS BOND ANGLE DIHED IMPRP ELECT VDW BOUNDARY MISC KINETIC TOTAL TEMP POTENTIAL TOTALAVG TEMPAVG PRESSURE GPRESSURE VOLUME PRESSAVG GPRESSAVG
ENERGY: 0 4.6965 7.6207 1.7601 0.0000 -10630.3110 1451.9766 0.0000 0.0000 1757.5262 -7406.7310 300.1111 -9164.2572 -7406.7310 300.1111 133.9021 206.8005 29849.7161 133.9021 206.8005
ENERGY: 300000 6.2027 7.2966 5.6768 0.0000 -10716.8406 1500.1820 0.0000 0.0000 1751.6035 -7445.8790 299.0998 -9197.4825 -7418.3970 299.4851 553.8147 605.6304 29986.9473 129.1050 179.1869
ENERGY: 600000 6.3833 7.4528 2.1317 0.0000 -10386.6679 1276.9038 0.0000 0.0000 1715.8903 -7377.9059 293.0015 -9093.7963 -7398.0608 299.1240 -1213.2877 -1170.3761 30351.2573 -210.4329 -153.0268
ENERGY: 900000 6.7795 11.1914 1.2054 0.0000 -10539.2839 1362.0776 0.0000 0.0000 1790.0092 -7368.0209 305.6578 -9158.0300 -7392.9128 299.2736 -356.4753 -348.0980 29874.1329 -301.2967 -241.9889
ENERGY: 1200000 6.7760 6.6812 2.3016 0.0000 -10923.2491 1636.4662 0.0000 0.0000 1729.1532 -7541.8709 295.2662 -9271.0241 -7410.4233 298.6780 1510.1699 1579.8123 29161.4930 -113.0268 -45.7687
ENERGY: 1500000 2.7931 7.0114 0.6076 0.0000 -10827.4372 1609.0362 0.0000 0.0000 1758.5616 -7449.4272 300.2879 -9207.9888 -7414.2957 298.7651 1062.7686 1106.8450 30057.1665 -48.7849 13.4061
TCL: Running FEP window   3: Lambda1 0.1    Lambda2 0.15000000000000002 [dLambda 0.05000000000000002]
TCL: Setting parameter firsttimestep to 0
TCL: Setting parameter alchLambda to 0.1
Info: NONBONDED TABLE R-SQUARED SPACING: 0.0625
Info: NONBONDED TABLE SIZE: 705 POINTS
TCL: Setting parameter alchLambda2 to 0.15000000000000002
Info: NONBONDED TABLE R-SQUARED SPACING: 0.0625
Info: NONBONDED TABLE SIZE: 705 POINTS
TCL: Running for 1500000 steps
ETITLE: TS BOND ANGLE DIHED IMPRP ELECT VDW BOUNDARY MISC KINETIC TOTAL TEMP POTENTIAL TOTALAVG TEMPAVG PRESSURE GPRESSURE VOLUME PRESSAVG GPRESSAVG
ENERGY: 0 2.7931 7.0114 0.6076 0.0000 -10827.4374 1612.7343 0.0000 0.0000 1757.7178 -7446.5731 300.1438 -9204.2909 -7446.5731 300.1438 1046.2115 1119.1442 30057.1665 1046.2115 1119.1442
ENERGY: 300000 3.9418 6.9036 0.9665 0.0000 -10639.9075 1483.8932 0.0000 0.0000 1800.1301 -7344.0723 307.3861 -9144.2025 -7419.4831 298.6312 292.2498 381.1586 30303.1573 27.7623 107.8145
ENERGY: 600000 5.9973 4.3921 1.8248 0.0000 -10657.0331 1530.7724 0.0000 0.0000 1657.7214 -7456.3252 283.0687 -9114.0465 -7412.4479 298.4835 1064.1339 1104.7088 29915.8890 176.9669 253.7754
ENERGY: 900000 7.6355 5.2017 2.9879 0.0000 -10533.6114 1385.3756 0.0000 0.0000 1770.1535 -7362.2571 302.2673 -9132.4106 -7404.7488 298.9942 -494.3735 -502.4302 30361.4249 129.5989 202.6330
ENERGY: 1200000 7.6280 6.6387 1.0424 0.0000 -10632.0826 1485.9726 0.0000 0.0000 1753.8897 -7376.9112 299.4901 -9130.8009 -7406.6146 298.5286 225.6386 281.6036 30237.1414 158.1050 236.6472
ENERGY: 1500000 11.7686 6.2507 2.7040 0.0000 -10623.3933 1485.0334 0.0000 0.0000 1745.6202 -7372.0164 298.0781 -9117.6367 -7395.5659 300.0257 196.0982 317.9268 30225.0002 129.9499 210.1252
TCL: Running FEP window   4: Lambda1 0.15000000000000002 Lambda2 0.2    [dLambda 0.04999999999999999]
TCL: Setting parameter firsttimestep to 0
TCL: Setting parameter alchLambda to 0.15000000000000002
Info: NONBONDED TABLE R-SQUARED SPACING: 0.0625
Info: NONBONDED TABLE SIZE: 705 POINTS
TCL: Setting parameter alchLambda2 to 0.2
Info: NONBONDED TABLE R-SQUARED SPACING: 0.0625
Info: NONBONDED TABLE SIZE: 705 POINTS
TCL: Running for 1500000 steps
ETITLE: TS BOND ANGLE DIHED IMPRP ELECT VDW BOUNDARY MISC KINETIC TOTAL TEMP POTENTIAL TOTALAVG TEMPAVG PRESSURE GPRESSURE VOLUME PRESSAVG GPRESSAVG
ENERGY: 0 11.7686 6.2507 2.7040 0.0000 -10623.3944 1488.1238 0.0000 0.0000 1744.7947 -7369.7526 297.9371 -9114.5473 -7369.7526 297.9371 253.6529 330.6549 30225.0002 253.6529 330.6549
ENERGY: 300000 7.1305 6.0526 2.0551 0.0000 -10789.2744 1535.3115 0.0000 0.0000 1734.3384 -7504.3863 296.1516 -9238.7247 -7404.9964 300.3601 165.3378 282.4584 29939.7511 -190.8162 -115.2052
ENERGY: 600000 7.5304 5.1944 2.1298 0.0000 -10584.4752 1376.8308 0.0000 0.0000 1753.9256 -7438.8643 299.4963 -9192.7898 -7440.2655 298.4282 -507.3650 -498.5799 29867.9797 -210.4528 -146.7656
ENERGY: 900000 9.1915 6.3688 1.8982 0.0000 -10511.3485 1384.1185 0.0000 0.0000 1709.4086 -7400.3629 291.8947 -9109.7715 -7432.0868 299.5133 -739.6389 -687.9324 30829.1859 -155.0399 -95.8920
ENERGY: 1200000 3.6401 9.5144 1.3981 0.0000 -10585.1283 1420.3786 0.0000 0.0000 1786.9424 -7363.2546 305.1341 -9150.1970 -7430.1552 299.4294 -39.4386 -22.4839 29984.7458 -102.2616 -44.7151
ENERGY: 1500000 5.8185 6.1296 0.8706 0.0000 -10663.6191 1504.0063 0.0000 0.0000 1701.5282 -7445.2658 290.5490 -9146.7940 -7429.5939 298.9043 468.5949 515.8294 29952.0302 -3.7673 50.3196
TCL: Running FEP window   5: Lambda1 0.2    Lambda2 0.25   [dLambda 0.04999999999999999]
TCL: Setting parameter firsttimestep to 0
TCL: Setting parameter alchLambda to 0.2
Info: NONBONDED TABLE R-SQUARED SPACING: 0.0625
Info: NONBONDED TABLE SIZE: 705 POINTS
TCL: Setting parameter alchLambda2 to 0.25
Info: NONBONDED TABLE R-SQUARED SPACING: 0.0625
Info: NONBONDED TABLE SIZE: 705 POINTS
TCL: Running for 1500000 steps
ETITLE: TS BOND ANGLE DIHED IMPRP ELECT VDW BOUNDARY MISC KINETIC TOTAL TEMP POTENTIAL TOTALAVG TEMPAVG PRESSURE GPRESSURE VOLUME PRESSAVG GPRESSAVG
ENERGY: 0 5.8186 6.1296 0.8706 0.0000 -10663.6193 1507.2722 0.0000 0.0000 1700.6842 -7442.8442 290.4049 -9143.5284 -7442.8442 290.4049 445.0796 527.0174 29952.0302 445.0796 527.0174
ENERGY: 300000 5.0028 10.5942 4.0522 0.0000 -10673.2121 1451.3944 0.0000 0.0000 1756.3381 -7445.8304 299.9082 -9202.1684 -7418.8460 297.8813 -262.2871 -171.0219 30192.2510 275.1998 335.7319
ENERGY: 600000 7.7546 11.5221 2.8198 0.0000 -10770.1108 1582.4668 0.0000 0.0000 1772.9408 -7392.6066 302.7433 -9165.5474 -7388.7690 299.0818 1035.4285 1091.9289 30009.0821 192.7019 252.4914
ENERGY: 900000 5.3845 7.3713 2.8103 0.0000 -10552.7289 1330.6789 0.0000 0.0000 1769.6269 -7436.8571 302.1774 -9206.4840 -7395.9343 299.1754 -943.6095 -896.8964 30334.9091 43.6816 100.8071
ENERGY: 1200000 6.2551 7.5965 1.7815 0.0000 -10797.8586 1490.1976 0.0000 0.0000 1826.7723 -7465.2556 311.9354 -9292.0279 -7390.0986 301.5963 149.2162 193.2147 30159.9098 135.2726 187.2475
ENERGY: 1500000 6.5912 3.2422 4.1986 0.0000 -10588.0528 1394.9422 0.0000 0.0000 1761.9095 -7417.1691 300.8596 -9179.0786 -7392.4471 301.3173 -309.8372 -284.3186 29822.9638 37.8772 92.2202
TCL: Running FEP window   6: Lambda1 0.25   Lambda2 0.3    [dLambda 0.04999999999999999]
TCL: Setting parameter firsttimestep to 0
TCL: Setting parameter alchLambda to 0.25
Info: NONBONDED TABLE R-SQUARED SPACING: 0.0625
Info: NONBONDED TABLE SIZE: 705 POINTS
TCL: Setting parameter alchLambda2 to 0.3
Info: NONBONDED TABLE R-SQUARED SPACING: 0.0625
Info: NONBONDED TABLE SIZE: 705 POINTS
TCL: Running for 1500000 steps
ETITLE: TS BOND ANGLE DIHED IMPRP ELECT VDW BOUNDARY MISC KINETIC TOTAL TEMP POTENTIAL TOTALAVG TEMPAVG PRESSURE GPRESSURE VOLUME PRESSAVG GPRESSAVG
ENERGY: 0 6.5912 3.2422 4.1986 0.0000 -10588.0536 1395.2273 0.0000 0.0000 1761.0560 -7417.7383 300.7138 -9178.7943 -7417.7383 300.7138 -351.0315 -279.1880 29822.9638 -351.0315 -279.1880
ENERGY: 300000 3.8813 7.2803 6.3232 0.0000 -10666.4826 1418.4826 0.0000 0.0000 1811.7516 -7418.7636 309.3705 -9230.5152 -7432.9443 300.8644 -225.8989 -134.2476 29757.4545 -55.6909 11.7204
ENERGY: 600000 5.8011 6.8819 1.6666 0.0000 -10701.2469 1440.5089 0.0000 0.0000 1810.7405 -7435.6480 309.1979 -9246.3885 -7431.3530 302.5021 -125.1235 -48.3645 30094.8204 -229.5160 -156.9039
ENERGY: 900000 6.4559 5.9051 1.9497 0.0000 -10642.1221 1424.8730 0.0000 0.0000 1726.0700 -7476.8684 294.7397 -9202.9384 -7435.6868 301.1682 -410.4549 -332.2354 30514.7705 -43.0100 27.7851
ENERGY: 1200000 3.0806 7.6236 2.9080 0.0000 -10480.2846 1359.3894 0.0000 0.0000 1717.4063 -7389.8769 293.2603 -9107.2831 -7430.0591 300.5886 -887.6202 -829.7280 30984.7818 -136.0880 -63.2867
ENERGY: 1500000 4.7449 4.8984 3.8352 0.0000 -10676.3337 1434.6445 0.0000 0.0000 1715.8583 -7512.3523 292.9960 -9228.2105 -7434.6789 299.7883 -202.5301 -121.0694 29909.8875 -102.7848 -30.4955
TCL: Running FEP window   7: Lambda1 0.3    Lambda2 0.35   [dLambda 0.04999999999999999]
TCL: Setting parameter firsttimestep to 0
TCL: Setting parameter alchLambda to 0.3
Info: NONBONDED TABLE R-SQUARED SPACING: 0.0625
Info: NONBONDED TABLE SIZE: 705 POINTS
TCL: Setting parameter alchLambda2 to 0.35
Info: NONBONDED TABLE R-SQUARED SPACING: 0.0625
Info: NONBONDED TABLE SIZE: 705 POINTS
TCL: Running for 1500000 steps
ETITLE: TS BOND ANGLE DIHED IMPRP ELECT VDW BOUNDARY MISC KINETIC TOTAL TEMP POTENTIAL TOTALAVG TEMPAVG PRESSURE GPRESSURE VOLUME PRESSAVG GPRESSAVG
ENERGY: 0 4.7449 4.8984 3.8352 0.0000 -10676.3339 1436.6204 0.0000 0.0000 1715.0095 -7511.2254 292.8510 -9226.2349 -7511.2254 292.8510 -186.1350 -103.2560 29909.8875 -186.1350 -103.2560
ENERGY: 300000 4.0656 4.8947 1.5646 0.0000 -10559.2898 1455.4947 0.0000 0.0000 1746.1427 -7347.1274 298.1673 -9093.2701 -7442.0770 295.8047 209.9738 272.1306 30378.9557 -45.9937 13.4115
ENERGY: 600000 3.8973 7.9434 1.2595 0.0000 -10605.7056 1415.1598 0.0000 0.0000 1740.7320 -7436.7135 297.2434 -9177.4455 -7414.4367 298.8464 -141.5289 -33.4543 30013.3647 -23.3855 32.1089
ENERGY: 900000 2.9276 7.6468 2.2728 0.0000 -10668.1388 1459.9754 0.0000 0.0000 1724.0728 -7471.2433 294.3987 -9195.3161 -7421.6159 297.4162 483.0531 525.3636 29516.2285 35.1460 86.7030
ENERGY: 1200000 5.8355 7.3724 4.0149 0.0000 -10573.9253 1444.3110 0.0000 0.0000 1786.1657 -7326.2259 305.0015 -9112.3915 -7409.7467 298.8617 -82.2711 34.1914 30294.6895 102.2352 161.4054
ENERGY: 1500000 6.8373 6.1243 5.7583 0.0000 -10620.5255 1475.8619 0.0000 0.0000 1758.0260 -7367.9177 300.1964 -9125.9437 -7413.7051 298.9142 418.3112 459.9202 30070.4728 101.4248 155.7405
TCL: Running FEP window   8: Lambda1 0.35   Lambda2 0.39999999999999997 [dLambda 0.04999999999999999]
TCL: Setting parameter firsttimestep to 0
TCL: Setting parameter alchLambda to 0.35
Info: NONBONDED TABLE R-SQUARED SPACING: 0.0625
Info: NONBONDED TABLE SIZE: 705 POINTS
TCL: Setting parameter alchLambda2 to 0.39999999999999997
Info: NONBONDED TABLE R-SQUARED SPACING: 0.0625
Info: NONBONDED TABLE SIZE: 705 POINTS
TCL: Running for 1500000 steps
ETITLE: TS BOND ANGLE DIHED IMPRP ELECT VDW BOUNDARY MISC KINETIC TOTAL TEMP POTENTIAL TOTALAVG TEMPAVG PRESSURE GPRESSURE VOLUME PRESSAVG GPRESSAVG
ENERGY: 0 6.8373 6.1243 5.7583 0.0000 -10620.5258 1476.9358 0.0000 0.0000 1757.1709 -7367.6993 300.0504 -9124.8701 -7367.6993 300.0504 373.5859 470.9936 30070.4728 373.5859 470.9936
ENERGY: 300000 5.9649 5.5925 1.6784 0.0000 -10695.8652 1542.6716 0.0000 0.0000 1755.8836 -7384.0742 299.8306 -9139.9578 -7367.4187 302.1124 682.3885 734.3806 30384.5937 276.4224 346.8217
ENERGY: 600000 7.7112 4.5401 2.7285 0.0000 -10568.8904 1422.6127 0.0000 0.0000 1724.0710 -7407.2270 294.3984 -9131.2979 -7395.6238 299.6475 -79.6914 -14.0917 30338.7009 67.9752 133.8279
ENERGY: 900000 9.2857 7.4801 2.2407 0.0000 -10540.6462 1392.2297 0.0000 0.0000 1756.1373 -7373.2727 299.8739 -9129.4100 -7393.4555 299.8270 -442.2171 -434.9191 30442.1633 -79.5763 -25.1939
ENERGY: 1200000 6.5499 8.3765 0.9692 0.0000 -10520.3003 1432.5043 0.0000 0.0000 1829.0198 -7242.8807 312.3192 -9071.9005 -7370.2480 301.2022 200.8917 186.6607 30350.3153 -21.8460 30.0485
ENERGY: 1500000 2.0513 10.7218 5.1962 0.0000 -10550.2298 1392.3128 0.0000 0.0000 1765.9581 -7373.9896 301.5509 -9139.9477 -7377.3941 300.3366 -134.5941 -64.4496 30199.4182 -100.8921 -42.1308
TCL: Running FEP window   9: Lambda1 0.39999999999999997 Lambda2 0.44999999999999996 [dLambda 0.04999999999999999]
TCL: Setting parameter firsttimestep to 0
TCL: Setting parameter alchLambda to 0.39999999999999997
Info: NONBONDED TABLE R-SQUARED SPACING: 0.0625
Info: NONBONDED TABLE SIZE: 705 POINTS
TCL: Setting parameter alchLambda2 to 0.44999999999999996
Info: NONBONDED TABLE R-SQUARED SPACING: 0.0625
Info: NONBONDED TABLE SIZE: 705 POINTS
TCL: Running for 1500000 steps
ETITLE: TS BOND ANGLE DIHED IMPRP ELECT VDW BOUNDARY MISC KINETIC TOTAL TEMP POTENTIAL TOTALAVG TEMPAVG PRESSURE GPRESSURE VOLUME PRESSAVG GPRESSAVG
ENERGY: 0 2.0513 10.7218 5.1962 0.0000 -10550.2301 1393.1094 0.0000 0.0000 1765.0748 -7374.0767 301.4001 -9139.1515 -7374.0767 301.4001 -138.4085 -53.5519 30199.4182 -138.4085 -53.5519
ENERGY: 300000 8.3917 11.6652 3.2673 0.0000 -10618.0265 1427.7036 0.0000 0.0000 1727.1444 -7439.8542 294.9232 -9166.9986 -7380.3823 299.2410 45.5135 78.2973 29947.0514 -283.8324 -212.8590
ENERGY: 600000 2.3251 8.3376 3.5844 0.0000 -10772.2980 1528.1060 0.0000 0.0000 1813.2140 -7416.7308 309.6202 -9229.9448 -7388.3076 301.3701 802.9499 852.0798 29766.8912 4.7883 76.9936
ENERGY: 900000 4.2274 9.8996 5.7988 0.0000 -10610.7967 1438.9554 0.0000 0.0000 1741.6977 -7410.2177 297.4083 -9151.9154 -7394.5652 299.2873 -38.5814 35.7571 30335.8529 -38.3161 32.7140
ENERGY: 1200000 5.1906 6.1039 3.7115 0.0000 -10531.4794 1347.7862 0.0000 0.0000 1753.1172 -7415.5700 299.3582 -9168.6872 -7397.8902 299.3601 -620.0538 -540.2779 30418.5835 -67.4698 3.3390
ENERGY: 1500000 4.3849 5.6226 1.5295 0.0000 -10581.7859 1455.4304 0.0000 0.0000 1712.8796 -7401.9389 292.4874 -9114.8185 -7404.5384 299.3661 -0.7882 0.9802 30727.6000 -61.5342 5.1530
TCL: Running FEP window  10: Lambda1 0.44999999999999996 Lambda2 0.49999999999999994 [dLambda 0.04999999999999999]
TCL: Setting parameter firsttimestep to 0
TCL: Setting parameter alchLambda to 0.44999999999999996
Info: NONBONDED TABLE R-SQUARED SPACING: 0.0625
Info: NONBONDED TABLE SIZE: 705 POINTS
TCL: Setting parameter alchLambda2 to 0.49999999999999994
Info: NONBONDED TABLE R-SQUARED SPACING: 0.0625
Info: NONBONDED TABLE SIZE: 705 POINTS
TCL: Running for 1500000 steps
ETITLE: TS BOND ANGLE DIHED IMPRP ELECT VDW BOUNDARY MISC KINETIC TOTAL TEMP POTENTIAL TOTALAVG TEMPAVG PRESSURE GPRESSURE VOLUME PRESSAVG GPRESSAVG
ENERGY: 0 4.3849 5.6226 1.5295 0.0000 -10581.7856 1455.2944 0.0000 0.0000 1711.9974 -7402.9568 292.3367 -9114.9542 -7402.9568 292.3367 -73.9240 4.6534 30727.6000 -73.9240 4.6534
ENERGY: 300000 4.0721 7.4936 1.5975 0.0000 -10524.4772 1394.2767 0.0000 0.0000 1763.3166 -7353.7208 301.0999 -9117.0374 -7385.3542 300.1024 -233.5660 -163.5537 30230.3271 -297.6105 -224.5624
ENERGY: 600000 6.4235 6.3717 2.6348 0.0000 -10608.6043 1375.6149 0.0000 0.0000 1762.4877 -7455.0717 300.9583 -9217.5594 -7409.4696 298.7036 -836.5513 -802.9820 30484.9396 -151.8646 -87.2577
ENERGY: 900000 4.3406 6.1907 0.9812 0.0000 -10639.9919 1446.6289 0.0000 0.0000 1716.1997 -7465.6508 293.0543 -9181.8505 -7403.2192 299.2104 -187.6031 -153.3448 30555.1304 -213.0953 -146.1616
ENERGY: 1200000 4.6514 6.7962 2.9595 0.0000 -10664.9311 1483.7713 0.0000 0.0000 1757.1877 -7409.5650 300.0533 -9166.7527 -7413.2980 298.9557 480.9509 536.4088 30226.5497 -212.7722 -143.4165
ENERGY: 1500000 5.0161 5.7998 2.9931 0.0000 -10539.3459 1418.9775 0.0000 0.0000 1718.3421 -7388.2173 293.4201 -9106.5594 -7408.6741 298.5173 -291.8051 -221.1217 30675.8701 -234.6897 -162.9146
TCL: Running FEP window  11: Lambda1 0.49999999999999994 Lambda2 0.5499999999999999 [dLambda 0.04999999999999999]
TCL: Setting parameter firsttimestep to 0
TCL: Setting parameter alchLambda to 0.49999999999999994
Info: NONBONDED TABLE R-SQUARED SPACING: 0.0625
Info: NONBONDED TABLE SIZE: 705 POINTS
TCL: Setting parameter alchLambda2 to 0.5499999999999999
Info: NONBONDED TABLE R-SQUARED SPACING: 0.0625
Info: NONBONDED TABLE SIZE: 705 POINTS
TCL: Running for 1500000 steps
ETITLE: TS BOND ANGLE DIHED IMPRP ELECT VDW BOUNDARY MISC KINETIC TOTAL TEMP POTENTIAL TOTALAVG TEMPAVG PRESSURE GPRESSURE VOLUME PRESSAVG GPRESSAVG
ENERGY: 0 5.0161 5.7998 2.9931 0.0000 -10539.3458 1418.6962 0.0000 0.0000 1717.4648 -7389.3758 293.2703 -9106.8406 -7389.3758 293.2703 -303.3547 -219.6349 30675.8701 -303.3547 -219.6349
ENERGY: 300000 3.9952 7.3638 5.2331 0.0000 -10665.1019 1498.8413 0.0000 0.0000 1731.5208 -7418.1477 295.6705 -9149.6685 -7393.0756 295.8560 351.4600 364.1615 30670.9394 -31.2976 34.5955
ENERGY: 600000 8.3831 10.2679 0.8659 0.0000 -10605.8586 1455.7126 0.0000 0.0000 1752.6116 -7378.0175 299.2719 -9130.6291 -7401.5846 296.7344 325.2589 382.3923 30032.7863 125.0849 203.3416
ENERGY: 900000 5.0434 7.6770 2.7034 0.0000 -10545.9257 1403.4793 0.0000 0.0000 1756.2629 -7370.7598 299.8954 -9127.0227 -7391.0225 297.7109 -225.9525 -144.5815 30471.5302 114.9354 184.6161
ENERGY: 1200000 5.7400 5.2064 2.4929 0.0000 -10522.8660 1333.7232 0.0000 0.0000 1792.7376 -7382.9660 306.1237 -9175.7036 -7386.3525 298.0573 -809.5684 -686.4115 30223.6899 18.0824 92.2495
ENERGY: 1500000 8.6119 6.8065 4.2934 0.0000 -10470.2806 1320.1767 0.0000 0.0000 1726.9554 -7403.4368 294.8909 -9130.3921 -7391.7621 298.3739 -914.9741 -782.5145 30359.2799 -47.4758 31.5032
TCL: Running FEP window  12: Lambda1 0.5499999999999999 Lambda2 0.6    [dLambda 0.050000000000000044]
TCL: Setting parameter firsttimestep to 0
TCL: Setting parameter alchLambda to 0.5499999999999999
Info: NONBONDED TABLE R-SQUARED SPACING: 0.0625
Info: NONBONDED TABLE SIZE: 705 POINTS
TCL: Setting parameter alchLambda2 to 0.6
Info: NONBONDED TABLE R-SQUARED SPACING: 0.0625
Info: NONBONDED TABLE SIZE: 705 POINTS
TCL: Running for 1500000 steps
ETITLE: TS BOND ANGLE DIHED IMPRP ELECT VDW BOUNDARY MISC KINETIC TOTAL TEMP POTENTIAL TOTALAVG TEMPAVG PRESSURE GPRESSURE VOLUME PRESSAVG GPRESSAVG
ENERGY: 0 8.6119 6.8065 4.2934 0.0000 -10470.4255 1320.1863 0.0000 0.0000 1726.1073 -7404.4201 294.7461 -9130.5274 -7404.4201 294.7461 -863.5960 -777.8077 30359.2799 -863.5960 -777.8077
ENERGY: 300000 6.8863 5.6165 3.5721 0.0000 -10398.6508 1301.0770 0.0000 0.0000 1789.9018 -7291.5972 305.6395 -9081.4990 -7416.1197 296.0841 -899.3392 -872.7911 30898.5529 -558.6426 -504.4609
ENERGY: 600000 4.4368 6.6155 5.2691 0.0000 -10695.2747 1429.4885 0.0000 0.0000 1740.2466 -7509.2182 297.1605 -9249.4648 -7409.2099 298.5593 -432.0810 -394.1971 30299.0689 -323.2583 -274.5596
ENERGY: 900000 3.8875 7.3122 3.6217 0.0000 -10467.0122 1385.9906 0.0000 0.0000 1784.6244 -7281.5758 304.7383 -9066.2002 -7385.8021 299.4484 -154.9318 -87.2035 30517.3265 -221.0367 -167.5717
ENERGY: 1200000 9.0442 6.5518 2.0588 0.0000 -10649.8293 1469.1193 0.0000 0.0000 1788.2896 -7374.7657 305.3642 -9163.0552 -7386.5538 299.1709 65.1775 107.2831 30479.3511 -237.8954 -184.9440
ENERGY: 1500000 4.1019 6.9520 1.7999 0.0000 -10581.9902 1433.9867 0.0000 0.0000 1772.7772 -7362.3724 302.7153 -9135.1496 -7389.2708 299.0096 -101.9501 -65.4661 30702.3301 -267.2602 -211.4938
TCL: Running FEP window  13: Lambda1 0.6    Lambda2 0.65   [dLambda 0.050000000000000044]
TCL: Setting parameter firsttimestep to 0
TCL: Setting parameter alchLambda to 0.6
Info: NONBONDED TABLE R-SQUARED SPACING: 0.0625
Info: NONBONDED TABLE SIZE: 705 POINTS
TCL: Setting parameter alchLambda2 to 0.65
Info: NONBONDED TABLE R-SQUARED SPACING: 0.0625
Info: NONBONDED TABLE SIZE: 705 POINTS
TCL: Running for 1500000 steps
ETITLE: TS BOND ANGLE DIHED IMPRP ELECT VDW BOUNDARY MISC KINETIC TOTAL TEMP POTENTIAL TOTALAVG TEMPAVG PRESSURE GPRESSURE VOLUME PRESSAVG GPRESSAVG
ENERGY: 0 4.1019 6.9520 1.7999 0.0000 -10581.6774 1434.0274 0.0000 0.0000 1771.9216 -7362.8746 302.5692 -9134.7961 -7362.8746 302.5692 -147.1490 -58.8961 30702.3301 -147.1490 -58.8961
ENERGY: 300000 4.7796 3.7515 5.3861 0.0000 -10654.3809 1445.0003 0.0000 0.0000 1778.4393 -7417.0240 303.6822 -9195.4633 -7420.0094 299.0081 -119.3458 -98.9702 30308.4865 -418.6294 -341.9968
ENERGY: 600000 3.1656 10.2955 1.2777 0.0000 -10707.8160 1462.3737 0.0000 0.0000 1779.0832 -7451.6204 303.7921 -9230.7036 -7407.7511 301.3751 516.5118 558.4618 29613.5310 -91.8875 -31.3731
ENERGY: 900000 5.3143 6.1018 3.2433 0.0000 -10380.6930 1287.4301 0.0000 0.0000 1751.6296 -7326.9738 299.1042 -9078.6034 -7397.3134 300.6117 -986.3088 -903.5573 30595.3452 -276.5868 -206.5556
ENERGY: 1200000 6.2053 6.4967 2.1480 0.0000 -10587.9666 1418.6645 0.0000 0.0000 1763.9798 -7390.4723 301.2131 -9154.4521 -7400.9541 300.3812 -250.4523 -178.6114 30565.5692 -285.7436 -213.8252
ENERGY: 1500000 2.5233 6.1393 1.5684 0.0000 -10540.7861 1395.1018 0.0000 0.0000 1757.3496 -7378.1037 300.0809 -9135.4533 -7400.4078 300.5482 -185.7617 -160.3328 30860.0698 -214.1974 -150.6025
TCL: Running FEP window  14: Lambda1 0.65   Lambda2 0.7000000000000001 [dLambda 0.050000000000000044]
TCL: Setting parameter firsttimestep to 0
TCL: Setting parameter alchLambda to 0.65
Info: NONBONDED TABLE R-SQUARED SPACING: 0.0625
Info: NONBONDED TABLE SIZE: 705 POINTS
TCL: Setting parameter alchLambda2 to 0.7000000000000001
Info: NONBONDED TABLE R-SQUARED SPACING: 0.0625
Info: NONBONDED TABLE SIZE: 705 POINTS
TCL: Running for 1500000 steps
ETITLE: TS BOND ANGLE DIHED IMPRP ELECT VDW BOUNDARY MISC KINETIC TOTAL TEMP POTENTIAL TOTALAVG TEMPAVG PRESSURE GPRESSURE VOLUME PRESSAVG GPRESSAVG
ENERGY: 0 2.5233 6.1393 1.5684 0.0000 -10540.8754 1395.2928 0.0000 0.0000 1756.4813 -7378.8702 299.9327 -9135.3515 -7378.8702 299.9327 -233.6157 -152.0022 30860.0698 -233.6157 -152.0022
ENERGY: 300000 5.9322 6.9188 5.3291 0.0000 -10577.3547 1374.1706 0.0000 0.0000 1709.6039 -7475.4001 291.9280 -9185.0040 -7436.1546 298.7966 -715.5318 -703.8707 30465.6322 -458.3399 -405.7393
ENERGY: 600000 7.4636 6.5053 3.2702 0.0000 -10570.2386 1397.9855 0.0000 0.0000 1797.8624 -7357.1515 306.9988 -9155.0139 -7410.2166 301.0433 -325.5626 -246.8669 30288.5048 -378.8369 -316.7699
ENERGY: 900000 7.0852 3.4208 1.9626 0.0000 -10702.8142 1502.2709 0.0000 0.0000 1777.7741 -7410.3006 303.5686 -9188.0747 -7416.0373 301.9472 436.3137 507.1942 30163.9122 -351.8101 -281.7258
ENERGY: 1200000 3.0868 7.9040 1.3921 0.0000 -10567.3499 1392.9698 0.0000 0.0000 1722.7125 -7439.2847 294.1664 -9161.9972 -7415.6999 300.8140 -282.1184 -207.3551 30412.9575 -239.8863 -176.0302
ENERGY: 1500000 8.1320 7.9422 1.8106 0.0000 -10596.7568 1416.0192 0.0000 0.0000 1757.2144 -7405.6385 300.0579 -9162.8529 -7413.4424 300.3661 -127.9415 -97.1651 30134.1930 -232.0867 -165.9547
TCL: Running FEP window  15: Lambda1 0.7000000000000001 Lambda2 0.7500000000000001 [dLambda 0.050000000000000044]
TCL: Setting parameter firsttimestep to 0
TCL: Setting parameter alchLambda to 0.7000000000000001
Info: NONBONDED TABLE R-SQUARED SPACING: 0.0625
Info: NONBONDED TABLE SIZE: 705 POINTS
TCL: Setting parameter alchLambda2 to 0.7500000000000001
Info: NONBONDED TABLE R-SQUARED SPACING: 0.0625
Info: NONBONDED TABLE SIZE: 705 POINTS
TCL: Running for 1500000 steps
ETITLE: TS BOND ANGLE DIHED IMPRP ELECT VDW BOUNDARY MISC KINETIC TOTAL TEMP POTENTIAL TOTALAVG TEMPAVG PRESSURE GPRESSURE VOLUME PRESSAVG GPRESSAVG
ENERGY: 0 8.1320 7.9422 1.8106 0.0000 -10597.1375 1415.7312 0.0000 0.0000 1756.3392 -7407.1824 299.9084 -9163.5215 -7407.1824 299.9084 -170.8450 -92.8189 30134.1930 -170.8450 -92.8189
ENERGY: 300000 3.0939 8.1668 2.7898 0.0000 -10581.7061 1408.0662 0.0000 0.0000 1755.9744 -7403.6150 299.8461 -9159.5893 -7419.4469 299.1832 -439.8748 -388.9507 30765.4105 -209.3317 -160.1406
ENERGY: 600000 4.2168 7.3086 3.8559 0.0000 -10478.5443 1353.7761 0.0000 0.0000 1757.0103 -7352.3767 300.0230 -9109.3870 -7398.2263 299.7853 -653.5103 -633.2548 30757.6395 -387.4552 -339.3638
ENERGY: 900000 6.3572 6.5526 3.3720 0.0000 -10532.5867 1427.3866 0.0000 0.0000 1729.6120 -7359.3063 295.3445 -9088.9183 -7387.8126 300.0761 276.4083 243.0789 30386.1670 -251.6875 -216.4613
ENERGY: 1200000 4.3873 7.7899 1.7067 0.0000 -10627.2649 1459.2292 0.0000 0.0000 1792.9670 -7361.1849 306.1629 -9154.1518 -7385.6202 300.9073 592.5701 639.2927 30025.1903 -87.9274 -47.6126
ENERGY: 1500000 3.9299 3.8709 1.5708 0.0000 -10729.6688 1544.1646 0.0000 0.0000 1781.5636 -7394.5690 304.2157 -9176.1326 -7385.7689 300.2114 860.2489 913.6503 30102.8973 -50.0939 -5.7904
TCL: Running FEP window  16: Lambda1 0.7500000000000001 Lambda2 0.8000000000000002 [dLambda 0.050000000000000044]
TCL: Setting parameter firsttimestep to 0
TCL: Setting parameter alchLambda to 0.7500000000000001
Info: NONBONDED TABLE R-SQUARED SPACING: 0.0625
Info: NONBONDED TABLE SIZE: 705 POINTS
TCL: Setting parameter alchLambda2 to 0.8000000000000002
Info: NONBONDED TABLE R-SQUARED SPACING: 0.0625
Info: NONBONDED TABLE SIZE: 705 POINTS
TCL: Running for 1500000 steps
ETITLE: TS BOND ANGLE DIHED IMPRP ELECT VDW BOUNDARY MISC KINETIC TOTAL TEMP POTENTIAL TOTALAVG TEMPAVG PRESSURE GPRESSURE VOLUME PRESSAVG GPRESSAVG
ENERGY: 0 3.9299 3.8709 1.5708 0.0000 -10730.2404 1544.1331 0.0000 0.0000 1780.7242 -7396.0115 304.0723 -9176.7357 -7396.0115 304.0723 828.5624 922.6168 30102.8973 828.5624 922.6168
ENERGY: 300000 4.6236 3.2581 3.8968 0.0000 -10642.8800 1416.1635 0.0000 0.0000 1734.3641 -7480.5740 296.1560 -9214.9381 -7416.3087 300.3584 -383.8832 -364.7066 30392.5510 -155.5099 -104.2274
ENERGY: 600000 4.8960 7.8643 2.3657 0.0000 -10659.8139 1450.7696 0.0000 0.0000 1798.4434 -7395.4749 307.0980 -9193.9183 -7429.6214 300.2140 139.6452 288.3809 30222.1883 -24.7210 41.5331
ENERGY: 900000 5.7903 7.2760 2.0337 0.0000 -10758.6707 1489.6364 0.0000 0.0000 1711.6548 -7542.2794 292.2782 -9253.9343 -7427.4923 299.5086 523.9560 597.8281 29558.7544 62.9356 128.2724
ENERGY: 1200000 11.6256 5.7530 4.1290 0.0000 -10644.6980 1476.7709 0.0000 0.0000 1800.6523 -7345.7673 307.4752 -9146.4196 -7424.5377 299.8789 378.1461 475.6950 30033.6616 51.2927 114.5486
ENERGY: 1500000 8.5463 10.6653 0.9945 0.0000 -10540.6801 1390.8543 0.0000 0.0000 1750.8691 -7378.7505 298.9744 -9129.6196 -7411.3139 300.6489 -245.3348 -114.9171 30272.5949 50.0017 113.1473
TCL: Running FEP window  17: Lambda1 0.8000000000000002 Lambda2 0.8500000000000002 [dLambda 0.050000000000000044]
TCL: Setting parameter firsttimestep to 0
TCL: Setting parameter alchLambda to 0.8000000000000002
Info: NONBONDED TABLE R-SQUARED SPACING: 0.0625
Info: NONBONDED TABLE SIZE: 705 POINTS
TCL: Setting parameter alchLambda2 to 0.8500000000000002
Info: NONBONDED TABLE R-SQUARED SPACING: 0.0625
Info: NONBONDED TABLE SIZE: 705 POINTS
TCL: Running for 1500000 steps
ETITLE: TS BOND ANGLE DIHED IMPRP ELECT VDW BOUNDARY MISC KINETIC TOTAL TEMP POTENTIAL TOTALAVG TEMPAVG PRESSURE GPRESSURE VOLUME PRESSAVG GPRESSAVG
ENERGY: 0 8.5463 10.6653 0.9945 0.0000 -10541.3023 1391.0326 0.0000 0.0000 1750.0131 -7380.0504 298.8282 -9130.0635 -7380.0504 298.8282 -192.7908 -104.0467 30272.5949 -192.7908 -104.0467
ENERGY: 300000 8.9701 8.4034 3.7144 0.0000 -10559.9741 1393.8048 0.0000 0.0000 1777.2526 -7367.8287 303.4795 -9145.0813 -7378.9364 301.2113 -297.0975 -205.5156 30601.4125 -182.5894 -121.5965
ENERGY: 600000 2.9383 9.0709 1.2754 0.0000 -10556.1562 1379.5586 0.0000 0.0000 1767.3123 -7396.0008 301.7821 -9163.3130 -7372.2774 301.8437 -248.9911 -238.4980 30377.6281 -200.2749 -153.2225
ENERGY: 900000 9.5588 6.1444 5.2868 0.0000 -10359.8292 1294.5557 0.0000 0.0000 1760.8202 -7283.4633 300.6736 -9044.2835 -7378.4101 301.0766 -1010.3107 -964.3301 30869.3728 -158.5064 -119.1924
ENERGY: 1200000 6.6049 7.2507 1.2843 0.0000 -10594.2211 1433.6831 0.0000 0.0000 1792.7885 -7352.6096 306.1324 -9145.3981 -7395.1085 301.4337 0.0397 106.9369 30393.9693 -92.1019 -47.8159
ENERGY: 1500000 6.7080 9.9047 1.3883 0.0000 -10559.3239 1459.1885 0.0000 0.0000 1745.4479 -7336.6865 298.0486 -9082.1344 -7404.8009 300.0322 255.9560 326.0519 30409.9938 -101.5682 -49.3903
TCL: Running FEP window  18: Lambda1 0.8500000000000002 Lambda2 0.9000000000000002 [dLambda 0.050000000000000044]
TCL: Setting parameter firsttimestep to 0
TCL: Setting parameter alchLambda to 0.8500000000000002
Info: NONBONDED TABLE R-SQUARED SPACING: 0.0625
Info: NONBONDED TABLE SIZE: 705 POINTS
TCL: Setting parameter alchLambda2 to 0.9000000000000002
Info: NONBONDED TABLE R-SQUARED SPACING: 0.0625
Info: NONBONDED TABLE SIZE: 705 POINTS
TCL: Running for 1500000 steps
ETITLE: TS BOND ANGLE DIHED IMPRP ELECT VDW BOUNDARY MISC KINETIC TOTAL TEMP POTENTIAL TOTALAVG TEMPAVG PRESSURE GPRESSURE VOLUME PRESSAVG GPRESSAVG
ENERGY: 0 6.7080 9.9047 1.3883 0.0000 -10560.3467 1459.3937 0.0000 0.0000 1744.5857 -7338.3664 297.9014 -9082.9521 -7338.3664 297.9014 268.1673 340.6090 30409.9938 268.1673 340.6090
ENERGY: 300000 3.6253 9.2000 2.2943 0.0000 -10651.4124 1489.4231 0.0000 0.0000 1734.7454 -7412.1243 296.2211 -9146.8697 -7405.8637 298.0142 461.3613 514.1035 30479.0252 222.3173 285.5624
ENERGY: 600000 3.2328 5.5427 2.3011 0.0000 -10718.6928 1522.7490 0.0000 0.0000 1777.6050 -7407.2622 303.5397 -9184.8671 -7409.9989 298.1393 853.5869 915.7183 29992.6824 194.6193 249.4278
ENERGY: 900000 5.7979 8.0583 4.0061 0.0000 -10443.2790 1311.9344 0.0000 0.0000 1723.0983 -7390.3840 294.2323 -9113.4823 -7400.7929 299.1930 -1014.3603 -981.1896 30632.0602 -64.6793 -11.0601
ENERGY: 1200000 8.9997 6.4902 5.0695 0.0000 -10599.3417 1423.2722 0.0000 0.0000 1804.3833 -7351.1267 308.1123 -9155.5100 -7386.1213 300.8813 -83.5731 -18.1083 30434.1699 -39.1272 21.9449
ENERGY: 1500000 8.3410 8.4679 2.4791 0.0000 -10596.6439 1393.8742 0.0000 0.0000 1709.2527 -7474.2290 291.8680 -9183.4817 -7395.0258 300.4306 -653.9912 -645.6452 30699.5854 -126.6109 -66.9481
TCL: Running FEP window  19: Lambda1 0.9000000000000002 Lambda2 0.9500000000000003 [dLambda 0.050000000000000044]
TCL: Setting parameter firsttimestep to 0
TCL: Setting parameter alchLambda to 0.9000000000000002
Info: NONBONDED TABLE R-SQUARED SPACING: 0.0625
Info: NONBONDED TABLE SIZE: 705 POINTS
TCL: Setting parameter alchLambda2 to 0.9500000000000003
Info: NONBONDED TABLE R-SQUARED SPACING: 0.0625
Info: NONBONDED TABLE SIZE: 705 POINTS
TCL: Running for 1500000 steps
ETITLE: TS BOND ANGLE DIHED IMPRP ELECT VDW BOUNDARY MISC KINETIC TOTAL TEMP POTENTIAL TOTALAVG TEMPAVG PRESSURE GPRESSURE VOLUME PRESSAVG GPRESSAVG
ENERGY: 0 8.3410 8.4679 2.4791 0.0000 -10597.1328 1394.2330 0.0000 0.0000 1708.3783 -7475.2336 291.7187 -9183.6119 -7475.2336 291.7187 -717.8694 -631.8288 30699.5854 -717.8694 -631.8288
ENERGY: 300000 8.4454 6.3261 0.9511 0.0000 -10468.0454 1375.6944 0.0000 0.0000 1800.6124 -7276.0160 307.4684 -9076.6284 -7395.6528 301.4867 -267.5379 -155.2926 30863.7491 -341.0968 -237.9119
ENERGY: 600000 4.4374 8.5536 3.7992 0.0000 -10736.1993 1477.6756 0.0000 0.0000 1802.3975 -7439.3361 307.7732 -9241.7336 -7386.2916 303.1739 19.6092 43.8329 30566.7950 -213.6843 -128.8856
ENERGY: 900000 5.7469 8.5783 0.6613 0.0000 -10583.5766 1392.2589 0.0000 0.0000 1763.4916 -7412.8396 301.1297 -9176.3312 -7384.2326 302.3958 -461.4204 -337.4617 30436.3645 -233.1278 -156.9621
ENERGY: 1200000 8.6125 9.6824 4.0116 0.0000 -10718.1849 1456.1235 0.0000 0.0000 1744.0238 -7495.7312 297.8055 -9239.7549 -7394.7517 301.2241 -199.9224 -149.0828 30496.8111 -270.5491 -196.2932
ENERGY: 1500000 5.8847 7.9613 4.3773 0.0000 -10644.8722 1486.0634 0.0000 0.0000 1691.6159 -7448.9696 288.8564 -9140.5855 -7400.2134 301.1232 587.9184 626.6943 30145.8058 -109.9778 -39.3891
TCL: Running FEP window  20: Lambda1 0.9500000000000003 Lambda2 1.0    [dLambda 0.04999999999999971]
TCL: Setting parameter firsttimestep to 0
TCL: Setting parameter alchLambda to 0.9500000000000003
Info: NONBONDED TABLE R-SQUARED SPACING: 0.0625
Info: NONBONDED TABLE SIZE: 705 POINTS
TCL: Setting parameter alchLambda2 to 1.0
Info: NONBONDED TABLE R-SQUARED SPACING: 0.0625
Info: NONBONDED TABLE SIZE: 705 POINTS
TCL: Running for 1500000 steps
ETITLE: TS BOND ANGLE DIHED IMPRP ELECT VDW BOUNDARY MISC KINETIC TOTAL TEMP POTENTIAL TOTALAVG TEMPAVG PRESSURE GPRESSURE VOLUME PRESSAVG GPRESSAVG
ENERGY: 0 5.8847 7.9613 4.3773 0.0000 -10645.6871 1486.1202 0.0000 0.0000 1690.7456 -7450.5981 288.7078 -9141.3437 -7450.5981 288.7078 571.7884 641.4856 30145.8058 571.7884 641.4856
ENERGY: 300000 9.5650 10.1190 1.0068 0.0000 -10470.4889 1316.4529 0.0000 0.0000 1791.6836 -7341.6615 305.9437 -9133.3451 -7411.2526 298.3958 -783.6020 -732.9643 30322.3649 -168.9794 -90.8816
ENERGY: 600000 4.1593 7.6915 5.0083 0.0000 -10545.0267 1352.1277 0.0000 0.0000 1752.4995 -7423.5403 299.2528 -9176.0399 -7405.7259 299.9004 -721.1629 -596.0382 30551.5814 -152.6431 -65.2092
ENERGY: 900000 5.8711 7.7790 2.1527 0.0000 -10716.3361 1418.8821 0.0000 0.0000 1761.0066 -7520.6446 300.7054 -9281.6512 -7417.7125 300.6435 -320.1440 -199.3696 30210.5475 -110.0800 -28.7274
ENERGY: 1200000 5.4408 7.7133 4.0022 0.0000 -10603.6438 1342.0320 0.0000 0.0000 1762.8417 -7481.6137 301.0188 -9244.4554 -7426.5626 301.0264 -982.7369 -950.8829 30426.5637 -177.2240 -96.2887
ENERGY: 1500000 1.8420 5.5696 3.9682 0.0000 -10626.7203 1429.4611 0.0000 0.0000 1772.2368 -7413.6426 302.6230 -9185.8794 -7425.0089 301.6349 206.4408 197.2054 30346.3814 -126.2916 -53.6091
TCL: Exiting due to exit command.
