Info: SIMULATION PARAMETERS:
Info: TIMESTEP               2
Info: NUMBER OF STEPS        0
Info: STEPS PER CYCLE        10
Info: PERIODIC CELL BASIS 1  32.4548 0 0
Info: PERIODIC CELL BASIS 2  0 32.6056 0
Info: PERIODIC CELL BASIS 3  0 0 28.2534
Info: PERIODIC CELL CENTER   0 0 0
Info: WRAPPING WATERS AROUND PERIODIC BOUNDARIES ON OUTPUT.
Info: WRAPPING ALL CLUSTERS AROUND PERIODIC BOUNDARIES ON OUTPUT.
Info: FIRST LDB TIMESTEP     50
Info: LAST LDB TIMESTEP     -1
Info: HOM BACKGROUND SCALING 1
Info: PME BACKGROUND SCALING 1
Info: MIN ATOMS PER PATCH    40
Info: EMPTY PATCH LOAD       40 ATOMS
Info: VELOCITY FILE          mobley_282648_equil.vel
Info: CENTER OF MASS MOVING INITIALLY? NO
Info: DIELECTRIC             1
Info: EXCLUDE                SCALED ONE-FOUR
Info: 1-4 ELECTROSTATICS SCALED BY 0.833333
Info: MODIFIED 1-4 VDW PARAMETERS WILL BE USED
Info: DCD FILENAME           mobley_282648_prod.dcd
Info: DCD FREQUENCY          100000
Info: DCD FIRST STEP         100000
Info: DCD FILE WILL CONTAIN UNIT CELL DATA
Info: XST FILENAME           mobley_282648_prod.xst
Info: XST FREQUENCY          100000
Info: NO VELOCITY DCD OUTPUT
Info: NO FORCE DCD OUTPUT
Info: OUTPUT FILENAME        mobley_282648_prod
Info: BINARY OUTPUT FILES WILL BE USED
Info: RESTART FILENAME       mobley_282648_prod.restart
Info: RESTART FREQUENCY      100000
Info: BINARY RESTART FILES WILL BE USED
Info: CUTOFF                 9
Info: PAIRLIST DISTANCE      11
Info: PAIRLIST SHRINK RATE   0.01
Info: PAIRLIST GROW RATE     0.01
Info: PAIRLIST TRIGGER       0.3
Info: PAIRLISTS PER CYCLE    2
Info: PAIRLISTS ENABLED
Info: MARGIN                 2
Info: HYDROGEN GROUP CUTOFF  2.5
Info: PATCH DIMENSION        15.5
Info: ENERGY OUTPUT STEPS    100000
Info: ENERGY EVALUATION STEPS    100000
Info: OUTPUT ENERGY PRECISION 4
Info: CROSSTERM ENERGY INCLUDED IN DIHEDRAL
Info: TIMING OUTPUT STEPS    1000000
Info: PRESSURE OUTPUT STEPS  100000
Info: ALCHEMICAL FEP ON
Info: FEP CURRENT LAMBDA VALUE     1
Info: FEP COMPARISON LAMBDA VALUE  0.95
Info: FEP INTRA-ALCHEMICAL NON-BONDED INTERACTIONS WILL BE RETAINED
Info: FEP INTRA-ALCHEMICAL BONDED INTERACTIONS WILL BE RETAINED
Info: FEP VDW SHIFTING COEFFICIENT 5
Info: FEP ELEC. ACTIVE FOR ANNIHILATED PARTICLES BETWEEN LAMBDA = 0 AND LAMBDA = 0.5
Info: FEP ELEC. ACTIVE FOR EXNIHILATED PARTICLES BETWEEN LAMBDA = 0.5 AND LAMBDA = 1
Info: FEP VDW ACTIVE FOR ANNIHILATED PARTICLES BETWEEN LAMBDA = 0 AND LAMBDA = 1
Info: FEP VDW ACTIVE FOR EXNIHILATED PARTICLES BETWEEN LAMBDA = 0 AND LAMBDA = 1
Info: FEP BOND ACTIVE FOR ANNIHILATED PARTICLES BETWEEN LAMBDA = 1 AND LAMBDA = 1
Info: FEP BOND ACTIVE FOR EXNIHILATED PARTICLES BETWEEN LAMBDA = 0 AND LAMBDA = 0
Info: LANGEVIN DYNAMICS ACTIVE
Info: LANGEVIN TEMPERATURE   300
Info: LANGEVIN USING BBK INTEGRATOR
Info: LANGEVIN DAMPING COEFFICIENT IS 1 INVERSE PS
Info: LANGEVIN DYNAMICS APPLIED TO HYDROGENS
Info: LANGEVIN PISTON PRESSURE CONTROL ACTIVE
Info:        TARGET PRESSURE IS 1.01325 BAR
Info:     OSCILLATION PERIOD IS 50 FS
Info:             DECAY TIME IS 25 FS
Info:     PISTON TEMPERATURE IS 300 K
Info:       PRESSURE CONTROL IS GROUP-BASED
Info:    INITIAL STRAIN RATE IS -0.00021783 -0.00021783 -0.00021783
Info:       CELL FLUCTUATION IS ISOTROPIC
Info: PARTICLE MESH EWALD (PME) ACTIVE
Info: PME TOLERANCE               1e-06
Info: PME EWALD COEFFICIENT       0.348832
Info: PME INTERPOLATION ORDER     4
Info: PME GRID DIMENSIONS         36 36 32
Info: PME MAXIMUM GRID SPACING    1
Info: PME CALCULATION WILL BE PERFORMED ON GPU
Info: FULL ELECTROSTATIC EVALUATION FREQUENCY      2
Info: USING VERLET I (r-RESPA) MTS SCHEME.
Info: C1 SPLITTING OF LONG RANGE ELECTROSTATICS
Info: PLACING ATOMS IN PATCHES BY HYDROGEN GROUPS
Info: RIGID BONDS TO HYDROGEN : ALL
Info:         ERROR TOLERANCE : 1e-08
Info:          MAX ITERATIONS : 100
Info: RIGID WATER USING SETTLE ALGORITHM
Info: RANDOM NUMBER SEED     1743611637
Info: USE HYDROGEN BONDS?    NO
Info: Using AMBER format force field!
Info: AMBER PARM FILE        mobley_282648.prmtop
Info: COORDINATE PDB         mobley_282648.pdb
Info: Exclusions will be read from PARM file!
Info: SCNB (VDW SCALING)     2
Info: USING ARITHMETIC MEAN TO COMBINE L-J SIGMA PARAMETERS
Info: BINARY COORDINATES     mobley_282648_equil.coor
Info: SUMMARY OF PARAMETERS:
Info: 4 BONDS
Info: 2 ANGLES
Info:   2 HARMONIC
Info:   0 COSINE-BASED
Info: 2 DIHEDRAL
Info: 0 IMPROPER
Info: 0 CROSSTERM
Info: 0 VDW
Info: 10 VDW_PAIRS
Info: 0 NBTHOLE_PAIRS
Info: To read alchdata from file: mobley_282648.pdb
Info: To read alchflag data from column: 5
Info: STRUCTURE SUMMARY:
Info: 2919 ATOMS
Info: 2920 BONDS
Info: 30 ANGLES
Info: 54 DIHEDRALS
Info: 0 IMPROPERS
Info: 0 CROSSTERMS
Info: 2988 EXCLUSIONS
Info: 2909 RIGID BONDS
Info: ALCH: 0 ATOMS TO DISAPPEAR IN FINAL STATE
Info: ALCH: 18 ATOMS TO APPEAR IN FINAL STATE
Info: 5848 DEGREES OF FREEDOM
Info: 977 HYDROGEN GROUPS
Info: 3 ATOMS IN LARGEST HYDROGEN GROUP
Info: 977 MIGRATION GROUPS
Info: 3 ATOMS IN LARGEST MIGRATION GROUP
Info: TOTAL MASS = 17549.6 amu
Info: TOTAL CHARGE = -0.000300005 e
Info: MASS DENSITY = 0.974736 g/cm^3
Info: ATOM DENSITY = 0.0976323 atoms/A^3
Info: ADDED 0 IMPLICIT EXCLUSIONS
Info: NONBONDED TABLE R-SQUARED SPACING: 0.0625
Info: NONBONDED TABLE SIZE: 705 POINTS
Info: REDUCING NUMBER OF PATCHES TO IMPROVE LOAD BALANCE
Info: REMOVING COM VELOCITY 0.0764851 -0.214135 -0.046862
Info: Use 3D box decompostion in PME FFT.
Info: Updated CUDA force table with 4096 elements.
Info: Updated CUDA LJ table with 4 x 4 elements.
Info: Found 16 unique exclusion lists needing 40 bytes
TCL: Running for 1500000 steps
ETITLE: TS BOND ANGLE DIHED IMPRP ELECT VDW BOUNDARY MISC KINETIC TOTAL TEMP POTENTIAL TOTALAVG TEMPAVG PRESSURE GPRESSURE VOLUME PRESSAVG GPRESSAVG
ENERGY: 0 3.0017 2.9202 6.7903 0.0000 -10756.4507 1546.5097 0.0000 0.0000 1732.2432 -7464.9856 298.1205 -9197.2288 -7464.9856 298.1205 820.9329 896.6659 29897.8828 820.9329 896.6659
ENERGY: 300000 4.4913 5.5399 3.1651 0.0000 -10440.3465 1296.9974 0.0000 0.0000 1762.8446 -7367.3082 303.3871 -9130.1529 -7388.1647 299.8126 -1150.7418 -1051.6862 30311.3310 -130.9486 -57.1021
ENERGY: 600000 0.5416 4.7306 2.9709 0.0000 -10714.6130 1495.5736 0.0000 0.0000 1728.3503 -7482.4460 297.4506 -9210.7963 -7387.9835 298.8580 774.9816 895.6663 29544.4410 -61.4407 12.7849
ENERGY: 900000 6.4773 5.4791 1.7800 0.0000 -10535.9459 1401.3595 0.0000 0.0000 1752.0475 -7368.8026 301.5289 -9120.8501 -7378.0826 300.4035 -62.8801 2.4915 29877.3861 85.1459 153.6190
ENERGY: 1200000 2.3691 4.5659 3.2184 0.0000 -10544.3431 1383.6721 0.0000 0.0000 1747.0576 -7403.4600 300.6701 -9150.5176 -7388.9299 299.3617 -295.2173 -207.3643 29916.5917 154.0652 220.7215
ENERGY: 1500000 3.1169 3.5589 6.9427 0.0000 -10523.8705 1389.9960 0.0000 0.0000 1722.7942 -7397.4618 296.4944 -9120.2561 -7389.2263 299.1837 -332.1602 -242.9183 30327.1625 51.8473 120.7588
TCL: Running FEP window   2: Lambda1 0.95   Lambda2 0.8999999999999999 [dLambda -0.050000000000000044]
TCL: Setting parameter firsttimestep to 0
TCL: Setting parameter alchLambda to 0.95
Info: NONBONDED TABLE R-SQUARED SPACING: 0.0625
Info: NONBONDED TABLE SIZE: 705 POINTS
TCL: Setting parameter alchLambda2 to 0.8999999999999999
Info: NONBONDED TABLE R-SQUARED SPACING: 0.0625
Info: NONBONDED TABLE SIZE: 705 POINTS
TCL: Running for 1500000 steps
ETITLE: TS BOND ANGLE DIHED IMPRP ELECT VDW BOUNDARY MISC KINETIC TOTAL TEMP POTENTIAL TOTALAVG TEMPAVG PRESSURE GPRESSURE VOLUME PRESSAVG GPRESSAVG
ENERGY: 0 3.1169 3.5589 6.9427 0.0000 -10522.4824 1390.2264 0.0000 0.0000 1721.9460 -7396.6915 296.3484 -9118.6375 -7396.6915 296.3484 -344.0785 -253.7995 30327.1625 -344.0785 -253.7995
ENERGY: 300000 2.2729 4.1081 3.9132 0.0000 -10443.3710 1375.4979 0.0000 0.0000 1715.2707 -7342.3083 295.1996 -9057.5791 -7382.3758 296.6814 -129.7137 -66.5582 30259.5958 -203.7395 -120.0184
ENERGY: 600000 4.9781 4.5587 5.7726 0.0000 -10306.7942 1274.7217 0.0000 0.0000 1720.4126 -7296.3506 296.0845 -9016.7631 -7363.2014 298.3083 -578.4771 -608.7171 30132.9603 -152.5113 -82.5676
ENERGY: 900000 1.8439 6.7238 5.9810 0.0000 -10657.8315 1467.7003 0.0000 0.0000 1734.2053 -7441.3771 298.4582 -9175.5824 -7382.6353 298.6551 170.6283 271.5668 29945.9492 -134.1106 -63.0971
ENERGY: 1200000 7.4783 5.0045 6.0726 0.0000 -10518.0175 1426.6948 0.0000 0.0000 1738.1633 -7334.6040 299.1394 -9072.7673 -7374.7825 299.4091 415.4910 468.1144 29846.8188 -30.7788 36.2934
ENERGY: 1500000 4.9685 2.8407 3.5186 0.0000 -10529.6709 1365.8254 0.0000 0.0000 1725.1881 -7427.3296 296.9063 -9152.5177 -7372.9320 300.4118 -762.7874 -735.1593 30354.7155 -137.9836 -73.4521
TCL: Running FEP window   3: Lambda1 0.8999999999999999 Lambda2 0.8499999999999999 [dLambda -0.050000000000000044]
TCL: Setting parameter firsttimestep to 0
TCL: Setting parameter alchLambda to 0.8999999999999999
Info: NONBONDED TABLE R-SQUARED SPACING: 0.0625
Info: NONBONDED TABLE SIZE: 705 POINTS
TCL: Setting parameter alchLambda2 to 0.8499999999999999
Info: NONBONDED TABLE R-SQUARED SPACING: 0.0625
Info: NONBONDED TABLE SIZE: 705 POINTS
TCL: Running for 1500000 steps
ETITLE: TS BOND ANGLE DIHED IMPRP ELECT VDW BOUNDARY MISC KINETIC TOTAL TEMP POTENTIAL TOTALAVG TEMPAVG PRESSURE GPRESSURE VOLUME PRESSAVG GPRESSAVG
ENERGY: 0 4.9685 2.8407 3.5186 0.0000 -10529.0564 1366.2299 0.0000 0.0000 1724.2792 -7427.2195 296.7499 -9151.4987 -7427.2195 296.7499 -813.5542 -741.7347 30354.7155 -813.5542 -741.7347
ENERGY: 300000 3.1563 6.4498 3.1974 0.0000 -10502.3202 1449.8955 0.0000 0.0000 1706.2141 -7333.4071 293.6409 -9039.6212 -7380.9747 296.4134 304.6774 347.0454 30214.9832 -297.5316 -226.2068
ENERGY: 600000 3.3378 2.1550 3.0421 0.0000 -10464.7725 1351.0058 0.0000 0.0000 1755.0528 -7350.1789 302.0461 -9105.2317 -7384.0759 297.1291 -750.3551 -639.5203 30903.4088 -452.8308 -378.6601
ENERGY: 900000 1.7133 2.5192 9.4136 0.0000 -10626.3010 1455.3596 0.0000 0.0000 1738.7329 -7418.5623 299.2374 -9157.2952 -7374.3120 298.3101 139.9620 215.6126 29890.6026 -285.4741 -206.8582
ENERGY: 1200000 3.7134 5.0082 1.9778 0.0000 -10730.4594 1518.1433 0.0000 0.0000 1735.4871 -7466.1296 298.6788 -9201.6167 -7385.0365 298.2268 927.9838 998.0109 29343.6987 -172.2150 -99.0858
ENERGY: 1500000 2.5755 4.4397 2.7128 0.0000 -10523.3280 1348.3611 0.0000 0.0000 1756.7749 -7408.4639 302.3425 -9165.2389 -7379.3660 298.9126 -701.9354 -634.0470 30256.0198 -134.8810 -63.4164
TCL: Running FEP window   4: Lambda1 0.8499999999999999 Lambda2 0.7999999999999998 [dLambda -0.050000000000000044]
TCL: Setting parameter firsttimestep to 0
TCL: Setting parameter alchLambda to 0.8499999999999999
Info: NONBONDED TABLE R-SQUARED SPACING: 0.0625
Info: NONBONDED TABLE SIZE: 705 POINTS
TCL: Setting parameter alchLambda2 to 0.7999999999999998
Info: NONBONDED TABLE R-SQUARED SPACING: 0.0625
Info: NONBONDED TABLE SIZE: 705 POINTS
TCL: Running for 1500000 steps
ETITLE: TS BOND ANGLE DIHED IMPRP ELECT VDW BOUNDARY MISC KINETIC TOTAL TEMP POTENTIAL TOTALAVG TEMPAVG PRESSURE GPRESSURE VOLUME PRESSAVG GPRESSAVG
ENERGY: 0 2.5755 4.4397 2.7128 0.0000 -10522.2971 1348.6390 0.0000 0.0000 1755.9357 -7407.9944 302.1980 -9163.9300 -7407.9944 302.1980 -722.7115 -636.9559 30256.0198 -722.7115 -636.9559
ENERGY: 300000 5.7697 5.7270 3.5665 0.0000 -10599.5194 1447.6682 0.0000 0.0000 1745.3161 -7391.4719 300.3704 -9136.7880 -7391.6815 301.3729 115.9173 136.4032 30126.8126 117.5070 173.4826
ENERGY: 600000 2.6352 5.0712 3.0969 0.0000 -10665.9492 1494.8909 0.0000 0.0000 1759.2409 -7401.0140 302.7669 -9160.2549 -7374.4086 301.2055 829.3142 853.0943 29573.8260 314.4912 365.2809
ENERGY: 900000 3.5232 3.9842 2.6225 0.0000 -10728.4677 1522.4175 0.0000 0.0000 1758.0010 -7437.9193 302.5535 -9195.9202 -7391.3295 301.0330 1311.7032 1327.5573 29110.3499 452.6129 507.9862
ENERGY: 1200000 2.1512 4.1781 4.5442 0.0000 -10622.1868 1431.2300 0.0000 0.0000 1777.9662 -7402.1171 305.9895 -9180.0833 -7385.7672 301.5935 -198.6347 -105.0317 30371.5917 343.0196 406.4397
ENERGY: 1500000 3.5662 3.8465 2.6230 0.0000 -10368.1066 1357.2030 0.0000 0.0000 1771.4171 -7229.4508 304.8624 -9000.8678 -7383.0371 300.9267 -29.3266 -9.5393 29983.9030 256.4429 308.8502
TCL: Running FEP window   5: Lambda1 0.7999999999999998 Lambda2 0.7499999999999998 [dLambda -0.050000000000000044]
TCL: Setting parameter firsttimestep to 0
TCL: Setting parameter alchLambda to 0.7999999999999998
Info: NONBONDED TABLE R-SQUARED SPACING: 0.0625
Info: NONBONDED TABLE SIZE: 705 POINTS
TCL: Setting parameter alchLambda2 to 0.7499999999999998
Info: NONBONDED TABLE R-SQUARED SPACING: 0.0625
Info: NONBONDED TABLE SIZE: 705 POINTS
TCL: Running for 1500000 steps
ETITLE: TS BOND ANGLE DIHED IMPRP ELECT VDW BOUNDARY MISC KINETIC TOTAL TEMP POTENTIAL TOTALAVG TEMPAVG PRESSURE GPRESSURE VOLUME PRESSAVG GPRESSAVG
ENERGY: 0 3.5662 3.8465 2.6230 0.0000 -10367.4374 1357.3615 0.0000 0.0000 1770.5603 -7229.4798 304.7149 -9000.0402 -7229.4798 304.7149 -90.9643 -18.3295 29983.9030 -90.9643 -18.3295
ENERGY: 300000 3.5170 1.9663 2.7482 0.0000 -10528.8650 1365.5400 0.0000 0.0000 1724.1313 -7430.9622 296.7245 -9155.0935 -7341.8325 300.1563 -694.2811 -699.8173 30446.9632 -290.9768 -222.9025
ENERGY: 600000 5.1299 6.2201 5.1545 0.0000 -10641.2793 1499.7292 0.0000 0.0000 1686.9833 -7438.0623 290.3313 -9125.0457 -7373.9859 299.9941 555.4785 674.1291 30008.6011 28.2061 95.1130
ENERGY: 900000 2.8004 5.1619 6.9569 0.0000 -10362.7747 1270.0436 0.0000 0.0000 1737.9481 -7339.8637 299.1024 -9077.8118 -7384.5646 299.1067 -1003.8268 -921.5819 29838.3133 -22.7876 52.4720
ENERGY: 1200000 4.4838 3.7908 4.2864 0.0000 -10575.0832 1389.3872 0.0000 0.0000 1727.7544 -7445.3806 297.3480 -9173.1350 -7398.5575 298.4876 -526.4375 -522.8382 30237.1237 -130.6654 -63.6541
ENERGY: 1500000 8.0826 3.8924 4.9163 0.0000 -10474.9205 1384.7274 0.0000 0.0000 1668.9773 -7404.3245 287.2324 -9073.3018 -7399.7932 298.3203 -494.8652 -430.4264 30284.2785 -186.1973 -120.8465
TCL: Running FEP window   6: Lambda1 0.7499999999999998 Lambda2 0.6999999999999997 [dLambda -0.050000000000000044]
TCL: Setting parameter firsttimestep to 0
TCL: Setting parameter alchLambda to 0.7499999999999998
Info: NONBONDED TABLE R-SQUARED SPACING: 0.0625
Info: NONBONDED TABLE SIZE: 705 POINTS
TCL: Setting parameter alchLambda2 to 0.6999999999999997
Info: NONBONDED TABLE R-SQUARED SPACING: 0.0625
Info: NONBONDED TABLE SIZE: 705 POINTS
TCL: Running for 1500000 steps
ETITLE: TS BOND ANGLE DIHED IMPRP ELECT VDW BOUNDARY MISC KINETIC TOTAL TEMP POTENTIAL TOTALAVG TEMPAVG PRESSURE GPRESSURE VOLUME PRESSAVG GPRESSAVG
ENERGY: 0 8.0826 3.8924 4.9163 0.0000 -10474.5011 1385.3375 0.0000 0.0000 1668.1251 -7404.1473 287.0858 -9072.2724 -7404.1473 287.0858 -522.0703 -433.6853 30284.2785 -522.0703 -433.6853
ENERGY: 300000 2.7226 5.9266 3.6128 0.0000 -10571.8050 1424.9084 0.0000 0.0000 1722.5311 -7412.1036 296.4491 -9134.6347 -7422.4497 296.5107 17.4492 78.6856 29964.0328 -367.6397 -304.5843
ENERGY: 600000 5.0962 6.1869 6.4353 0.0000 -10593.0039 1443.3392 0.0000 0.0000 1685.7863 -7446.1600 290.1253 -9131.9463 -7416.9820 296.7160 185.8657 244.8930 29560.5708 -181.5526 -117.1464
ENERGY: 900000 2.5269 1.5626 5.1934 0.0000 -10445.9153 1301.4676 0.0000 0.0000 1772.2840 -7362.8808 305.0116 -9135.1649 -7402.6559 296.3383 -1081.7323 -993.3355 30107.7443 -310.1810 -245.3454
ENERGY: 1200000 4.8309 3.1063 6.3381 0.0000 -10659.3242 1461.0896 0.0000 0.0000 1722.0546 -7461.9048 296.3671 -9183.9593 -7397.5675 297.8450 308.0589 378.8221 29857.9094 -161.3255 -97.4407
ENERGY: 1500000 7.3354 3.7198 4.8813 0.0000 -10499.4102 1417.9749 0.0000 0.0000 1721.4393 -7344.0594 296.2612 -9065.4988 -7393.8221 298.2216 -444.4648 -338.6135 30354.1502 -143.8165 -84.1422
TCL: Running FEP window   7: Lambda1 0.6999999999999997 Lambda2 0.6499999999999997 [dLambda -0.050000000000000044]
TCL: Setting parameter firsttimestep to 0
TCL: Setting parameter alchLambda to 0.6999999999999997
Info: NONBONDED TABLE R-SQUARED SPACING: 0.0625
Info: NONBONDED TABLE SIZE: 705 POINTS
TCL: Setting parameter alchLambda2 to 0.6499999999999997
Info: NONBONDED TABLE R-SQUARED SPACING: 0.0625
Info: NONBONDED TABLE SIZE: 705 POINTS
TCL: Running for 1500000 steps
ETITLE: TS BOND ANGLE DIHED IMPRP ELECT VDW BOUNDARY MISC KINETIC TOTAL TEMP POTENTIAL TOTALAVG TEMPAVG PRESSURE GPRESSURE VOLUME PRESSAVG GPRESSAVG
ENERGY: 0 7.3354 3.7198 4.8813 0.0000 -10498.8516 1418.1321 0.0000 0.0000 1720.5970 -7344.1859 296.1162 -9064.7829 -7344.1859 296.1162 -409.4751 -346.3288 30354.1502 -409.4751 -346.3288
ENERGY: 300000 3.2826 7.2949 5.0625 0.0000 -10568.5224 1414.5271 0.0000 0.0000 1740.0560 -7398.2994 299.4651 -9138.3553 -7327.5214 297.9527 -226.6042 -155.7379 30427.9176 -192.8477 -114.6982
ENERGY: 600000 3.2778 4.5205 3.6595 0.0000 -10403.1300 1365.5475 0.0000 0.0000 1701.4203 -7324.7042 292.8159 -9026.1246 -7346.5267 297.5369 -264.3226 -138.0731 30006.2964 -185.4598 -103.9822
ENERGY: 900000 3.5801 5.3934 5.6118 0.0000 -10467.3351 1325.4401 0.0000 0.0000 1771.2278 -7356.0819 304.8298 -9127.3097 -7362.4506 298.2489 -478.9246 -435.9899 29742.0662 -124.1404 -57.2976
ENERGY: 1200000 3.8132 3.4458 2.4039 0.0000 -10515.4224 1400.2416 0.0000 0.0000 1748.7473 -7356.7706 300.9609 -9105.5178 -7368.8855 299.1857 -380.3410 -322.9471 30326.0971 -263.5721 -200.9569
ENERGY: 1500000 2.4457 7.1068 3.4268 0.0000 -10471.2978 1412.9356 0.0000 0.0000 1794.4297 -7250.9532 308.8229 -9045.3829 -7361.1000 300.4062 136.8151 228.9886 30154.9641 -234.5940 -171.1894
TCL: Running FEP window   8: Lambda1 0.6499999999999997 Lambda2 0.5999999999999996 [dLambda -0.050000000000000044]
TCL: Setting parameter firsttimestep to 0
TCL: Setting parameter alchLambda to 0.6499999999999997
Info: NONBONDED TABLE R-SQUARED SPACING: 0.0625
Info: NONBONDED TABLE SIZE: 705 POINTS
TCL: Setting parameter alchLambda2 to 0.5999999999999996
Info: NONBONDED TABLE R-SQUARED SPACING: 0.0625
Info: NONBONDED TABLE SIZE: 705 POINTS
TCL: Running for 1500000 steps
ETITLE: TS BOND ANGLE DIHED IMPRP ELECT VDW BOUNDARY MISC KINETIC TOTAL TEMP POTENTIAL TOTALAVG TEMPAVG PRESSURE GPRESSURE VOLUME PRESSAVG GPRESSAVG
ENERGY: 0 2.4457 7.1068 3.4268 0.0000 -10470.4190 1413.4508 0.0000 0.0000 1793.5588 -7250.4302 308.6730 -9043.9890 -7250.4302 308.6730 128.9344 229.2421 30154.9641 128.9344 229.2421
ENERGY: 300000 4.9940 5.6111 4.2308 0.0000 -10476.1650 1380.2580 0.0000 0.0000 1708.7536 -7372.3175 294.0780 -9081.0711 -7356.7512 300.5236 -349.2841 -226.1963 30372.7959 184.6240 259.2528
ENERGY: 600000 5.9414 2.3707 4.4584 0.0000 -10495.4563 1393.6050 0.0000 0.0000 1803.9712 -7285.1096 310.4650 -9089.0807 -7338.4098 301.7996 -301.6992 -224.7411 30286.2320 -10.9115 59.8695
ENERGY: 900000 3.5502 4.6767 3.5318 0.0000 -10585.1295 1506.0021 0.0000 0.0000 1764.3880 -7302.9807 303.6527 -9067.3688 -7338.8698 302.4130 691.0862 773.8995 30025.6787 21.2578 97.2592
ENERGY: 1200000 3.1504 3.1869 2.4007 0.0000 -10614.3188 1470.2404 0.0000 0.0000 1766.4231 -7368.9173 304.0029 -9135.3404 -7343.5718 301.5760 333.6192 371.2213 30268.4921 149.0479 218.9732
ENERGY: 1500000 1.3551 5.2037 5.3306 0.0000 -10571.0710 1481.5167 0.0000 0.0000 1702.1712 -7375.4937 292.9451 -9077.6649 -7357.9426 300.2412 479.3331 543.1622 30378.6540 134.1286 194.1480
TCL: Running FEP window   9: Lambda1 0.5999999999999996 Lambda2 0.5499999999999996 [dLambda -0.050000000000000044]
TCL: Setting parameter firsttimestep to 0
TCL: Setting parameter alchLambda to 0.5999999999999996
Info: NONBONDED TABLE R-SQUARED SPACING: 0.0625
Info: NONBONDED TABLE SIZE: 705 POINTS
TCL: Setting parameter alchLambda2 to 0.5499999999999996
Info: NONBONDED TABLE R-SQUARED SPACING: 0.0625
Info: NONBONDED TABLE SIZE: 705 POINTS
TCL: Running for 1500000 steps
ETITLE: TS BOND ANGLE DIHED IMPRP ELECT VDW BOUNDARY MISC KINETIC TOTAL TEMP POTENTIAL TOTALAVG TEMPAVG PRESSURE GPRESSURE VOLUME PRESSAVG GPRESSAVG
ENERGY: 0 1.3551 5.2037 5.3306 0.0000 -10570.9707 1481.7012 0.0000 0.0000 1701.3329 -7376.0472 292.8008 -9077.3801 -7376.0472 292.8008 445.4391 535.0950 30378.6540 445.4391 535.0950
ENERGY: 300000 2.5789 6.2498 8.8556 0.0000 -10586.9609 1445.2168 0.0000 0.0000 1671.9403 -7452.1195 287.7423 -9124.0597 -7325.6803 301.9307 251.3243 325.0989 29904.3821 115.5554 185.7563
ENERGY: 600000 1.7554 4.9444 4.1057 0.0000 -10478.5258 1427.1365 0.0000 0.0000 1756.4424 -7284.1414 302.2852 -9040.5838 -7340.2569 300.7113 273.3811 347.5740 30252.9826 -58.6352 1.8243
ENERGY: 900000 7.8622 4.0905 6.6173 0.0000 -10552.6507 1396.5423 0.0000 0.0000 1805.3890 -7332.1494 310.7090 -9137.5384 -7343.4612 300.4346 -120.4580 -33.2084 29648.9627 -9.5720 57.9310
ENERGY: 1200000 1.9906 4.2057 5.4770 0.0000 -10601.0782 1458.4407 0.0000 0.0000 1742.0159 -7388.9482 299.8024 -9130.9642 -7356.6492 299.9534 294.0799 342.8743 30165.4383 -44.8725 21.0609
ENERGY: 1500000 3.7537 6.9178 2.1985 0.0000 -10635.2882 1509.2498 0.0000 0.0000 1756.9388 -7356.2297 302.3707 -9113.1685 -7358.8956 300.5681 808.1366 839.7980 29905.4851 -67.5801 -0.5363
TCL: Running FEP window  10: Lambda1 0.5499999999999996 Lambda2 0.4999999999999996 [dLambda -0.04999999999999999]
TCL: Setting parameter firsttimestep to 0
TCL: Setting parameter alchLambda to 0.5499999999999996
Info: NONBONDED TABLE R-SQUARED SPACING: 0.0625
Info: NONBONDED TABLE SIZE: 705 POINTS
TCL: Setting parameter alchLambda2 to 0.4999999999999996
Info: NONBONDED TABLE R-SQUARED SPACING: 0.0625
Info: NONBONDED TABLE SIZE: 705 POINTS
TCL: Running for 1500000 steps
ETITLE: TS BOND ANGLE DIHED IMPRP ELECT VDW BOUNDARY MISC KINETIC TOTAL TEMP POTENTIAL TOTALAVG TEMPAVG PRESSURE GPRESSURE VOLUME PRESSAVG GPRESSAVG
ENERGY: 0 3.7537 6.9178 2.1985 0.0000 -10635.3687 1509.4968 0.0000 0.0000 1756.0988 -7356.9030 302.2261 -9113.0018 -7356.9030 302.2261 755.0549 831.8690 29905.4851 755.0549 831.8690
ENERGY: 300000 2.9305 5.1074 4.0223 0.0000 -10680.4513 1489.7490 0.0000 0.0000 1734.3277 -7444.3145 298.4793 -9178.6421 -7400.5757 302.2172 361.6923 315.2319 30078.4868 -104.0093 -58.9715
ENERGY: 600000 2.5430 4.5977 4.0277 0.0000 -10589.8995 1407.3112 0.0000 0.0000 1722.9756 -7448.4443 296.5256 -9171.4199 -7409.3926 300.3228 -125.3544 -95.9526 29732.0377 -19.4276 29.4766
ENERGY: 900000 4.0451 3.3164 3.3042 0.0000 -10602.7241 1448.0167 0.0000 0.0000 1719.2560 -7424.7858 295.8854 -9144.0418 -7388.7856 301.9212 -104.7573 -5.1194 30158.5532 -172.2474 -120.8963
ENERGY: 1200000 2.1410 3.4763 2.9614 0.0000 -10726.7309 1518.7563 0.0000 0.0000 1784.9171 -7414.4789 307.1858 -9199.3960 -7400.3936 301.6189 531.5976 655.7992 29811.3400 -129.8614 -72.9187
ENERGY: 1500000 2.9220 3.7656 4.3426 0.0000 -10568.7647 1471.1089 0.0000 0.0000 1725.1030 -7361.5226 296.8917 -9086.6256 -7395.1206 300.8712 456.9500 564.7563 29656.8455 -45.3803 20.7374
TCL: Running FEP window  11: Lambda1 0.4999999999999996 Lambda2 0.4499999999999996 [dLambda -0.04999999999999999]
TCL: Setting parameter firsttimestep to 0
TCL: Setting parameter alchLambda to 0.4999999999999996
Info: NONBONDED TABLE R-SQUARED SPACING: 0.0625
Info: NONBONDED TABLE SIZE: 705 POINTS
TCL: Setting parameter alchLambda2 to 0.4499999999999996
Info: NONBONDED TABLE R-SQUARED SPACING: 0.0625
Info: NONBONDED TABLE SIZE: 705 POINTS
TCL: Running for 1500000 steps
ETITLE: TS BOND ANGLE DIHED IMPRP ELECT VDW BOUNDARY MISC KINETIC TOTAL TEMP POTENTIAL TOTALAVG TEMPAVG PRESSURE GPRESSURE VOLUME PRESSAVG GPRESSAVG
ENERGY: 0 2.9220 3.7656 4.3426 0.0000 -10568.9374 1471.3807 0.0000 0.0000 1724.2532 -7362.2734 296.7454 -9086.5265 -7362.2734 296.7454 475.8623 560.8707 29656.8455 475.8623 560.8707
ENERGY: 300000 2.4962 7.4107 1.8399 0.0000 -10497.8666 1345.7833 0.0000 0.0000 1788.2527 -7352.0837 307.7598 -9140.3365 -7336.8640 301.2807 -347.2970 -269.7099 29632.6900 141.9703 211.6501
ENERGY: 600000 5.0177 4.2089 2.5106 0.0000 -10605.1698 1469.0471 0.0000 0.0000 1744.1763 -7380.2092 300.1742 -9124.3855 -7375.8579 300.0882 310.4425 423.2769 29791.6240 -34.6628 42.6055
ENERGY: 900000 3.6612 5.2743 5.5938 0.0000 -10611.6301 1474.9777 0.0000 0.0000 1743.0154 -7379.1079 299.9744 -9122.1232 -7374.8025 299.7588 183.5487 224.7540 30256.5038 -18.0160 55.6003
ENERGY: 1200000 2.7644 2.6623 6.2458 0.0000 -10485.0890 1376.4248 0.0000 0.0000 1702.3751 -7394.6166 292.9802 -9096.9917 -7374.3391 298.9722 -226.5890 -231.2559 30238.1259 6.4621 78.5203
ENERGY: 1500000 2.1721 2.1148 2.6296 0.0000 -10612.3930 1427.6336 0.0000 0.0000 1837.7016 -7340.1414 316.2700 -9177.8429 -7370.7582 300.5468 96.0847 148.9803 29773.6006 101.5550 171.1076
TCL: Running FEP window  12: Lambda1 0.4499999999999996 Lambda2 0.39999999999999963 [dLambda -0.04999999999999999]
TCL: Setting parameter firsttimestep to 0
TCL: Setting parameter alchLambda to 0.4499999999999996
Info: NONBONDED TABLE R-SQUARED SPACING: 0.0625
Info: NONBONDED TABLE SIZE: 705 POINTS
TCL: Setting parameter alchLambda2 to 0.39999999999999963
Info: NONBONDED TABLE R-SQUARED SPACING: 0.0625
Info: NONBONDED TABLE SIZE: 705 POINTS
TCL: Running for 1500000 steps
ETITLE: TS BOND ANGLE DIHED IMPRP ELECT VDW BOUNDARY MISC KINETIC TOTAL TEMP POTENTIAL TOTALAVG TEMPAVG PRESSURE GPRESSURE VOLUME PRESSAVG GPRESSAVG
ENERGY: 0 2.1721 2.1148 2.6296 0.0000 -10612.3938 1428.4376 0.0000 0.0000 1836.8077 -7340.2319 316.1162 -9177.0396 -7340.2319 316.1162 59.2681 147.9773 29773.6006 59.2681 147.9773
ENERGY: 300000 2.6119 4.2924 5.8033 0.0000 -10542.4831 1427.7763 0.0000 0.0000 1703.8314 -7398.1677 293.2308 -9101.9991 -7375.0310 304.8390 325.0740 334.8953 29855.7350 92.4233 147.6145
ENERGY: 600000 4.9177 6.0620 3.4910 0.0000 -10561.1055 1474.5463 0.0000 0.0000 1751.3251 -7320.7634 301.4045 -9072.0885 -7367.6868 302.6467 338.3017 367.8713 30295.0379 -48.6568 4.8975
ENERGY: 900000 4.3456 1.8738 4.6534 0.0000 -10574.1696 1414.7387 0.0000 0.0000 1696.0409 -7452.5171 291.8901 -9148.5580 -7386.4862 301.3229 -364.0603 -291.2060 30229.8890 -181.3399 -133.3498
ENERGY: 1200000 2.8356 5.4847 3.8738 0.0000 -10503.0513 1397.9912 0.0000 0.0000 1709.2965 -7383.5695 294.1714 -9092.8660 -7379.9074 300.9393 -238.9171 -131.2539 29980.7399 -69.6379 -15.6676
ENERGY: 1500000 4.1172 3.3852 3.2523 0.0000 -10539.3589 1425.7679 0.0000 0.0000 1755.9969 -7346.8394 302.2086 -9102.8363 -7378.2974 300.7524 110.5095 161.1272 30043.5640 -101.3838 -47.9993
TCL: Running FEP window  13: Lambda1 0.39999999999999963 Lambda2 0.34999999999999964 [dLambda -0.04999999999999999]
TCL: Setting parameter firsttimestep to 0
TCL: Setting parameter alchLambda to 0.39999999999999963
Info: NONBONDED TABLE R-SQUARED SPACING: 0.0625
Info: NONBONDED TABLE SIZE: 705 POINTS
TCL: Setting parameter alchLambda2 to 0.34999999999999964
Info: NONBONDED TABLE R-SQUARED SPACING: 0.0625
Info: NONBONDED TABLE SIZE: 705 POINTS
TCL: Running for 1500000 steps
ETITLE: TS BOND ANGLE DIHED IMPRP ELECT VDW BOUNDARY MISC KINETIC TOTAL TEMP POTENTIAL TOTALAVG TEMPAVG PRESSURE GPRESSURE VOLUME PRESSAVG GPRESSAVG
ENERGY: 0 4.1172 3.3852 3.2523 0.0000 -10539.3581 1425.9037 0.0000 0.0000 1755.1428 -7347.5570 302.0616 -9102.6997 -7347.5570 302.0616 60.4826 156.7632 30043.5640 60.4826 156.7632
ENERGY: 300000 2.2747 2.8472 2.6106 0.0000 -10699.8393 1503.9385 0.0000 0.0000 1789.3352 -7398.8331 307.9461 -9188.1683 -7371.5996 302.4239 675.2467 721.2179 29649.8325 152.6537 197.8119
ENERGY: 600000 5.0634 1.8838 3.0149 0.0000 -10528.8240 1425.6976 0.0000 0.0000 1709.5245 -7383.6398 294.2106 -9093.1643 -7382.8008 299.3200 16.3414 92.0079 30050.0656 30.7100 100.2783
ENERGY: 900000 1.8426 3.3266 4.1421 0.0000 -10510.4698 1398.8164 0.0000 0.0000 1721.7739 -7380.5682 296.3188 -9102.3420 -7375.8764 299.3787 83.9499 107.0128 29488.9346 -50.1293 10.0402
ENERGY: 1200000 4.7369 2.8855 3.7250 0.0000 -10731.4329 1550.2523 0.0000 0.0000 1784.5947 -7385.2385 307.1303 -9169.8332 -7379.2251 300.3074 906.4647 952.0072 29869.0249 -14.5655 47.8770
ENERGY: 1500000 8.2683 3.9359 4.9219 0.0000 -10522.2444 1416.5999 0.0000 0.0000 1737.8205 -7350.6979 299.0804 -9088.5184 -7379.6568 299.9207 -251.3108 -186.0550 30266.1299 -5.4815 52.9646
TCL: Running FEP window  14: Lambda1 0.34999999999999964 Lambda2 0.29999999999999966 [dLambda -0.04999999999999999]
TCL: Setting parameter firsttimestep to 0
TCL: Setting parameter alchLambda to 0.34999999999999964
Info: NONBONDED TABLE R-SQUARED SPACING: 0.0625
Info: NONBONDED TABLE SIZE: 705 POINTS
TCL: Setting parameter alchLambda2 to 0.29999999999999966
Info: NONBONDED TABLE R-SQUARED SPACING: 0.0625
Info: NONBONDED TABLE SIZE: 705 POINTS
TCL: Running for 1500000 steps
ETITLE: TS BOND ANGLE DIHED IMPRP ELECT VDW BOUNDARY MISC KINETIC TOTAL TEMP POTENTIAL TOTALAVG TEMPAVG PRESSURE GPRESSURE VOLUME PRESSAVG GPRESSAVG
ENERGY: 0 8.2683 3.9359 4.9219 0.0000 -10522.2441 1417.1053 0.0000 0.0000 1736.9650 -7351.0479 298.9331 -9088.0128 -7351.0479 298.9331 -255.9159 -189.2982 30266.1299 -255.9159 -189.2982
ENERGY: 300000 1.2624 3.0177 5.4432 0.0000 -10552.5722 1389.0483 0.0000 0.0000 1723.6513 -7430.1493 296.6419 -9153.8006 -7381.3371 297.0769 -287.8160 -235.3765 29832.0649 -306.8089 -262.5496
ENERGY: 600000 3.2927 9.6577 3.5546 0.0000 -10472.3854 1374.2404 0.0000 0.0000 1723.1414 -7358.4985 296.5541 -9081.6399 -7365.3147 299.0325 -512.1502 -391.9676 30027.4658 -311.9382 -254.9590
ENERGY: 900000 4.9574 6.7446 3.5741 0.0000 -10674.2530 1421.9450 0.0000 0.0000 1731.6518 -7505.3801 298.0187 -9237.0319 -7390.8805 298.6124 -386.6874 -293.4718 29913.6370 -153.9096 -88.4908
ENERGY: 1200000 4.7012 6.1082 8.2539 0.0000 -10549.3961 1404.5103 0.0000 0.0000 1776.6460 -7349.1764 305.7623 -9125.8224 -7389.3455 298.1169 116.4048 140.0891 29527.7391 -162.2057 -103.7848
ENERGY: 1500000 2.5145 3.7528 2.3564 0.0000 -10355.0582 1339.0470 0.0000 0.0000 1759.7427 -7247.6447 302.8532 -9007.3874 -7382.3169 298.4015 -404.2760 -395.3632 30395.1815 -180.2849 -123.9553
TCL: Running FEP window  15: Lambda1 0.29999999999999966 Lambda2 0.24999999999999967 [dLambda -0.04999999999999999]
TCL: Setting parameter firsttimestep to 0
TCL: Setting parameter alchLambda to 0.29999999999999966
Info: NONBONDED TABLE R-SQUARED SPACING: 0.0625
Info: NONBONDED TABLE SIZE: 705 POINTS
TCL: Setting parameter alchLambda2 to 0.24999999999999967
Info: NONBONDED TABLE R-SQUARED SPACING: 0.0625
Info: NONBONDED TABLE SIZE: 705 POINTS
TCL: Running for 1500000 steps
ETITLE: TS BOND ANGLE DIHED IMPRP ELECT VDW BOUNDARY MISC KINETIC TOTAL TEMP POTENTIAL TOTALAVG TEMPAVG PRESSURE GPRESSURE VOLUME PRESSAVG GPRESSAVG
ENERGY: 0 2.5145 3.7528 2.3564 0.0000 -10355.0582 1339.5196 0.0000 0.0000 1758.8931 -7248.0217 302.7070 -9006.9148 -7248.0217 302.7070 -470.4252 -396.5159 30395.1815 -470.4252 -396.5159
ENERGY: 300000 5.5443 3.9828 1.9101 0.0000 -10549.6016 1429.3269 0.0000 0.0000 1743.0132 -7365.8243 299.9740 -9108.8374 -7381.0011 297.0350 -190.7087 -163.3288 30239.2470 -108.8749 -81.6361
ENERGY: 600000 3.2573 4.9165 2.0755 0.0000 -10591.5149 1426.1928 0.0000 0.0000 1731.1877 -7423.8850 297.9389 -9155.0727 -7392.6735 296.8450 -282.9791 -277.4896 30416.2172 -279.3571 -240.5083
ENERGY: 900000 2.5756 4.2565 4.8520 0.0000 -10526.8982 1428.8015 0.0000 0.0000 1747.3161 -7339.0964 300.7146 -9086.4125 -7400.3606 295.9723 118.1258 166.7402 30065.9548 -196.4551 -154.6406
ENERGY: 1200000 1.3449 2.6827 7.3600 0.0000 -10520.3615 1422.7411 0.0000 0.0000 1807.9822 -7278.2506 311.1553 -9086.2328 -7385.7356 298.8969 -152.2172 -160.7623 30766.1835 -151.4271 -111.1104
ENERGY: 1500000 3.1330 4.0069 7.2117 0.0000 -10643.4504 1445.7736 0.0000 0.0000 1698.5268 -7484.7985 292.3179 -9183.3253 -7394.7831 298.2550 -218.1342 -142.2231 30375.5739 -153.3802 -106.0307
TCL: Running FEP window  16: Lambda1 0.24999999999999967 Lambda2 0.19999999999999968 [dLambda -0.04999999999999999]
TCL: Setting parameter firsttimestep to 0
TCL: Setting parameter alchLambda to 0.24999999999999967
Info: NONBONDED TABLE R-SQUARED SPACING: 0.0625
Info: NONBONDED TABLE SIZE: 705 POINTS
TCL: Setting parameter alchLambda2 to 0.19999999999999968
Info: NONBONDED TABLE R-SQUARED SPACING: 0.0625
Info: NONBONDED TABLE SIZE: 705 POINTS
TCL: Running for 1500000 steps
ETITLE: TS BOND ANGLE DIHED IMPRP ELECT VDW BOUNDARY MISC KINETIC TOTAL TEMP POTENTIAL TOTALAVG TEMPAVG PRESSURE GPRESSURE VOLUME PRESSAVG GPRESSAVG
ENERGY: 0 3.1330 4.0069 7.2117 0.0000 -10643.4505 1445.7648 0.0000 0.0000 1697.6301 -7485.7040 292.1636 -9183.3341 -7485.7040 292.1636 -227.8271 -147.9422 30375.5739 -227.8271 -147.9422
ENERGY: 300000 1.4088 2.9288 6.4073 0.0000 -10556.3381 1458.3791 0.0000 0.0000 1750.5023 -7336.7118 301.2629 -9087.2141 -7379.6129 298.9052 519.7444 578.9547 29543.0847 -95.8197 -49.7242
ENERGY: 600000 3.3515 5.8604 4.9636 0.0000 -10642.8602 1474.3636 0.0000 0.0000 1771.5538 -7382.7673 304.8859 -9154.3212 -7392.9247 300.8606 445.6984 474.6942 29714.6350 151.9776 208.2695
ENERGY: 900000 0.8621 6.0476 2.3402 0.0000 -10598.4888 1457.2001 0.0000 0.0000 1737.9541 -7394.0847 299.1034 -9132.0388 -7387.8224 301.0045 225.8522 244.1912 29998.7201 133.3988 183.4945
ENERGY: 1200000 2.2068 9.0777 1.6764 0.0000 -10618.2867 1507.6860 0.0000 0.0000 1746.4949 -7351.1449 300.5733 -9097.6398 -7374.3025 301.2601 940.1928 989.4179 29435.8733 226.2541 275.9817
ENERGY: 1500000 2.4280 4.2371 3.3402 0.0000 -10594.7986 1472.5632 0.0000 0.0000 1770.9979 -7341.2321 304.7902 -9112.2300 -7372.0880 301.4710 438.0696 492.5410 29652.2197 184.0215 234.8392
TCL: Running FEP window  17: Lambda1 0.19999999999999968 Lambda2 0.1499999999999997 [dLambda -0.04999999999999999]
TCL: Setting parameter firsttimestep to 0
TCL: Setting parameter alchLambda to 0.19999999999999968
Info: NONBONDED TABLE R-SQUARED SPACING: 0.0625
Info: NONBONDED TABLE SIZE: 705 POINTS
TCL: Setting parameter alchLambda2 to 0.1499999999999997
Info: NONBONDED TABLE R-SQUARED SPACING: 0.0625
Info: NONBONDED TABLE SIZE: 705 POINTS
TCL: Running for 1500000 steps
ETITLE: TS BOND ANGLE DIHED IMPRP ELECT VDW BOUNDARY MISC KINETIC TOTAL TEMP POTENTIAL TOTALAVG TEMPAVG PRESSURE GPRESSURE VOLUME PRESSAVG GPRESSAVG
ENERGY: 0 2.4281 4.2371 3.3402 0.0000 -10594.7972 1473.0669 0.0000 0.0000 1770.0740 -7341.6509 304.6312 -9111.7249 -7341.6509 304.6312 402.6633 495.3981 29652.2197 402.6633 495.3981
ENERGY: 300000 4.7092 3.1727 4.7213 0.0000 -10636.0235 1460.7423 0.0000 0.0000 1755.4325 -7407.2456 302.1114 -9162.6781 -7378.3762 301.7449 160.3944 198.0518 29827.6979 309.5500 361.7558
ENERGY: 600000 2.9433 4.0555 6.5357 0.0000 -10663.4463 1588.1858 0.0000 0.0000 1759.2107 -7302.5155 302.7617 -9061.7261 -7348.7580 303.7052 1322.6403 1335.4850 30196.3736 469.8102 519.3088
ENERGY: 900000 4.1049 4.3889 4.2558 0.0000 -10555.2818 1432.0919 0.0000 0.0000 1805.2766 -7305.1639 310.6896 -9110.4404 -7338.5449 303.8115 10.7121 97.9420 29930.1298 377.7129 442.8089
ENERGY: 1200000 4.9046 3.4644 4.0718 0.0000 -10538.4707 1476.3661 0.0000 0.0000 1669.2605 -7380.4034 287.2812 -9049.6639 -7334.8751 303.6463 261.6470 330.6577 30388.9377 314.8291 376.8726
ENERGY: 1500000 2.5350 2.3578 4.5176 0.0000 -10591.1975 1449.5734 0.0000 0.0000 1729.3769 -7402.8369 297.6272 -9132.2137 -7346.8657 302.3239 426.3133 494.0864 29366.9850 257.9868 319.9017
TCL: Running FEP window  18: Lambda1 0.1499999999999997 Lambda2 0.09999999999999969 [dLambda -0.05 ]
TCL: Setting parameter firsttimestep to 0
TCL: Setting parameter alchLambda to 0.1499999999999997
Info: NONBONDED TABLE R-SQUARED SPACING: 0.0625
Info: NONBONDED TABLE SIZE: 705 POINTS
TCL: Setting parameter alchLambda2 to 0.09999999999999969
Info: NONBONDED TABLE R-SQUARED SPACING: 0.0625
Info: NONBONDED TABLE SIZE: 705 POINTS
TCL: Running for 1500000 steps
ETITLE: TS BOND ANGLE DIHED IMPRP ELECT VDW BOUNDARY MISC KINETIC TOTAL TEMP POTENTIAL TOTALAVG TEMPAVG PRESSURE GPRESSURE VOLUME PRESSAVG GPRESSAVG
ENERGY: 0 2.5350 2.3578 4.5176 0.0000 -10591.1975 1449.3865 0.0000 0.0000 1728.5382 -7403.8624 297.4829 -9132.4006 -7403.8624 297.4829 406.2358 487.9504 29366.9850 406.2358 487.9504
ENERGY: 300000 2.2276 3.6612 4.7578 0.0000 -10609.9937 1465.0893 0.0000 0.0000 1706.3557 -7427.9022 293.6653 -9134.2579 -7397.5852 294.7197 277.8591 317.0320 30025.1043 110.2525 190.4645
ENERGY: 600000 2.0719 3.6098 3.0519 0.0000 -10557.8949 1434.6073 0.0000 0.0000 1734.1642 -7380.3899 298.4511 -9114.5541 -7382.0680 299.7046 -14.3663 88.9949 29785.9832 17.9050 86.4275
ENERGY: 900000 4.8287 3.3846 3.5466 0.0000 -10512.1503 1418.8099 0.0000 0.0000 1713.6954 -7367.8852 294.9284 -9081.5806 -7354.3062 300.7836 -272.6962 -249.5049 30235.0990 157.6969 215.0416
ENERGY: 1200000 3.7943 3.6080 3.8542 0.0000 -10488.0378 1429.8849 0.0000 0.0000 1776.1950 -7270.7014 305.6847 -9046.8964 -7358.0080 300.5176 158.7443 147.9648 30107.3871 106.3707 154.6690
ENERGY: 1500000 3.1402 3.8965 3.6041 0.0000 -10577.3973 1449.2851 0.0000 0.0000 1732.7072 -7384.7643 298.2004 -9117.4715 -7362.0522 299.9353 -95.8246 -58.2247 30093.6355 51.2076 95.6021
TCL: Running FEP window  19: Lambda1 0.09999999999999969 Lambda2 0.049999999999999684 [dLambda -0.05 ]
TCL: Setting parameter firsttimestep to 0
TCL: Setting parameter alchLambda to 0.09999999999999969
Info: NONBONDED TABLE R-SQUARED SPACING: 0.0625
Info: NONBONDED TABLE SIZE: 705 POINTS
TCL: Setting parameter alchLambda2 to 0.049999999999999684
Info: NONBONDED TABLE R-SQUARED SPACING: 0.0625
Info: NONBONDED TABLE SIZE: 705 POINTS
TCL: Running for 1500000 steps
ETITLE: TS BOND ANGLE DIHED IMPRP ELECT VDW BOUNDARY MISC KINETIC TOTAL TEMP POTENTIAL TOTALAVG TEMPAVG PRESSURE GPRESSURE VOLUME PRESSAVG GPRESSAVG
ENERGY: 0 3.1402 3.8965 3.6041 0.0000 -10577.3976 1448.2920 0.0000 0.0000 1731.8517 -7386.6131 298.0532 -9118.4648 -7386.6131 298.0532 -157.3471 -66.1970 30093.6355 -157.3471 -66.1970
ENERGY: 300000 2.1815 2.7133 3.1515 0.0000 -10581.6310 1453.3815 0.0000 0.0000 1732.3007 -7387.9026 298.1304 -9120.2033 -7391.9500 297.7626 638.0431 611.2250 29508.4952 -155.1561 -110.2525
ENERGY: 600000 3.3350 3.8899 6.8066 0.0000 -10625.2199 1468.3375 0.0000 0.0000 1754.5842 -7388.2668 301.9654 -9142.8510 -7389.6178 299.2544 337.5906 347.7068 29826.9195 -39.6654 9.8686
ENERGY: 900000 5.9262 5.3942 4.2869 0.0000 -10504.6469 1397.1163 0.0000 0.0000 1757.0783 -7334.8449 302.3947 -9091.9232 -7370.7850 299.9806 -453.3658 -397.0852 30460.4026 65.9417 116.6617
ENERGY: 1200000 3.4756 4.8700 4.1725 0.0000 -10424.6315 1358.5824 0.0000 0.0000 1710.9401 -7342.5909 294.4542 -9053.5309 -7371.4508 300.0451 -590.4853 -515.1366 29854.7882 33.5601 88.9666
ENERGY: 1500000 4.4524 1.5483 5.5851 0.0000 -10657.1117 1468.4191 0.0000 0.0000 1713.7921 -7463.3147 294.9451 -9177.1069 -7380.5344 299.3880 364.7032 401.4371 29409.4769 35.7031 90.6884
TCL: Running FEP window  20: Lambda1 0.049999999999999684 Lambda2 0.0    [dLambda -0.049999999999999684]
TCL: Setting parameter firsttimestep to 0
TCL: Setting parameter alchLambda to 0.049999999999999684
Info: NONBONDED TABLE R-SQUARED SPACING: 0.0625
Info: NONBONDED TABLE SIZE: 705 POINTS
TCL: Setting parameter alchLambda2 to 0.0
Info: NONBONDED TABLE R-SQUARED SPACING: 0.0625
Info: NONBONDED TABLE SIZE: 705 POINTS
TCL: Running for 1500000 steps
ETITLE: TS BOND ANGLE DIHED IMPRP ELECT VDW BOUNDARY MISC KINETIC TOTAL TEMP POTENTIAL TOTALAVG TEMPAVG PRESSURE GPRESSURE VOLUME PRESSAVG GPRESSAVG
ENERGY: 0 4.4524 1.5483 5.5851 0.0000 -10657.1118 1467.9749 0.0000 0.0000 1712.9495 -7464.6016 294.8001 -9177.5511 -7464.6016 294.8001 312.0333 395.1921 29409.4769 312.0333 395.1921
ENERGY: 300000 3.2659 6.7584 4.8472 0.0000 -10666.1693 1530.8266 0.0000 0.0000 1744.6848 -7375.7864 300.2617 -9120.4712 -7415.6397 296.0019 1030.8943 1135.2240 29288.4224 221.4485 312.7676
ENERGY: 600000 4.0842 2.4527 5.3299 0.0000 -10569.3973 1419.2700 0.0000 0.0000 1735.3692 -7402.8914 298.6585 -9138.2607 -7412.1469 299.0361 -18.6257 39.3481 29863.4805 105.6032 185.8336
ENERGY: 900000 2.3598 3.1592 5.8935 0.0000 -10412.6462 1319.1617 0.0000 0.0000 1709.9576 -7372.1143 294.2852 -9082.0720 -7396.5254 299.1683 -589.8346 -540.8280 29970.4930 90.7787 161.6378
ENERGY: 1200000 6.1035 2.6255 3.8313 0.0000 -10482.1461 1414.3831 0.0000 0.0000 1763.2690 -7291.9337 303.4601 -9055.2026 -7389.7549 299.9732 -197.9920 -85.7907 30283.7138 96.7537 162.8354
ENERGY: 1500000 3.0198 6.4791 5.1672 0.0000 -10459.9064 1411.5936 0.0000 0.0000 1720.2494 -7313.3973 296.0564 -9033.6467 -7379.7911 300.5827 -34.1867 56.6391 30021.8235 77.7873 146.0728
TCL: Exiting due to exit command.
