Info: SIMULATION PARAMETERS:
Info: TIMESTEP               2
Info: NUMBER OF STEPS        0
Info: STEPS PER CYCLE        10
Info: PERIODIC CELL BASIS 1  30.4084 0 0
Info: PERIODIC CELL BASIS 2  0 31.3507 0
Info: PERIODIC CELL BASIS 3  0 0 32.1792
Info: PERIODIC CELL CENTER   0 0 0
Info: WRAPPING WATERS AROUND PERIODIC BOUNDARIES ON OUTPUT.
Info: WRAPPING ALL CLUSTERS AROUND PERIODIC BOUNDARIES ON OUTPUT.
Info: FIRST LDB TIMESTEP     50
Info: LAST LDB TIMESTEP     -1
Info: HOM BACKGROUND SCALING 1
Info: PME BACKGROUND SCALING 1
Info: MIN ATOMS PER PATCH    40
Info: EMPTY PATCH LOAD       40 ATOMS
Info: VELOCITY FILE          mobley_337666_equil.vel
Info: CENTER OF MASS MOVING INITIALLY? NO
Info: DIELECTRIC             1
Info: EXCLUDE                SCALED ONE-FOUR
Info: 1-4 ELECTROSTATICS SCALED BY 0.833333
Info: MODIFIED 1-4 VDW PARAMETERS WILL BE USED
Info: DCD FILENAME           mobley_337666_prod.dcd
Info: DCD FREQUENCY          100000
Info: DCD FIRST STEP         100000
Info: DCD FILE WILL CONTAIN UNIT CELL DATA
Info: XST FILENAME           mobley_337666_prod.xst
Info: XST FREQUENCY          100000
Info: NO VELOCITY DCD OUTPUT
Info: NO FORCE DCD OUTPUT
Info: OUTPUT FILENAME        mobley_337666_prod
Info: BINARY OUTPUT FILES WILL BE USED
Info: RESTART FILENAME       mobley_337666_prod.restart
Info: RESTART FREQUENCY      100000
Info: BINARY RESTART FILES WILL BE USED
Info: CUTOFF                 9
Info: PAIRLIST DISTANCE      11
Info: PAIRLIST SHRINK RATE   0.01
Info: PAIRLIST GROW RATE     0.01
Info: PAIRLIST TRIGGER       0.3
Info: PAIRLISTS PER CYCLE    2
Info: PAIRLISTS ENABLED
Info: MARGIN                 2
Info: HYDROGEN GROUP CUTOFF  2.5
Info: PATCH DIMENSION        15.5
Info: ENERGY OUTPUT STEPS    100000
Info: ENERGY EVALUATION STEPS    100000
Info: OUTPUT ENERGY PRECISION 4
Info: CROSSTERM ENERGY INCLUDED IN DIHEDRAL
Info: TIMING OUTPUT STEPS    1000000
Info: PRESSURE OUTPUT STEPS  100000
Info: ALCHEMICAL FEP ON
Info: FEP CURRENT LAMBDA VALUE     0
Info: FEP COMPARISON LAMBDA VALUE  0.05
Info: FEP INTRA-ALCHEMICAL NON-BONDED INTERACTIONS WILL BE RETAINED
Info: FEP INTRA-ALCHEMICAL BONDED INTERACTIONS WILL BE RETAINED
Info: FEP VDW SHIFTING COEFFICIENT 5
Info: FEP ELEC. ACTIVE FOR ANNIHILATED PARTICLES BETWEEN LAMBDA = 0 AND LAMBDA = 0.5
Info: FEP ELEC. ACTIVE FOR EXNIHILATED PARTICLES BETWEEN LAMBDA = 0.5 AND LAMBDA = 1
Info: FEP VDW ACTIVE FOR ANNIHILATED PARTICLES BETWEEN LAMBDA = 0 AND LAMBDA = 1
Info: FEP VDW ACTIVE FOR EXNIHILATED PARTICLES BETWEEN LAMBDA = 0 AND LAMBDA = 1
Info: FEP BOND ACTIVE FOR ANNIHILATED PARTICLES BETWEEN LAMBDA = 1 AND LAMBDA = 1
Info: FEP BOND ACTIVE FOR EXNIHILATED PARTICLES BETWEEN LAMBDA = 0 AND LAMBDA = 0
Info: LANGEVIN DYNAMICS ACTIVE
Info: LANGEVIN TEMPERATURE   300
Info: LANGEVIN USING BBK INTEGRATOR
Info: LANGEVIN DAMPING COEFFICIENT IS 1 INVERSE PS
Info: LANGEVIN DYNAMICS APPLIED TO HYDROGENS
Info: LANGEVIN PISTON PRESSURE CONTROL ACTIVE
Info:        TARGET PRESSURE IS 1.01325 BAR
Info:     OSCILLATION PERIOD IS 50 FS
Info:             DECAY TIME IS 25 FS
Info:     PISTON TEMPERATURE IS 300 K
Info:       PRESSURE CONTROL IS GROUP-BASED
Info:    INITIAL STRAIN RATE IS 0.000319593 0.000319593 0.000319593
Info:       CELL FLUCTUATION IS ISOTROPIC
Info: PARTICLE MESH EWALD (PME) ACTIVE
Info: PME TOLERANCE               1e-06
Info: PME EWALD COEFFICIENT       0.348832
Info: PME INTERPOLATION ORDER     4
Info: PME GRID DIMENSIONS         32 32 36
Info: PME MAXIMUM GRID SPACING    1
Info: PME CALCULATION WILL BE PERFORMED ON GPU
Info: FULL ELECTROSTATIC EVALUATION FREQUENCY      2
Info: USING VERLET I (r-RESPA) MTS SCHEME.
Info: C1 SPLITTING OF LONG RANGE ELECTROSTATICS
Info: PLACING ATOMS IN PATCHES BY HYDROGEN GROUPS
Info: RIGID BONDS TO HYDROGEN : ALL
Info:         ERROR TOLERANCE : 1e-08
Info:          MAX ITERATIONS : 100
Info: RIGID WATER USING SETTLE ALGORITHM
Info: RANDOM NUMBER SEED     1743525157
Info: USE HYDROGEN BONDS?    NO
Info: Using AMBER format force field!
Info: AMBER PARM FILE        mobley_337666.prmtop
Info: COORDINATE PDB         mobley_337666.pdb
Info: Exclusions will be read from PARM file!
Info: SCNB (VDW SCALING)     2
Info: USING ARITHMETIC MEAN TO COMBINE L-J SIGMA PARAMETERS
Info: BINARY COORDINATES     mobley_337666_equil.coor
Info: SUMMARY OF PARAMETERS:
Info: 10 BONDS
Info: 14 ANGLES
Info:   14 HARMONIC
Info:   0 COSINE-BASED
Info: 7 DIHEDRAL
Info: 0 IMPROPER
Info: 0 CROSSTERM
Info: 0 VDW
Info: 36 VDW_PAIRS
Info: 0 NBTHOLE_PAIRS
Info: To read alchdata from file: mobley_337666.pdb
Info: To read alchflag data from column: 5
Info: STRUCTURE SUMMARY:
Info: 2952 ATOMS
Info: 2952 BONDS
Info: 18 ANGLES
Info: 33 DIHEDRALS
Info: 0 IMPROPERS
Info: 0 CROSSTERMS
Info: 2991 EXCLUSIONS
Info: 2943 RIGID BONDS
Info: ALCH: 0 ATOMS TO DISAPPEAR IN FINAL STATE
Info: ALCH: 12 ATOMS TO APPEAR IN FINAL STATE
Info: 5913 DEGREES OF FREEDOM
Info: 989 HYDROGEN GROUPS
Info: 3 ATOMS IN LARGEST HYDROGEN GROUP
Info: 989 MIGRATION GROUPS
Info: 3 ATOMS IN LARGEST MIGRATION GROUP
Info: TOTAL MASS = 17785.8 amu
Info: TOTAL CHARGE = -0.000200007 e
Info: MASS DENSITY = 0.962753 g/cm^3
Info: ATOM DENSITY = 0.0962275 atoms/A^3
Info: ADDED 0 IMPLICIT EXCLUSIONS
Info: NONBONDED TABLE R-SQUARED SPACING: 0.0625
Info: NONBONDED TABLE SIZE: 705 POINTS
Info: REMOVING COM VELOCITY 0.103299 0.0366531 0.111966
Info: Use 3D box decompostion in PME FFT.
Info: Updated CUDA force table with 4096 elements.
Info: Updated CUDA LJ table with 8 x 8 elements.
Info: Found 14 unique exclusion lists needing 24 bytes
TCL: Running for 1500000 steps
ETITLE: TS BOND ANGLE DIHED IMPRP ELECT VDW BOUNDARY MISC KINETIC TOTAL TEMP POTENTIAL TOTALAVG TEMPAVG PRESSURE GPRESSURE VOLUME PRESSAVG GPRESSAVG
ENERGY: 0 4.3134 1.4806 15.9367 0.0000 -10799.9482 1480.0081 0.0000 0.0000 1800.3637 -7497.8457 306.4381 -9298.2094 -7497.8457 306.4381 336.9364 396.8349 30677.2870 336.9364 396.8349
ENERGY: 300000 6.3849 2.7763 14.0367 0.0000 -10690.5964 1330.7507 0.0000 0.0000 1772.4690 -7564.1789 301.6902 -9336.6478 -7591.6277 301.9797 -985.5348 -919.5695 30687.6414 -392.2240 -345.3128
ENERGY: 600000 1.9539 2.0003 12.7957 0.0000 -10886.8770 1518.1495 0.0000 0.0000 1801.9961 -7549.9815 306.7159 -9351.9776 -7581.3838 303.6230 674.8674 749.3950 30275.2674 -52.5713 3.2389
ENERGY: 900000 2.1093 4.1701 13.0634 0.0000 -10833.4852 1393.8111 0.0000 0.0000 1725.3844 -7694.9469 293.6759 -9420.3313 -7596.0725 300.8941 -583.6932 -539.7877 29947.4820 44.8745 108.8282
ENERGY: 1200000 3.5116 2.5462 13.4821 0.0000 -10883.4441 1512.5780 0.0000 0.0000 1712.7663 -7638.5599 291.5282 -9351.3262 -7608.3352 299.3153 680.6219 692.0073 30069.1730 174.3923 237.3666
ENERGY: 1500000 4.1664 7.0646 13.9378 0.0000 -10800.5241 1432.1906 0.0000 0.0000 1769.6916 -7573.4730 301.2174 -9343.1645 -7606.6212 299.3432 139.0015 162.5666 29912.9859 220.5258 284.8365
TCL: Running FEP window   2: Lambda1 0.05   Lambda2 0.1    [dLambda 0.05  ]
TCL: Setting parameter firsttimestep to 0
TCL: Setting parameter alchLambda to 0.05
Info: NONBONDED TABLE R-SQUARED SPACING: 0.0625
Info: NONBONDED TABLE SIZE: 705 POINTS
TCL: Setting parameter alchLambda2 to 0.1
Info: NONBONDED TABLE R-SQUARED SPACING: 0.0625
Info: NONBONDED TABLE SIZE: 705 POINTS
TCL: Running for 1500000 steps
ETITLE: TS BOND ANGLE DIHED IMPRP ELECT VDW BOUNDARY MISC KINETIC TOTAL TEMP POTENTIAL TOTALAVG TEMPAVG PRESSURE GPRESSURE VOLUME PRESSAVG GPRESSAVG
ENERGY: 0 4.1664 7.0646 13.9378 0.0000 -10800.5235 1434.3729 0.0000 0.0000 1768.8648 -7572.1168 301.0767 -9340.9817 -7572.1168 301.0767 85.1131 165.0805 29912.9859 85.1131 165.0805
ENERGY: 300000 2.4335 3.4966 14.4650 0.0000 -10801.1958 1405.5052 0.0000 0.0000 1756.4558 -7618.8397 298.9646 -9375.2955 -7632.7497 299.1956 -448.8494 -448.7679 30677.4795 -44.8356 4.7335
ENERGY: 600000 3.9418 3.8890 15.5458 0.0000 -10886.2949 1481.5635 0.0000 0.0000 1714.0021 -7667.3529 291.7386 -9381.3550 -7631.9838 296.8559 191.1357 209.5578 30273.0465 35.8930 80.5943
ENERGY: 900000 6.7969 5.2515 13.1872 0.0000 -10965.5090 1542.3156 0.0000 0.0000 1709.7883 -7688.1696 291.0213 -9397.9578 -7616.1451 298.2319 1004.6554 1037.5128 29729.0165 189.8713 232.9565
ENERGY: 1200000 2.9177 2.9566 13.9990 0.0000 -10854.2270 1490.2986 0.0000 0.0000 1704.0818 -7639.9734 290.0501 -9344.0552 -7627.9702 297.6226 171.7500 167.5243 30613.1382 146.3359 181.0857
ENERGY: 1500000 4.9126 2.9323 13.2140 0.0000 -10808.6036 1438.4561 0.0000 0.0000 1720.5330 -7628.5556 292.8502 -9349.0887 -7627.9998 297.4185 -220.9667 -141.6368 30590.8184 56.4143 93.7586
TCL: Running FEP window   3: Lambda1 0.1    Lambda2 0.15000000000000002 [dLambda 0.05000000000000002]
TCL: Setting parameter firsttimestep to 0
TCL: Setting parameter alchLambda to 0.1
Info: NONBONDED TABLE R-SQUARED SPACING: 0.0625
Info: NONBONDED TABLE SIZE: 705 POINTS
TCL: Setting parameter alchLambda2 to 0.15000000000000002
Info: NONBONDED TABLE R-SQUARED SPACING: 0.0625
Info: NONBONDED TABLE SIZE: 705 POINTS
TCL: Running for 1500000 steps
ETITLE: TS BOND ANGLE DIHED IMPRP ELECT VDW BOUNDARY MISC KINETIC TOTAL TEMP POTENTIAL TOTALAVG TEMPAVG PRESSURE GPRESSURE VOLUME PRESSAVG GPRESSAVG
ENERGY: 0 4.9126 2.9323 13.2140 0.0000 -10808.6038 1439.7827 0.0000 0.0000 1719.6656 -7628.0965 292.7026 -9347.7621 -7628.0965 292.7026 -210.8500 -132.1660 30590.8184 -210.8500 -132.1660
ENERGY: 300000 6.8843 4.4245 17.6074 0.0000 -10754.8500 1388.0714 0.0000 0.0000 1755.1042 -7582.7582 298.7345 -9337.8624 -7627.0772 296.1327 -508.3389 -424.3166 30563.6853 -189.3463 -124.0376
ENERGY: 600000 2.4585 2.4586 16.5366 0.0000 -10771.7692 1350.6718 0.0000 0.0000 1778.5732 -7621.0705 302.7292 -9399.6437 -7635.1753 296.7467 -1080.4811 -926.4359 30272.6323 -143.5929 -82.5739
ENERGY: 900000 4.8722 4.7420 15.5164 0.0000 -10975.7985 1587.9751 0.0000 0.0000 1765.9161 -7596.7767 300.5748 -9362.6929 -7609.5677 299.3502 1398.3497 1407.1990 29840.1259 61.3661 120.1029
ENERGY: 1200000 3.4110 5.3326 15.9356 0.0000 -10869.9129 1422.5679 0.0000 0.0000 1735.7667 -7686.8991 295.4431 -9422.6658 -7612.3084 299.4375 -363.0482 -299.7748 30138.0614 76.1843 138.0571
ENERGY: 1500000 3.1263 4.2714 13.3319 0.0000 -10813.6366 1435.0018 0.0000 0.0000 1788.0890 -7569.8162 304.3488 -9357.9052 -7609.8964 300.2291 -147.7575 -35.7032 30211.1811 37.8853 102.3486
TCL: Running FEP window   4: Lambda1 0.15000000000000002 Lambda2 0.2    [dLambda 0.04999999999999999]
TCL: Setting parameter firsttimestep to 0
TCL: Setting parameter alchLambda to 0.15000000000000002
Info: NONBONDED TABLE R-SQUARED SPACING: 0.0625
Info: NONBONDED TABLE SIZE: 705 POINTS
TCL: Setting parameter alchLambda2 to 0.2
Info: NONBONDED TABLE R-SQUARED SPACING: 0.0625
Info: NONBONDED TABLE SIZE: 705 POINTS
TCL: Running for 1500000 steps
ETITLE: TS BOND ANGLE DIHED IMPRP ELECT VDW BOUNDARY MISC KINETIC TOTAL TEMP POTENTIAL TOTALAVG TEMPAVG PRESSURE GPRESSURE VOLUME PRESSAVG GPRESSAVG
ENERGY: 0 3.1263 4.2714 13.3319 0.0000 -10813.6327 1435.1839 0.0000 0.0000 1787.2484 -7570.4708 304.2057 -9357.7191 -7570.4708 304.2057 -117.3546 -32.5287 30211.1811 -117.3546 -32.5287
ENERGY: 300000 5.1688 2.1943 15.4573 0.0000 -10906.3876 1472.4989 0.0000 0.0000 1765.5946 -7645.4736 300.5201 -9411.0682 -7571.9019 305.4867 80.0569 171.2714 30379.7853 -285.8153 -207.0235
ENERGY: 600000 5.0607 5.3102 13.6291 0.0000 -10748.0287 1453.0224 0.0000 0.0000 1787.0902 -7483.9162 304.1788 -9271.0064 -7581.2277 302.4645 98.0198 184.1022 30379.4403 -254.3189 -179.9886
ENERGY: 900000 2.8294 8.2146 14.0905 0.0000 -10834.7637 1463.9638 0.0000 0.0000 1798.8009 -7546.8645 306.1721 -9345.6655 -7581.1879 302.7515 70.7814 92.2903 30892.3837 -254.9622 -189.6288
ENERGY: 1200000 3.3361 2.8005 14.0141 0.0000 -10944.1541 1511.2171 0.0000 0.0000 1754.9199 -7657.8664 298.7032 -9412.7863 -7600.2423 301.2135 239.5635 206.8363 30274.4329 -318.2596 -255.9545
ENERGY: 1500000 3.9467 1.7001 14.4951 0.0000 -10792.1589 1408.8731 0.0000 0.0000 1765.4559 -7597.6881 300.4965 -9363.1439 -7594.2302 301.6990 -218.0808 -262.5976 30736.0064 -344.0497 -293.0994
TCL: Running FEP window   5: Lambda1 0.2    Lambda2 0.25   [dLambda 0.04999999999999999]
TCL: Setting parameter firsttimestep to 0
TCL: Setting parameter alchLambda to 0.2
Info: NONBONDED TABLE R-SQUARED SPACING: 0.0625
Info: NONBONDED TABLE SIZE: 705 POINTS
TCL: Setting parameter alchLambda2 to 0.25
Info: NONBONDED TABLE R-SQUARED SPACING: 0.0625
Info: NONBONDED TABLE SIZE: 705 POINTS
TCL: Running for 1500000 steps
ETITLE: TS BOND ANGLE DIHED IMPRP ELECT VDW BOUNDARY MISC KINETIC TOTAL TEMP POTENTIAL TOTALAVG TEMPAVG PRESSURE GPRESSURE VOLUME PRESSAVG GPRESSAVG
ENERGY: 0 3.9467 1.7001 14.4951 0.0000 -10792.1610 1408.4799 0.0000 0.0000 1764.6281 -7598.9110 300.3556 -9363.5392 -7598.9110 300.3556 -327.1271 -263.2898 30736.0064 -327.1271 -263.2898
ENERGY: 300000 3.6180 1.2030 17.8383 0.0000 -10820.9019 1466.9220 0.0000 0.0000 1753.1599 -7578.1608 298.4036 -9331.3207 -7582.7635 300.2625 240.9356 268.8110 30338.8574 69.4122 133.3549
ENERGY: 600000 6.2624 3.1533 14.0128 0.0000 -10721.5851 1353.9971 0.0000 0.0000 1747.6891 -7596.4704 297.4724 -9344.1595 -7599.6350 299.8352 -518.1102 -476.5062 30406.8319 -65.5620 -17.8968
ENERGY: 900000 1.9340 6.2111 14.2611 0.0000 -10786.8917 1424.4164 0.0000 0.0000 1736.1207 -7603.9484 295.5034 -9340.0691 -7602.1224 299.2477 -39.1399 12.1832 29958.2022 -78.8756 -23.2771
ENERGY: 1200000 4.5906 5.0383 15.5967 0.0000 -10799.3324 1403.1066 0.0000 0.0000 1739.3550 -7631.6452 296.0539 -9371.0002 -7614.6287 298.1561 -381.4104 -336.6936 30191.4960 -90.6761 -33.1742
ENERGY: 1500000 2.3075 3.3963 13.4284 0.0000 -10940.6902 1528.1618 0.0000 0.0000 1752.9901 -7640.4061 298.3747 -9393.3962 -7611.3191 299.0064 601.0394 735.6517 30023.7718 -7.3003 53.3788
TCL: Running FEP window   6: Lambda1 0.25   Lambda2 0.3    [dLambda 0.04999999999999999]
TCL: Setting parameter firsttimestep to 0
TCL: Setting parameter alchLambda to 0.25
Info: NONBONDED TABLE R-SQUARED SPACING: 0.0625
Info: NONBONDED TABLE SIZE: 705 POINTS
TCL: Setting parameter alchLambda2 to 0.3
Info: NONBONDED TABLE R-SQUARED SPACING: 0.0625
Info: NONBONDED TABLE SIZE: 705 POINTS
TCL: Running for 1500000 steps
ETITLE: TS BOND ANGLE DIHED IMPRP ELECT VDW BOUNDARY MISC KINETIC TOTAL TEMP POTENTIAL TOTALAVG TEMPAVG PRESSURE GPRESSURE VOLUME PRESSAVG GPRESSAVG
ENERGY: 0 2.3075 3.3963 13.4284 0.0000 -10940.6910 1527.6020 0.0000 0.0000 1752.1036 -7641.8532 298.2238 -9393.9568 -7641.8532 298.2238 640.8425 734.0701 30023.7718 640.8425 734.0701
ENERGY: 300000 4.5793 3.1839 13.8439 0.0000 -10850.4251 1451.7622 0.0000 0.0000 1772.3410 -7604.7148 301.6684 -9377.0558 -7630.5862 297.2083 150.9237 258.3710 29996.5947 366.9626 457.1955
ENERGY: 600000 3.0477 3.3600 14.8359 0.0000 -10671.4462 1279.9927 0.0000 0.0000 1770.7714 -7599.4385 301.4012 -9370.2099 -7635.4389 296.0080 -1358.1723 -1288.5007 30422.8146 -119.3390 -29.2140
ENERGY: 900000 2.3122 4.7125 16.0258 0.0000 -10832.2112 1427.9504 0.0000 0.0000 1766.3683 -7614.8420 300.6518 -9381.2103 -7640.5797 296.7842 -117.9709 -39.3174 30310.5577 -86.9848 -4.0718
ENERGY: 1200000 5.3715 6.8600 14.8331 0.0000 -10907.6050 1485.9208 0.0000 0.0000 1770.7623 -7623.8573 301.3997 -9394.6196 -7638.7232 297.4193 585.4194 618.4855 29845.4744 -81.8912 -3.9682
ENERGY: 1500000 2.6012 5.7087 15.4770 0.0000 -10844.5160 1408.9308 0.0000 0.0000 1768.3710 -7643.4273 300.9926 -9411.7983 -7630.1104 297.8431 -498.7990 -486.6318 30472.3435 -107.0921 -39.2259
TCL: Running FEP window   7: Lambda1 0.3    Lambda2 0.35   [dLambda 0.04999999999999999]
TCL: Setting parameter firsttimestep to 0
TCL: Setting parameter alchLambda to 0.3
Info: NONBONDED TABLE R-SQUARED SPACING: 0.0625
Info: NONBONDED TABLE SIZE: 705 POINTS
TCL: Setting parameter alchLambda2 to 0.35
Info: NONBONDED TABLE R-SQUARED SPACING: 0.0625
Info: NONBONDED TABLE SIZE: 705 POINTS
TCL: Running for 1500000 steps
ETITLE: TS BOND ANGLE DIHED IMPRP ELECT VDW BOUNDARY MISC KINETIC TOTAL TEMP POTENTIAL TOTALAVG TEMPAVG PRESSURE GPRESSURE VOLUME PRESSAVG GPRESSAVG
ENERGY: 0 2.6012 5.7087 15.4770 0.0000 -10844.5163 1408.7900 0.0000 0.0000 1767.5099 -7644.4295 300.8461 -9411.9394 -7644.4295 300.8461 -552.2888 -481.2136 30472.3435 -552.2888 -481.2136
ENERGY: 300000 3.1971 5.0136 15.2815 0.0000 -10759.0308 1407.6076 0.0000 0.0000 1723.6683 -7604.2626 293.3839 -9327.9310 -7626.8173 294.2405 242.9722 202.3768 29933.2302 -237.3335 -193.9622
ENERGY: 600000 5.1556 5.1426 14.0272 0.0000 -10696.7677 1321.2907 0.0000 0.0000 1747.3484 -7603.8033 297.4144 -9351.1517 -7609.5825 296.2570 -1139.0280 -1025.5077 30699.8660 -277.0827 -208.5709
ENERGY: 900000 4.0667 4.3195 14.8681 0.0000 -10643.8618 1277.6747 0.0000 0.0000 1773.9145 -7569.0184 301.9362 -9342.9329 -7599.6954 299.3401 -1360.6683 -1305.9768 30924.6134 -223.5022 -154.9912
ENERGY: 1200000 3.5452 6.0563 15.3296 0.0000 -10927.4644 1527.0648 0.0000 0.0000 1765.3063 -7610.1622 300.4710 -9375.4685 -7599.2732 299.9141 602.4320 726.3652 30345.8407 -194.6596 -119.9276
ENERGY: 1500000 2.6502 3.7358 15.3010 0.0000 -10896.1385 1551.3798 0.0000 0.0000 1778.7880 -7544.2837 302.7657 -9323.0717 -7587.6904 301.3343 1056.9230 1106.9764 30349.4839 -83.4724 -8.3653
TCL: Running FEP window   8: Lambda1 0.35   Lambda2 0.39999999999999997 [dLambda 0.04999999999999999]
TCL: Setting parameter firsttimestep to 0
TCL: Setting parameter alchLambda to 0.35
Info: NONBONDED TABLE R-SQUARED SPACING: 0.0625
Info: NONBONDED TABLE SIZE: 705 POINTS
TCL: Setting parameter alchLambda2 to 0.39999999999999997
Info: NONBONDED TABLE R-SQUARED SPACING: 0.0625
Info: NONBONDED TABLE SIZE: 705 POINTS
TCL: Running for 1500000 steps
ETITLE: TS BOND ANGLE DIHED IMPRP ELECT VDW BOUNDARY MISC KINETIC TOTAL TEMP POTENTIAL TOTALAVG TEMPAVG PRESSURE GPRESSURE VOLUME PRESSAVG GPRESSAVG
ENERGY: 0 2.6503 3.7358 15.3010 0.0000 -10896.1375 1551.3371 0.0000 0.0000 1777.9370 -7545.1764 302.6209 -9323.1134 -7545.1764 302.6209 1042.4437 1110.0196 30349.4839 1042.4437 1110.0196
ENERGY: 300000 1.3324 6.3394 16.4367 0.0000 -10796.5263 1416.9356 0.0000 0.0000 1711.4851 -7643.9972 291.3102 -9355.4822 -7613.2391 297.9274 -243.9961 -244.5967 30587.5030 329.5260 373.7838
ENERGY: 600000 1.8645 5.1419 18.5651 0.0000 -10662.5175 1305.0952 0.0000 0.0000 1749.0812 -7582.7695 297.7093 -9331.8507 -7610.3927 298.2481 -943.5903 -791.0862 30171.4870 161.2903 226.3379
ENERGY: 900000 4.6490 6.9848 13.4147 0.0000 -10775.4973 1392.1150 0.0000 0.0000 1846.8072 -7511.5265 314.3432 -9358.3338 -7591.9849 301.4536 -361.5708 -287.4713 30657.1272 110.1046 175.9746
ENERGY: 1200000 1.7351 3.9039 15.1490 0.0000 -10793.0942 1469.3117 0.0000 0.0000 1805.2795 -7497.7151 307.2748 -9302.9946 -7579.6828 302.0804 661.8473 681.7734 30181.5706 102.0386 159.5615
ENERGY: 1500000 2.9104 3.3140 15.5401 0.0000 -10925.2901 1519.1067 0.0000 0.0000 1789.2816 -7595.1372 304.5518 -9384.4189 -7578.5777 303.1869 850.9799 875.2901 30294.1052 148.1981 206.3536
TCL: Running FEP window   9: Lambda1 0.39999999999999997 Lambda2 0.44999999999999996 [dLambda 0.04999999999999999]
TCL: Setting parameter firsttimestep to 0
TCL: Setting parameter alchLambda to 0.39999999999999997
Info: NONBONDED TABLE R-SQUARED SPACING: 0.0625
Info: NONBONDED TABLE SIZE: 705 POINTS
TCL: Setting parameter alchLambda2 to 0.44999999999999996
Info: NONBONDED TABLE R-SQUARED SPACING: 0.0625
Info: NONBONDED TABLE SIZE: 705 POINTS
TCL: Running for 1500000 steps
ETITLE: TS BOND ANGLE DIHED IMPRP ELECT VDW BOUNDARY MISC KINETIC TOTAL TEMP POTENTIAL TOTALAVG TEMPAVG PRESSURE GPRESSURE VOLUME PRESSAVG GPRESSAVG
ENERGY: 0 2.9104 3.3140 15.5401 0.0000 -10925.2904 1518.9217 0.0000 0.0000 1788.4020 -7596.2022 304.4021 -9384.6041 -7596.2022 304.4021 799.2432 878.9618 30294.1052 799.2432 878.9618
ENERGY: 300000 1.5499 7.0828 16.3869 0.0000 -10871.6892 1524.3968 0.0000 0.0000 1746.9321 -7575.3408 297.3435 -9322.2729 -7593.0386 298.8646 731.3125 724.0641 30177.9903 332.8387 388.2465
ENERGY: 600000 4.3342 4.4621 13.7476 0.0000 -10850.2810 1435.8205 0.0000 0.0000 1727.8992 -7664.0174 294.1040 -9391.9166 -7604.0640 298.0450 -211.4315 -199.5744 30639.7669 142.9145 172.9140
ENERGY: 900000 3.5138 2.8626 15.0130 0.0000 -10797.4816 1449.4589 0.0000 0.0000 1724.7885 -7601.8447 293.5745 -9326.6333 -7594.1217 298.6884 92.4078 167.3566 30595.7761 82.7856 117.9331
ENERGY: 1200000 1.1880 3.8918 13.3273 0.0000 -10859.0098 1459.9172 0.0000 0.0000 1732.1263 -7648.5592 294.8235 -9380.6855 -7612.0729 297.1050 154.8132 229.8848 30169.5433 125.6535 166.0838
ENERGY: 1500000 0.8763 6.8270 14.4468 0.0000 -10974.4264 1472.9257 0.0000 0.0000 1683.9585 -7795.3921 286.6249 -9479.3506 -7619.2030 296.4957 -113.9371 -35.8931 29913.1050 141.4011 184.6737
TCL: Running FEP window  10: Lambda1 0.44999999999999996 Lambda2 0.49999999999999994 [dLambda 0.04999999999999999]
TCL: Setting parameter firsttimestep to 0
TCL: Setting parameter alchLambda to 0.44999999999999996
Info: NONBONDED TABLE R-SQUARED SPACING: 0.0625
Info: NONBONDED TABLE SIZE: 705 POINTS
TCL: Setting parameter alchLambda2 to 0.49999999999999994
Info: NONBONDED TABLE R-SQUARED SPACING: 0.0625
Info: NONBONDED TABLE SIZE: 705 POINTS
TCL: Running for 1500000 steps
ETITLE: TS BOND ANGLE DIHED IMPRP ELECT VDW BOUNDARY MISC KINETIC TOTAL TEMP POTENTIAL TOTALAVG TEMPAVG PRESSURE GPRESSURE VOLUME PRESSAVG GPRESSAVG
ENERGY: 0 0.8763 6.8270 14.4468 0.0000 -10974.4290 1473.4518 0.0000 0.0000 1683.0539 -7795.7731 286.4709 -9478.8270 -7795.7731 286.4709 -129.4045 -29.6527 29913.1050 -129.4045 -29.6527
ENERGY: 300000 2.9684 6.4455 14.0057 0.0000 -10896.4884 1507.9277 0.0000 0.0000 1749.2022 -7615.9389 297.7299 -9365.1411 -7629.1561 297.1585 767.2923 819.0490 30142.8708 73.1939 133.1020
ENERGY: 600000 4.9501 3.7232 16.1273 0.0000 -10794.6171 1435.2988 0.0000 0.0000 1749.7295 -7584.7882 297.8197 -9334.5177 -7624.4928 297.6999 -63.3275 -55.5209 30425.9284 -34.6514 13.6459
ENERGY: 900000 2.7875 6.5119 13.2174 0.0000 -10589.5268 1305.5448 0.0000 0.0000 1735.5484 -7525.9168 295.4059 -9261.4652 -7614.6415 297.2994 -792.5126 -833.8054 30837.4100 -193.6591 -155.7909
ENERGY: 1200000 3.3971 2.9960 16.5389 0.0000 -10832.5449 1410.7984 0.0000 0.0000 1787.5277 -7611.2867 304.2533 -9398.8145 -7617.8968 298.1995 -224.6092 -206.4629 30629.6095 -245.3346 -208.5933
ENERGY: 1500000 2.4656 4.9681 15.7062 0.0000 -10892.2952 1457.2727 0.0000 0.0000 1795.6717 -7616.2109 305.6395 -9411.8826 -7610.5217 299.7617 -7.2633 86.4881 30212.6429 -227.8350 -184.8872
TCL: Running FEP window  11: Lambda1 0.49999999999999994 Lambda2 0.5499999999999999 [dLambda 0.04999999999999999]
TCL: Setting parameter firsttimestep to 0
TCL: Setting parameter alchLambda to 0.49999999999999994
Info: NONBONDED TABLE R-SQUARED SPACING: 0.0625
Info: NONBONDED TABLE SIZE: 705 POINTS
TCL: Setting parameter alchLambda2 to 0.5499999999999999
Info: NONBONDED TABLE R-SQUARED SPACING: 0.0625
Info: NONBONDED TABLE SIZE: 705 POINTS
TCL: Running for 1500000 steps
ETITLE: TS BOND ANGLE DIHED IMPRP ELECT VDW BOUNDARY MISC KINETIC TOTAL TEMP POTENTIAL TOTALAVG TEMPAVG PRESSURE GPRESSURE VOLUME PRESSAVG GPRESSAVG
ENERGY: 0 2.4656 4.9681 15.7062 0.0000 -10892.2958 1458.0042 0.0000 0.0000 1794.8127 -7616.3390 305.4933 -9411.1517 -7616.3390 305.4933 17.4772 97.8458 30212.6429 17.4772 97.8458
ENERGY: 300000 5.5076 10.2543 17.0628 0.0000 -10843.6869 1486.1667 0.0000 0.0000 1761.0899 -7563.6056 299.7533 -9324.6955 -7617.9240 299.2212 461.5645 491.0370 30338.6268 135.1974 180.3982
ENERGY: 600000 3.8565 3.6148 14.0249 0.0000 -10959.7311 1459.5207 0.0000 0.0000 1739.0296 -7739.6845 295.9985 -9478.7142 -7631.0738 298.5446 13.7816 113.0148 29976.9433 149.3810 208.6017
ENERGY: 900000 3.4202 5.2117 14.3988 0.0000 -10832.2863 1404.7290 0.0000 0.0000 1811.1083 -7593.4183 308.2669 -9404.5265 -7620.2620 299.6978 -510.0359 -380.2936 30677.4991 94.0756 165.5853
ENERGY: 1200000 2.7186 4.9749 14.2954 0.0000 -10790.5338 1402.9049 0.0000 0.0000 1815.2415 -7550.3985 308.9704 -9365.6400 -7602.3821 301.3768 -420.1632 -372.9565 30470.4371 22.1465 88.1930
ENERGY: 1500000 0.9562 7.2102 13.4375 0.0000 -10888.9539 1493.8557 0.0000 0.0000 1829.8347 -7543.6596 311.4543 -9373.4943 -7604.3575 301.2021 300.1866 406.0507 30490.8098 56.0924 117.3114
TCL: Running FEP window  12: Lambda1 0.5499999999999999 Lambda2 0.6    [dLambda 0.050000000000000044]
TCL: Setting parameter firsttimestep to 0
TCL: Setting parameter alchLambda to 0.5499999999999999
Info: NONBONDED TABLE R-SQUARED SPACING: 0.0625
Info: NONBONDED TABLE SIZE: 705 POINTS
TCL: Setting parameter alchLambda2 to 0.6
Info: NONBONDED TABLE R-SQUARED SPACING: 0.0625
Info: NONBONDED TABLE SIZE: 705 POINTS
TCL: Running for 1500000 steps
ETITLE: TS BOND ANGLE DIHED IMPRP ELECT VDW BOUNDARY MISC KINETIC TOTAL TEMP POTENTIAL TOTALAVG TEMPAVG PRESSURE GPRESSURE VOLUME PRESSAVG GPRESSAVG
ENERGY: 0 0.9563 7.2102 13.4375 0.0000 -10888.8363 1493.7603 0.0000 0.0000 1828.9761 -7544.4959 311.3082 -9373.4720 -7544.4959 311.3082 335.1019 415.5424 30490.8098 335.1019 415.5424
ENERGY: 300000 4.3729 2.4562 13.2187 0.0000 -10846.5962 1515.2825 0.0000 0.0000 1755.1911 -7556.0748 298.7493 -9311.2659 -7572.9011 303.3313 762.1637 876.6890 30434.1963 463.1471 556.6987
ENERGY: 600000 5.0922 2.0332 14.8574 0.0000 -10789.3994 1473.9848 0.0000 0.0000 1792.5655 -7500.8664 305.1108 -9293.4319 -7570.8309 304.4315 726.8317 748.9515 30166.5875 479.5660 549.0198
ENERGY: 900000 2.4618 10.0285 13.0824 0.0000 -10857.9398 1430.2993 0.0000 0.0000 1782.1647 -7619.9031 303.3405 -9402.0678 -7582.5108 303.1168 -77.9555 -71.4564 30176.7536 412.3306 472.4321
ENERGY: 1200000 3.5639 11.5119 15.1593 0.0000 -10667.1020 1342.0701 0.0000 0.0000 1736.6867 -7558.1101 295.5997 -9294.7968 -7588.6674 302.3190 -673.0128 -567.1791 30481.2498 290.4990 356.7957
ENERGY: 1500000 4.2518 5.0468 15.9777 0.0000 -10795.5011 1453.9417 0.0000 0.0000 1773.3101 -7542.9731 301.8333 -9316.2832 -7587.2755 302.0334 291.9324 355.1461 30162.1729 246.4851 312.2377
TCL: Running FEP window  13: Lambda1 0.6    Lambda2 0.65   [dLambda 0.050000000000000044]
TCL: Setting parameter firsttimestep to 0
TCL: Setting parameter alchLambda to 0.6
Info: NONBONDED TABLE R-SQUARED SPACING: 0.0625
Info: NONBONDED TABLE SIZE: 705 POINTS
TCL: Setting parameter alchLambda2 to 0.65
Info: NONBONDED TABLE R-SQUARED SPACING: 0.0625
Info: NONBONDED TABLE SIZE: 705 POINTS
TCL: Running for 1500000 steps
ETITLE: TS BOND ANGLE DIHED IMPRP ELECT VDW BOUNDARY MISC KINETIC TOTAL TEMP POTENTIAL TOTALAVG TEMPAVG PRESSURE GPRESSURE VOLUME PRESSAVG GPRESSAVG
ENERGY: 0 4.2518 5.0468 15.9777 0.0000 -10797.2102 1453.9206 0.0000 0.0000 1772.4618 -7545.5515 301.6889 -9318.0133 -7545.5515 301.6889 278.0602 357.2556 30162.1729 278.0602 357.2556
ENERGY: 300000 1.3712 3.4017 14.1874 0.0000 -10585.6639 1279.2722 0.0000 0.0000 1787.7543 -7499.6772 304.2919 -9287.4315 -7571.7722 299.3282 -867.8630 -886.4212 30499.3379 -20.4231 26.4469
ENERGY: 600000 2.2538 6.0429 13.8054 0.0000 -10854.8855 1450.3784 0.0000 0.0000 1781.2015 -7601.2034 303.1765 -9382.4050 -7598.0746 297.9957 -279.5041 -208.6460 31142.9507 -160.6629 -97.5950
ENERGY: 900000 2.5529 5.1807 15.4453 0.0000 -10806.8888 1389.1683 0.0000 0.0000 1713.5351 -7681.0065 291.6591 -9394.5416 -7607.3975 298.8435 -482.4866 -328.2869 30458.3782 -113.7871 -36.5966
ENERGY: 1200000 2.8682 5.3008 14.5352 0.0000 -10820.6418 1350.6506 0.0000 0.0000 1716.3784 -7730.9087 292.1430 -9447.2870 -7615.6719 298.6072 -1041.7626 -966.9749 30518.7561 -167.6450 -100.6427
ENERGY: 1500000 4.1029 2.1977 16.1231 0.0000 -10846.9353 1466.0897 0.0000 0.0000 1777.7895 -7580.6325 302.5958 -9358.4219 -7619.3857 298.7831 264.9360 357.6494 30444.7697 -97.3040 -26.6510
TCL: Running FEP window  14: Lambda1 0.65   Lambda2 0.7000000000000001 [dLambda 0.050000000000000044]
TCL: Setting parameter firsttimestep to 0
TCL: Setting parameter alchLambda to 0.65
Info: NONBONDED TABLE R-SQUARED SPACING: 0.0625
Info: NONBONDED TABLE SIZE: 705 POINTS
TCL: Setting parameter alchLambda2 to 0.7000000000000001
Info: NONBONDED TABLE R-SQUARED SPACING: 0.0625
Info: NONBONDED TABLE SIZE: 705 POINTS
TCL: Running for 1500000 steps
ETITLE: TS BOND ANGLE DIHED IMPRP ELECT VDW BOUNDARY MISC KINETIC TOTAL TEMP POTENTIAL TOTALAVG TEMPAVG PRESSURE GPRESSURE VOLUME PRESSAVG GPRESSAVG
ENERGY: 0 4.1029 2.1977 16.1231 0.0000 -10848.6994 1465.7185 0.0000 0.0000 1776.9042 -7583.6529 302.4451 -9360.5571 -7583.6529 302.4451 279.1341 356.6074 30444.7697 279.1341 356.6074
ENERGY: 300000 6.2793 3.8279 15.6404 0.0000 -10877.1092 1520.1320 0.0000 0.0000 1771.5685 -7559.6611 301.5369 -9331.2296 -7608.9948 300.9215 669.6490 711.2775 30254.9413 310.8908 361.7617
ENERGY: 600000 1.7912 6.1337 19.0130 0.0000 -10660.9212 1308.7256 0.0000 0.0000 1745.1605 -7580.0971 297.0420 -9325.2576 -7606.4218 297.8697 -885.3397 -901.0607 30651.4204 49.1379 95.1950
ENERGY: 900000 4.2543 7.1442 13.3604 0.0000 -10812.6558 1441.7884 0.0000 0.0000 1796.6920 -7549.4165 305.8131 -9346.1085 -7594.8344 299.7206 1.4703 54.2081 30497.3478 69.1701 121.5461
ENERGY: 1200000 4.8149 10.0923 15.4175 0.0000 -10871.1324 1421.0373 0.0000 0.0000 1790.0068 -7629.7638 304.6753 -9419.7705 -7595.3881 300.1150 -425.3648 -372.6753 30644.6018 35.9876 85.1733
ENERGY: 1500000 2.6492 3.0675 14.6544 0.0000 -10854.4809 1449.0300 0.0000 0.0000 1808.0701 -7577.0098 307.7498 -9385.0799 -7597.6726 300.0838 8.1141 161.0284 30222.3885 42.7723 103.5707
TCL: Running FEP window  15: Lambda1 0.7000000000000001 Lambda2 0.7500000000000001 [dLambda 0.050000000000000044]
TCL: Setting parameter firsttimestep to 0
TCL: Setting parameter alchLambda to 0.7000000000000001
Info: NONBONDED TABLE R-SQUARED SPACING: 0.0625
Info: NONBONDED TABLE SIZE: 705 POINTS
TCL: Setting parameter alchLambda2 to 0.7500000000000001
Info: NONBONDED TABLE R-SQUARED SPACING: 0.0625
Info: NONBONDED TABLE SIZE: 705 POINTS
TCL: Running for 1500000 steps
ETITLE: TS BOND ANGLE DIHED IMPRP ELECT VDW BOUNDARY MISC KINETIC TOTAL TEMP POTENTIAL TOTALAVG TEMPAVG PRESSURE GPRESSURE VOLUME PRESSAVG GPRESSAVG
ENERGY: 0 2.6492 3.0675 14.6544 0.0000 -10856.6850 1449.6879 0.0000 0.0000 1807.2274 -7579.3987 307.6064 -9386.6261 -7579.3987 307.6064 107.4546 176.3846 30222.3885 107.4546 176.3846
ENERGY: 300000 1.9345 5.8133 15.2842 0.0000 -10948.3046 1476.3447 0.0000 0.0000 1761.0272 -7687.9006 299.7427 -9448.9279 -7626.5865 302.0076 -98.8666 13.3375 30476.9565 29.6752 120.8514
ENERGY: 600000 2.3707 5.1096 14.7517 0.0000 -10980.5786 1509.0297 0.0000 0.0000 1801.7477 -7647.5692 306.6737 -9449.3169 -7614.8269 301.9540 406.1545 472.1463 30128.9573 48.9986 131.1841
ENERGY: 900000 4.7268 4.2797 13.7466 0.0000 -10813.6520 1415.7177 0.0000 0.0000 1788.8243 -7586.3571 304.4740 -9375.1813 -7608.2127 301.7997 -500.6594 -420.7830 30867.5762 -9.7862 66.3522
ENERGY: 1200000 3.2221 2.9948 15.1840 0.0000 -10789.4620 1397.4432 0.0000 0.0000 1780.3944 -7590.2236 303.0391 -9370.6180 -7604.7667 302.3188 -424.7317 -386.0623 30542.8585 -102.5659 -35.5444
ENERGY: 1500000 3.6220 4.7188 15.5425 0.0000 -10898.8491 1457.6824 0.0000 0.0000 1752.7589 -7664.5246 298.3353 -9417.2835 -7610.6575 301.8532 -87.0723 -68.5976 30349.1317 -110.3519 -47.3244
TCL: Running FEP window  16: Lambda1 0.7500000000000001 Lambda2 0.8000000000000002 [dLambda 0.050000000000000044]
TCL: Setting parameter firsttimestep to 0
TCL: Setting parameter alchLambda to 0.7500000000000001
Info: NONBONDED TABLE R-SQUARED SPACING: 0.0625
Info: NONBONDED TABLE SIZE: 705 POINTS
TCL: Setting parameter alchLambda2 to 0.8000000000000002
Info: NONBONDED TABLE R-SQUARED SPACING: 0.0625
Info: NONBONDED TABLE SIZE: 705 POINTS
TCL: Running for 1500000 steps
ETITLE: TS BOND ANGLE DIHED IMPRP ELECT VDW BOUNDARY MISC KINETIC TOTAL TEMP POTENTIAL TOTALAVG TEMPAVG PRESSURE GPRESSURE VOLUME PRESSAVG GPRESSAVG
ENERGY: 0 3.6220 4.7188 15.5425 0.0000 -10900.8442 1459.0504 0.0000 0.0000 1751.8452 -7666.0653 298.1798 -9417.9105 -7666.0653 298.1798 -130.9546 -52.8328 30349.1317 -130.9546 -52.8328
ENERGY: 300000 2.8437 3.6551 15.4426 0.0000 -10979.5418 1495.4175 0.0000 0.0000 1804.2059 -7657.9769 307.0921 -9462.1829 -7641.1095 303.8675 288.2886 339.5653 30017.1018 -103.0455 -64.4311
ENERGY: 600000 2.1885 2.4247 15.4172 0.0000 -10793.7946 1379.5401 0.0000 0.0000 1799.1544 -7595.0697 306.2323 -9394.2240 -7625.6957 303.8258 -402.3779 -298.7788 30203.3988 -293.8092 -245.0181
ENERGY: 900000 1.6864 4.1750 15.3614 0.0000 -10812.9345 1419.1552 0.0000 0.0000 1743.2619 -7629.2945 296.7189 -9372.5565 -7620.0469 302.2479 -12.9785 -10.1558 30021.5505 -266.7909 -224.4625
ENERGY: 1200000 4.5297 3.1371 18.2342 0.0000 -10829.0147 1441.7983 0.0000 0.0000 1795.5294 -7565.7861 305.6152 -9361.3154 -7622.3345 301.9758 309.0741 385.1484 30085.2238 -271.5636 -227.7630
ENERGY: 1500000 3.9882 4.6644 13.4028 0.0000 -10563.6450 1306.1396 0.0000 0.0000 1785.9678 -7449.4823 303.9878 -9235.4501 -7615.4687 301.7299 -582.9401 -535.3724 30300.8479 -256.0332 -210.1204
TCL: Running FEP window  17: Lambda1 0.8000000000000002 Lambda2 0.8500000000000002 [dLambda 0.050000000000000044]
TCL: Setting parameter firsttimestep to 0
TCL: Setting parameter alchLambda to 0.8000000000000002
Info: NONBONDED TABLE R-SQUARED SPACING: 0.0625
Info: NONBONDED TABLE SIZE: 705 POINTS
TCL: Setting parameter alchLambda2 to 0.8500000000000002
Info: NONBONDED TABLE R-SQUARED SPACING: 0.0625
Info: NONBONDED TABLE SIZE: 705 POINTS
TCL: Running for 1500000 steps
ETITLE: TS BOND ANGLE DIHED IMPRP ELECT VDW BOUNDARY MISC KINETIC TOTAL TEMP POTENTIAL TOTALAVG TEMPAVG PRESSURE GPRESSURE VOLUME PRESSAVG GPRESSAVG
ENERGY: 0 3.9882 4.6643 13.4028 0.0000 -10565.7536 1306.3345 0.0000 0.0000 1785.0784 -7452.2854 303.8364 -9237.3638 -7452.2854 303.8364 -607.8943 -526.3899 30300.8479 -607.8943 -526.3899
ENERGY: 300000 2.5931 8.5987 13.8971 0.0000 -10928.9102 1507.9794 0.0000 0.0000 1741.7123 -7654.1297 296.4551 -9395.8420 -7566.5025 299.4688 539.3937 648.8936 30379.9819 -226.3423 -114.7104
ENERGY: 600000 1.5579 4.0696 16.0871 0.0000 -10744.7416 1377.4249 0.0000 0.0000 1789.5391 -7556.0630 304.5957 -9345.6022 -7568.1401 301.1194 -540.3306 -446.8928 30410.6584 -243.7474 -154.2959
ENERGY: 900000 4.1197 2.7688 13.4537 0.0000 -10782.3712 1384.3162 0.0000 0.0000 1758.6610 -7619.0518 299.3399 -9377.7128 -7589.1366 301.3270 -318.3439 -267.8007 30332.4046 -224.8235 -148.5036
ENERGY: 1200000 3.0400 7.2701 14.3695 0.0000 -10851.6219 1427.8097 0.0000 0.0000 1784.2728 -7614.8598 303.6993 -9399.1326 -7603.3744 301.6325 74.7833 182.5620 29982.3100 -208.1828 -128.8125
ENERGY: 1500000 5.1689 3.7900 15.9144 0.0000 -10886.6359 1439.2295 0.0000 0.0000 1710.0621 -7712.4710 291.0680 -9422.5331 -7609.7032 300.6980 -567.4998 -463.2405 30486.9644 -236.4486 -158.6660
TCL: Running FEP window  18: Lambda1 0.8500000000000002 Lambda2 0.9000000000000002 [dLambda 0.050000000000000044]
TCL: Setting parameter firsttimestep to 0
TCL: Setting parameter alchLambda to 0.8500000000000002
Info: NONBONDED TABLE R-SQUARED SPACING: 0.0625
Info: NONBONDED TABLE SIZE: 705 POINTS
TCL: Setting parameter alchLambda2 to 0.9000000000000002
Info: NONBONDED TABLE R-SQUARED SPACING: 0.0625
Info: NONBONDED TABLE SIZE: 705 POINTS
TCL: Running for 1500000 steps
ETITLE: TS BOND ANGLE DIHED IMPRP ELECT VDW BOUNDARY MISC KINETIC TOTAL TEMP POTENTIAL TOTALAVG TEMPAVG PRESSURE GPRESSURE VOLUME PRESSAVG GPRESSAVG
ENERGY: 0 5.1689 3.7900 15.9144 0.0000 -10888.9105 1440.9907 0.0000 0.0000 1709.1918 -7713.8547 290.9198 -9423.0465 -7713.8547 290.9198 -518.4647 -439.1189 30486.9644 -518.4647 -439.1189
ENERGY: 300000 1.5950 3.4635 14.6048 0.0000 -10757.2934 1392.7852 0.0000 0.0000 1710.1166 -7634.7283 291.0772 -9344.8450 -7682.2941 291.8594 -487.1478 -367.7439 30754.2231 -201.8444 -110.3071
ENERGY: 600000 2.7504 2.9787 14.7416 0.0000 -10823.3679 1419.4901 0.0000 0.0000 1766.7001 -7616.7070 300.7082 -9383.4071 -7654.7597 296.1253 -108.8767 -53.5489 30159.8370 -163.8593 -68.1984
ENERGY: 900000 5.2433 3.2620 13.7216 0.0000 -10964.9522 1518.0410 0.0000 0.0000 1829.8696 -7594.8147 311.4603 -9424.6843 -7629.7279 299.0932 409.2964 453.1251 30488.0853 -128.9885 -57.4967
ENERGY: 1200000 2.4094 4.6783 12.6518 0.0000 -10802.3018 1406.1865 0.0000 0.0000 1744.2286 -7632.1472 296.8834 -9376.3758 -7623.1137 299.1897 -390.4494 -282.7539 30512.3335 -166.9680 -90.8769
ENERGY: 1500000 3.4903 3.3626 13.2785 0.0000 -10847.4354 1461.8114 0.0000 0.0000 1823.8345 -7541.6581 310.4330 -9365.4926 -7624.5566 300.1323 415.3963 490.0808 30389.0553 -64.5198 12.7676
TCL: Running FEP window  19: Lambda1 0.9000000000000002 Lambda2 0.9500000000000003 [dLambda 0.050000000000000044]
TCL: Setting parameter firsttimestep to 0
TCL: Setting parameter alchLambda to 0.9000000000000002
Info: NONBONDED TABLE R-SQUARED SPACING: 0.0625
Info: NONBONDED TABLE SIZE: 705 POINTS
TCL: Setting parameter alchLambda2 to 0.9500000000000003
Info: NONBONDED TABLE R-SQUARED SPACING: 0.0625
Info: NONBONDED TABLE SIZE: 705 POINTS
TCL: Running for 1500000 steps
ETITLE: TS BOND ANGLE DIHED IMPRP ELECT VDW BOUNDARY MISC KINETIC TOTAL TEMP POTENTIAL TOTALAVG TEMPAVG PRESSURE GPRESSURE VOLUME PRESSAVG GPRESSAVG
ENERGY: 0 3.4903 3.3626 13.2785 0.0000 -10852.3778 1463.9960 0.0000 0.0000 1822.9836 -7545.2668 310.2882 -9368.2504 -7545.2668 310.2882 439.7400 516.7866 30389.0553 439.7400 516.7866
ENERGY: 300000 2.9142 3.6931 13.9825 0.0000 -10899.6906 1447.9924 0.0000 0.0000 1750.6247 -7680.4837 297.9721 -9431.1084 -7593.4863 303.6551 52.8872 132.8957 29979.4651 -276.0324 -202.4760
ENERGY: 600000 2.8056 3.9381 14.4668 0.0000 -10873.3326 1455.0397 0.0000 0.0000 1717.7338 -7679.3485 292.3737 -9397.0824 -7625.1033 301.4300 154.9605 218.7701 30136.2871 -141.9665 -66.3146
ENERGY: 900000 3.2314 2.9507 15.0488 0.0000 -10960.0388 1485.1837 0.0000 0.0000 1764.6179 -7689.0063 300.3538 -9453.6243 -7621.3652 301.5450 6.3775 14.7153 30495.4312 -55.6022 12.0846
ENERGY: 1200000 3.6410 4.8224 13.7552 0.0000 -10743.7927 1407.4626 0.0000 0.0000 1767.9791 -7546.1324 300.9259 -9314.1115 -7610.6855 301.5410 -227.6935 -150.4151 30589.4624 -78.6270 -8.9740
ENERGY: 1500000 5.1329 3.9786 12.5577 0.0000 -10930.3886 1505.2620 0.0000 0.0000 1757.3207 -7646.1367 299.1118 -9403.4575 -7607.5629 301.3542 379.3511 469.2013 30401.6748 -81.0748 -12.3092
TCL: Running FEP window  20: Lambda1 0.9500000000000003 Lambda2 1.0    [dLambda 0.04999999999999971]
TCL: Setting parameter firsttimestep to 0
TCL: Setting parameter alchLambda to 0.9500000000000003
Info: NONBONDED TABLE R-SQUARED SPACING: 0.0625
Info: NONBONDED TABLE SIZE: 705 POINTS
TCL: Setting parameter alchLambda2 to 1.0
Info: NONBONDED TABLE R-SQUARED SPACING: 0.0625
Info: NONBONDED TABLE SIZE: 705 POINTS
TCL: Running for 1500000 steps
ETITLE: TS BOND ANGLE DIHED IMPRP ELECT VDW BOUNDARY MISC KINETIC TOTAL TEMP POTENTIAL TOTALAVG TEMPAVG PRESSURE GPRESSURE VOLUME PRESSAVG GPRESSAVG
ENERGY: 0 5.1329 3.9786 12.5577 0.0000 -10934.6318 1507.3330 0.0000 0.0000 1756.4191 -7649.2106 298.9583 -9405.6297 -7649.2106 298.9583 412.2370 494.7041 30401.6748 412.2370 494.7041
ENERGY: 300000 4.8238 4.2937 15.8045 0.0000 -10769.6099 1434.2865 0.0000 0.0000 1751.7219 -7558.6793 298.1588 -9310.4013 -7625.3983 299.5855 -1.1666 72.4539 30641.9155 23.4101 90.4327
ENERGY: 600000 1.7085 4.0256 14.5215 0.0000 -10757.0589 1403.5180 0.0000 0.0000 1708.6158 -7624.6696 290.8218 -9333.2853 -7625.9242 299.8572 30.2259 166.3107 30252.3430 -76.9141 -0.0535
ENERGY: 900000 1.5700 2.5900 13.6512 0.0000 -10895.9720 1460.2682 0.0000 0.0000 1697.8285 -7720.0641 288.9857 -9417.8925 -7627.5095 299.8185 -38.6166 -8.1838 30810.2629 -79.9004 -2.2139
ENERGY: 1200000 2.3301 4.4552 12.3358 0.0000 -11084.3860 1609.0710 0.0000 0.0000 1748.2218 -7707.9721 297.5631 -9456.1939 -7642.1449 298.8005 1370.8285 1403.2650 29948.6410 14.6979 85.7052
ENERGY: 1500000 2.6146 3.2760 14.1252 0.0000 -10696.8116 1368.2194 0.0000 0.0000 1772.9633 -7535.6131 301.7743 -9308.5764 -7640.2879 298.3900 -518.0612 -437.5370 31111.9004 -11.5502 57.7176
TCL: Exiting due to exit command.
