Info: SIMULATION PARAMETERS:
Info: TIMESTEP               2
Info: NUMBER OF STEPS        0
Info: STEPS PER CYCLE        10
Info: PERIODIC CELL BASIS 1  30.9298 0 0
Info: PERIODIC CELL BASIS 2  0 30.1466 0
Info: PERIODIC CELL BASIS 3  0 0 32.3417
Info: PERIODIC CELL CENTER   0 0 0
Info: WRAPPING WATERS AROUND PERIODIC BOUNDARIES ON OUTPUT.
Info: WRAPPING ALL CLUSTERS AROUND PERIODIC BOUNDARIES ON OUTPUT.
Info: FIRST LDB TIMESTEP     50
Info: LAST LDB TIMESTEP     -1
Info: HOM BACKGROUND SCALING 1
Info: PME BACKGROUND SCALING 1
Info: MIN ATOMS PER PATCH    40
Info: EMPTY PATCH LOAD       40 ATOMS
Info: VELOCITY FILE          mobley_9028462_equil.vel
Info: CENTER OF MASS MOVING INITIALLY? NO
Info: DIELECTRIC             1
Info: EXCLUDE                SCALED ONE-FOUR
Info: 1-4 ELECTROSTATICS SCALED BY 0.833333
Info: MODIFIED 1-4 VDW PARAMETERS WILL BE USED
Info: DCD FILENAME           mobley_9028462_prod.dcd
Info: DCD FREQUENCY          100000
Info: DCD FIRST STEP         100000
Info: DCD FILE WILL CONTAIN UNIT CELL DATA
Info: XST FILENAME           mobley_9028462_prod.xst
Info: XST FREQUENCY          100000
Info: NO VELOCITY DCD OUTPUT
Info: NO FORCE DCD OUTPUT
Info: OUTPUT FILENAME        mobley_9028462_prod
Info: BINARY OUTPUT FILES WILL BE USED
Info: RESTART FILENAME       mobley_9028462_prod.restart
Info: RESTART FREQUENCY      100000
Info: BINARY RESTART FILES WILL BE USED
Info: CUTOFF                 9
Info: PAIRLIST DISTANCE      11
Info: PAIRLIST SHRINK RATE   0.01
Info: PAIRLIST GROW RATE     0.01
Info: PAIRLIST TRIGGER       0.3
Info: PAIRLISTS PER CYCLE    2
Info: PAIRLISTS ENABLED
Info: MARGIN                 2
Info: HYDROGEN GROUP CUTOFF  2.5
Info: PATCH DIMENSION        15.5
Info: ENERGY OUTPUT STEPS    100000
Info: ENERGY EVALUATION STEPS    100000
Info: OUTPUT ENERGY PRECISION 4
Info: CROSSTERM ENERGY INCLUDED IN DIHEDRAL
Info: TIMING OUTPUT STEPS    1000000
Info: PRESSURE OUTPUT STEPS  100000
Info: ALCHEMICAL FEP ON
Info: FEP CURRENT LAMBDA VALUE     1
Info: FEP COMPARISON LAMBDA VALUE  0.95
Info: FEP INTRA-ALCHEMICAL NON-BONDED INTERACTIONS WILL BE RETAINED
Info: FEP INTRA-ALCHEMICAL BONDED INTERACTIONS WILL BE RETAINED
Info: FEP VDW SHIFTING COEFFICIENT 5
Info: FEP ELEC. ACTIVE FOR ANNIHILATED PARTICLES BETWEEN LAMBDA = 0 AND LAMBDA = 0.5
Info: FEP ELEC. ACTIVE FOR EXNIHILATED PARTICLES BETWEEN LAMBDA = 0.5 AND LAMBDA = 1
Info: FEP VDW ACTIVE FOR ANNIHILATED PARTICLES BETWEEN LAMBDA = 0 AND LAMBDA = 1
Info: FEP VDW ACTIVE FOR EXNIHILATED PARTICLES BETWEEN LAMBDA = 0 AND LAMBDA = 1
Info: FEP BOND ACTIVE FOR ANNIHILATED PARTICLES BETWEEN LAMBDA = 1 AND LAMBDA = 1
Info: FEP BOND ACTIVE FOR EXNIHILATED PARTICLES BETWEEN LAMBDA = 0 AND LAMBDA = 0
Info: LANGEVIN DYNAMICS ACTIVE
Info: LANGEVIN TEMPERATURE   300
Info: LANGEVIN USING BBK INTEGRATOR
Info: LANGEVIN DAMPING COEFFICIENT IS 1 INVERSE PS
Info: LANGEVIN DYNAMICS APPLIED TO HYDROGENS
Info: LANGEVIN PISTON PRESSURE CONTROL ACTIVE
Info:        TARGET PRESSURE IS 1.01325 BAR
Info:     OSCILLATION PERIOD IS 50 FS
Info:             DECAY TIME IS 25 FS
Info:     PISTON TEMPERATURE IS 300 K
Info:       PRESSURE CONTROL IS GROUP-BASED
Info:    INITIAL STRAIN RATE IS -0.000114794 -0.000114794 -0.000114794
Info:       CELL FLUCTUATION IS ISOTROPIC
Info: PARTICLE MESH EWALD (PME) ACTIVE
Info: PME TOLERANCE               1e-06
Info: PME EWALD COEFFICIENT       0.348832
Info: PME INTERPOLATION ORDER     4
Info: PME GRID DIMENSIONS         32 32 36
Info: PME MAXIMUM GRID SPACING    1
Info: PME CALCULATION WILL BE PERFORMED ON GPU
Info: FULL ELECTROSTATIC EVALUATION FREQUENCY      2
Info: USING VERLET I (r-RESPA) MTS SCHEME.
Info: C1 SPLITTING OF LONG RANGE ELECTROSTATICS
Info: PLACING ATOMS IN PATCHES BY HYDROGEN GROUPS
Info: RIGID BONDS TO HYDROGEN : ALL
Info:         ERROR TOLERANCE : 1e-08
Info:          MAX ITERATIONS : 100
Info: RIGID WATER USING SETTLE ALGORITHM
Info: RANDOM NUMBER SEED     1743532902
Info: USE HYDROGEN BONDS?    NO
Info: Using AMBER format force field!
Info: AMBER PARM FILE        mobley_9028462.prmtop
Info: COORDINATE PDB         mobley_9028462.pdb
Info: Exclusions will be read from PARM file!
Info: SCNB (VDW SCALING)     2
Info: USING ARITHMETIC MEAN TO COMBINE L-J SIGMA PARAMETERS
Info: BINARY COORDINATES     mobley_9028462_equil.coor
Info: SUMMARY OF PARAMETERS:
Info: 8 BONDS
Info: 8 ANGLES
Info:   8 HARMONIC
Info:   0 COSINE-BASED
Info: 7 DIHEDRAL
Info: 0 IMPROPER
Info: 0 CROSSTERM
Info: 0 VDW
Info: 36 VDW_PAIRS
Info: 0 NBTHOLE_PAIRS
Info: To read alchdata from file: mobley_9028462.pdb
Info: To read alchflag data from column: 5
Info: STRUCTURE SUMMARY:
Info: 2924 ATOMS
Info: 2923 BONDS
Info: 16 ANGLES
Info: 15 DIHEDRALS
Info: 0 IMPROPERS
Info: 0 CROSSTERMS
Info: 2950 EXCLUSIONS
Info: 2916 RIGID BONDS
Info: ALCH: 0 ATOMS TO DISAPPEAR IN FINAL STATE
Info: ALCH: 11 ATOMS TO APPEAR IN FINAL STATE
Info: 5856 DEGREES OF FREEDOM
Info: 979 HYDROGEN GROUPS
Info: 4 ATOMS IN LARGEST HYDROGEN GROUP
Info: 979 MIGRATION GROUPS
Info: 4 ATOMS IN LARGEST MIGRATION GROUP
Info: TOTAL MASS = 17621.6 amu
Info: TOTAL CHARGE = -8.9407e-08 e
Info: MASS DENSITY = 0.970344 g/cm^3
Info: ATOM DENSITY = 0.0969614 atoms/A^3
Info: ADDED 0 IMPLICIT EXCLUSIONS
Info: NONBONDED TABLE R-SQUARED SPACING: 0.0625
Info: NONBONDED TABLE SIZE: 705 POINTS
Info: REMOVING COM VELOCITY -0.00539963 -0.0733642 -0.204732
Info: Use 3D box decompostion in PME FFT.
Info: Updated CUDA force table with 4096 elements.
Info: Updated CUDA LJ table with 8 x 8 elements.
Info: Found 14 unique exclusion lists needing 20 bytes
TCL: Running for 1500000 steps
ETITLE: TS BOND ANGLE DIHED IMPRP ELECT VDW BOUNDARY MISC KINETIC TOTAL TEMP POTENTIAL TOTALAVG TEMPAVG PRESSURE GPRESSURE VOLUME PRESSAVG GPRESSAVG
ENERGY: 0 0.9389 4.8656 1.1935 0.0000 -10510.0709 1394.1492 0.0000 0.0000 1669.1951 -7439.7286 286.8775 -9108.9238 -7439.7286 286.8775 21.6960 105.0967 30156.3317 21.6960 105.0967
ENERGY: 300000 2.6326 2.4113 0.7955 0.0000 -10614.8334 1401.4336 0.0000 0.0000 1748.7489 -7458.8116 300.5500 -9207.5606 -7404.9695 294.6472 -230.8024 -167.3006 29693.9444 -90.4106 -21.9210
ENERGY: 600000 0.9358 2.3835 1.0716 0.0000 -10528.6106 1447.3894 0.0000 0.0000 1729.8740 -7346.9563 297.3061 -9076.8303 -7384.9310 296.0376 196.1345 259.5305 30576.2899 36.8760 89.4037
ENERGY: 900000 3.1578 6.1809 0.7111 0.0000 -10571.1812 1435.0018 0.0000 0.0000 1756.9155 -7369.2140 301.9536 -9126.1296 -7378.3474 297.8149 185.7751 223.7801 30232.2088 -110.6668 -57.5147
ENERGY: 1200000 3.9767 2.0006 1.3150 0.0000 -10730.8246 1498.9086 0.0000 0.0000 1693.7894 -7530.8343 291.1044 -9224.6237 -7395.7030 297.5175 494.7960 528.4688 29709.3278 -8.1509 45.3055
ENERGY: 1500000 7.5271 5.7221 0.9018 0.0000 -10461.5758 1349.2087 0.0000 0.0000 1771.4042 -7326.8120 304.4437 -9098.2162 -7390.6195 298.2729 -528.4924 -483.5257 30176.6750 -101.3165 -45.9237
TCL: Running FEP window   2: Lambda1 0.95   Lambda2 0.8999999999999999 [dLambda -0.050000000000000044]
TCL: Setting parameter firsttimestep to 0
TCL: Setting parameter alchLambda to 0.95
Info: NONBONDED TABLE R-SQUARED SPACING: 0.0625
Info: NONBONDED TABLE SIZE: 705 POINTS
TCL: Setting parameter alchLambda2 to 0.8999999999999999
Info: NONBONDED TABLE R-SQUARED SPACING: 0.0625
Info: NONBONDED TABLE SIZE: 705 POINTS
TCL: Running for 1500000 steps
ETITLE: TS BOND ANGLE DIHED IMPRP ELECT VDW BOUNDARY MISC KINETIC TOTAL TEMP POTENTIAL TOTALAVG TEMPAVG PRESSURE GPRESSURE VOLUME PRESSAVG GPRESSAVG
ENERGY: 0 7.5271 5.7221 0.9018 0.0000 -10460.4886 1348.9192 0.0000 0.0000 1770.5594 -7326.8590 304.2985 -9097.4184 -7326.8590 304.2985 -584.5121 -493.9434 30176.6750 -584.5121 -493.9434
ENERGY: 300000 1.5591 9.7962 0.5477 0.0000 -10709.6476 1551.8355 0.0000 0.0000 1776.1182 -7369.7909 305.2539 -9145.9091 -7399.0144 302.8356 1127.0696 1170.4131 29911.1638 119.5114 166.9326
ENERGY: 600000 5.6639 5.2630 0.5603 0.0000 -10540.5848 1403.3970 0.0000 0.0000 1708.5696 -7417.1309 293.6446 -9125.7005 -7417.9072 298.9083 -391.8358 -367.1864 30251.0029 -129.8349 -71.6704
ENERGY: 900000 2.9013 8.3408 0.6237 0.0000 -10626.0130 1505.1841 0.0000 0.0000 1743.4867 -7365.4763 299.6456 -9108.9630 -7407.7476 299.6310 844.0336 960.0765 29720.2968 -97.7389 -27.5923
ENERGY: 1200000 1.8919 3.2811 0.4257 0.0000 -10581.2300 1469.2027 0.0000 0.0000 1718.4633 -7387.9652 295.3450 -9106.4284 -7401.8218 299.3829 331.8424 414.8290 30271.3061 -32.1928 38.4796
ENERGY: 1500000 0.9674 3.7507 0.3121 0.0000 -10497.7382 1385.6786 0.0000 0.0000 1766.8012 -7340.2281 303.6526 -9107.0293 -7404.2707 298.8025 -77.0471 17.8221 29627.4482 -51.5504 19.6619
TCL: Running FEP window   3: Lambda1 0.8999999999999999 Lambda2 0.8499999999999999 [dLambda -0.050000000000000044]
TCL: Setting parameter firsttimestep to 0
TCL: Setting parameter alchLambda to 0.8999999999999999
Info: NONBONDED TABLE R-SQUARED SPACING: 0.0625
Info: NONBONDED TABLE SIZE: 705 POINTS
TCL: Setting parameter alchLambda2 to 0.8499999999999999
Info: NONBONDED TABLE R-SQUARED SPACING: 0.0625
Info: NONBONDED TABLE SIZE: 705 POINTS
TCL: Running for 1500000 steps
ETITLE: TS BOND ANGLE DIHED IMPRP ELECT VDW BOUNDARY MISC KINETIC TOTAL TEMP POTENTIAL TOTALAVG TEMPAVG PRESSURE GPRESSURE VOLUME PRESSAVG GPRESSAVG
ENERGY: 0 0.9674 3.7507 0.3121 0.0000 -10496.9614 1385.0647 0.0000 0.0000 1765.9137 -7340.9527 303.5001 -9106.8664 -7340.9527 303.5001 -78.0489 0.4547 29627.4482 -78.0489 0.4547
ENERGY: 300000 4.5834 6.2707 2.7975 0.0000 -10590.7905 1369.7904 0.0000 0.0000 1790.5754 -7416.7731 307.7386 -9207.3485 -7332.4359 304.4574 -333.4134 -322.3711 29575.9753 -164.8708 -117.0805
ENERGY: 600000 2.0725 4.4278 0.5459 0.0000 -10507.6574 1407.8531 0.0000 0.0000 1695.8395 -7396.9185 291.4567 -9092.7581 -7368.5371 301.2043 -67.7228 4.9805 30221.1544 40.7836 115.9082
ENERGY: 900000 4.1934 5.0385 0.3076 0.0000 -10459.0107 1377.5733 0.0000 0.0000 1761.7832 -7310.1147 302.7902 -9071.8978 -7365.5922 299.9353 -428.7085 -401.5754 30584.7211 -13.7586 59.5836
ENERGY: 1200000 3.5778 3.1573 0.9734 0.0000 -10525.5945 1369.2541 0.0000 0.0000 1766.2952 -7382.3367 303.5656 -9148.6319 -7376.7655 299.1895 -440.5972 -296.9383 29765.4765 -124.3958 -43.2043
ENERGY: 1500000 1.9506 4.1136 0.2475 0.0000 -10423.7718 1320.8000 0.0000 0.0000 1743.3149 -7353.3451 299.6161 -9096.6601 -7376.7560 299.3449 -830.9970 -762.4945 30323.6871 -121.8759 -43.3876
TCL: Running FEP window   4: Lambda1 0.8499999999999999 Lambda2 0.7999999999999998 [dLambda -0.050000000000000044]
TCL: Setting parameter firsttimestep to 0
TCL: Setting parameter alchLambda to 0.8499999999999999
Info: NONBONDED TABLE R-SQUARED SPACING: 0.0625
Info: NONBONDED TABLE SIZE: 705 POINTS
TCL: Setting parameter alchLambda2 to 0.7999999999999998
Info: NONBONDED TABLE R-SQUARED SPACING: 0.0625
Info: NONBONDED TABLE SIZE: 705 POINTS
TCL: Running for 1500000 steps
ETITLE: TS BOND ANGLE DIHED IMPRP ELECT VDW BOUNDARY MISC KINETIC TOTAL TEMP POTENTIAL TOTALAVG TEMPAVG PRESSURE GPRESSURE VOLUME PRESSAVG GPRESSAVG
ENERGY: 0 1.9506 4.1136 0.2475 0.0000 -10422.9635 1320.7725 0.0000 0.0000 1742.4712 -7353.4081 299.4711 -9095.8794 -7353.4081 299.4711 -847.0523 -770.3823 30323.6871 -847.0523 -770.3823
ENERGY: 300000 3.5310 7.5672 1.2864 0.0000 -10498.6341 1386.1626 0.0000 0.0000 1786.6237 -7313.4632 307.0594 -9100.0870 -7360.6169 301.8471 -601.1081 -494.6529 30561.0113 -293.3432 -209.7853
ENERGY: 600000 7.5124 6.0368 0.2514 0.0000 -10556.8386 1390.1488 0.0000 0.0000 1777.4265 -7375.4628 305.4787 -9152.8892 -7354.6171 302.5332 -186.8848 -113.9572 29869.5817 -342.7227 -260.2636
ENERGY: 900000 2.1123 4.1684 1.0570 0.0000 -10515.8644 1386.5601 0.0000 0.0000 1731.2625 -7390.7042 297.5447 -9121.9666 -7360.1808 301.3277 -340.0012 -304.0144 30406.9475 -373.8469 -300.1544
ENERGY: 1200000 1.3200 4.3076 0.6223 0.0000 -10557.6025 1418.2618 0.0000 0.0000 1746.7805 -7386.3103 300.2117 -9133.0908 -7367.5690 301.3234 -88.1456 -45.2577 30071.8704 -229.7880 -153.5078
ENERGY: 1500000 1.9588 4.6152 1.0106 0.0000 -10619.0365 1503.2072 0.0000 0.0000 1811.7300 -7296.5147 311.3743 -9108.2447 -7363.9573 301.1500 735.1852 740.7606 30046.3823 -180.1787 -108.1424
TCL: Running FEP window   5: Lambda1 0.7999999999999998 Lambda2 0.7499999999999998 [dLambda -0.050000000000000044]
TCL: Setting parameter firsttimestep to 0
TCL: Setting parameter alchLambda to 0.7999999999999998
Info: NONBONDED TABLE R-SQUARED SPACING: 0.0625
Info: NONBONDED TABLE SIZE: 705 POINTS
TCL: Setting parameter alchLambda2 to 0.7499999999999998
Info: NONBONDED TABLE R-SQUARED SPACING: 0.0625
Info: NONBONDED TABLE SIZE: 705 POINTS
TCL: Running for 1500000 steps
ETITLE: TS BOND ANGLE DIHED IMPRP ELECT VDW BOUNDARY MISC KINETIC TOTAL TEMP POTENTIAL TOTALAVG TEMPAVG PRESSURE GPRESSURE VOLUME PRESSAVG GPRESSAVG
ENERGY: 0 1.9588 4.6152 1.0106 0.0000 -10617.8892 1502.9602 0.0000 0.0000 1810.8513 -7296.4932 311.2233 -9107.3444 -7296.4932 311.2233 664.5434 735.0868 30046.3823 664.5434 735.0868
ENERGY: 300000 1.5947 2.2811 0.5389 0.0000 -10529.5409 1367.6653 0.0000 0.0000 1799.1842 -7358.2766 309.2181 -9157.4608 -7373.0763 304.1968 -462.6110 -410.0293 30065.1738 -4.8202 39.6784
ENERGY: 600000 2.6088 3.2838 0.8898 0.0000 -10366.2650 1255.5656 0.0000 0.0000 1763.0925 -7340.8246 303.0152 -9103.9171 -7366.7129 304.4112 -1133.8696 -1116.6485 30279.3029 -93.5043 -43.2377
ENERGY: 900000 2.3566 5.4841 0.6342 0.0000 -10565.5091 1484.0603 0.0000 0.0000 1736.9536 -7336.0205 298.5228 -9072.9740 -7374.7850 302.6203 579.8703 630.2054 30076.4032 -7.3771 40.4086
ENERGY: 1200000 2.3892 2.3126 0.3318 0.0000 -10631.5298 1504.7510 0.0000 0.0000 1757.1106 -7364.6346 301.9871 -9121.7453 -7374.2147 302.1245 871.6193 898.1566 29713.1785 61.7569 111.1413
ENERGY: 1500000 6.5518 3.2331 1.4657 0.0000 -10473.7138 1379.9663 0.0000 0.0000 1737.8537 -7344.6432 298.6775 -9082.4969 -7373.1036 301.7745 -439.5267 -303.3394 30098.2748 29.4380 86.3717
TCL: Running FEP window   6: Lambda1 0.7499999999999998 Lambda2 0.6999999999999997 [dLambda -0.050000000000000044]
TCL: Setting parameter firsttimestep to 0
TCL: Setting parameter alchLambda to 0.7499999999999998
Info: NONBONDED TABLE R-SQUARED SPACING: 0.0625
Info: NONBONDED TABLE SIZE: 705 POINTS
TCL: Setting parameter alchLambda2 to 0.6999999999999997
Info: NONBONDED TABLE R-SQUARED SPACING: 0.0625
Info: NONBONDED TABLE SIZE: 705 POINTS
TCL: Running for 1500000 steps
ETITLE: TS BOND ANGLE DIHED IMPRP ELECT VDW BOUNDARY MISC KINETIC TOTAL TEMP POTENTIAL TOTALAVG TEMPAVG PRESSURE GPRESSURE VOLUME PRESSAVG GPRESSAVG
ENERGY: 0 6.5518 3.2332 1.4657 0.0000 -10472.8589 1379.6724 0.0000 0.0000 1736.9786 -7344.9572 298.5271 -9081.9358 -7344.9572 298.5271 -407.2324 -312.4864 30098.2748 -407.2324 -312.4864
ENERGY: 300000 3.1955 3.4097 0.3675 0.0000 -10492.7628 1385.6065 0.0000 0.0000 1760.8411 -7339.3424 302.6283 -9100.1836 -7369.2014 295.9588 -290.3233 -261.4861 30346.5759 -202.2316 -126.1411
ENERGY: 600000 2.0592 5.7244 1.6448 0.0000 -10563.6593 1468.6990 0.0000 0.0000 1692.2223 -7393.3097 290.8350 -9085.5319 -7382.0157 297.2739 660.7540 659.5437 29619.2044 -67.2308 -23.0057
ENERGY: 900000 2.3485 5.3416 0.2030 0.0000 -10566.3179 1439.5319 0.0000 0.0000 1763.3261 -7355.5668 303.0554 -9118.8929 -7372.1962 298.8081 80.2991 153.3709 30227.9383 -64.5501 -11.9543
ENERGY: 1200000 4.1625 2.8415 0.2653 0.0000 -10529.3992 1437.2492 0.0000 0.0000 1710.7098 -7374.1709 294.0124 -9084.8807 -7375.8168 297.6289 -31.5083 97.5734 30166.4896 0.8439 59.9534
ENERGY: 1500000 3.1232 3.8548 0.2977 0.0000 -10614.3924 1508.2664 0.0000 0.0000 1706.7747 -7392.0757 293.3361 -9098.8504 -7384.8202 297.1430 789.4134 798.5247 29807.7269 45.0083 97.0526
TCL: Running FEP window   7: Lambda1 0.6999999999999997 Lambda2 0.6499999999999997 [dLambda -0.050000000000000044]
TCL: Setting parameter firsttimestep to 0
TCL: Setting parameter alchLambda to 0.6999999999999997
Info: NONBONDED TABLE R-SQUARED SPACING: 0.0625
Info: NONBONDED TABLE SIZE: 705 POINTS
TCL: Setting parameter alchLambda2 to 0.6499999999999997
Info: NONBONDED TABLE R-SQUARED SPACING: 0.0625
Info: NONBONDED TABLE SIZE: 705 POINTS
TCL: Running for 1500000 steps
ETITLE: TS BOND ANGLE DIHED IMPRP ELECT VDW BOUNDARY MISC KINETIC TOTAL TEMP POTENTIAL TOTALAVG TEMPAVG PRESSURE GPRESSURE VOLUME PRESSAVG GPRESSAVG
ENERGY: 0 3.1232 3.8548 0.2977 0.0000 -10613.8158 1508.6143 0.0000 0.0000 1705.8678 -7392.0579 293.1802 -9097.9258 -7392.0579 293.1802 713.3633 797.9972 29807.7269 713.3633 797.9972
ENERGY: 300000 5.8244 4.8575 0.5588 0.0000 -10500.1771 1414.6438 0.0000 0.0000 1770.2152 -7304.0773 304.2394 -9074.2925 -7355.5548 297.7098 -56.3761 -2.8076 30265.3294 -101.1546 -2.0466
ENERGY: 600000 2.1009 7.2369 0.9000 0.0000 -10511.1653 1399.8174 0.0000 0.0000 1755.0610 -7346.0491 301.6349 -9101.1102 -7367.9915 300.0304 -156.3414 -117.3120 30220.8187 -19.9754 57.0444
ENERGY: 900000 3.0623 3.2664 0.2269 0.0000 -10646.2412 1448.4399 0.0000 0.0000 1744.3035 -7446.9423 299.7860 -9191.2457 -7385.0480 299.4040 45.3982 201.8384 29887.5402 -58.7255 21.9136
ENERGY: 1200000 2.4021 3.7997 0.6765 0.0000 -10444.4658 1354.7226 0.0000 0.0000 1754.1486 -7328.7164 301.4781 -9082.8650 -7378.8425 299.4302 -514.7893 -446.4349 30464.7226 -130.5081 -46.2592
ENERGY: 1500000 1.7037 5.0500 0.4165 0.0000 -10496.5141 1378.3260 0.0000 0.0000 1807.4785 -7303.5395 310.6436 -9111.0179 -7378.1467 300.1254 -348.1496 -271.3061 30241.3206 -129.5804 -49.9392
TCL: Running FEP window   8: Lambda1 0.6499999999999997 Lambda2 0.5999999999999996 [dLambda -0.050000000000000044]
TCL: Setting parameter firsttimestep to 0
TCL: Setting parameter alchLambda to 0.6499999999999997
Info: NONBONDED TABLE R-SQUARED SPACING: 0.0625
Info: NONBONDED TABLE SIZE: 705 POINTS
TCL: Setting parameter alchLambda2 to 0.5999999999999996
Info: NONBONDED TABLE R-SQUARED SPACING: 0.0625
Info: NONBONDED TABLE SIZE: 705 POINTS
TCL: Running for 1500000 steps
ETITLE: TS BOND ANGLE DIHED IMPRP ELECT VDW BOUNDARY MISC KINETIC TOTAL TEMP POTENTIAL TOTALAVG TEMPAVG PRESSURE GPRESSURE VOLUME PRESSAVG GPRESSAVG
ENERGY: 0 1.7037 5.0500 0.4165 0.0000 -10496.0312 1378.4644 0.0000 0.0000 1806.5830 -7303.8137 310.4897 -9110.3967 -7303.8137 310.4897 -354.4275 -274.9765 30241.3206 -354.4275 -274.9765
ENERGY: 300000 3.0216 2.8202 1.1229 0.0000 -10603.6130 1419.5726 0.0000 0.0000 1772.5539 -7404.5219 304.6413 -9177.0758 -7385.7556 305.1012 -191.5476 -171.2123 29937.6811 -18.4032 25.4222
ENERGY: 600000 3.6536 4.1076 0.8804 0.0000 -10573.4319 1464.7327 0.0000 0.0000 1759.4202 -7340.6374 302.3841 -9100.0575 -7354.8194 304.1392 253.4765 328.8238 30335.9405 74.0056 125.6727
ENERGY: 900000 4.3948 4.1809 0.3881 0.0000 -10522.5762 1466.1955 0.0000 0.0000 1724.0368 -7323.3801 296.3029 -9047.4169 -7355.8196 301.7918 404.7549 573.6754 30086.3077 215.5207 277.7578
ENERGY: 1200000 2.3733 2.8344 0.6748 0.0000 -10606.9071 1396.8850 0.0000 0.0000 1756.0920 -7448.0476 301.8121 -9204.1396 -7369.8303 300.9147 -665.8497 -581.4386 30316.7429 124.0024 182.9515
ENERGY: 1500000 1.3551 4.3653 0.7021 0.0000 -10618.8223 1441.9325 0.0000 0.0000 1718.7905 -7451.6768 295.4012 -9170.4673 -7377.1964 301.0758 -105.3223 47.6176 29804.8685 83.8477 152.1810
TCL: Running FEP window   9: Lambda1 0.5999999999999996 Lambda2 0.5499999999999996 [dLambda -0.050000000000000044]
TCL: Setting parameter firsttimestep to 0
TCL: Setting parameter alchLambda to 0.5999999999999996
Info: NONBONDED TABLE R-SQUARED SPACING: 0.0625
Info: NONBONDED TABLE SIZE: 705 POINTS
TCL: Setting parameter alchLambda2 to 0.5499999999999996
Info: NONBONDED TABLE R-SQUARED SPACING: 0.0625
Info: NONBONDED TABLE SIZE: 705 POINTS
TCL: Running for 1500000 steps
ETITLE: TS BOND ANGLE DIHED IMPRP ELECT VDW BOUNDARY MISC KINETIC TOTAL TEMP POTENTIAL TOTALAVG TEMPAVG PRESSURE GPRESSURE VOLUME PRESSAVG GPRESSAVG
ENERGY: 0 1.3551 4.3653 0.7021 0.0000 -10619.0202 1441.6514 0.0000 0.0000 1717.9303 -7453.0161 295.2534 -9170.9463 -7453.0161 295.2534 -51.9319 39.4515 29804.8685 -51.9319 39.4515
ENERGY: 300000 2.0998 4.2513 0.1732 0.0000 -10562.8023 1438.9994 0.0000 0.0000 1719.0650 -7398.2135 295.4484 -9117.2786 -7412.4134 299.5877 291.9186 336.5534 29773.7784 319.7417 388.6645
ENERGY: 600000 2.2673 5.6622 0.5320 0.0000 -10628.0658 1457.1397 0.0000 0.0000 1714.1528 -7448.3118 294.6041 -9162.4647 -7413.4944 297.5591 294.8510 340.0663 29996.8208 274.7269 336.0073
ENERGY: 900000 1.2204 5.1826 0.3270 0.0000 -10455.5178 1374.0470 0.0000 0.0000 1702.0691 -7372.6717 292.5274 -9074.7408 -7395.4283 298.4575 -151.3781 -198.3070 30012.2718 142.6943 195.6855
ENERGY: 1200000 3.3440 2.6861 1.1214 0.0000 -10540.1874 1396.0956 0.0000 0.0000 1695.6581 -7441.2822 291.4255 -9136.9403 -7401.7446 297.9932 -374.4625 -325.9226 30133.7543 137.9177 194.2151
ENERGY: 1500000 2.1621 2.9397 0.3746 0.0000 -10515.4164 1390.9424 0.0000 0.0000 1702.3631 -7416.6345 292.5779 -9118.9976 -7400.4492 297.8567 -342.0756 -250.6771 30260.0098 134.7454 192.3133
TCL: Running FEP window  10: Lambda1 0.5499999999999996 Lambda2 0.4999999999999996 [dLambda -0.04999999999999999]
TCL: Setting parameter firsttimestep to 0
TCL: Setting parameter alchLambda to 0.5499999999999996
Info: NONBONDED TABLE R-SQUARED SPACING: 0.0625
Info: NONBONDED TABLE SIZE: 705 POINTS
TCL: Setting parameter alchLambda2 to 0.4999999999999996
Info: NONBONDED TABLE R-SQUARED SPACING: 0.0625
Info: NONBONDED TABLE SIZE: 705 POINTS
TCL: Running for 1500000 steps
ETITLE: TS BOND ANGLE DIHED IMPRP ELECT VDW BOUNDARY MISC KINETIC TOTAL TEMP POTENTIAL TOTALAVG TEMPAVG PRESSURE GPRESSURE VOLUME PRESSAVG GPRESSAVG
ENERGY: 0 2.1621 2.9396 0.3746 0.0000 -10515.7147 1390.4150 0.0000 0.0000 1701.5081 -7418.3153 292.4309 -9119.8234 -7418.3153 292.4309 -342.1641 -262.7756 30260.0098 -342.1641 -262.7756
ENERGY: 300000 1.3411 5.9972 0.3009 0.0000 -10727.3702 1581.7732 0.0000 0.0000 1713.0684 -7424.8895 294.4178 -9137.9579 -7441.9207 296.8505 1395.6403 1469.5589 29478.1078 -251.3689 -169.3541
ENERGY: 600000 2.5572 3.6661 0.4098 0.0000 -10460.5041 1372.9825 0.0000 0.0000 1746.7038 -7334.1847 300.1985 -9080.8884 -7408.1244 297.5385 -330.9502 -283.2195 30176.3384 -250.7831 -185.2944
ENERGY: 900000 7.0333 2.1055 0.5546 0.0000 -10575.1873 1436.4644 0.0000 0.0000 1738.2166 -7390.8130 298.7399 -9129.0295 -7397.9366 298.2741 -26.1297 41.4454 30090.3097 -133.1578 -72.9149
ENERGY: 1200000 1.9331 7.6161 0.7906 0.0000 -10603.6299 1373.4405 0.0000 0.0000 1753.4524 -7466.3973 301.3584 -9219.8497 -7396.9583 298.5615 -461.1620 -429.6545 29970.4399 -92.4254 -38.0215
ENERGY: 1500000 2.8506 5.2574 0.4779 0.0000 -10574.3809 1482.4354 0.0000 0.0000 1731.9032 -7351.4563 297.6548 -9083.3595 -7391.2411 298.7187 583.4143 623.0369 29792.3674 -34.2762 21.5602
TCL: Running FEP window  11: Lambda1 0.4999999999999996 Lambda2 0.4499999999999996 [dLambda -0.04999999999999999]
TCL: Setting parameter firsttimestep to 0
TCL: Setting parameter alchLambda to 0.4999999999999996
Info: NONBONDED TABLE R-SQUARED SPACING: 0.0625
Info: NONBONDED TABLE SIZE: 705 POINTS
TCL: Setting parameter alchLambda2 to 0.4499999999999996
Info: NONBONDED TABLE R-SQUARED SPACING: 0.0625
Info: NONBONDED TABLE SIZE: 705 POINTS
TCL: Running for 1500000 steps
ETITLE: TS BOND ANGLE DIHED IMPRP ELECT VDW BOUNDARY MISC KINETIC TOTAL TEMP POTENTIAL TOTALAVG TEMPAVG PRESSURE GPRESSURE VOLUME PRESSAVG GPRESSAVG
ENERGY: 0 2.8506 5.2574 0.4779 0.0000 -10574.2649 1482.9305 0.0000 0.0000 1731.0440 -7351.7044 297.5072 -9082.7484 -7351.7044 297.5072 548.9805 622.3277 29792.3674 548.9805 622.3277
ENERGY: 300000 2.4735 5.6287 0.3343 0.0000 -10472.8201 1401.5152 0.0000 0.0000 1773.0841 -7289.7842 304.7324 -9062.8683 -7333.2534 299.8196 -369.6860 -246.2276 30630.6661 178.8503 252.4227
ENERGY: 600000 2.7794 1.5075 0.4516 0.0000 -10523.7114 1435.8190 0.0000 0.0000 1744.1239 -7339.0299 299.7551 -9083.1538 -7357.1173 299.1442 222.2570 241.9867 29972.7706 145.1701 199.7911
ENERGY: 900000 4.9611 6.5946 0.7686 0.0000 -10521.5720 1398.4793 0.0000 0.0000 1757.5145 -7353.2539 302.0565 -9110.7685 -7365.4620 299.8096 -382.4745 -329.3591 30146.2164 -25.0532 37.3942
ENERGY: 1200000 3.9833 1.6931 0.1726 0.0000 -10546.4500 1437.2860 0.0000 0.0000 1751.2230 -7352.0920 300.9752 -9103.3150 -7369.1220 299.5133 256.1768 251.1588 29988.0402 1.0809 48.3515
ENERGY: 1500000 3.8957 3.7335 0.8957 0.0000 -10562.4473 1466.0737 0.0000 0.0000 1749.0344 -7338.8144 300.5991 -9087.8488 -7375.6052 299.5353 312.4092 393.0197 30294.7133 6.2586 57.7158
TCL: Running FEP window  12: Lambda1 0.4499999999999996 Lambda2 0.39999999999999963 [dLambda -0.04999999999999999]
TCL: Setting parameter firsttimestep to 0
TCL: Setting parameter alchLambda to 0.4499999999999996
Info: NONBONDED TABLE R-SQUARED SPACING: 0.0625
Info: NONBONDED TABLE SIZE: 705 POINTS
TCL: Setting parameter alchLambda2 to 0.39999999999999963
Info: NONBONDED TABLE R-SQUARED SPACING: 0.0625
Info: NONBONDED TABLE SIZE: 705 POINTS
TCL: Running for 1500000 steps
ETITLE: TS BOND ANGLE DIHED IMPRP ELECT VDW BOUNDARY MISC KINETIC TOTAL TEMP POTENTIAL TOTALAVG TEMPAVG PRESSURE GPRESSURE VOLUME PRESSAVG GPRESSAVG
ENERGY: 0 3.8957 3.7335 0.8957 0.0000 -10562.4486 1465.9604 0.0000 0.0000 1748.1638 -7339.7995 300.4495 -9087.9633 -7339.7995 300.4495 309.1689 385.7874 30294.7133 309.1689 385.7874
ENERGY: 300000 2.9013 7.7476 0.3360 0.0000 -10498.1641 1418.5679 0.0000 0.0000 1736.7426 -7331.8687 298.4865 -9068.6112 -7368.7045 297.9554 -130.3732 -61.6038 30328.6772 11.2018 85.5970
ENERGY: 600000 3.8146 3.0198 0.4971 0.0000 -10538.7657 1409.3168 0.0000 0.0000 1773.9615 -7348.1560 304.8832 -9122.1175 -7383.8914 299.1562 -87.3780 -89.1269 30178.4825 -166.9143 -110.3659
ENERGY: 900000 2.9333 4.7296 1.8449 0.0000 -10441.0058 1327.5975 0.0000 0.0000 1731.1895 -7372.7110 297.5322 -9103.9005 -7382.3181 299.0503 -902.1248 -820.9367 30204.4595 -330.4197 -275.5935
ENERGY: 1200000 3.0365 4.3584 0.8126 0.0000 -10576.9867 1419.7279 0.0000 0.0000 1786.1311 -7362.9202 306.9747 -9149.0513 -7379.2301 299.9836 -200.5956 -151.5288 30472.8319 -299.8433 -241.0298
ENERGY: 1500000 4.3256 5.3574 0.6583 0.0000 -10619.2486 1460.1766 0.0000 0.0000 1774.0870 -7374.6438 304.9048 -9148.7307 -7383.2809 299.6962 225.4318 244.9661 29940.3822 -302.9204 -242.9828
TCL: Running FEP window  13: Lambda1 0.39999999999999963 Lambda2 0.34999999999999964 [dLambda -0.04999999999999999]
TCL: Setting parameter firsttimestep to 0
TCL: Setting parameter alchLambda to 0.39999999999999963
Info: NONBONDED TABLE R-SQUARED SPACING: 0.0625
Info: NONBONDED TABLE SIZE: 705 POINTS
TCL: Setting parameter alchLambda2 to 0.34999999999999964
Info: NONBONDED TABLE R-SQUARED SPACING: 0.0625
Info: NONBONDED TABLE SIZE: 705 POINTS
TCL: Running for 1500000 steps
ETITLE: TS BOND ANGLE DIHED IMPRP ELECT VDW BOUNDARY MISC KINETIC TOTAL TEMP POTENTIAL TOTALAVG TEMPAVG PRESSURE GPRESSURE VOLUME PRESSAVG GPRESSAVG
ENERGY: 0 4.3256 5.3574 0.6583 0.0000 -10619.2472 1459.9657 0.0000 0.0000 1773.2242 -7375.7161 304.7565 -9148.9402 -7375.7161 304.7565 156.0459 238.5645 29940.3822 156.0459 238.5645
ENERGY: 300000 1.4620 6.7143 0.3749 0.0000 -10612.3542 1423.5115 0.0000 0.0000 1767.2768 -7413.0148 303.7343 -9180.2916 -7335.1518 307.1040 -107.3641 -29.2727 29725.6011 -39.8178 35.1001
ENERGY: 600000 5.0796 5.0262 0.4041 0.0000 -10681.4512 1492.3087 0.0000 0.0000 1715.7609 -7462.8718 294.8805 -9178.6326 -7358.3247 304.0788 432.2782 556.6536 29861.2300 64.7988 138.9505
ENERGY: 900000 2.9068 2.6809 0.8661 0.0000 -10602.8941 1402.3956 0.0000 0.0000 1702.0947 -7491.9500 292.5318 -9194.0447 -7374.6243 301.4352 -391.2417 -356.1993 29946.3757 -40.3674 19.4754
ENERGY: 1200000 2.3866 3.4970 0.8168 0.0000 -10628.7273 1493.8404 0.0000 0.0000 1742.8284 -7385.3581 299.5325 -9128.1865 -7367.3292 301.9881 607.3633 641.2948 29836.2288 -111.1648 -45.7113
ENERGY: 1500000 2.1370 4.9480 0.0610 0.0000 -10612.7581 1462.3929 0.0000 0.0000 1766.6505 -7376.5687 303.6267 -9143.2191 -7361.8817 302.7804 617.1922 683.0027 29499.5156 -99.0214 -37.8632
TCL: Running FEP window  14: Lambda1 0.34999999999999964 Lambda2 0.29999999999999966 [dLambda -0.04999999999999999]
TCL: Setting parameter firsttimestep to 0
TCL: Setting parameter alchLambda to 0.34999999999999964
Info: NONBONDED TABLE R-SQUARED SPACING: 0.0625
Info: NONBONDED TABLE SIZE: 705 POINTS
TCL: Setting parameter alchLambda2 to 0.29999999999999966
Info: NONBONDED TABLE R-SQUARED SPACING: 0.0625
Info: NONBONDED TABLE SIZE: 705 POINTS
TCL: Running for 1500000 steps
ETITLE: TS BOND ANGLE DIHED IMPRP ELECT VDW BOUNDARY MISC KINETIC TOTAL TEMP POTENTIAL TOTALAVG TEMPAVG PRESSURE GPRESSURE VOLUME PRESSAVG GPRESSAVG
ENERGY: 0 2.1370 4.9480 0.0610 0.0000 -10612.7569 1462.7808 0.0000 0.0000 1765.7578 -7377.0723 303.4733 -9142.8301 -7377.0723 303.4733 584.0278 683.3842 29499.5156 584.0278 683.3842
ENERGY: 300000 5.4534 6.7862 0.8889 0.0000 -10702.9376 1538.1572 0.0000 0.0000 1760.3374 -7391.3146 302.5417 -9151.6519 -7393.7615 299.7597 786.0361 803.9668 30081.0481 -30.2509 41.7345
ENERGY: 600000 1.9064 3.0949 0.5826 0.0000 -10548.3103 1443.1322 0.0000 0.0000 1744.6922 -7354.9021 299.8528 -9099.5943 -7378.1906 299.1994 271.7089 388.7309 29792.5670 120.5511 193.9792
ENERGY: 900000 2.8899 1.6951 0.4836 0.0000 -10527.2621 1365.6009 0.0000 0.0000 1777.0884 -7379.5042 305.4206 -9156.5926 -7369.5759 300.7853 -672.5371 -616.9592 30173.2795 37.0200 109.3594
ENERGY: 1200000 1.3845 2.2864 1.4953 0.0000 -10565.7073 1394.1635 0.0000 0.0000 1748.2377 -7418.1399 300.4622 -9166.3776 -7371.4091 300.3329 -467.0406 -433.0103 30026.3466 1.7752 70.6353
ENERGY: 1500000 0.6262 2.7302 0.8878 0.0000 -10591.7330 1419.2468 0.0000 0.0000 1738.6254 -7429.6166 298.8101 -9168.2420 -7382.1680 299.7516 -182.9882 -120.1734 29835.2228 -29.2024 35.6618
TCL: Running FEP window  15: Lambda1 0.29999999999999966 Lambda2 0.24999999999999967 [dLambda -0.04999999999999999]
TCL: Setting parameter firsttimestep to 0
TCL: Setting parameter alchLambda to 0.29999999999999966
Info: NONBONDED TABLE R-SQUARED SPACING: 0.0625
Info: NONBONDED TABLE SIZE: 705 POINTS
TCL: Setting parameter alchLambda2 to 0.24999999999999967
Info: NONBONDED TABLE R-SQUARED SPACING: 0.0625
Info: NONBONDED TABLE SIZE: 705 POINTS
TCL: Running for 1500000 steps
ETITLE: TS BOND ANGLE DIHED IMPRP ELECT VDW BOUNDARY MISC KINETIC TOTAL TEMP POTENTIAL TOTALAVG TEMPAVG PRESSURE GPRESSURE VOLUME PRESSAVG GPRESSAVG
ENERGY: 0 0.6262 2.7302 0.8878 0.0000 -10591.7326 1419.1594 0.0000 0.0000 1737.7576 -7430.5714 298.6610 -9168.3290 -7430.5714 298.6610 -217.6119 -124.0722 29835.2228 -217.6119 -124.0722
ENERGY: 300000 4.1200 5.0083 0.4362 0.0000 -10632.2728 1449.4943 0.0000 0.0000 1777.7890 -7395.4250 305.5410 -9173.2140 -7351.5385 305.5312 321.8738 345.5366 29447.3059 90.5562 173.3394
ENERGY: 600000 3.3703 3.3871 0.6813 0.0000 -10486.1790 1386.9015 0.0000 0.0000 1745.3378 -7346.5010 299.9638 -9091.8388 -7349.8284 305.0799 -460.6766 -389.9907 30474.6921 -24.1157 57.4908
ENERGY: 900000 4.2373 6.0607 0.4785 0.0000 -10602.9396 1438.8088 0.0000 0.0000 1785.2153 -7368.1391 306.8173 -9153.3544 -7367.6419 302.6224 180.0480 152.8610 29967.0948 134.5151 198.9385
ENERGY: 1200000 3.3767 2.7522 0.2605 0.0000 -10492.7552 1337.5873 0.0000 0.0000 1706.0175 -7442.7610 293.2060 -9148.7785 -7372.8230 301.7186 -980.9686 -962.1743 30239.2271 -1.0478 57.4515
ENERGY: 1500000 1.1473 3.5286 0.2807 0.0000 -10521.9738 1344.4322 0.0000 0.0000 1740.5686 -7432.0164 299.1441 -9172.5850 -7382.4141 300.3285 -764.0930 -655.3864 29832.3560 -116.7514 -51.6754
TCL: Running FEP window  16: Lambda1 0.24999999999999967 Lambda2 0.19999999999999968 [dLambda -0.04999999999999999]
TCL: Setting parameter firsttimestep to 0
TCL: Setting parameter alchLambda to 0.24999999999999967
Info: NONBONDED TABLE R-SQUARED SPACING: 0.0625
Info: NONBONDED TABLE SIZE: 705 POINTS
TCL: Setting parameter alchLambda2 to 0.19999999999999968
Info: NONBONDED TABLE R-SQUARED SPACING: 0.0625
Info: NONBONDED TABLE SIZE: 705 POINTS
TCL: Running for 1500000 steps
ETITLE: TS BOND ANGLE DIHED IMPRP ELECT VDW BOUNDARY MISC KINETIC TOTAL TEMP POTENTIAL TOTALAVG TEMPAVG PRESSURE GPRESSURE VOLUME PRESSAVG GPRESSAVG
ENERGY: 0 1.1473 3.5286 0.2807 0.0000 -10521.9740 1343.6877 0.0000 0.0000 1739.6704 -7433.6593 298.9898 -9173.3298 -7433.6593 298.9898 -752.3389 -662.1639 29832.3560 -752.3389 -662.1639
ENERGY: 300000 1.6385 4.2572 1.7530 0.0000 -10570.5488 1435.5070 0.0000 0.0000 1739.6448 -7387.7483 298.9853 -9127.3931 -7377.4859 299.6627 6.0242 142.3182 29933.0746 -284.9136 -208.9909
ENERGY: 600000 2.7845 6.8150 0.8134 0.0000 -10604.7584 1493.4781 0.0000 0.0000 1744.3972 -7356.4702 299.8021 -9100.8674 -7352.2429 301.0715 439.4127 469.6426 30150.0308 29.3266 81.5300
ENERGY: 900000 1.4553 3.5442 0.6493 0.0000 -10494.8085 1358.5248 0.0000 0.0000 1720.1493 -7410.4855 295.6347 -9130.6348 -7354.0476 300.8029 -653.4491 -547.4532 30065.1432 9.7423 67.3059
ENERGY: 1200000 1.0832 3.5311 0.4319 0.0000 -10690.1535 1494.1291 0.0000 0.0000 1714.5831 -7476.3951 294.6781 -9190.9782 -7376.4080 299.2451 372.6088 516.9387 29793.3414 -20.7036 45.3547
ENERGY: 1500000 0.5122 7.8061 0.8695 0.0000 -10693.4288 1471.5596 0.0000 0.0000 1791.6693 -7421.0122 307.9266 -9212.6815 -7380.0203 299.1949 185.2310 262.2847 29990.7371 -21.8627 44.9933
TCL: Running FEP window  17: Lambda1 0.19999999999999968 Lambda2 0.1499999999999997 [dLambda -0.04999999999999999]
TCL: Setting parameter firsttimestep to 0
TCL: Setting parameter alchLambda to 0.19999999999999968
Info: NONBONDED TABLE R-SQUARED SPACING: 0.0625
Info: NONBONDED TABLE SIZE: 705 POINTS
TCL: Setting parameter alchLambda2 to 0.1499999999999997
Info: NONBONDED TABLE R-SQUARED SPACING: 0.0625
Info: NONBONDED TABLE SIZE: 705 POINTS
TCL: Running for 1500000 steps
ETITLE: TS BOND ANGLE DIHED IMPRP ELECT VDW BOUNDARY MISC KINETIC TOTAL TEMP POTENTIAL TOTALAVG TEMPAVG PRESSURE GPRESSURE VOLUME PRESSAVG GPRESSAVG
ENERGY: 0 0.5122 7.8061 0.8695 0.0000 -10693.4286 1471.7234 0.0000 0.0000 1790.7881 -7421.7294 307.7751 -9212.5174 -7421.7294 307.7751 170.6128 259.0857 29990.7371 170.6128 259.0857
ENERGY: 300000 3.0323 7.0280 3.0064 0.0000 -10568.8184 1372.0699 0.0000 0.0000 1751.6590 -7432.0228 301.0502 -9183.6818 -7404.7418 299.5549 -643.1940 -583.9439 30017.3894 -229.1639 -154.4156
ENERGY: 600000 3.5593 6.4453 1.5417 0.0000 -10610.1852 1431.4803 0.0000 0.0000 1726.2460 -7440.9127 296.6826 -9167.1587 -7406.1512 299.0525 -102.0219 -78.3258 29753.6305 -340.0539 -272.1281
ENERGY: 900000 1.7522 3.2518 0.2179 0.0000 -10601.3943 1423.2748 0.0000 0.0000 1710.6225 -7462.2750 293.9974 -9172.8976 -7390.3454 299.1935 -465.8747 -369.0387 30346.2315 -136.2196 -67.2136
ENERGY: 1200000 3.0900 2.4976 0.4008 0.0000 -10570.5217 1389.2549 0.0000 0.0000 1764.9924 -7410.2860 303.3417 -9175.2784 -7386.1590 300.1351 -575.9269 -460.6665 30006.5957 -99.1417 -21.2585
ENERGY: 1500000 2.9450 3.6227 0.1944 0.0000 -10509.7592 1369.5819 0.0000 0.0000 1767.8638 -7365.5515 303.8352 -9133.4153 -7385.1966 300.1587 -616.4316 -521.0045 30360.7775 -114.6691 -33.6452
TCL: Running FEP window  18: Lambda1 0.1499999999999997 Lambda2 0.09999999999999969 [dLambda -0.05 ]
TCL: Setting parameter firsttimestep to 0
TCL: Setting parameter alchLambda to 0.1499999999999997
Info: NONBONDED TABLE R-SQUARED SPACING: 0.0625
Info: NONBONDED TABLE SIZE: 705 POINTS
TCL: Setting parameter alchLambda2 to 0.09999999999999969
Info: NONBONDED TABLE R-SQUARED SPACING: 0.0625
Info: NONBONDED TABLE SIZE: 705 POINTS
TCL: Running for 1500000 steps
ETITLE: TS BOND ANGLE DIHED IMPRP ELECT VDW BOUNDARY MISC KINETIC TOTAL TEMP POTENTIAL TOTALAVG TEMPAVG PRESSURE GPRESSURE VOLUME PRESSAVG GPRESSAVG
ENERGY: 0 2.9450 3.6227 0.1944 0.0000 -10509.7581 1369.8505 0.0000 0.0000 1766.9542 -7366.1914 303.6789 -9133.1455 -7366.1914 303.6789 -590.2394 -521.9320 30360.7775 -590.2394 -521.9320
ENERGY: 300000 2.1410 5.2443 1.5783 0.0000 -10534.3828 1462.0878 0.0000 0.0000 1682.0700 -7381.2613 289.0902 -9063.3313 -7396.8916 298.3531 355.7948 386.4212 29938.9480 -15.9642 43.1582
ENERGY: 600000 2.0541 3.9241 0.2489 0.0000 -10673.1208 1502.3310 0.0000 0.0000 1799.9914 -7364.5713 309.3569 -9164.5627 -7379.4326 299.3195 592.2527 667.5478 29950.5537 114.4445 175.7495
ENERGY: 900000 4.3807 4.2916 0.7332 0.0000 -10600.4385 1493.8344 0.0000 0.0000 1673.3199 -7423.8788 287.5864 -9097.1986 -7406.2138 297.3934 693.9319 777.6449 29744.4540 62.7633 121.0311
ENERGY: 1200000 5.6714 5.3130 0.9462 0.0000 -10585.3633 1408.7651 0.0000 0.0000 1737.6988 -7426.9688 298.6509 -9164.6676 -7410.3657 297.2405 -550.8420 -497.9927 30087.1745 -44.9701 8.3624
ENERGY: 1500000 2.5877 5.6353 1.1788 0.0000 -10563.5225 1390.7456 0.0000 0.0000 1757.8276 -7405.5475 302.1103 -9163.3751 -7409.6372 297.6122 -441.5509 -379.5230 29814.8217 -71.9860 -14.7584
TCL: Running FEP window  19: Lambda1 0.09999999999999969 Lambda2 0.049999999999999684 [dLambda -0.05 ]
TCL: Setting parameter firsttimestep to 0
TCL: Setting parameter alchLambda to 0.09999999999999969
Info: NONBONDED TABLE R-SQUARED SPACING: 0.0625
Info: NONBONDED TABLE SIZE: 705 POINTS
TCL: Setting parameter alchLambda2 to 0.049999999999999684
Info: NONBONDED TABLE R-SQUARED SPACING: 0.0625
Info: NONBONDED TABLE SIZE: 705 POINTS
TCL: Running for 1500000 steps
ETITLE: TS BOND ANGLE DIHED IMPRP ELECT VDW BOUNDARY MISC KINETIC TOTAL TEMP POTENTIAL TOTALAVG TEMPAVG PRESSURE GPRESSURE VOLUME PRESSAVG GPRESSAVG
ENERGY: 0 2.5877 5.6353 1.1788 0.0000 -10563.5228 1390.6826 0.0000 0.0000 1756.9842 -7406.4543 301.9654 -9163.4385 -7406.4543 301.9654 -476.6965 -383.1055 29814.8217 -476.6965 -383.1055
ENERGY: 300000 2.3434 6.1095 0.5763 0.0000 -10484.7357 1368.4882 0.0000 0.0000 1697.4096 -7409.8088 291.7266 -9107.2184 -7391.7437 300.3103 -258.2261 -199.8785 29836.2849 -219.0626 -111.4139
ENERGY: 600000 1.5716 4.1264 0.1841 0.0000 -10565.6268 1460.2575 0.0000 0.0000 1736.4031 -7363.0840 298.4282 -9099.4871 -7417.0541 298.0057 118.7373 208.2984 30291.1699 -118.0742 -34.2026
ENERGY: 900000 2.6351 4.9347 0.1332 0.0000 -10778.1890 1566.2425 0.0000 0.0000 1765.7569 -7438.4864 303.4731 -9204.2433 -7417.0743 299.0575 762.4949 826.1280 29860.2982 -75.3677 9.1144
ENERGY: 1200000 2.8362 2.3121 0.4163 0.0000 -10467.1398 1398.2715 0.0000 0.0000 1783.2172 -7280.0866 306.4740 -9063.3038 -7401.4994 299.6183 -114.8881 -105.4398 30154.4416 -41.8652 33.3974
ENERGY: 1500000 0.9558 3.2578 0.2184 0.0000 -10558.9364 1430.5646 0.0000 0.0000 1810.5308 -7313.4090 311.1682 -9123.9399 -7395.3610 300.1327 15.1757 52.8914 30242.7903 -31.9304 39.8823
TCL: Running FEP window  20: Lambda1 0.049999999999999684 Lambda2 0.0    [dLambda -0.049999999999999684]
TCL: Setting parameter firsttimestep to 0
TCL: Setting parameter alchLambda to 0.049999999999999684
Info: NONBONDED TABLE R-SQUARED SPACING: 0.0625
Info: NONBONDED TABLE SIZE: 705 POINTS
TCL: Setting parameter alchLambda2 to 0.0
Info: NONBONDED TABLE R-SQUARED SPACING: 0.0625
Info: NONBONDED TABLE SIZE: 705 POINTS
TCL: Running for 1500000 steps
ETITLE: TS BOND ANGLE DIHED IMPRP ELECT VDW BOUNDARY MISC KINETIC TOTAL TEMP POTENTIAL TOTALAVG TEMPAVG PRESSURE GPRESSURE VOLUME PRESSAVG GPRESSAVG
ENERGY: 0 0.9558 3.2578 0.2184 0.0000 -10558.9370 1430.2315 0.0000 0.0000 1809.6429 -7314.6305 311.0156 -9124.2734 -7314.6305 311.0156 -40.1835 48.6364 30242.7903 -40.1835 48.6364
ENERGY: 300000 1.6522 2.3388 0.3967 0.0000 -10636.1924 1534.5429 0.0000 0.0000 1742.6099 -7354.6519 299.4949 -9097.2618 -7405.3266 297.5515 849.8753 905.1522 30116.6284 198.7252 246.7579
ENERGY: 600000 3.4617 7.7089 0.4743 0.0000 -10676.9579 1461.6029 0.0000 0.0000 1726.6951 -7477.0150 296.7597 -9203.7101 -7413.2129 296.9657 -35.3107 3.3817 29755.2924 216.6068 280.8100
ENERGY: 900000 1.9059 2.5238 1.1998 0.0000 -10546.4243 1461.9290 0.0000 0.0000 1752.9295 -7325.9364 301.2685 -9078.8659 -7382.5461 297.9673 402.8729 456.1352 29980.3279 221.8449 288.1938
ENERGY: 1200000 0.6522 5.6132 0.9889 0.0000 -10549.9358 1399.2810 0.0000 0.0000 1762.7886 -7380.6120 302.9630 -9143.4006 -7378.0638 298.5585 -224.3268 -173.0176 30269.9929 248.1684 315.5770
ENERGY: 1500000 2.8984 5.1680 1.1767 0.0000 -10694.9542 1492.5983 0.0000 0.0000 1729.4857 -7463.6272 297.2393 -9193.1128 -7381.8240 298.9399 269.1868 376.7044 29545.1401 99.9295 169.2577
TCL: Exiting due to exit command.
