Info: SIMULATION PARAMETERS:
Info: TIMESTEP               2
Info: NUMBER OF STEPS        0
Info: STEPS PER CYCLE        10
Info: PERIODIC CELL BASIS 1  30.8927 0 0
Info: PERIODIC CELL BASIS 2  0 31.5712 0
Info: PERIODIC CELL BASIS 3  0 0 31.4521
Info: PERIODIC CELL CENTER   0 0 0
Info: WRAPPING WATERS AROUND PERIODIC BOUNDARIES ON OUTPUT.
Info: WRAPPING ALL CLUSTERS AROUND PERIODIC BOUNDARIES ON OUTPUT.
Info: FIRST LDB TIMESTEP     50
Info: LAST LDB TIMESTEP     -1
Info: HOM BACKGROUND SCALING 1
Info: PME BACKGROUND SCALING 1
Info: MIN ATOMS PER PATCH    40
Info: EMPTY PATCH LOAD       40 ATOMS
Info: VELOCITY FILE          mobley_1650157_equil.vel
Info: CENTER OF MASS MOVING INITIALLY? NO
Info: DIELECTRIC             1
Info: EXCLUDE                SCALED ONE-FOUR
Info: 1-4 ELECTROSTATICS SCALED BY 0.833333
Info: MODIFIED 1-4 VDW PARAMETERS WILL BE USED
Info: DCD FILENAME           mobley_1650157_prod.dcd
Info: DCD FREQUENCY          100000
Info: DCD FIRST STEP         100000
Info: DCD FILE WILL CONTAIN UNIT CELL DATA
Info: XST FILENAME           mobley_1650157_prod.xst
Info: XST FREQUENCY          100000
Info: NO VELOCITY DCD OUTPUT
Info: NO FORCE DCD OUTPUT
Info: OUTPUT FILENAME        mobley_1650157_prod
Info: BINARY OUTPUT FILES WILL BE USED
Info: RESTART FILENAME       mobley_1650157_prod.restart
Info: RESTART FREQUENCY      100000
Info: BINARY RESTART FILES WILL BE USED
Info: CUTOFF                 9
Info: PAIRLIST DISTANCE      11
Info: PAIRLIST SHRINK RATE   0.01
Info: PAIRLIST GROW RATE     0.01
Info: PAIRLIST TRIGGER       0.3
Info: PAIRLISTS PER CYCLE    2
Info: PAIRLISTS ENABLED
Info: MARGIN                 2
Info: HYDROGEN GROUP CUTOFF  2.5
Info: PATCH DIMENSION        15.5
Info: ENERGY OUTPUT STEPS    100000
Info: ENERGY EVALUATION STEPS    100000
Info: OUTPUT ENERGY PRECISION 4
Info: CROSSTERM ENERGY INCLUDED IN DIHEDRAL
Info: TIMING OUTPUT STEPS    1000000
Info: PRESSURE OUTPUT STEPS  100000
Info: ALCHEMICAL FEP ON
Info: FEP CURRENT LAMBDA VALUE     1
Info: FEP COMPARISON LAMBDA VALUE  0.95
Info: FEP INTRA-ALCHEMICAL NON-BONDED INTERACTIONS WILL BE RETAINED
Info: FEP INTRA-ALCHEMICAL BONDED INTERACTIONS WILL BE RETAINED
Info: FEP VDW SHIFTING COEFFICIENT 5
Info: FEP ELEC. ACTIVE FOR ANNIHILATED PARTICLES BETWEEN LAMBDA = 0 AND LAMBDA = 0.5
Info: FEP ELEC. ACTIVE FOR EXNIHILATED PARTICLES BETWEEN LAMBDA = 0.5 AND LAMBDA = 1
Info: FEP VDW ACTIVE FOR ANNIHILATED PARTICLES BETWEEN LAMBDA = 0 AND LAMBDA = 1
Info: FEP VDW ACTIVE FOR EXNIHILATED PARTICLES BETWEEN LAMBDA = 0 AND LAMBDA = 1
Info: FEP BOND ACTIVE FOR ANNIHILATED PARTICLES BETWEEN LAMBDA = 1 AND LAMBDA = 1
Info: FEP BOND ACTIVE FOR EXNIHILATED PARTICLES BETWEEN LAMBDA = 0 AND LAMBDA = 0
Info: LANGEVIN DYNAMICS ACTIVE
Info: LANGEVIN TEMPERATURE   300
Info: LANGEVIN USING BBK INTEGRATOR
Info: LANGEVIN DAMPING COEFFICIENT IS 1 INVERSE PS
Info: LANGEVIN DYNAMICS APPLIED TO HYDROGENS
Info: LANGEVIN PISTON PRESSURE CONTROL ACTIVE
Info:        TARGET PRESSURE IS 1.01325 BAR
Info:     OSCILLATION PERIOD IS 50 FS
Info:             DECAY TIME IS 25 FS
Info:     PISTON TEMPERATURE IS 300 K
Info:       PRESSURE CONTROL IS GROUP-BASED
Info:    INITIAL STRAIN RATE IS -0.000394474 -0.000394474 -0.000394474
Info:       CELL FLUCTUATION IS ISOTROPIC
Info: PARTICLE MESH EWALD (PME) ACTIVE
Info: PME TOLERANCE               1e-06
Info: PME EWALD COEFFICIENT       0.348832
Info: PME INTERPOLATION ORDER     4
Info: PME GRID DIMENSIONS         32 32 32
Info: PME MAXIMUM GRID SPACING    1
Info: PME CALCULATION WILL BE PERFORMED ON GPU
Info: FULL ELECTROSTATIC EVALUATION FREQUENCY      2
Info: USING VERLET I (r-RESPA) MTS SCHEME.
Info: C1 SPLITTING OF LONG RANGE ELECTROSTATICS
Info: PLACING ATOMS IN PATCHES BY HYDROGEN GROUPS
Info: RIGID BONDS TO HYDROGEN : ALL
Info:         ERROR TOLERANCE : 1e-08
Info:          MAX ITERATIONS : 100
Info: RIGID WATER USING SETTLE ALGORITHM
Info: RANDOM NUMBER SEED     1743586037
Info: USE HYDROGEN BONDS?    NO
Info: Using AMBER format force field!
Info: AMBER PARM FILE        mobley_1650157.prmtop
Info: COORDINATE PDB         mobley_1650157.pdb
Info: Exclusions will be read from PARM file!
Info: SCNB (VDW SCALING)     2
Info: USING ARITHMETIC MEAN TO COMBINE L-J SIGMA PARAMETERS
Info: BINARY COORDINATES     mobley_1650157_equil.coor
Info: SUMMARY OF PARAMETERS:
Info: 6 BONDS
Info: 5 ANGLES
Info:   5 HARMONIC
Info:   0 COSINE-BASED
Info: 3 DIHEDRAL
Info: 0 IMPROPER
Info: 0 CROSSTERM
Info: 0 VDW
Info: 15 VDW_PAIRS
Info: 0 NBTHOLE_PAIRS
Info: To read alchdata from file: mobley_1650157.pdb
Info: To read alchflag data from column: 5
Info: STRUCTURE SUMMARY:
Info: 2970 ATOMS
Info: 2969 BONDS
Info: 25 ANGLES
Info: 42 DIHEDRALS
Info: 0 IMPROPERS
Info: 0 CROSSTERMS
Info: 3024 EXCLUSIONS
Info: 2965 RIGID BONDS
Info: ALCH: 0 ATOMS TO DISAPPEAR IN FINAL STATE
Info: ALCH: 15 ATOMS TO APPEAR IN FINAL STATE
Info: 5945 DEGREES OF FREEDOM
Info: 990 HYDROGEN GROUPS
Info: 4 ATOMS IN LARGEST HYDROGEN GROUP
Info: 990 MIGRATION GROUPS
Info: 4 ATOMS IN LARGEST MIGRATION GROUP
Info: TOTAL MASS = 17819.9 amu
Info: TOTAL CHARGE = 0.000100017 e
Info: MASS DENSITY = 0.964645 g/cm^3
Info: ATOM DENSITY = 0.0968189 atoms/A^3
Info: ADDED 0 IMPLICIT EXCLUSIONS
Info: NONBONDED TABLE R-SQUARED SPACING: 0.0625
Info: NONBONDED TABLE SIZE: 705 POINTS
Info: REMOVING COM VELOCITY -0.0337908 0.0279377 -0.114636
Info: Use 3D box decompostion in PME FFT.
Info: Updated CUDA force table with 4096 elements.
Info: Updated CUDA LJ table with 5 x 5 elements.
Info: Found 18 unique exclusion lists needing 40 bytes
TCL: Running for 1500000 steps
ETITLE: TS BOND ANGLE DIHED IMPRP ELECT VDW BOUNDARY MISC KINETIC TOTAL TEMP POTENTIAL TOTALAVG TEMPAVG PRESSURE GPRESSURE VOLUME PRESSAVG GPRESSAVG
ENERGY: 0 1.1873 5.2509 4.3583 0.0000 -10805.4583 1427.4308 0.0000 0.0000 1809.1401 -7558.0908 306.2744 -9367.2310 -7558.0908 306.2744 -259.5270 -170.9223 30675.8428 -259.5270 -170.9223
ENERGY: 300000 1.7614 4.5524 3.2699 0.0000 -10834.2357 1464.7261 0.0000 0.0000 1774.6349 -7585.2911 300.4329 -9359.9260 -7569.7675 302.1355 251.1718 306.3364 30372.7502 207.9123 274.8691
ENERGY: 600000 0.8460 3.5639 3.1312 0.0000 -10762.2615 1355.7521 0.0000 0.0000 1742.1474 -7656.8210 294.9330 -9398.9684 -7571.1267 301.5102 -1014.9623 -890.0239 30541.6299 20.5430 104.9562
ENERGY: 900000 0.4562 4.9158 3.5550 0.0000 -10638.6981 1366.3814 0.0000 0.0000 1769.9826 -7493.4072 299.6453 -9263.3898 -7554.1696 301.8641 -505.1475 -520.8683 30852.0272 95.8421 157.2510
ENERGY: 1200000 2.1523 6.4230 3.2274 0.0000 -10644.2720 1353.0438 0.0000 0.0000 1701.8186 -7577.6069 288.1057 -9279.4254 -7555.2736 300.4620 -863.2171 -821.6252 30807.6873 -22.7615 32.4051
ENERGY: 1500000 0.2317 3.4588 3.2618 0.0000 -10901.8503 1529.3612 0.0000 0.0000 1780.7174 -7584.8194 301.4627 -9365.5368 -7558.3004 300.1990 621.4108 663.7391 30381.4202 47.4038 99.9949
TCL: Running FEP window   2: Lambda1 0.95   Lambda2 0.8999999999999999 [dLambda -0.050000000000000044]
TCL: Setting parameter firsttimestep to 0
TCL: Setting parameter alchLambda to 0.95
Info: NONBONDED TABLE R-SQUARED SPACING: 0.0625
Info: NONBONDED TABLE SIZE: 705 POINTS
TCL: Setting parameter alchLambda2 to 0.8999999999999999
Info: NONBONDED TABLE R-SQUARED SPACING: 0.0625
Info: NONBONDED TABLE SIZE: 705 POINTS
TCL: Running for 1500000 steps
ETITLE: TS BOND ANGLE DIHED IMPRP ELECT VDW BOUNDARY MISC KINETIC TOTAL TEMP POTENTIAL TOTALAVG TEMPAVG PRESSURE GPRESSURE VOLUME PRESSAVG GPRESSAVG
ENERGY: 0 0.2317 3.4588 3.2618 0.0000 -10900.1797 1528.3063 0.0000 0.0000 1779.8153 -7585.1059 301.3099 -9364.9212 -7585.1059 301.3099 558.9012 644.1980 30381.4202 558.9012 644.1980
ENERGY: 300000 3.8446 10.3151 4.9119 0.0000 -10828.7328 1500.6421 0.0000 0.0000 1781.3896 -7527.6296 301.5765 -9309.0192 -7587.7088 296.5812 409.8341 444.2147 30534.2028 32.1803 92.9527
ENERGY: 600000 2.2472 6.9772 4.0722 0.0000 -10798.1807 1473.6502 0.0000 0.0000 1767.4177 -7543.8163 299.2111 -9311.2340 -7578.5475 297.8007 12.9860 128.4716 30979.0336 189.6035 242.7167
ENERGY: 900000 0.5793 7.6696 3.7875 0.0000 -10915.7310 1498.0508 0.0000 0.0000 1732.4743 -7673.1695 293.2955 -9405.6438 -7581.6084 298.2531 138.4884 224.3202 30464.0448 78.1664 143.5879
ENERGY: 1200000 1.4985 7.6468 4.9398 0.0000 -10839.6127 1461.2616 0.0000 0.0000 1688.8671 -7675.3989 285.9131 -9364.2660 -7575.3942 298.1408 47.2261 138.2756 30324.8751 81.6964 152.2079
ENERGY: 1500000 0.2289 3.9660 3.7873 0.0000 -10834.2942 1448.3144 0.0000 0.0000 1729.4521 -7648.5454 292.7838 -9377.9975 -7577.5548 298.0592 -89.6178 -32.7115 30631.9312 -4.8159 61.8165
TCL: Running FEP window   3: Lambda1 0.8999999999999999 Lambda2 0.8499999999999999 [dLambda -0.050000000000000044]
TCL: Setting parameter firsttimestep to 0
TCL: Setting parameter alchLambda to 0.8999999999999999
Info: NONBONDED TABLE R-SQUARED SPACING: 0.0625
Info: NONBONDED TABLE SIZE: 705 POINTS
TCL: Setting parameter alchLambda2 to 0.8499999999999999
Info: NONBONDED TABLE R-SQUARED SPACING: 0.0625
Info: NONBONDED TABLE SIZE: 705 POINTS
TCL: Running for 1500000 steps
ETITLE: TS BOND ANGLE DIHED IMPRP ELECT VDW BOUNDARY MISC KINETIC TOTAL TEMP POTENTIAL TOTALAVG TEMPAVG PRESSURE GPRESSURE VOLUME PRESSAVG GPRESSAVG
ENERGY: 0 0.2289 3.9660 3.7873 0.0000 -10833.6342 1448.1132 0.0000 0.0000 1728.5497 -7648.9890 292.6310 -9377.5387 -7648.9890 292.6310 -129.9894 -44.5536 30631.9312 -129.9894 -44.5536
ENERGY: 300000 2.3704 5.0086 3.2149 0.0000 -10730.0338 1384.5431 0.0000 0.0000 1754.8843 -7580.0125 297.0893 -9334.8969 -7581.7585 298.6776 -643.2841 -543.9928 30775.7800 -348.9957 -278.7759
ENERGY: 600000 1.4006 9.2426 3.2249 0.0000 -10674.4720 1361.1366 0.0000 0.0000 1775.1062 -7524.3611 300.5127 -9299.4673 -7570.4157 298.1126 -519.3016 -496.5543 30593.4984 -329.3112 -266.6359
ENERGY: 900000 3.6623 8.4946 4.0689 0.0000 -10791.2054 1383.6341 0.0000 0.0000 1760.6956 -7630.6497 298.0731 -9391.3454 -7577.8602 298.5273 -906.5192 -818.1746 30914.5034 -340.3953 -284.2506
ENERGY: 1200000 0.6461 6.8180 4.1389 0.0000 -10725.0650 1421.2838 0.0000 0.0000 1842.1253 -7450.0530 311.8586 -9292.1782 -7567.9270 300.0914 -282.3940 -240.6599 31145.9305 -274.9407 -217.7144
ENERGY: 1500000 1.6573 6.0879 3.4496 0.0000 -10791.0759 1480.3639 0.0000 0.0000 1792.3512 -7507.1660 303.4322 -9299.5172 -7558.2434 301.0503 344.5952 444.9284 30630.6024 -185.9327 -127.8410
TCL: Running FEP window   4: Lambda1 0.8499999999999999 Lambda2 0.7999999999999998 [dLambda -0.050000000000000044]
TCL: Setting parameter firsttimestep to 0
TCL: Setting parameter alchLambda to 0.8499999999999999
Info: NONBONDED TABLE R-SQUARED SPACING: 0.0625
Info: NONBONDED TABLE SIZE: 705 POINTS
TCL: Setting parameter alchLambda2 to 0.7999999999999998
Info: NONBONDED TABLE R-SQUARED SPACING: 0.0625
Info: NONBONDED TABLE SIZE: 705 POINTS
TCL: Running for 1500000 steps
ETITLE: TS BOND ANGLE DIHED IMPRP ELECT VDW BOUNDARY MISC KINETIC TOTAL TEMP POTENTIAL TOTALAVG TEMPAVG PRESSURE GPRESSURE VOLUME PRESSAVG GPRESSAVG
ENERGY: 0 1.6573 6.0879 3.4496 0.0000 -10789.8276 1480.2937 0.0000 0.0000 1791.4664 -7506.8727 303.2824 -9298.3390 -7506.8727 303.2824 367.4693 438.8536 30630.6024 367.4693 438.8536
ENERGY: 300000 0.3202 7.3956 4.0518 0.0000 -10551.1537 1322.5164 0.0000 0.0000 1773.5519 -7443.3178 300.2496 -9216.8697 -7495.0008 302.1716 -845.6261 -766.0754 31254.5017 -164.8192 -96.6724
ENERGY: 600000 0.8617 3.6385 3.4200 0.0000 -10973.6345 1584.3361 0.0000 0.0000 1771.5236 -7609.8545 299.9062 -9381.3781 -7518.8381 301.3389 1285.1559 1340.7676 29816.7812 -84.7445 -20.2355
ENERGY: 900000 0.2794 4.5728 4.1243 0.0000 -10676.7571 1380.1266 0.0000 0.0000 1772.1054 -7515.5485 300.0047 -9287.6539 -7520.7119 301.0698 -325.1806 -280.2170 30639.1371 -190.3502 -128.4042
ENERGY: 1200000 0.6917 7.7143 3.7407 0.0000 -10829.6864 1494.7385 0.0000 0.0000 1795.9990 -7526.8022 304.0497 -9322.8012 -7520.1020 301.9328 341.9791 381.2504 30633.3366 -132.9644 -79.0061
ENERGY: 1500000 0.6818 5.3880 4.1241 0.0000 -10884.9282 1476.3144 0.0000 0.0000 1754.0323 -7644.3877 296.9451 -9398.4200 -7527.8866 302.0816 -305.5427 -252.9036 31052.2687 -129.4419 -76.2120
TCL: Running FEP window   5: Lambda1 0.7999999999999998 Lambda2 0.7499999999999998 [dLambda -0.050000000000000044]
TCL: Setting parameter firsttimestep to 0
TCL: Setting parameter alchLambda to 0.7999999999999998
Info: NONBONDED TABLE R-SQUARED SPACING: 0.0625
Info: NONBONDED TABLE SIZE: 705 POINTS
TCL: Setting parameter alchLambda2 to 0.7499999999999998
Info: NONBONDED TABLE R-SQUARED SPACING: 0.0625
Info: NONBONDED TABLE SIZE: 705 POINTS
TCL: Running for 1500000 steps
ETITLE: TS BOND ANGLE DIHED IMPRP ELECT VDW BOUNDARY MISC KINETIC TOTAL TEMP POTENTIAL TOTALAVG TEMPAVG PRESSURE GPRESSURE VOLUME PRESSAVG GPRESSAVG
ENERGY: 0 0.6818 5.3880 4.1241 0.0000 -10883.2036 1476.5265 0.0000 0.0000 1753.1289 -7643.3544 296.7921 -9396.4832 -7643.3544 296.7921 -329.3959 -252.5606 31052.2687 -329.3959 -252.5606
ENERGY: 300000 0.5937 7.9833 4.1934 0.0000 -10661.7326 1297.0023 0.0000 0.0000 1794.5113 -7557.4485 303.7979 -9351.9598 -7601.2401 297.8321 -1284.9061 -1219.4208 30644.5683 -467.9280 -399.1849
ENERGY: 600000 0.6587 1.9567 4.4738 0.0000 -10860.7976 1515.1966 0.0000 0.0000 1794.8709 -7543.6408 303.8587 -9338.5117 -7558.5892 299.0928 649.8211 767.0854 30052.7693 -118.9926 -40.6078
ENERGY: 900000 1.0994 5.9928 3.7815 0.0000 -10899.5225 1461.9961 0.0000 0.0000 1782.8267 -7643.8261 301.8198 -9426.6528 -7555.0925 300.7578 -335.4115 -254.7148 30640.2035 -170.6501 -83.1573
ENERGY: 1200000 1.3892 8.0358 4.1205 0.0000 -10843.6599 1412.4954 0.0000 0.0000 1747.8528 -7669.7662 295.8989 -9417.6190 -7560.8516 299.7723 -508.3461 -505.6569 30419.5695 -160.1724 -88.0873
ENERGY: 1500000 1.0931 5.4478 4.3321 0.0000 -10832.3399 1447.3244 0.0000 0.0000 1773.1473 -7600.9952 300.1811 -9374.1425 -7558.8306 300.2204 -72.8004 32.4084 30250.4132 -197.8454 -122.2102
TCL: Running FEP window   6: Lambda1 0.7499999999999998 Lambda2 0.6999999999999997 [dLambda -0.050000000000000044]
TCL: Setting parameter firsttimestep to 0
TCL: Setting parameter alchLambda to 0.7499999999999998
Info: NONBONDED TABLE R-SQUARED SPACING: 0.0625
Info: NONBONDED TABLE SIZE: 705 POINTS
TCL: Setting parameter alchLambda2 to 0.6999999999999997
Info: NONBONDED TABLE R-SQUARED SPACING: 0.0625
Info: NONBONDED TABLE SIZE: 705 POINTS
TCL: Running for 1500000 steps
ETITLE: TS BOND ANGLE DIHED IMPRP ELECT VDW BOUNDARY MISC KINETIC TOTAL TEMP POTENTIAL TOTALAVG TEMPAVG PRESSURE GPRESSURE VOLUME PRESSAVG GPRESSAVG
ENERGY: 0 1.0931 5.4478 4.3321 0.0000 -10830.5858 1446.6143 0.0000 0.0000 1772.2797 -7600.8188 300.0342 -9373.0985 -7600.8188 300.0342 -58.4799 21.0227 30250.4132 -58.4799 21.0227
ENERGY: 300000 0.6623 4.7243 3.7404 0.0000 -10741.4522 1452.0413 0.0000 0.0000 1789.9359 -7490.3479 303.0233 -9280.2838 -7551.8153 299.1937 25.0681 104.3666 30775.6523 -27.0291 53.9328
ENERGY: 600000 0.7471 5.2949 3.6469 0.0000 -10841.2894 1467.2388 0.0000 0.0000 1804.7849 -7559.5768 305.5371 -9364.3617 -7557.0092 301.6489 234.2106 278.7934 30310.8151 8.4698 99.5671
ENERGY: 900000 1.0908 9.8326 3.6726 0.0000 -10778.2556 1427.2034 0.0000 0.0000 1763.9726 -7572.4835 298.6279 -9336.4562 -7566.2634 302.0677 -363.0631 -206.8130 30733.4960 -20.8626 70.3767
ENERGY: 1200000 1.1265 6.1811 4.0711 0.0000 -10850.9784 1495.2443 0.0000 0.0000 1816.4006 -7527.9549 307.5036 -9344.3555 -7565.8502 301.3615 267.5757 389.4384 30586.3772 77.8888 165.2738
ENERGY: 1500000 0.6455 4.0586 4.4073 0.0000 -10795.0722 1483.9303 0.0000 0.0000 1793.2836 -7508.7469 303.5900 -9302.0306 -7555.9042 301.4527 550.2566 551.9891 30233.7593 67.1672 147.6736
TCL: Running FEP window   7: Lambda1 0.6999999999999997 Lambda2 0.6499999999999997 [dLambda -0.050000000000000044]
TCL: Setting parameter firsttimestep to 0
TCL: Setting parameter alchLambda to 0.6999999999999997
Info: NONBONDED TABLE R-SQUARED SPACING: 0.0625
Info: NONBONDED TABLE SIZE: 705 POINTS
TCL: Setting parameter alchLambda2 to 0.6499999999999997
Info: NONBONDED TABLE R-SQUARED SPACING: 0.0625
Info: NONBONDED TABLE SIZE: 705 POINTS
TCL: Running for 1500000 steps
ETITLE: TS BOND ANGLE DIHED IMPRP ELECT VDW BOUNDARY MISC KINETIC TOTAL TEMP POTENTIAL TOTALAVG TEMPAVG PRESSURE GPRESSURE VOLUME PRESSAVG GPRESSAVG
ENERGY: 0 0.6455 4.0586 4.4073 0.0000 -10793.1262 1483.0694 0.0000 0.0000 1792.3817 -7508.5638 303.4373 -9300.9455 -7508.5638 303.4373 454.7783 541.1874 30233.7593 454.7783 541.1874
ENERGY: 300000 0.7612 6.4795 4.2981 0.0000 -10751.1576 1428.1080 0.0000 0.0000 1797.2656 -7514.2452 304.2642 -9311.5108 -7530.5237 298.9596 -245.3358 -159.0391 30648.3077 -68.3564 7.3076
ENERGY: 600000 0.9026 8.6997 4.0614 0.0000 -10757.4165 1384.0925 0.0000 0.0000 1775.1427 -7584.5176 300.5189 -9359.6603 -7540.9192 300.5708 -753.7733 -744.8244 30849.9412 -202.1425 -121.8060
ENERGY: 900000 1.3170 5.0943 3.9002 0.0000 -10670.4486 1326.7192 0.0000 0.0000 1741.6401 -7591.7778 294.8472 -9333.4179 -7541.1476 300.0852 -1054.8468 -972.2900 30688.5218 -313.3048 -235.2928
ENERGY: 1200000 1.7662 4.3114 4.2705 0.0000 -10861.5414 1482.2574 0.0000 0.0000 1787.2389 -7581.6970 302.5667 -9368.9359 -7551.2560 299.3215 322.1183 391.0113 30079.3481 -232.0317 -150.7041
ENERGY: 1500000 0.9019 6.0596 3.9861 0.0000 -10806.4752 1467.4928 0.0000 0.0000 1768.9994 -7559.0354 299.4789 -9328.0348 -7561.5473 299.5008 81.2381 145.6619 30708.3554 -98.1551 -24.8029
TCL: Running FEP window   8: Lambda1 0.6499999999999997 Lambda2 0.5999999999999996 [dLambda -0.050000000000000044]
TCL: Setting parameter firsttimestep to 0
TCL: Setting parameter alchLambda to 0.6499999999999997
Info: NONBONDED TABLE R-SQUARED SPACING: 0.0625
Info: NONBONDED TABLE SIZE: 705 POINTS
TCL: Setting parameter alchLambda2 to 0.5999999999999996
Info: NONBONDED TABLE R-SQUARED SPACING: 0.0625
Info: NONBONDED TABLE SIZE: 705 POINTS
TCL: Running for 1500000 steps
ETITLE: TS BOND ANGLE DIHED IMPRP ELECT VDW BOUNDARY MISC KINETIC TOTAL TEMP POTENTIAL TOTALAVG TEMPAVG PRESSURE GPRESSURE VOLUME PRESSAVG GPRESSAVG
ENERGY: 0 0.9019 6.0596 3.9861 0.0000 -10805.7495 1467.9265 0.0000 0.0000 1768.1238 -7558.7515 299.3307 -9326.8753 -7558.7515 299.3307 62.8472 146.7656 30708.3554 62.8472 146.7656
ENERGY: 300000 0.9869 4.9709 4.4176 0.0000 -10761.1186 1373.8639 0.0000 0.0000 1774.5268 -7602.3524 300.4146 -9376.8792 -7554.5891 298.3669 -793.1293 -652.1663 30429.5073 -386.8387 -305.3229
ENERGY: 600000 0.3923 9.4517 4.3096 0.0000 -10833.8546 1494.5320 0.0000 0.0000 1740.5545 -7584.6146 294.6634 -9325.1690 -7583.9253 296.5793 339.7856 300.4718 30678.4843 -176.0042 -120.9999
ENERGY: 900000 0.8800 6.4615 3.6107 0.0000 -10854.6783 1527.5918 0.0000 0.0000 1743.1911 -7572.9433 295.1097 -9316.1344 -7576.2170 297.1873 570.9700 625.3932 30323.4996 -27.7311 32.2574
ENERGY: 1200000 0.9185 6.6373 4.4135 0.0000 -10708.9699 1432.8772 0.0000 0.0000 1767.2245 -7496.8989 299.1784 -9264.1233 -7555.5166 298.0346 -52.1811 -15.3641 30762.3659 -41.2678 17.4704
ENERGY: 1500000 1.9629 6.3755 3.3998 0.0000 -10708.1133 1351.6277 0.0000 0.0000 1776.1255 -7568.6219 300.6853 -9344.7474 -7553.6794 298.8572 -816.8213 -714.5353 30452.1785 -105.6551 -40.6065
TCL: Running FEP window   9: Lambda1 0.5999999999999996 Lambda2 0.5499999999999996 [dLambda -0.050000000000000044]
TCL: Setting parameter firsttimestep to 0
TCL: Setting parameter alchLambda to 0.5999999999999996
Info: NONBONDED TABLE R-SQUARED SPACING: 0.0625
Info: NONBONDED TABLE SIZE: 705 POINTS
TCL: Setting parameter alchLambda2 to 0.5499999999999996
Info: NONBONDED TABLE R-SQUARED SPACING: 0.0625
Info: NONBONDED TABLE SIZE: 705 POINTS
TCL: Running for 1500000 steps
ETITLE: TS BOND ANGLE DIHED IMPRP ELECT VDW BOUNDARY MISC KINETIC TOTAL TEMP POTENTIAL TOTALAVG TEMPAVG PRESSURE GPRESSURE VOLUME PRESSAVG GPRESSAVG
ENERGY: 0 1.9629 6.3755 3.3998 0.0000 -10707.1591 1351.9191 0.0000 0.0000 1775.2711 -7568.2307 300.5406 -9343.5018 -7568.2307 300.5406 -800.3322 -716.9679 30452.1785 -800.3322 -716.9679
ENERGY: 300000 0.1870 8.1425 4.2979 0.0000 -10732.7202 1414.7229 0.0000 0.0000 1757.4641 -7547.9058 297.5260 -9305.3699 -7543.6158 302.0635 -265.7977 -213.2883 30609.8456 -149.2834 -100.0721
ENERGY: 600000 0.9308 7.8804 3.9652 0.0000 -10760.9263 1370.8874 0.0000 0.0000 1807.3353 -7569.9273 305.9689 -9377.2626 -7534.4444 303.9825 -773.1388 -729.5050 30496.9622 -142.7092 -88.1868
ENERGY: 900000 0.2277 13.2799 3.9045 0.0000 -10781.8432 1432.1225 0.0000 0.0000 1779.8747 -7552.4341 301.3200 -9332.3088 -7543.2644 304.5061 -15.5972 14.3084 30283.2593 -279.3504 -228.0944
ENERGY: 1200000 1.1547 5.2933 3.8290 0.0000 -10789.5580 1440.9470 0.0000 0.0000 1772.0103 -7566.3237 299.9886 -9338.3340 -7550.4448 303.1079 -174.4219 -106.5332 30579.1444 -237.7759 -182.9706
ENERGY: 1500000 1.7852 6.0592 4.2093 0.0000 -10773.4668 1468.0544 0.0000 0.0000 1710.8056 -7582.5530 289.6271 -9293.3586 -7542.7924 302.1965 156.5332 247.4824 30353.4031 -221.3695 -160.0766
TCL: Running FEP window  10: Lambda1 0.5499999999999996 Lambda2 0.4999999999999996 [dLambda -0.04999999999999999]
TCL: Setting parameter firsttimestep to 0
TCL: Setting parameter alchLambda to 0.5499999999999996
Info: NONBONDED TABLE R-SQUARED SPACING: 0.0625
Info: NONBONDED TABLE SIZE: 705 POINTS
TCL: Setting parameter alchLambda2 to 0.4999999999999996
Info: NONBONDED TABLE R-SQUARED SPACING: 0.0625
Info: NONBONDED TABLE SIZE: 705 POINTS
TCL: Running for 1500000 steps
ETITLE: TS BOND ANGLE DIHED IMPRP ELECT VDW BOUNDARY MISC KINETIC TOTAL TEMP POTENTIAL TOTALAVG TEMPAVG PRESSURE GPRESSURE VOLUME PRESSAVG GPRESSAVG
ENERGY: 0 1.7852 6.0592 4.2093 0.0000 -10773.6621 1468.0211 0.0000 0.0000 1709.9019 -7583.6852 289.4741 -9293.5871 -7583.6852 289.4741 153.5153 239.9792 30353.4031 153.5153 239.9792
ENERGY: 300000 1.7113 5.1705 4.9873 0.0000 -10736.2741 1434.7819 0.0000 0.0000 1790.7196 -7498.9035 303.1560 -9289.6231 -7530.5705 299.2132 -9.3345 101.9570 30545.5174 -64.9691 4.3462
ENERGY: 600000 0.7832 3.3322 4.6137 0.0000 -10564.0792 1330.8147 0.0000 0.0000 1778.1503 -7446.3852 301.0281 -9224.5354 -7550.1344 297.3914 -714.5489 -719.9642 31121.0164 -160.4551 -112.2781
ENERGY: 900000 1.2464 7.3525 4.5184 0.0000 -10767.9752 1493.1555 0.0000 0.0000 1819.0130 -7442.6893 307.9458 -9261.7023 -7531.0062 300.0304 566.8160 652.9953 30443.1999 -158.8621 -103.9418
ENERGY: 1200000 1.0983 5.6785 4.2432 0.0000 -10623.1213 1354.1759 0.0000 0.0000 1738.4609 -7519.4644 294.3089 -9257.9254 -7522.8254 300.2696 -742.6969 -630.1370 31067.9620 -179.1103 -128.3400
ENERGY: 1500000 0.8281 5.6008 3.7671 0.0000 -10762.3934 1433.9636 0.0000 0.0000 1786.4387 -7531.7951 302.4312 -9318.2338 -7524.8713 300.0419 -51.9360 51.5002 30472.2364 -184.1825 -129.1712
TCL: Running FEP window  11: Lambda1 0.4999999999999996 Lambda2 0.4499999999999996 [dLambda -0.04999999999999999]
TCL: Setting parameter firsttimestep to 0
TCL: Setting parameter alchLambda to 0.4999999999999996
Info: NONBONDED TABLE R-SQUARED SPACING: 0.0625
Info: NONBONDED TABLE SIZE: 705 POINTS
TCL: Setting parameter alchLambda2 to 0.4499999999999996
Info: NONBONDED TABLE R-SQUARED SPACING: 0.0625
Info: NONBONDED TABLE SIZE: 705 POINTS
TCL: Running for 1500000 steps
ETITLE: TS BOND ANGLE DIHED IMPRP ELECT VDW BOUNDARY MISC KINETIC TOTAL TEMP POTENTIAL TOTALAVG TEMPAVG PRESSURE GPRESSURE VOLUME PRESSAVG GPRESSAVG
ENERGY: 0 0.8281 5.6008 3.7671 0.0000 -10761.5265 1433.8112 0.0000 0.0000 1785.5329 -7531.9863 302.2779 -9317.5192 -7531.9863 302.2779 -33.0648 47.8910 30472.2364 -33.0648 47.8910
ENERGY: 300000 0.8600 6.3284 4.3976 0.0000 -10738.8822 1424.6969 0.0000 0.0000 1806.6328 -7495.9665 305.8499 -9302.5993 -7537.6542 300.6867 -409.5957 -327.6165 31202.4485 -303.9886 -218.3565
ENERGY: 600000 1.4107 4.4818 3.5682 0.0000 -10866.0986 1493.8547 0.0000 0.0000 1823.6869 -7539.0963 308.7371 -9362.7832 -7535.2442 303.0154 512.9853 601.2454 29922.0344 -43.9009 25.6272
ENERGY: 900000 0.4227 8.3836 4.1117 0.0000 -10813.8303 1464.7017 0.0000 0.0000 1804.3692 -7531.8414 305.4667 -9336.2106 -7539.0032 302.0835 298.6775 301.3704 30151.6425 -3.8907 51.4604
ENERGY: 1200000 1.0684 6.9526 3.4909 0.0000 -10802.8606 1420.6097 0.0000 0.0000 1792.8544 -7577.8845 303.5174 -9370.7389 -7542.2461 302.9541 -411.7697 -315.4299 30388.6424 -4.1166 52.9744
ENERGY: 1500000 0.4371 10.2061 4.0345 0.0000 -10607.8181 1355.2304 0.0000 0.0000 1801.1871 -7436.7228 304.9280 -9237.9099 -7531.9490 302.7207 -578.3696 -501.3722 30714.1478 -53.0564 1.5988
TCL: Running FEP window  12: Lambda1 0.4499999999999996 Lambda2 0.39999999999999963 [dLambda -0.04999999999999999]
TCL: Setting parameter firsttimestep to 0
TCL: Setting parameter alchLambda to 0.4499999999999996
Info: NONBONDED TABLE R-SQUARED SPACING: 0.0625
Info: NONBONDED TABLE SIZE: 705 POINTS
TCL: Setting parameter alchLambda2 to 0.39999999999999963
Info: NONBONDED TABLE R-SQUARED SPACING: 0.0625
Info: NONBONDED TABLE SIZE: 705 POINTS
TCL: Running for 1500000 steps
ETITLE: TS BOND ANGLE DIHED IMPRP ELECT VDW BOUNDARY MISC KINETIC TOTAL TEMP POTENTIAL TOTALAVG TEMPAVG PRESSURE GPRESSURE VOLUME PRESSAVG GPRESSAVG
ENERGY: 0 0.4371 10.2061 4.0345 0.0000 -10607.8177 1355.1493 0.0000 0.0000 1800.3076 -7437.6831 304.7791 -9237.9907 -7437.6831 304.7791 -595.1621 -507.3691 30714.1478 -595.1621 -507.3691
ENERGY: 300000 0.9078 8.4239 3.9950 0.0000 -10759.0281 1496.0405 0.0000 0.0000 1796.2487 -7453.4122 304.0920 -9249.6608 -7510.2578 303.8363 768.1502 858.4371 30222.3718 -2.3668 80.8011
ENERGY: 600000 1.1844 6.2366 3.6915 0.0000 -10621.6572 1395.3246 0.0000 0.0000 1775.7567 -7439.4633 300.6229 -9215.2200 -7522.0981 301.2264 -141.1676 -108.0841 30750.2558 -9.5196 54.0123
ENERGY: 900000 0.9058 4.6760 3.7247 0.0000 -10636.2181 1341.0767 0.0000 0.0000 1716.2597 -7569.5752 290.5504 -9285.8350 -7520.8190 300.6962 -745.8368 -709.1640 30542.3895 -49.7280 13.2198
ENERGY: 1200000 0.8424 8.9342 3.4786 0.0000 -10829.3581 1436.7733 0.0000 0.0000 1739.9137 -7639.4159 294.5549 -9379.3296 -7540.9186 299.3772 -135.1277 -71.2013 30141.6075 -76.0256 -17.8812
ENERGY: 1500000 1.8206 5.9822 4.0073 0.0000 -10806.6950 1453.5191 0.0000 0.0000 1746.5763 -7594.7896 295.6828 -9341.3659 -7554.2176 299.4982 -203.9915 -90.9788 30576.4897 -46.1715 19.7424
TCL: Running FEP window  13: Lambda1 0.39999999999999963 Lambda2 0.34999999999999964 [dLambda -0.04999999999999999]
TCL: Setting parameter firsttimestep to 0
TCL: Setting parameter alchLambda to 0.39999999999999963
Info: NONBONDED TABLE R-SQUARED SPACING: 0.0625
Info: NONBONDED TABLE SIZE: 705 POINTS
TCL: Setting parameter alchLambda2 to 0.34999999999999964
Info: NONBONDED TABLE R-SQUARED SPACING: 0.0625
Info: NONBONDED TABLE SIZE: 705 POINTS
TCL: Running for 1500000 steps
ETITLE: TS BOND ANGLE DIHED IMPRP ELECT VDW BOUNDARY MISC KINETIC TOTAL TEMP POTENTIAL TOTALAVG TEMPAVG PRESSURE GPRESSURE VOLUME PRESSAVG GPRESSAVG
ENERGY: 0 1.8206 5.9822 4.0073 0.0000 -10806.6953 1453.3878 0.0000 0.0000 1745.7179 -7595.7795 295.5375 -9341.4974 -7595.7795 295.5375 -168.1248 -94.2607 30576.4897 -168.1248 -94.2607
ENERGY: 300000 1.4806 4.6856 4.3179 0.0000 -10781.7824 1471.2559 0.0000 0.0000 1738.0841 -7561.9583 294.2451 -9300.0424 -7585.1476 297.7737 222.4097 257.3318 30480.6900 -86.8932 -39.0300
ENERGY: 600000 1.2390 7.6302 4.4818 0.0000 -10839.6823 1528.6577 0.0000 0.0000 1784.8073 -7512.8663 302.1551 -9297.6736 -7570.0256 298.9453 598.2671 646.7502 30356.6827 128.7742 180.2044
ENERGY: 900000 1.7292 3.8949 3.2375 0.0000 -10805.4512 1477.4911 0.0000 0.0000 1744.9337 -7574.1649 295.4047 -9319.0986 -7557.8278 299.8487 148.1804 195.2234 30630.2015 102.5193 164.9975
ENERGY: 1200000 0.5144 6.5864 3.4826 0.0000 -10836.1985 1479.9637 0.0000 0.0000 1724.9482 -7620.7032 292.0213 -9345.6514 -7558.4637 298.9744 232.8824 301.7975 30285.5937 128.4606 185.7331
ENERGY: 1500000 3.7176 5.6369 3.6852 0.0000 -10919.2196 1563.3253 0.0000 0.0000 1790.6217 -7552.2329 303.1394 -9342.8546 -7559.0851 299.1286 836.0198 911.8513 30347.0777 147.5364 202.9416
TCL: Running FEP window  14: Lambda1 0.34999999999999964 Lambda2 0.29999999999999966 [dLambda -0.04999999999999999]
TCL: Setting parameter firsttimestep to 0
TCL: Setting parameter alchLambda to 0.34999999999999964
Info: NONBONDED TABLE R-SQUARED SPACING: 0.0625
Info: NONBONDED TABLE SIZE: 705 POINTS
TCL: Setting parameter alchLambda2 to 0.29999999999999966
Info: NONBONDED TABLE R-SQUARED SPACING: 0.0625
Info: NONBONDED TABLE SIZE: 705 POINTS
TCL: Running for 1500000 steps
ETITLE: TS BOND ANGLE DIHED IMPRP ELECT VDW BOUNDARY MISC KINETIC TOTAL TEMP POTENTIAL TOTALAVG TEMPAVG PRESSURE GPRESSURE VOLUME PRESSAVG GPRESSAVG
ENERGY: 0 3.7176 5.6369 3.6852 0.0000 -10919.2182 1563.5909 0.0000 0.0000 1789.7294 -7552.8582 302.9883 -9342.5876 -7552.8582 302.9883 844.3030 913.2397 30347.0777 844.3030 913.2397
ENERGY: 300000 1.8968 5.4393 4.0371 0.0000 -10880.8383 1494.0960 0.0000 0.0000 1828.3131 -7547.0559 309.5203 -9375.3691 -7558.6377 301.8417 151.4669 193.5966 30560.6050 223.0325 283.8736
ENERGY: 600000 0.6211 4.8165 3.5274 0.0000 -10922.0342 1485.3684 0.0000 0.0000 1733.8203 -7693.8805 293.5233 -9427.7008 -7568.4251 300.8122 294.5807 359.9231 29858.9885 191.0132 256.2795
ENERGY: 900000 3.4898 7.8441 3.8504 0.0000 -10784.0575 1447.1919 0.0000 0.0000 1755.9681 -7565.7131 297.2728 -9321.6812 -7558.1817 299.5610 -149.6363 -90.9344 30533.4644 40.4417 116.4361
ENERGY: 1200000 0.8222 7.5309 4.0859 0.0000 -10837.0314 1398.1467 0.0000 0.0000 1755.3401 -7671.1056 297.1665 -9426.4457 -7560.2932 300.4038 -465.9727 -485.9166 30297.5816 -21.6317 45.9383
ENERGY: 1500000 0.2610 10.2658 3.8417 0.0000 -10851.8235 1499.1279 0.0000 0.0000 1770.8554 -7567.4717 299.7931 -9338.3272 -7555.7963 300.7739 282.2966 339.9505 30645.6969 -7.4052 55.6874
TCL: Running FEP window  15: Lambda1 0.29999999999999966 Lambda2 0.24999999999999967 [dLambda -0.04999999999999999]
TCL: Setting parameter firsttimestep to 0
TCL: Setting parameter alchLambda to 0.29999999999999966
Info: NONBONDED TABLE R-SQUARED SPACING: 0.0625
Info: NONBONDED TABLE SIZE: 705 POINTS
TCL: Setting parameter alchLambda2 to 0.24999999999999967
Info: NONBONDED TABLE R-SQUARED SPACING: 0.0625
Info: NONBONDED TABLE SIZE: 705 POINTS
TCL: Running for 1500000 steps
ETITLE: TS BOND ANGLE DIHED IMPRP ELECT VDW BOUNDARY MISC KINETIC TOTAL TEMP POTENTIAL TOTALAVG TEMPAVG PRESSURE GPRESSURE VOLUME PRESSAVG GPRESSAVG
ENERGY: 0 0.2610 10.2658 3.8417 0.0000 -10851.8234 1498.9767 0.0000 0.0000 1769.9623 -7568.5160 299.6419 -9338.4783 -7568.5160 299.6419 258.1190 338.3605 30645.6969 258.1190 338.3605
ENERGY: 300000 1.7074 6.8752 4.3204 0.0000 -10658.5066 1378.0659 0.0000 0.0000 1796.4119 -7471.1257 304.1196 -9267.5376 -7503.0665 304.8695 -494.6257 -486.0173 30849.4934 -36.5154 -0.3693
ENERGY: 600000 3.1322 6.2437 4.8854 0.0000 -10746.1593 1378.8845 0.0000 0.0000 1819.6504 -7533.3630 308.0537 -9353.0134 -7501.2347 305.0695 -962.8910 -863.7221 30952.4219 -53.3474 1.8288
ENERGY: 900000 0.8156 8.4135 3.4866 0.0000 -10702.9061 1383.4464 0.0000 0.0000 1774.4314 -7532.3126 300.3985 -9306.7440 -7513.3646 304.2077 -540.0861 -508.9352 30600.7155 -67.3292 -11.3318
ENERGY: 1200000 1.2027 7.4922 3.4730 0.0000 -10763.9236 1448.6713 0.0000 0.0000 1757.7015 -7545.3829 297.5662 -9303.0845 -7534.1882 301.5405 -0.5064 27.0613 30614.7998 -96.8946 -36.7450
ENERGY: 1500000 1.5904 4.4290 4.3751 0.0000 -10934.4924 1528.2080 0.0000 0.0000 1778.5171 -7617.3727 301.0902 -9395.8898 -7535.3760 302.0958 474.2826 551.4515 30035.5443 -83.9496 -22.0977
TCL: Running FEP window  16: Lambda1 0.24999999999999967 Lambda2 0.19999999999999968 [dLambda -0.04999999999999999]
TCL: Setting parameter firsttimestep to 0
TCL: Setting parameter alchLambda to 0.24999999999999967
Info: NONBONDED TABLE R-SQUARED SPACING: 0.0625
Info: NONBONDED TABLE SIZE: 705 POINTS
TCL: Setting parameter alchLambda2 to 0.19999999999999968
Info: NONBONDED TABLE R-SQUARED SPACING: 0.0625
Info: NONBONDED TABLE SIZE: 705 POINTS
TCL: Running for 1500000 steps
ETITLE: TS BOND ANGLE DIHED IMPRP ELECT VDW BOUNDARY MISC KINETIC TOTAL TEMP POTENTIAL TOTALAVG TEMPAVG PRESSURE GPRESSURE VOLUME PRESSAVG GPRESSAVG
ENERGY: 0 1.5904 4.4290 4.3751 0.0000 -10934.4920 1528.2765 0.0000 0.0000 1777.6710 -7618.1501 300.9469 -9395.8210 -7618.1501 300.9469 468.3937 549.7065 30035.5443 468.3937 549.7065
ENERGY: 300000 0.7581 4.2808 3.4650 0.0000 -10737.5240 1429.1633 0.0000 0.0000 1776.2445 -7523.6124 300.7054 -9299.8569 -7580.9794 298.9912 -123.8701 -13.6442 30677.4751 102.2879 170.6535
ENERGY: 600000 0.0430 7.8820 4.4511 0.0000 -10808.3654 1446.9034 0.0000 0.0000 1789.6600 -7559.4259 302.9766 -9349.0858 -7533.2798 302.2227 201.4261 262.9175 30010.2410 45.1777 112.3297
ENERGY: 900000 1.5797 4.1262 3.4555 0.0000 -10789.8681 1463.0009 0.0000 0.0000 1752.2356 -7565.4703 296.6409 -9317.7059 -7529.9073 300.8760 312.3350 435.1122 30038.5628 67.8265 147.4161
ENERGY: 1200000 0.9084 8.7659 3.4745 0.0000 -10785.8650 1424.4376 0.0000 0.0000 1766.5767 -7581.7018 299.0687 -9348.2785 -7522.9043 301.5703 -21.3823 17.5572 30054.8378 54.3982 122.4159
ENERGY: 1500000 0.6398 7.2836 3.7171 0.0000 -10710.2904 1416.0272 0.0000 0.0000 1763.6877 -7518.9349 298.5797 -9282.6227 -7528.1284 301.4249 -165.9603 -131.5824 30555.4867 -103.5160 -39.2620
TCL: Running FEP window  17: Lambda1 0.19999999999999968 Lambda2 0.1499999999999997 [dLambda -0.04999999999999999]
TCL: Setting parameter firsttimestep to 0
TCL: Setting parameter alchLambda to 0.19999999999999968
Info: NONBONDED TABLE R-SQUARED SPACING: 0.0625
Info: NONBONDED TABLE SIZE: 705 POINTS
TCL: Setting parameter alchLambda2 to 0.1499999999999997
Info: NONBONDED TABLE R-SQUARED SPACING: 0.0625
Info: NONBONDED TABLE SIZE: 705 POINTS
TCL: Running for 1500000 steps
ETITLE: TS BOND ANGLE DIHED IMPRP ELECT VDW BOUNDARY MISC KINETIC TOTAL TEMP POTENTIAL TOTALAVG TEMPAVG PRESSURE GPRESSURE VOLUME PRESSAVG GPRESSAVG
ENERGY: 0 0.6398 7.2836 3.7171 0.0000 -10710.2903 1415.7491 0.0000 0.0000 1762.8027 -7520.0980 298.4298 -9282.9007 -7520.0980 298.4298 -231.4216 -137.0418 30555.4867 -231.4216 -137.0418
ENERGY: 300000 1.0594 3.5045 4.6076 0.0000 -10800.5662 1460.4289 0.0000 0.0000 1766.0547 -7564.9111 298.9804 -9330.9658 -7525.4202 301.7854 101.0266 150.6556 30409.4641 -40.8856 19.2587
ENERGY: 600000 0.7600 5.0344 3.6513 0.0000 -10775.9728 1417.1265 0.0000 0.0000 1749.9593 -7599.4413 296.2555 -9349.4006 -7558.2479 299.6471 -360.2744 -357.5586 30390.4292 -91.2717 -39.2901
ENERGY: 900000 1.1337 5.8070 3.3907 0.0000 -10905.7137 1494.5502 0.0000 0.0000 1809.1044 -7591.7277 306.2684 -9400.8321 -7564.9428 301.1530 448.3753 474.4695 29948.6144 -21.9319 24.5198
ENERGY: 1200000 2.3860 4.7444 3.7141 0.0000 -10706.4458 1440.1412 0.0000 0.0000 1758.3535 -7497.1067 297.6766 -9255.4601 -7569.2211 300.3623 23.6781 79.2896 30802.9473 -15.7735 30.7654
ENERGY: 1500000 0.1934 3.8724 3.4680 0.0000 -10966.8086 1566.0466 0.0000 0.0000 1744.8424 -7648.3858 295.3893 -9393.2283 -7580.9842 299.5593 1080.8491 1081.0176 29693.6230 -16.7082 24.9205
TCL: Running FEP window  18: Lambda1 0.1499999999999997 Lambda2 0.09999999999999969 [dLambda -0.05 ]
TCL: Setting parameter firsttimestep to 0
TCL: Setting parameter alchLambda to 0.1499999999999997
Info: NONBONDED TABLE R-SQUARED SPACING: 0.0625
Info: NONBONDED TABLE SIZE: 705 POINTS
TCL: Setting parameter alchLambda2 to 0.09999999999999969
Info: NONBONDED TABLE R-SQUARED SPACING: 0.0625
Info: NONBONDED TABLE SIZE: 705 POINTS
TCL: Running for 1500000 steps
ETITLE: TS BOND ANGLE DIHED IMPRP ELECT VDW BOUNDARY MISC KINETIC TOTAL TEMP POTENTIAL TOTALAVG TEMPAVG PRESSURE GPRESSURE VOLUME PRESSAVG GPRESSAVG
ENERGY: 0 0.1934 3.8724 3.4680 0.0000 -10966.8111 1565.5127 0.0000 0.0000 1743.9674 -7649.7972 295.2412 -9393.7646 -7649.7972 295.2412 994.6251 1075.0626 29693.6230 994.6251 1075.0626
ENERGY: 300000 0.1495 7.1501 3.9147 0.0000 -10926.7721 1536.2869 0.0000 0.0000 1771.6123 -7607.6587 299.9212 -9379.2709 -7600.4996 298.3481 687.2255 760.4348 30133.4198 535.1090 614.2722
ENERGY: 600000 0.8043 8.2524 3.8232 0.0000 -10646.8566 1395.7120 0.0000 0.0000 1775.7244 -7462.5402 300.6174 -9238.2646 -7558.9958 299.6346 -373.1857 -297.7812 30623.0337 311.9650 393.7951
ENERGY: 900000 1.3770 5.6349 4.3235 0.0000 -10771.9451 1460.0730 0.0000 0.0000 1761.7618 -7538.7748 298.2536 -9300.5366 -7532.5771 300.5073 -31.9854 32.6359 30753.8113 331.3251 405.8076
ENERGY: 1200000 1.0059 6.1795 3.1647 0.0000 -10804.2997 1495.6971 0.0000 0.0000 1735.9579 -7562.2944 293.8852 -9298.2523 -7536.7237 299.6229 223.1923 331.9194 30743.2891 280.8473 345.6317
ENERGY: 1500000 0.7952 7.3609 3.3178 0.0000 -10685.8234 1381.7420 0.0000 0.0000 1764.6137 -7527.9938 298.7364 -9292.6075 -7532.3213 299.5544 -346.3790 -339.4869 30534.5243 240.7184 299.1557
TCL: Running FEP window  19: Lambda1 0.09999999999999969 Lambda2 0.049999999999999684 [dLambda -0.05 ]
TCL: Setting parameter firsttimestep to 0
TCL: Setting parameter alchLambda to 0.09999999999999969
Info: NONBONDED TABLE R-SQUARED SPACING: 0.0625
Info: NONBONDED TABLE SIZE: 705 POINTS
TCL: Setting parameter alchLambda2 to 0.049999999999999684
Info: NONBONDED TABLE R-SQUARED SPACING: 0.0625
Info: NONBONDED TABLE SIZE: 705 POINTS
TCL: Running for 1500000 steps
ETITLE: TS BOND ANGLE DIHED IMPRP ELECT VDW BOUNDARY MISC KINETIC TOTAL TEMP POTENTIAL TOTALAVG TEMPAVG PRESSURE GPRESSURE VOLUME PRESSAVG GPRESSAVG
ENERGY: 0 0.7952 7.3609 3.3178 0.0000 -10685.8223 1381.0438 0.0000 0.0000 1763.7457 -7529.5589 298.5895 -9293.3046 -7529.5589 298.5895 -433.9484 -348.1717 30534.5243 -433.9484 -348.1717
ENERGY: 300000 0.4376 5.5211 3.9714 0.0000 -10762.7843 1398.6712 0.0000 0.0000 1750.5077 -7603.6754 296.3484 -9354.1831 -7555.1770 300.9734 -388.3300 -326.9576 30131.0050 -295.0272 -215.0204
ENERGY: 600000 1.1722 6.7961 3.3386 0.0000 -10613.2832 1287.6703 0.0000 0.0000 1815.4966 -7498.8095 307.3505 -9314.3062 -7546.6876 301.6226 -1236.1072 -1160.3892 30634.1528 -446.2549 -380.4663
ENERGY: 900000 1.7372 6.9644 3.3533 0.0000 -10826.7737 1469.9280 0.0000 0.0000 1815.6036 -7529.1872 307.3686 -9344.7907 -7560.5628 300.8483 142.0768 179.2341 30307.0962 -297.2016 -240.0840
ENERGY: 1200000 2.1643 5.1050 3.3318 0.0000 -10783.0035 1484.9989 0.0000 0.0000 1803.7938 -7483.6097 305.3693 -9287.4035 -7547.9507 301.4146 560.8993 683.0512 30244.4381 -79.4884 -22.1097
ENERGY: 1500000 0.4323 10.9950 3.3041 0.0000 -10599.6779 1342.0844 0.0000 0.0000 1782.1035 -7460.7587 301.6973 -9242.8622 -7548.5610 301.1059 -951.6244 -808.4426 30888.2817 -128.8350 -67.9768
TCL: Running FEP window  20: Lambda1 0.049999999999999684 Lambda2 0.0    [dLambda -0.049999999999999684]
TCL: Setting parameter firsttimestep to 0
TCL: Setting parameter alchLambda to 0.049999999999999684
Info: NONBONDED TABLE R-SQUARED SPACING: 0.0625
Info: NONBONDED TABLE SIZE: 705 POINTS
TCL: Setting parameter alchLambda2 to 0.0
Info: NONBONDED TABLE R-SQUARED SPACING: 0.0625
Info: NONBONDED TABLE SIZE: 705 POINTS
TCL: Running for 1500000 steps
ETITLE: TS BOND ANGLE DIHED IMPRP ELECT VDW BOUNDARY MISC KINETIC TOTAL TEMP POTENTIAL TOTALAVG TEMPAVG PRESSURE GPRESSURE VOLUME PRESSAVG GPRESSAVG
ENERGY: 0 0.4323 10.9950 3.3041 0.0000 -10599.6769 1340.9335 0.0000 0.0000 1781.2316 -7462.7804 301.5497 -9244.0120 -7462.7804 301.5497 -887.2897 -812.9309 30888.2817 -887.2897 -812.9309
ENERGY: 300000 0.7815 5.3991 4.0366 0.0000 -10826.7495 1442.3549 0.0000 0.0000 1826.9135 -7547.2640 309.2833 -9374.1775 -7559.7891 302.4159 -61.2673 -6.3651 30099.7292 -228.4198 -156.3288
ENERGY: 600000 0.6157 5.1062 4.1775 0.0000 -10578.1117 1305.2054 0.0000 0.0000 1826.5596 -7436.4473 309.2234 -9263.0069 -7540.1562 301.6251 -1044.9019 -954.8032 30812.7955 -252.5395 -177.3274
ENERGY: 900000 0.2315 12.7636 4.3850 0.0000 -10897.8399 1475.0590 0.0000 0.0000 1772.6075 -7632.7933 300.0897 -9405.4008 -7543.8891 301.3671 -9.0545 39.8236 30308.4220 -128.7731 -68.8349
ENERGY: 1200000 0.7158 6.1307 4.2505 0.0000 -10848.1138 1503.7729 0.0000 0.0000 1740.6863 -7592.5575 294.6857 -9333.2439 -7554.4713 300.6510 447.2483 462.3034 30288.8394 -104.1310 -46.8297
ENERGY: 1500000 0.4144 7.7359 4.7789 0.0000 -10717.6997 1350.3178 0.0000 0.0000 1827.2661 -7527.1867 309.3430 -9354.4528 -7550.1807 301.7482 -642.2398 -508.9293 29902.6926 -146.2945 -80.3251
TCL: Exiting due to exit command.
