Info: SIMULATION PARAMETERS:
Info: TIMESTEP               2
Info: NUMBER OF STEPS        0
Info: STEPS PER CYCLE        10
Info: PERIODIC CELL BASIS 1  31.5904 0 0
Info: PERIODIC CELL BASIS 2  0 30.5394 0
Info: PERIODIC CELL BASIS 3  0 0 31.3739
Info: PERIODIC CELL CENTER   0 0 0
Info: WRAPPING WATERS AROUND PERIODIC BOUNDARIES ON OUTPUT.
Info: WRAPPING ALL CLUSTERS AROUND PERIODIC BOUNDARIES ON OUTPUT.
Info: FIRST LDB TIMESTEP     50
Info: LAST LDB TIMESTEP     -1
Info: HOM BACKGROUND SCALING 1
Info: PME BACKGROUND SCALING 1
Info: MIN ATOMS PER PATCH    40
Info: EMPTY PATCH LOAD       40 ATOMS
Info: VELOCITY FILE          mobley_6632459_equil.vel
Info: CENTER OF MASS MOVING INITIALLY? NO
Info: DIELECTRIC             1
Info: EXCLUDE                SCALED ONE-FOUR
Info: 1-4 ELECTROSTATICS SCALED BY 0.833333
Info: MODIFIED 1-4 VDW PARAMETERS WILL BE USED
Info: DCD FILENAME           mobley_6632459_prod.dcd
Info: DCD FREQUENCY          100000
Info: DCD FIRST STEP         100000
Info: DCD FILE WILL CONTAIN UNIT CELL DATA
Info: XST FILENAME           mobley_6632459_prod.xst
Info: XST FREQUENCY          100000
Info: NO VELOCITY DCD OUTPUT
Info: NO FORCE DCD OUTPUT
Info: OUTPUT FILENAME        mobley_6632459_prod
Info: BINARY OUTPUT FILES WILL BE USED
Info: RESTART FILENAME       mobley_6632459_prod.restart
Info: RESTART FREQUENCY      100000
Info: BINARY RESTART FILES WILL BE USED
Info: CUTOFF                 9
Info: PAIRLIST DISTANCE      11
Info: PAIRLIST SHRINK RATE   0.01
Info: PAIRLIST GROW RATE     0.01
Info: PAIRLIST TRIGGER       0.3
Info: PAIRLISTS PER CYCLE    2
Info: PAIRLISTS ENABLED
Info: MARGIN                 2
Info: HYDROGEN GROUP CUTOFF  2.5
Info: PATCH DIMENSION        15.5
Info: ENERGY OUTPUT STEPS    100000
Info: ENERGY EVALUATION STEPS    100000
Info: OUTPUT ENERGY PRECISION 4
Info: CROSSTERM ENERGY INCLUDED IN DIHEDRAL
Info: TIMING OUTPUT STEPS    1000000
Info: PRESSURE OUTPUT STEPS  100000
Info: ALCHEMICAL FEP ON
Info: FEP CURRENT LAMBDA VALUE     1
Info: FEP COMPARISON LAMBDA VALUE  0.95
Info: FEP INTRA-ALCHEMICAL NON-BONDED INTERACTIONS WILL BE RETAINED
Info: FEP INTRA-ALCHEMICAL BONDED INTERACTIONS WILL BE RETAINED
Info: FEP VDW SHIFTING COEFFICIENT 5
Info: FEP ELEC. ACTIVE FOR ANNIHILATED PARTICLES BETWEEN LAMBDA = 0 AND LAMBDA = 0.5
Info: FEP ELEC. ACTIVE FOR EXNIHILATED PARTICLES BETWEEN LAMBDA = 0.5 AND LAMBDA = 1
Info: FEP VDW ACTIVE FOR ANNIHILATED PARTICLES BETWEEN LAMBDA = 0 AND LAMBDA = 1
Info: FEP VDW ACTIVE FOR EXNIHILATED PARTICLES BETWEEN LAMBDA = 0 AND LAMBDA = 1
Info: FEP BOND ACTIVE FOR ANNIHILATED PARTICLES BETWEEN LAMBDA = 1 AND LAMBDA = 1
Info: FEP BOND ACTIVE FOR EXNIHILATED PARTICLES BETWEEN LAMBDA = 0 AND LAMBDA = 0
Info: LANGEVIN DYNAMICS ACTIVE
Info: LANGEVIN TEMPERATURE   300
Info: LANGEVIN USING BBK INTEGRATOR
Info: LANGEVIN DAMPING COEFFICIENT IS 1 INVERSE PS
Info: LANGEVIN DYNAMICS APPLIED TO HYDROGENS
Info: LANGEVIN PISTON PRESSURE CONTROL ACTIVE
Info:        TARGET PRESSURE IS 1.01325 BAR
Info:     OSCILLATION PERIOD IS 50 FS
Info:             DECAY TIME IS 25 FS
Info:     PISTON TEMPERATURE IS 300 K
Info:       PRESSURE CONTROL IS GROUP-BASED
Info:    INITIAL STRAIN RATE IS 0.000706954 0.000706954 0.000706954
Info:       CELL FLUCTUATION IS ISOTROPIC
Info: PARTICLE MESH EWALD (PME) ACTIVE
Info: PME TOLERANCE               1e-06
Info: PME EWALD COEFFICIENT       0.348832
Info: PME INTERPOLATION ORDER     4
Info: PME GRID DIMENSIONS         32 32 32
Info: PME MAXIMUM GRID SPACING    1
Info: PME CALCULATION WILL BE PERFORMED ON GPU
Info: FULL ELECTROSTATIC EVALUATION FREQUENCY      2
Info: USING VERLET I (r-RESPA) MTS SCHEME.
Info: C1 SPLITTING OF LONG RANGE ELECTROSTATICS
Info: PLACING ATOMS IN PATCHES BY HYDROGEN GROUPS
Info: RIGID BONDS TO HYDROGEN : ALL
Info:         ERROR TOLERANCE : 1e-08
Info:          MAX ITERATIONS : 100
Info: RIGID WATER USING SETTLE ALGORITHM
Info: RANDOM NUMBER SEED     1743677904
Info: USE HYDROGEN BONDS?    NO
Info: Using AMBER format force field!
Info: AMBER PARM FILE        mobley_6632459.prmtop
Info: COORDINATE PDB         mobley_6632459.pdb
Info: Exclusions will be read from PARM file!
Info: SCNB (VDW SCALING)     2
Info: USING ARITHMETIC MEAN TO COMBINE L-J SIGMA PARAMETERS
Info: BINARY COORDINATES     mobley_6632459_equil.coor
Info: SUMMARY OF PARAMETERS:
Info: 7 BONDS
Info: 7 ANGLES
Info:   7 HARMONIC
Info:   0 COSINE-BASED
Info: 7 DIHEDRAL
Info: 0 IMPROPER
Info: 0 CROSSTERM
Info: 0 VDW
Info: 28 VDW_PAIRS
Info: 0 NBTHOLE_PAIRS
Info: To read alchdata from file: mobley_6632459.pdb
Info: To read alchflag data from column: 5
Info: STRUCTURE SUMMARY:
Info: 2911 ATOMS
Info: 2910 BONDS
Info: 15 ANGLES
Info: 20 DIHEDRALS
Info: 0 IMPROPERS
Info: 0 CROSSTERMS
Info: 2940 EXCLUSIONS
Info: 2907 RIGID BONDS
Info: ALCH: 0 ATOMS TO DISAPPEAR IN FINAL STATE
Info: ALCH: 10 ATOMS TO APPEAR IN FINAL STATE
Info: 5826 DEGREES OF FREEDOM
Info: 971 HYDROGEN GROUPS
Info: 4 ATOMS IN LARGEST HYDROGEN GROUP
Info: 971 MIGRATION GROUPS
Info: 4 ATOMS IN LARGEST MIGRATION GROUP
Info: TOTAL MASS = 17479.6 amu
Info: TOTAL CHARGE = 9.99989e-05 e
Info: MASS DENSITY = 0.958972 g/cm^3
Info: ATOM DENSITY = 0.0961742 atoms/A^3
Info: ADDED 0 IMPLICIT EXCLUSIONS
Info: NONBONDED TABLE R-SQUARED SPACING: 0.0625
Info: NONBONDED TABLE SIZE: 705 POINTS
Info: REMOVING COM VELOCITY -0.108753 -0.0759831 0.119897
Info: Use 3D box decompostion in PME FFT.
Info: Updated CUDA force table with 4096 elements.
Info: Updated CUDA LJ table with 7 x 7 elements.
Info: Found 13 unique exclusion lists needing 20 bytes
TCL: Running for 1500000 steps
ETITLE: TS BOND ANGLE DIHED IMPRP ELECT VDW BOUNDARY MISC KINETIC TOTAL TEMP POTENTIAL TOTALAVG TEMPAVG PRESSURE GPRESSURE VOLUME PRESSAVG GPRESSAVG
ENERGY: 0 1.0878 3.2063 1.0239 0.0000 -10480.8681 1336.1016 0.0000 0.0000 1711.3131 -7428.1355 295.6306 -9139.4486 -7428.1355 295.6306 -773.6142 -703.9149 30268.0039 -773.6142 -703.9149
ENERGY: 300000 0.8170 2.5684 2.6448 0.0000 -10509.1868 1389.5391 0.0000 0.0000 1740.8700 -7372.7475 300.7366 -9113.6175 -7345.7986 300.5395 -237.7684 -191.8743 29977.1403 -468.8193 -401.5555
ENERGY: 600000 0.3533 2.7091 1.7585 0.0000 -10656.5251 1507.3407 0.0000 0.0000 1762.8871 -7381.4764 304.5400 -9144.3635 -7357.3271 302.3205 781.4329 901.4891 29903.7967 -190.6535 -133.7808
ENERGY: 900000 2.3143 3.0397 1.5170 0.0000 -10572.0669 1390.9962 0.0000 0.0000 1733.0227 -7441.1769 299.3809 -9174.1996 -7373.1593 301.6297 -437.3436 -355.2801 30098.9372 -267.8078 -212.3001
ENERGY: 1200000 1.2636 2.9076 2.4750 0.0000 -10480.7864 1386.8122 0.0000 0.0000 1751.8044 -7335.5238 302.6255 -9087.3282 -7376.1504 300.1880 -32.4793 5.0051 29938.4646 -260.2418 -209.3935
ENERGY: 1500000 0.3216 4.1692 1.5075 0.0000 -10607.8502 1461.9093 0.0000 0.0000 1707.1326 -7432.8100 294.9084 -9139.9426 -7382.5332 300.1963 443.5709 533.9805 29703.0176 -241.9683 -183.3122
TCL: Running FEP window   2: Lambda1 0.95   Lambda2 0.8999999999999999 [dLambda -0.050000000000000044]
TCL: Setting parameter firsttimestep to 0
TCL: Setting parameter alchLambda to 0.95
Info: NONBONDED TABLE R-SQUARED SPACING: 0.0625
Info: NONBONDED TABLE SIZE: 705 POINTS
TCL: Setting parameter alchLambda2 to 0.8999999999999999
Info: NONBONDED TABLE R-SQUARED SPACING: 0.0625
Info: NONBONDED TABLE SIZE: 705 POINTS
TCL: Running for 1500000 steps
ETITLE: TS BOND ANGLE DIHED IMPRP ELECT VDW BOUNDARY MISC KINETIC TOTAL TEMP POTENTIAL TOTALAVG TEMPAVG PRESSURE GPRESSURE VOLUME PRESSAVG GPRESSAVG
ENERGY: 0 0.3216 4.1692 1.5075 0.0000 -10606.3404 1461.0037 0.0000 0.0000 1706.2233 -7433.1152 294.7513 -9139.3385 -7433.1152 294.7513 425.5949 514.1928 29703.0176 425.5949 514.1928
ENERGY: 300000 0.9084 4.1848 1.9642 0.0000 -10522.0811 1384.9878 0.0000 0.0000 1759.9051 -7370.1309 304.0249 -9130.0360 -7402.6363 302.0417 -211.4019 -53.8268 29909.9869 -216.6741 -118.8471
ENERGY: 600000 2.0685 4.2570 1.7200 0.0000 -10595.3750 1364.0241 0.0000 0.0000 1744.5383 -7478.7672 301.3703 -9223.3055 -7437.6695 302.0621 -839.8860 -783.7173 30107.9873 -52.1930 30.4110
ENERGY: 900000 0.4763 1.7669 1.3974 0.0000 -10592.9440 1389.1252 0.0000 0.0000 1744.5168 -7455.6615 301.3666 -9200.1783 -7437.6064 301.5779 -93.4252 -42.5963 29451.7539 -66.6987 13.6268
ENERGY: 1200000 0.6495 3.0181 2.2280 0.0000 -10557.9950 1412.3819 0.0000 0.0000 1777.4573 -7362.2601 307.0571 -9139.7175 -7433.7644 300.9363 74.7301 130.5366 30003.3038 -66.3060 1.4228
ENERGY: 1500000 0.9285 2.8232 1.0834 0.0000 -10715.5479 1535.0911 0.0000 0.0000 1792.0829 -7383.5389 309.5836 -9175.6217 -7432.1467 301.1574 878.1148 930.9024 30027.7873 33.7495 97.0759
TCL: Running FEP window   3: Lambda1 0.8999999999999999 Lambda2 0.8499999999999999 [dLambda -0.050000000000000044]
TCL: Setting parameter firsttimestep to 0
TCL: Setting parameter alchLambda to 0.8999999999999999
Info: NONBONDED TABLE R-SQUARED SPACING: 0.0625
Info: NONBONDED TABLE SIZE: 705 POINTS
TCL: Setting parameter alchLambda2 to 0.8499999999999999
Info: NONBONDED TABLE R-SQUARED SPACING: 0.0625
Info: NONBONDED TABLE SIZE: 705 POINTS
TCL: Running for 1500000 steps
ETITLE: TS BOND ANGLE DIHED IMPRP ELECT VDW BOUNDARY MISC KINETIC TOTAL TEMP POTENTIAL TOTALAVG TEMPAVG PRESSURE GPRESSURE VOLUME PRESSAVG GPRESSAVG
ENERGY: 0 0.9285 2.8232 1.0834 0.0000 -10714.3907 1534.8743 0.0000 0.0000 1791.2260 -7383.4555 309.4356 -9174.6814 -7383.4555 309.4356 854.1054 922.7502 30027.7873 854.1054 922.7502
ENERGY: 300000 0.4072 3.3181 3.0240 0.0000 -10668.9978 1441.1758 0.0000 0.0000 1810.5217 -7410.5510 312.7690 -9221.0727 -7425.1510 303.1388 251.9063 295.0655 29394.2991 133.2020 166.0911
ENERGY: 600000 1.2975 3.6940 1.2955 0.0000 -10499.6022 1392.2816 0.0000 0.0000 1715.6666 -7385.3670 296.3827 -9101.0336 -7431.0930 301.0224 -409.5335 -342.0278 30667.4478 49.1559 103.7897
ENERGY: 900000 0.3364 3.8220 1.0138 0.0000 -10549.1767 1423.8149 0.0000 0.0000 1691.4463 -7428.7434 292.1986 -9120.1896 -7429.2945 299.2431 75.7196 99.5927 30011.7599 19.3809 75.4818
ENERGY: 1200000 3.3379 3.7446 1.2341 0.0000 -10453.4584 1356.6293 0.0000 0.0000 1716.6274 -7371.8851 296.5486 -9088.5125 -7419.3396 299.3783 -457.8384 -393.6243 30289.2810 -37.9819 21.9701
ENERGY: 1500000 0.6080 3.2841 2.4584 0.0000 -10562.0833 1417.3874 0.0000 0.0000 1706.9929 -7431.3526 294.8843 -9138.3455 -7412.9146 299.7987 45.4068 132.2889 29886.9013 -30.6806 35.9192
TCL: Running FEP window   4: Lambda1 0.8499999999999999 Lambda2 0.7999999999999998 [dLambda -0.050000000000000044]
TCL: Setting parameter firsttimestep to 0
TCL: Setting parameter alchLambda to 0.8499999999999999
Info: NONBONDED TABLE R-SQUARED SPACING: 0.0625
Info: NONBONDED TABLE SIZE: 705 POINTS
TCL: Setting parameter alchLambda2 to 0.7999999999999998
Info: NONBONDED TABLE R-SQUARED SPACING: 0.0625
Info: NONBONDED TABLE SIZE: 705 POINTS
TCL: Running for 1500000 steps
ETITLE: TS BOND ANGLE DIHED IMPRP ELECT VDW BOUNDARY MISC KINETIC TOTAL TEMP POTENTIAL TOTALAVG TEMPAVG PRESSURE GPRESSURE VOLUME PRESSAVG GPRESSAVG
ENERGY: 0 0.6080 3.2841 2.4584 0.0000 -10560.6739 1417.1928 0.0000 0.0000 1706.0827 -7431.0479 294.7270 -9137.1306 -7431.0479 294.7270 36.2472 124.6630 29886.9013 36.2472 124.6630
ENERGY: 300000 0.4285 6.2775 1.6418 0.0000 -10559.5220 1456.1144 0.0000 0.0000 1780.3058 -7314.7539 307.5491 -9095.0597 -7377.7715 301.1783 461.1923 515.0286 30063.9358 392.8357 465.8619
ENERGY: 600000 1.0045 5.7299 3.1899 0.0000 -10609.9032 1417.7707 0.0000 0.0000 1727.0933 -7455.1148 298.3566 -9182.2081 -7412.2320 299.9773 -75.1825 -45.9202 30004.9448 407.3131 468.8498
ENERGY: 900000 0.1059 4.1944 1.1483 0.0000 -10623.8897 1385.4604 0.0000 0.0000 1686.2571 -7546.7237 291.3022 -9232.9808 -7428.5990 298.5241 -413.2860 -416.8040 29745.4694 236.4970 291.0259
ENERGY: 1200000 1.0628 5.9029 2.4206 0.0000 -10520.8358 1394.8729 0.0000 0.0000 1724.4414 -7392.1352 297.8985 -9116.5766 -7430.5495 298.3740 -215.6054 -88.7450 29850.5517 148.7232 207.9610
ENERGY: 1500000 0.4368 3.0807 2.0687 0.0000 -10481.9110 1393.9827 0.0000 0.0000 1729.9356 -7352.4064 298.8476 -9082.3420 -7426.7898 298.8312 -159.8769 -174.1445 30297.6233 113.1305 168.6960
TCL: Running FEP window   5: Lambda1 0.7999999999999998 Lambda2 0.7499999999999998 [dLambda -0.050000000000000044]
TCL: Setting parameter firsttimestep to 0
TCL: Setting parameter alchLambda to 0.7999999999999998
Info: NONBONDED TABLE R-SQUARED SPACING: 0.0625
Info: NONBONDED TABLE SIZE: 705 POINTS
TCL: Setting parameter alchLambda2 to 0.7499999999999998
Info: NONBONDED TABLE R-SQUARED SPACING: 0.0625
Info: NONBONDED TABLE SIZE: 705 POINTS
TCL: Running for 1500000 steps
ETITLE: TS BOND ANGLE DIHED IMPRP ELECT VDW BOUNDARY MISC KINETIC TOTAL TEMP POTENTIAL TOTALAVG TEMPAVG PRESSURE GPRESSURE VOLUME PRESSAVG GPRESSAVG
ENERGY: 0 0.4368 3.0807 2.0687 0.0000 -10480.5686 1392.7756 0.0000 0.0000 1729.0119 -7353.1948 298.6881 -9082.2067 -7353.1948 298.6881 -269.8627 -190.8579 30297.6233 -269.8627 -190.8579
ENERGY: 300000 1.0578 3.2470 1.2652 0.0000 -10507.2008 1396.8818 0.0000 0.0000 1745.2031 -7359.5459 301.4851 -9104.7491 -7381.8652 298.3540 -283.8467 -232.0864 30536.5409 -163.4024 -115.9591
ENERGY: 600000 2.8949 3.2705 1.1787 0.0000 -10568.1788 1433.7092 0.0000 0.0000 1739.9448 -7387.1807 300.5768 -9127.1255 -7371.2990 299.9816 380.2801 445.7685 29647.5316 11.2739 63.2848
ENERGY: 900000 0.6279 5.0636 2.0264 0.0000 -10547.7795 1393.1822 0.0000 0.0000 1731.5982 -7415.2812 299.1349 -9146.8795 -7392.3742 299.7324 -419.3774 -314.9039 30153.4297 19.1317 80.4957
ENERGY: 1200000 1.5232 4.6130 0.8100 0.0000 -10501.8040 1344.9521 0.0000 0.0000 1704.2389 -7445.6667 294.4085 -9149.9056 -7399.2790 299.3250 -740.3862 -676.3371 30040.7440 -133.7847 -70.8983
ENERGY: 1500000 2.6398 3.6003 0.8993 0.0000 -10476.9798 1310.7074 0.0000 0.0000 1744.6031 -7414.5298 301.3815 -9159.1329 -7395.7620 299.6745 -958.3304 -853.2884 30082.8592 -168.4837 -102.4334
TCL: Running FEP window   6: Lambda1 0.7499999999999998 Lambda2 0.6999999999999997 [dLambda -0.050000000000000044]
TCL: Setting parameter firsttimestep to 0
TCL: Setting parameter alchLambda to 0.7499999999999998
Info: NONBONDED TABLE R-SQUARED SPACING: 0.0625
Info: NONBONDED TABLE SIZE: 705 POINTS
TCL: Setting parameter alchLambda2 to 0.6999999999999997
Info: NONBONDED TABLE R-SQUARED SPACING: 0.0625
Info: NONBONDED TABLE SIZE: 705 POINTS
TCL: Running for 1500000 steps
ETITLE: TS BOND ANGLE DIHED IMPRP ELECT VDW BOUNDARY MISC KINETIC TOTAL TEMP POTENTIAL TOTALAVG TEMPAVG PRESSURE GPRESSURE VOLUME PRESSAVG GPRESSAVG
ENERGY: 0 2.6398 3.6003 0.8993 0.0000 -10476.8820 1310.8716 0.0000 0.0000 1743.6975 -7415.1735 301.2250 -9158.8709 -7415.1735 301.2250 -937.0310 -859.2966 30082.8592 -937.0310 -859.2966
ENERGY: 300000 0.3494 2.3062 2.6737 0.0000 -10751.8899 1548.3302 0.0000 0.0000 1699.9708 -7498.2597 293.6712 -9198.2304 -7446.3011 297.5435 972.2551 1013.2580 29713.1419 361.9675 416.9285
ENERGY: 600000 0.2866 2.2130 4.5666 0.0000 -10651.7304 1508.1711 0.0000 0.0000 1753.1312 -7383.3619 302.8547 -9136.4931 -7420.4927 300.6698 737.0567 795.3231 29656.0954 279.6531 343.8377
ENERGY: 900000 0.4966 3.2652 2.7623 0.0000 -10558.3290 1390.5869 0.0000 0.0000 1700.3126 -7460.9054 293.7303 -9161.2180 -7423.5310 300.0583 16.4590 67.7363 29421.5138 181.5724 241.5185
ENERGY: 1200000 0.2625 4.7508 1.3365 0.0000 -10643.0771 1419.8444 0.0000 0.0000 1769.4312 -7447.4518 305.6705 -9216.8830 -7426.2244 300.5277 29.0667 66.7042 29753.3378 66.0520 125.3973
ENERGY: 1500000 0.2426 4.6527 2.3938 0.0000 -10647.1924 1456.1060 0.0000 0.0000 1726.8534 -7456.9439 298.3152 -9183.7972 -7431.8202 299.6970 99.9068 160.2382 29992.7517 128.4188 184.7092
TCL: Running FEP window   7: Lambda1 0.6999999999999997 Lambda2 0.6499999999999997 [dLambda -0.050000000000000044]
TCL: Setting parameter firsttimestep to 0
TCL: Setting parameter alchLambda to 0.6999999999999997
Info: NONBONDED TABLE R-SQUARED SPACING: 0.0625
Info: NONBONDED TABLE SIZE: 705 POINTS
TCL: Setting parameter alchLambda2 to 0.6499999999999997
Info: NONBONDED TABLE R-SQUARED SPACING: 0.0625
Info: NONBONDED TABLE SIZE: 705 POINTS
TCL: Running for 1500000 steps
ETITLE: TS BOND ANGLE DIHED IMPRP ELECT VDW BOUNDARY MISC KINETIC TOTAL TEMP POTENTIAL TOTALAVG TEMPAVG PRESSURE GPRESSURE VOLUME PRESSAVG GPRESSAVG
ENERGY: 0 0.2426 4.6527 2.3938 0.0000 -10645.4818 1456.0165 0.0000 0.0000 1726.0042 -7456.1720 298.1685 -9182.1762 -7456.1720 298.1685 71.9822 156.7567 29992.7517 71.9822 156.7567
ENERGY: 300000 0.7490 4.1153 0.8596 0.0000 -10591.9123 1462.5246 0.0000 0.0000 1777.0801 -7346.5838 306.9919 -9123.6639 -7394.7100 300.7441 428.5000 524.4165 30065.8897 284.5594 359.0661
ENERGY: 600000 0.3636 4.2642 2.0389 0.0000 -10592.1219 1386.4864 0.0000 0.0000 1744.9833 -7453.9856 301.4471 -9198.9688 -7398.4312 301.1751 -217.0866 -185.4516 29586.0743 59.8340 129.9147
ENERGY: 900000 2.7678 3.1888 2.4032 0.0000 -10592.1701 1459.9015 0.0000 0.0000 1708.8128 -7415.0960 295.1987 -9123.9088 -7400.4616 300.5388 210.4228 261.3839 30169.9985 -21.4318 48.7429
ENERGY: 1200000 0.2325 5.2704 1.8761 0.0000 -10661.1863 1493.7258 0.0000 0.0000 1731.4193 -7428.6622 299.1040 -9160.0815 -7398.9687 299.6820 517.6531 580.0254 29738.9899 66.9765 143.1475
ENERGY: 1500000 0.3471 3.4105 3.1014 0.0000 -10570.2121 1405.8220 0.0000 0.0000 1756.6526 -7400.8785 303.4630 -9157.5312 -7404.8979 299.5593 -369.6958 -232.7594 30050.9956 13.1143 96.5002
TCL: Running FEP window   8: Lambda1 0.6499999999999997 Lambda2 0.5999999999999996 [dLambda -0.050000000000000044]
TCL: Setting parameter firsttimestep to 0
TCL: Setting parameter alchLambda to 0.6499999999999997
Info: NONBONDED TABLE R-SQUARED SPACING: 0.0625
Info: NONBONDED TABLE SIZE: 705 POINTS
TCL: Setting parameter alchLambda2 to 0.5999999999999996
Info: NONBONDED TABLE R-SQUARED SPACING: 0.0625
Info: NONBONDED TABLE SIZE: 705 POINTS
TCL: Running for 1500000 steps
ETITLE: TS BOND ANGLE DIHED IMPRP ELECT VDW BOUNDARY MISC KINETIC TOTAL TEMP POTENTIAL TOTALAVG TEMPAVG PRESSURE GPRESSURE VOLUME PRESSAVG GPRESSAVG
ENERGY: 0 0.3471 3.4105 3.1014 0.0000 -10569.0673 1405.8707 0.0000 0.0000 1755.7824 -7400.5552 303.3127 -9156.3376 -7400.5552 303.3127 -326.8882 -237.3170 30050.9956 -326.8882 -237.3170
ENERGY: 300000 0.5585 4.8260 3.6399 0.0000 -10522.1438 1372.7922 0.0000 0.0000 1676.3860 -7463.9412 289.5969 -9140.3272 -7391.5741 296.0352 -307.7666 -231.5145 29815.1904 -204.0914 -133.7130
ENERGY: 600000 0.4086 3.3897 1.7380 0.0000 -10601.4038 1423.0451 0.0000 0.0000 1759.6302 -7413.1923 303.9774 -9172.8225 -7386.6373 298.4563 -112.8506 -3.8193 29914.0200 -105.5847 -32.1219
ENERGY: 900000 0.5844 2.3163 1.1277 0.0000 -10647.7252 1444.6257 0.0000 0.0000 1729.9224 -7469.1486 298.8454 -9199.0710 -7407.1866 298.7271 -270.7137 -176.0014 30126.0356 -232.7283 -154.7275
ENERGY: 1200000 0.6112 7.2291 1.2512 0.0000 -10367.3296 1223.4820 0.0000 0.0000 1663.3402 -7471.4159 287.3432 -9134.7561 -7394.7003 298.6458 -1486.2761 -1473.3435 29975.6569 -303.1462 -235.8263
ENERGY: 1500000 0.1701 3.2833 2.7548 0.0000 -10490.4551 1333.2053 0.0000 0.0000 1730.7450 -7420.2965 298.9875 -9151.0415 -7393.0267 298.5509 -965.5615 -928.0638 30661.0240 -233.1717 -170.7592
TCL: Running FEP window   9: Lambda1 0.5999999999999996 Lambda2 0.5499999999999996 [dLambda -0.050000000000000044]
TCL: Setting parameter firsttimestep to 0
TCL: Setting parameter alchLambda to 0.5999999999999996
Info: NONBONDED TABLE R-SQUARED SPACING: 0.0625
Info: NONBONDED TABLE SIZE: 705 POINTS
TCL: Setting parameter alchLambda2 to 0.5499999999999996
Info: NONBONDED TABLE R-SQUARED SPACING: 0.0625
Info: NONBONDED TABLE SIZE: 705 POINTS
TCL: Running for 1500000 steps
ETITLE: TS BOND ANGLE DIHED IMPRP ELECT VDW BOUNDARY MISC KINETIC TOTAL TEMP POTENTIAL TOTALAVG TEMPAVG PRESSURE GPRESSURE VOLUME PRESSAVG GPRESSAVG
ENERGY: 0 0.1701 3.2833 2.7548 0.0000 -10490.4346 1333.5199 0.0000 0.0000 1729.9103 -7420.7961 298.8433 -9150.7064 -7420.7961 298.8433 -1004.2373 -928.7514 30661.0240 -1004.2373 -928.7514
ENERGY: 300000 0.8165 3.9335 1.5644 0.0000 -10580.6797 1421.2951 0.0000 0.0000 1669.6166 -7483.4535 288.4275 -9153.0701 -7426.0712 297.7705 -392.8199 -356.7171 30450.7301 -500.4337 -460.1185
ENERGY: 600000 0.1372 2.3008 1.3154 0.0000 -10586.9603 1451.3432 0.0000 0.0000 1644.8424 -7487.0212 284.1477 -9131.8637 -7407.0140 296.4848 65.1567 103.6164 30228.2540 -171.4857 -125.5863
ENERGY: 900000 0.1081 2.8853 1.2124 0.0000 -10424.9644 1291.3192 0.0000 0.0000 1763.3154 -7366.1239 304.6140 -9129.4393 -7398.5758 298.4191 -944.9608 -966.2223 30246.5142 -204.4901 -163.1598
ENERGY: 1200000 0.0165 3.8547 1.8495 0.0000 -10543.4381 1414.9809 0.0000 0.0000 1747.6725 -7375.0640 301.9117 -9122.7365 -7402.2812 298.7287 -284.7146 -170.5430 30436.8781 -219.8029 -166.8884
ENERGY: 1500000 0.4268 2.4997 2.3696 0.0000 -10548.3491 1432.8035 0.0000 0.0000 1719.8452 -7390.4043 297.1045 -9110.2495 -7401.4991 299.4779 52.0680 53.8422 30275.6719 -235.4161 -184.9882
TCL: Running FEP window  10: Lambda1 0.5499999999999996 Lambda2 0.4999999999999996 [dLambda -0.04999999999999999]
TCL: Setting parameter firsttimestep to 0
TCL: Setting parameter alchLambda to 0.5499999999999996
Info: NONBONDED TABLE R-SQUARED SPACING: 0.0625
Info: NONBONDED TABLE SIZE: 705 POINTS
TCL: Setting parameter alchLambda2 to 0.4999999999999996
Info: NONBONDED TABLE R-SQUARED SPACING: 0.0625
Info: NONBONDED TABLE SIZE: 705 POINTS
TCL: Running for 1500000 steps
ETITLE: TS BOND ANGLE DIHED IMPRP ELECT VDW BOUNDARY MISC KINETIC TOTAL TEMP POTENTIAL TOTALAVG TEMPAVG PRESSURE GPRESSURE VOLUME PRESSAVG GPRESSAVG
ENERGY: 0 0.4268 2.4997 2.3696 0.0000 -10548.1044 1432.5058 0.0000 0.0000 1718.9897 -7391.3128 296.9567 -9110.3025 -7391.3128 296.9567 -27.7123 47.6123 30275.6719 -27.7123 47.6123
ENERGY: 300000 0.2224 4.8008 2.0772 0.0000 -10576.7688 1467.6326 0.0000 0.0000 1697.8797 -7404.1561 293.3100 -9102.0358 -7460.5483 294.6980 541.9196 601.7297 29709.9222 190.4681 281.5140
ENERGY: 600000 0.9085 3.5305 2.6044 0.0000 -10544.8113 1397.5735 0.0000 0.0000 1778.9627 -7361.2317 307.3171 -9140.1944 -7417.8821 299.1387 -85.6793 -35.2105 29735.5818 262.7492 329.5835
ENERGY: 900000 0.4461 4.8133 1.3965 0.0000 -10552.8820 1425.9401 0.0000 0.0000 1752.2938 -7367.9920 302.7100 -9120.2859 -7422.2090 298.9978 89.4468 165.4835 29919.8456 274.1451 341.3784
ENERGY: 1200000 0.9208 6.1560 1.4914 0.0000 -10700.1241 1510.6494 0.0000 0.0000 1770.4014 -7410.5051 305.8381 -9180.9064 -7412.0947 300.3445 671.4356 709.6138 29749.5560 248.4312 312.9385
ENERGY: 1500000 2.3332 4.0922 1.1571 0.0000 -10442.1770 1341.1933 0.0000 0.0000 1715.0014 -7378.3999 296.2677 -9093.4012 -7405.7962 299.6807 -597.8789 -500.7421 30236.1071 191.4383 255.4849
TCL: Running FEP window  11: Lambda1 0.4999999999999996 Lambda2 0.4499999999999996 [dLambda -0.04999999999999999]
TCL: Setting parameter firsttimestep to 0
TCL: Setting parameter alchLambda to 0.4999999999999996
Info: NONBONDED TABLE R-SQUARED SPACING: 0.0625
Info: NONBONDED TABLE SIZE: 705 POINTS
TCL: Setting parameter alchLambda2 to 0.4499999999999996
Info: NONBONDED TABLE R-SQUARED SPACING: 0.0625
Info: NONBONDED TABLE SIZE: 705 POINTS
TCL: Running for 1500000 steps
ETITLE: TS BOND ANGLE DIHED IMPRP ELECT VDW BOUNDARY MISC KINETIC TOTAL TEMP POTENTIAL TOTALAVG TEMPAVG PRESSURE GPRESSURE VOLUME PRESSAVG GPRESSAVG
ENERGY: 0 2.3332 4.0922 1.1571 0.0000 -10442.6779 1340.2650 0.0000 0.0000 1714.1653 -7380.6651 296.1233 -9094.8304 -7380.6651 296.1233 -585.8468 -514.9748 30236.1071 -585.8468 -514.9748
ENERGY: 300000 1.0868 5.9024 0.8316 0.0000 -10475.6231 1404.4183 0.0000 0.0000 1742.8581 -7320.5257 301.0800 -9063.3839 -7365.7994 301.5725 0.2137 14.4723 30286.3959 -411.0424 -353.6488
ENERGY: 600000 2.7262 4.6637 2.0761 0.0000 -10583.2918 1404.1179 0.0000 0.0000 1750.0434 -7419.6644 302.3213 -9169.7079 -7372.9701 302.0891 -173.5787 -79.7769 30033.4658 -293.2028 -237.1604
ENERGY: 900000 0.2562 4.4071 1.6242 0.0000 -10607.8245 1503.6011 0.0000 0.0000 1719.0501 -7378.8857 296.9672 -9097.9359 -7389.5210 300.9090 587.3740 619.9652 30133.0062 -102.2670 -44.0160
ENERGY: 1200000 1.2908 5.0126 1.3728 0.0000 -10596.7141 1377.2392 0.0000 0.0000 1719.3065 -7492.4923 297.0115 -9211.7987 -7387.1267 300.9596 -529.9117 -475.9473 29851.4161 -105.9632 -48.1900
ENERGY: 1500000 3.4372 7.4968 1.6602 0.0000 -10498.9521 1325.5752 0.0000 0.0000 1753.7368 -7407.0460 302.9593 -9160.7828 -7382.1162 301.1997 -793.1718 -717.6108 29572.2879 -105.1159 -49.1039
TCL: Running FEP window  12: Lambda1 0.4499999999999996 Lambda2 0.39999999999999963 [dLambda -0.04999999999999999]
TCL: Setting parameter firsttimestep to 0
TCL: Setting parameter alchLambda to 0.4499999999999996
Info: NONBONDED TABLE R-SQUARED SPACING: 0.0625
Info: NONBONDED TABLE SIZE: 705 POINTS
TCL: Setting parameter alchLambda2 to 0.39999999999999963
Info: NONBONDED TABLE R-SQUARED SPACING: 0.0625
Info: NONBONDED TABLE SIZE: 705 POINTS
TCL: Running for 1500000 steps
ETITLE: TS BOND ANGLE DIHED IMPRP ELECT VDW BOUNDARY MISC KINETIC TOTAL TEMP POTENTIAL TOTALAVG TEMPAVG PRESSURE GPRESSURE VOLUME PRESSAVG GPRESSAVG
ENERGY: 0 3.4372 7.4968 1.6602 0.0000 -10498.9526 1325.7859 0.0000 0.0000 1752.8664 -7407.7062 302.8090 -9160.5726 -7407.7062 302.8090 -823.0765 -720.5858 29572.2879 -823.0765 -720.5858
ENERGY: 300000 0.5888 7.4213 1.4032 0.0000 -10541.1233 1440.1628 0.0000 0.0000 1717.4853 -7374.0618 296.6969 -9091.5471 -7360.0892 304.1631 181.9161 193.5682 30059.7035 -380.7777 -336.2771
ENERGY: 600000 3.1127 2.7683 1.1927 0.0000 -10532.6259 1351.7107 0.0000 0.0000 1754.9446 -7418.8968 303.1680 -9173.8414 -7378.2095 303.9137 -864.1270 -794.9418 30264.7370 -312.7823 -263.5953
ENERGY: 900000 1.5249 2.4061 1.0320 0.0000 -10592.2776 1399.5760 0.0000 0.0000 1773.0853 -7414.6533 306.3018 -9187.7386 -7385.5277 303.7683 -557.2825 -429.4494 30305.6352 -267.9034 -195.3801
ENERGY: 1200000 1.8591 3.5068 1.9794 0.0000 -10731.2777 1468.2475 0.0000 0.0000 1767.4248 -7488.2602 305.3239 -9255.6850 -7398.3307 303.0707 -7.2409 52.6756 29787.5122 -364.2844 -292.6997
ENERGY: 1500000 1.5806 4.7537 2.8473 0.0000 -10490.5741 1389.5198 0.0000 0.0000 1752.1253 -7339.7474 302.6809 -9091.8727 -7397.1644 303.0039 -94.8899 -27.8224 30017.0669 -241.2168 -172.9464
TCL: Running FEP window  13: Lambda1 0.39999999999999963 Lambda2 0.34999999999999964 [dLambda -0.04999999999999999]
TCL: Setting parameter firsttimestep to 0
TCL: Setting parameter alchLambda to 0.39999999999999963
Info: NONBONDED TABLE R-SQUARED SPACING: 0.0625
Info: NONBONDED TABLE SIZE: 705 POINTS
TCL: Setting parameter alchLambda2 to 0.34999999999999964
Info: NONBONDED TABLE R-SQUARED SPACING: 0.0625
Info: NONBONDED TABLE SIZE: 705 POINTS
TCL: Running for 1500000 steps
ETITLE: TS BOND ANGLE DIHED IMPRP ELECT VDW BOUNDARY MISC KINETIC TOTAL TEMP POTENTIAL TOTALAVG TEMPAVG PRESSURE GPRESSURE VOLUME PRESSAVG GPRESSAVG
ENERGY: 0 1.5806 4.7537 2.8473 0.0000 -10490.5749 1389.7213 0.0000 0.0000 1751.2500 -7340.4221 302.5297 -9091.6720 -7340.4221 302.5297 -125.0045 -32.0240 30017.0669 -125.0045 -32.0240
ENERGY: 300000 1.2467 2.7983 4.1625 0.0000 -10588.9395 1449.4956 0.0000 0.0000 1709.7009 -7421.5355 295.3521 -9131.2363 -7363.5740 304.4121 -212.1146 -113.0737 30299.5942 183.7147 262.0567
ENERGY: 600000 0.3408 3.8927 1.6173 0.0000 -10489.4418 1379.3561 0.0000 0.0000 1657.2642 -7446.9706 286.2936 -9104.2348 -7399.4534 299.7293 -410.2032 -328.9458 30173.7638 125.8862 200.4909
ENERGY: 900000 0.1277 2.7434 1.8011 0.0000 -10267.4399 1298.4457 0.0000 0.0000 1787.7276 -7176.5944 308.8313 -8964.3220 -7375.3212 300.8577 -684.9366 -639.8757 30411.1214 46.2149 130.3349
ENERGY: 1200000 0.2116 8.9618 2.6392 0.0000 -10555.9179 1422.7014 0.0000 0.0000 1752.0685 -7369.3354 302.6711 -9121.4039 -7378.1880 301.1876 -27.9841 5.0492 29891.9091 31.9428 113.6643
ENERGY: 1500000 0.6648 3.1302 1.2955 0.0000 -10622.6836 1429.5720 0.0000 0.0000 1712.1515 -7475.8695 295.7754 -9188.0211 -7379.0718 301.4245 -52.3951 -2.1851 29589.7287 81.5868 157.3014
TCL: Running FEP window  14: Lambda1 0.34999999999999964 Lambda2 0.29999999999999966 [dLambda -0.04999999999999999]
TCL: Setting parameter firsttimestep to 0
TCL: Setting parameter alchLambda to 0.34999999999999964
Info: NONBONDED TABLE R-SQUARED SPACING: 0.0625
Info: NONBONDED TABLE SIZE: 705 POINTS
TCL: Setting parameter alchLambda2 to 0.29999999999999966
Info: NONBONDED TABLE R-SQUARED SPACING: 0.0625
Info: NONBONDED TABLE SIZE: 705 POINTS
TCL: Running for 1500000 steps
ETITLE: TS BOND ANGLE DIHED IMPRP ELECT VDW BOUNDARY MISC KINETIC TOTAL TEMP POTENTIAL TOTALAVG TEMPAVG PRESSURE GPRESSURE VOLUME PRESSAVG GPRESSAVG
ENERGY: 0 0.6648 3.1302 1.2955 0.0000 -10622.6847 1428.8270 0.0000 0.0000 1711.2780 -7477.4893 295.6245 -9188.7672 -7477.4893 295.6245 -97.8683 -12.0299 29589.7287 -97.8683 -12.0299
ENERGY: 300000 1.0733 4.2791 2.2240 0.0000 -10462.5132 1349.6718 0.0000 0.0000 1762.1164 -7343.1486 304.4069 -9105.2650 -7410.9873 300.7216 -824.5183 -718.5776 30347.1629 -219.1071 -136.4639
ENERGY: 600000 0.5592 4.2476 0.8354 0.0000 -10578.6786 1466.0351 0.0000 0.0000 1786.1650 -7320.8363 308.5613 -9107.0013 -7390.2244 301.8911 644.6882 658.9384 29756.1259 50.2697 107.4669
ENERGY: 900000 1.0893 4.4948 2.1959 0.0000 -10469.0768 1333.7253 0.0000 0.0000 1728.6001 -7398.9714 298.6169 -9127.5715 -7387.7299 301.3039 -862.1265 -753.6265 29931.0902 -37.9256 30.0759
ENERGY: 1200000 0.1572 6.2928 2.4293 0.0000 -10563.0802 1429.6634 0.0000 0.0000 1758.3767 -7366.1606 303.7609 -9124.5374 -7393.1701 300.7893 139.3989 224.9013 29853.9040 -18.5409 50.2429
ENERGY: 1500000 0.4122 5.2979 1.7102 0.0000 -10519.9132 1387.4206 0.0000 0.0000 1716.8568 -7408.2155 296.5883 -9125.0723 -7389.4154 300.9543 -241.9204 -126.0190 29769.4096 31.5423 105.0834
TCL: Running FEP window  15: Lambda1 0.29999999999999966 Lambda2 0.24999999999999967 [dLambda -0.04999999999999999]
TCL: Setting parameter firsttimestep to 0
TCL: Setting parameter alchLambda to 0.29999999999999966
Info: NONBONDED TABLE R-SQUARED SPACING: 0.0625
Info: NONBONDED TABLE SIZE: 705 POINTS
TCL: Setting parameter alchLambda2 to 0.24999999999999967
Info: NONBONDED TABLE R-SQUARED SPACING: 0.0625
Info: NONBONDED TABLE SIZE: 705 POINTS
TCL: Running for 1500000 steps
ETITLE: TS BOND ANGLE DIHED IMPRP ELECT VDW BOUNDARY MISC KINETIC TOTAL TEMP POTENTIAL TOTALAVG TEMPAVG PRESSURE GPRESSURE VOLUME PRESSAVG GPRESSAVG
ENERGY: 0 0.4122 5.2979 1.7102 0.0000 -10519.9132 1387.2293 0.0000 0.0000 1716.0190 -7409.2447 296.4435 -9125.2636 -7409.2447 296.4435 -214.1708 -130.5490 29769.4096 -214.1708 -130.5490
ENERGY: 300000 0.8802 5.6773 1.8478 0.0000 -10546.9265 1425.2106 0.0000 0.0000 1801.1890 -7312.1216 311.1567 -9113.3106 -7370.4778 302.5995 -37.0939 49.2602 30060.9232 -93.0188 -42.6826
ENERGY: 600000 0.5303 4.7835 1.8833 0.0000 -10697.4505 1577.7016 0.0000 0.0000 1699.3398 -7413.2120 293.5622 -9112.5518 -7383.9810 300.9693 953.4883 1066.3832 30088.7668 63.4891 130.1672
ENERGY: 900000 1.8458 4.4096 1.1486 0.0000 -10545.9802 1399.2413 0.0000 0.0000 1745.8216 -7393.5133 301.5920 -9139.3348 -7390.5200 300.6100 -425.1976 -295.5149 30254.3274 15.5154 88.8457
ENERGY: 1200000 3.3558 4.0562 2.6916 0.0000 -10478.0548 1428.3265 0.0000 0.0000 1690.4590 -7349.1657 292.0280 -9039.6247 -7402.2444 299.0538 -35.5514 -27.0731 30232.3563 -14.5389 48.6164
ENERGY: 1500000 1.4427 3.7859 3.1349 0.0000 -10766.7951 1527.2447 0.0000 0.0000 1735.9346 -7495.2523 299.8840 -9231.1869 -7411.4847 299.0795 573.8773 590.2057 29725.9924 -1.2636 64.1894
TCL: Running FEP window  16: Lambda1 0.24999999999999967 Lambda2 0.19999999999999968 [dLambda -0.04999999999999999]
TCL: Setting parameter firsttimestep to 0
TCL: Setting parameter alchLambda to 0.24999999999999967
Info: NONBONDED TABLE R-SQUARED SPACING: 0.0625
Info: NONBONDED TABLE SIZE: 705 POINTS
TCL: Setting parameter alchLambda2 to 0.19999999999999968
Info: NONBONDED TABLE R-SQUARED SPACING: 0.0625
Info: NONBONDED TABLE SIZE: 705 POINTS
TCL: Running for 1500000 steps
ETITLE: TS BOND ANGLE DIHED IMPRP ELECT VDW BOUNDARY MISC KINETIC TOTAL TEMP POTENTIAL TOTALAVG TEMPAVG PRESSURE GPRESSURE VOLUME PRESSAVG GPRESSAVG
ENERGY: 0 1.4427 3.7859 3.1349 0.0000 -10766.7947 1527.0044 0.0000 0.0000 1735.0888 -7496.3381 299.7379 -9231.4269 -7496.3381 299.7379 499.9451 588.0935 29725.9924 499.9451 588.0935
ENERGY: 300000 2.0813 3.5957 1.9538 0.0000 -10597.9571 1427.6975 0.0000 0.0000 1708.9117 -7453.7171 295.2157 -9162.6287 -7440.9172 296.1829 10.4762 118.3658 29317.1628 18.5137 87.5527
ENERGY: 600000 0.7075 1.6099 1.3839 0.0000 -10647.4793 1498.5288 0.0000 0.0000 1775.7335 -7369.5157 306.7593 -9145.2492 -7409.5588 298.8250 757.9408 860.5167 29575.1831 -70.2633 -2.2400
ENERGY: 900000 0.8185 3.1780 2.7908 0.0000 -10488.1541 1400.6133 0.0000 0.0000 1764.1702 -7316.5832 304.7617 -9080.7535 -7395.9539 299.6360 -66.1208 -40.0096 29861.6140 -236.1640 -162.6677
ENERGY: 1200000 0.5151 3.9970 2.2836 0.0000 -10507.6997 1356.7666 0.0000 0.0000 1704.9461 -7439.1912 294.5307 -9144.1373 -7394.6395 299.1127 -663.1905 -588.2768 29839.2244 -268.2163 -196.1120
ENERGY: 1500000 0.5554 2.3839 1.6169 0.0000 -10539.2474 1384.0266 0.0000 0.0000 1760.7862 -7389.8784 304.1771 -9150.6646 -7395.1380 298.8330 -18.2190 8.0725 29409.4083 -229.6199 -154.8820
TCL: Running FEP window  17: Lambda1 0.19999999999999968 Lambda2 0.1499999999999997 [dLambda -0.04999999999999999]
TCL: Setting parameter firsttimestep to 0
TCL: Setting parameter alchLambda to 0.19999999999999968
Info: NONBONDED TABLE R-SQUARED SPACING: 0.0625
Info: NONBONDED TABLE SIZE: 705 POINTS
TCL: Setting parameter alchLambda2 to 0.1499999999999997
Info: NONBONDED TABLE R-SQUARED SPACING: 0.0625
Info: NONBONDED TABLE SIZE: 705 POINTS
TCL: Running for 1500000 steps
ETITLE: TS BOND ANGLE DIHED IMPRP ELECT VDW BOUNDARY MISC KINETIC TOTAL TEMP POTENTIAL TOTALAVG TEMPAVG PRESSURE GPRESSURE VOLUME PRESSAVG GPRESSAVG
ENERGY: 0 0.5554 2.3839 1.6169 0.0000 -10539.2485 1384.2219 0.0000 0.0000 1759.9551 -7390.5154 304.0335 -9150.4706 -7390.5154 304.0335 -80.1239 7.6075 29409.4083 -80.1239 7.6075
ENERGY: 300000 0.5654 1.8127 1.6651 0.0000 -10471.6601 1406.2151 0.0000 0.0000 1726.3471 -7335.0548 298.2277 -9061.4019 -7357.1852 303.8506 -234.2543 -198.0515 30366.6024 -66.4288 0.5630
ENERGY: 600000 0.6224 4.4612 1.4457 0.0000 -10707.9649 1539.5569 0.0000 0.0000 1633.1500 -7528.7286 282.1279 -9161.8787 -7378.9531 300.0197 712.6795 829.1084 29758.1981 -0.3241 60.3601
ENERGY: 900000 0.8077 2.3110 1.7399 0.0000 -10664.5702 1473.6136 0.0000 0.0000 1735.3029 -7450.7950 299.7749 -9186.0980 -7380.7813 300.5705 84.8434 199.5778 30120.6781 50.9684 119.0203
ENERGY: 1200000 1.0490 3.0698 2.0361 0.0000 -10552.8154 1418.7916 0.0000 0.0000 1676.0091 -7451.8598 289.5318 -9127.8689 -7391.0019 299.1152 -31.7100 35.1156 29802.4889 37.0792 106.6654
ENERGY: 1500000 0.9274 3.7658 2.6022 0.0000 -10631.2669 1419.2268 0.0000 0.0000 1712.0231 -7492.7216 295.7532 -9204.7447 -7398.8526 299.0208 -268.7628 -160.2418 29678.2066 27.3215 93.3604
TCL: Running FEP window  18: Lambda1 0.1499999999999997 Lambda2 0.09999999999999969 [dLambda -0.05 ]
TCL: Setting parameter firsttimestep to 0
TCL: Setting parameter alchLambda to 0.1499999999999997
Info: NONBONDED TABLE R-SQUARED SPACING: 0.0625
Info: NONBONDED TABLE SIZE: 705 POINTS
TCL: Setting parameter alchLambda2 to 0.09999999999999969
Info: NONBONDED TABLE R-SQUARED SPACING: 0.0625
Info: NONBONDED TABLE SIZE: 705 POINTS
TCL: Running for 1500000 steps
ETITLE: TS BOND ANGLE DIHED IMPRP ELECT VDW BOUNDARY MISC KINETIC TOTAL TEMP POTENTIAL TOTALAVG TEMPAVG PRESSURE GPRESSURE VOLUME PRESSAVG GPRESSAVG
ENERGY: 0 0.9274 3.7658 2.6022 0.0000 -10631.2664 1418.6252 0.0000 0.0000 1711.1370 -7494.2089 295.6002 -9205.3458 -7494.2089 295.6002 -252.6815 -166.3077 29678.2066 -252.6815 -166.3077
ENERGY: 300000 0.1076 5.6735 1.0306 0.0000 -10621.9583 1484.3253 0.0000 0.0000 1736.9508 -7393.8705 300.0595 -9130.8213 -7416.4037 297.8750 644.5951 651.1918 29788.2214 175.1079 217.9695
ENERGY: 600000 0.9010 5.6083 1.6266 0.0000 -10437.4182 1361.2075 0.0000 0.0000 1767.4387 -7300.6362 305.3263 -9068.0749 -7393.6415 300.6461 -320.6080 -257.3822 29866.3447 91.5797 129.1822
ENERGY: 900000 0.6485 3.5472 2.0550 0.0000 -10593.2897 1447.1649 0.0000 0.0000 1744.5528 -7395.3213 301.3728 -9139.8741 -7399.0130 301.0158 60.2402 91.5218 30109.8018 48.2389 92.1461
ENERGY: 1200000 0.9055 1.5429 1.9805 0.0000 -10592.0225 1457.6377 0.0000 0.0000 1753.8066 -7376.1492 302.9714 -9129.9559 -7406.8125 300.9103 -4.6398 113.2293 30211.6549 4.2020 58.5545
ENERGY: 1500000 0.0911 2.2073 3.2641 0.0000 -10594.2499 1482.3729 0.0000 0.0000 1729.2117 -7377.1027 298.7226 -9106.3144 -7405.7953 300.3315 529.5383 618.4369 29761.7631 -64.5568 1.5719
TCL: Running FEP window  19: Lambda1 0.09999999999999969 Lambda2 0.049999999999999684 [dLambda -0.05 ]
TCL: Setting parameter firsttimestep to 0
TCL: Setting parameter alchLambda to 0.09999999999999969
Info: NONBONDED TABLE R-SQUARED SPACING: 0.0625
Info: NONBONDED TABLE SIZE: 705 POINTS
TCL: Setting parameter alchLambda2 to 0.049999999999999684
Info: NONBONDED TABLE R-SQUARED SPACING: 0.0625
Info: NONBONDED TABLE SIZE: 705 POINTS
TCL: Running for 1500000 steps
ETITLE: TS BOND ANGLE DIHED IMPRP ELECT VDW BOUNDARY MISC KINETIC TOTAL TEMP POTENTIAL TOTALAVG TEMPAVG PRESSURE GPRESSURE VOLUME PRESSAVG GPRESSAVG
ENERGY: 0 0.0911 2.2073 3.2641 0.0000 -10594.2491 1481.6441 0.0000 0.0000 1728.3243 -7378.7181 298.5693 -9107.0424 -7378.7181 298.5693 544.3821 611.4318 29761.7631 544.3821 611.4318
ENERGY: 300000 1.0398 2.6914 1.7847 0.0000 -10468.1559 1369.0625 0.0000 0.0000 1699.6649 -7393.9126 293.6184 -9093.5775 -7393.1335 297.5802 -306.9507 -288.3529 29878.8370 594.4589 629.9515
ENERGY: 600000 1.7162 2.7611 2.4093 0.0000 -10579.6681 1393.4232 0.0000 0.0000 1761.8848 -7417.4735 304.3669 -9179.3583 -7379.6941 300.8425 128.4164 172.9810 29126.6223 289.8276 333.8297
ENERGY: 900000 0.3570 2.6837 1.2510 0.0000 -10554.1035 1430.0063 0.0000 0.0000 1739.6261 -7380.1794 300.5217 -9119.8055 -7382.5525 301.5906 218.8839 296.1184 29550.0425 197.9919 250.6820
ENERGY: 1200000 1.2645 4.9375 1.4354 0.0000 -10793.5879 1618.6469 0.0000 0.0000 1703.4553 -7463.8483 294.2732 -9167.3036 -7396.1679 300.2437 1568.1812 1611.6161 29596.2956 281.5324 325.0074
ENERGY: 1500000 0.9983 4.2602 3.0455 0.0000 -10563.8972 1437.1237 0.0000 0.0000 1781.5971 -7336.8723 307.7722 -9118.4695 -7385.7557 301.4564 192.6694 266.2700 29969.1406 121.2755 162.0552
TCL: Running FEP window  20: Lambda1 0.049999999999999684 Lambda2 0.0    [dLambda -0.049999999999999684]
TCL: Setting parameter firsttimestep to 0
TCL: Setting parameter alchLambda to 0.049999999999999684
Info: NONBONDED TABLE R-SQUARED SPACING: 0.0625
Info: NONBONDED TABLE SIZE: 705 POINTS
TCL: Setting parameter alchLambda2 to 0.0
Info: NONBONDED TABLE R-SQUARED SPACING: 0.0625
Info: NONBONDED TABLE SIZE: 705 POINTS
TCL: Running for 1500000 steps
ETITLE: TS BOND ANGLE DIHED IMPRP ELECT VDW BOUNDARY MISC KINETIC TOTAL TEMP POTENTIAL TOTALAVG TEMPAVG PRESSURE GPRESSURE VOLUME PRESSAVG GPRESSAVG
ENERGY: 0 0.9983 4.2602 3.0455 0.0000 -10563.8960 1436.5773 0.0000 0.0000 1780.7142 -7338.3005 307.6197 -9119.0147 -7338.3005 307.6197 174.3144 261.0527 29969.1406 174.3144 261.0527
ENERGY: 300000 1.4923 3.0275 2.1122 0.0000 -10522.1185 1442.8168 0.0000 0.0000 1692.2605 -7380.4092 292.3392 -9072.6697 -7375.5564 301.1581 198.5546 276.7670 29988.1254 117.5675 189.4635
ENERGY: 600000 1.9708 1.7473 2.2343 0.0000 -10582.8175 1423.8224 0.0000 0.0000 1735.4115 -7417.6313 299.7936 -9153.0428 -7398.2742 300.4924 -235.6794 -86.5357 29748.2756 74.1737 164.6352
ENERGY: 900000 1.4982 2.5711 1.1141 0.0000 -10536.1229 1360.1364 0.0000 0.0000 1725.1333 -7445.6699 298.0180 -9170.8031 -7397.4307 300.1634 -404.5897 -279.4488 29312.7664 -1.2042 79.8496
ENERGY: 1200000 0.5165 10.0703 2.1241 0.0000 -10499.9420 1382.7342 0.0000 0.0000 1672.3108 -7432.1861 288.8929 -9104.4969 -7409.8584 298.3940 -214.8421 -180.5030 29926.4178 -86.8515 -14.7475
ENERGY: 1500000 1.6671 5.3668 3.2623 0.0000 -10558.8103 1384.9336 0.0000 0.0000 1786.5837 -7376.9968 308.6336 -9163.5805 -7407.9953 299.3691 -233.9305 -189.0558 29717.5249 -95.0760 -32.1291
TCL: Exiting due to exit command.
