Info: SIMULATION PARAMETERS:
Info: TIMESTEP               2
Info: NUMBER OF STEPS        0
Info: STEPS PER CYCLE        10
Info: PERIODIC CELL BASIS 1  31.6473 0 0
Info: PERIODIC CELL BASIS 2  0 30.1135 0
Info: PERIODIC CELL BASIS 3  0 0 31.5163
Info: PERIODIC CELL CENTER   0 0 0
Info: WRAPPING WATERS AROUND PERIODIC BOUNDARIES ON OUTPUT.
Info: WRAPPING ALL CLUSTERS AROUND PERIODIC BOUNDARIES ON OUTPUT.
Info: FIRST LDB TIMESTEP     50
Info: LAST LDB TIMESTEP     -1
Info: HOM BACKGROUND SCALING 1
Info: PME BACKGROUND SCALING 1
Info: MIN ATOMS PER PATCH    40
Info: EMPTY PATCH LOAD       40 ATOMS
Info: VELOCITY FILE          mobley_1821184_equil.vel
Info: CENTER OF MASS MOVING INITIALLY? NO
Info: DIELECTRIC             1
Info: EXCLUDE                SCALED ONE-FOUR
Info: 1-4 ELECTROSTATICS SCALED BY 0.833333
Info: MODIFIED 1-4 VDW PARAMETERS WILL BE USED
Info: DCD FILENAME           mobley_1821184_prod.dcd
Info: DCD FREQUENCY          100000
Info: DCD FIRST STEP         100000
Info: DCD FILE WILL CONTAIN UNIT CELL DATA
Info: XST FILENAME           mobley_1821184_prod.xst
Info: XST FREQUENCY          100000
Info: NO VELOCITY DCD OUTPUT
Info: NO FORCE DCD OUTPUT
Info: OUTPUT FILENAME        mobley_1821184_prod
Info: BINARY OUTPUT FILES WILL BE USED
Info: RESTART FILENAME       mobley_1821184_prod.restart
Info: RESTART FREQUENCY      100000
Info: BINARY RESTART FILES WILL BE USED
Info: CUTOFF                 9
Info: PAIRLIST DISTANCE      11
Info: PAIRLIST SHRINK RATE   0.01
Info: PAIRLIST GROW RATE     0.01
Info: PAIRLIST TRIGGER       0.3
Info: PAIRLISTS PER CYCLE    2
Info: PAIRLISTS ENABLED
Info: MARGIN                 2
Info: HYDROGEN GROUP CUTOFF  2.5
Info: PATCH DIMENSION        15.5
Info: ENERGY OUTPUT STEPS    100000
Info: ENERGY EVALUATION STEPS    100000
Info: OUTPUT ENERGY PRECISION 4
Info: CROSSTERM ENERGY INCLUDED IN DIHEDRAL
Info: TIMING OUTPUT STEPS    1000000
Info: PRESSURE OUTPUT STEPS  100000
Info: ALCHEMICAL FEP ON
Info: FEP CURRENT LAMBDA VALUE     0
Info: FEP COMPARISON LAMBDA VALUE  0.05
Info: FEP INTRA-ALCHEMICAL NON-BONDED INTERACTIONS WILL BE RETAINED
Info: FEP INTRA-ALCHEMICAL BONDED INTERACTIONS WILL BE RETAINED
Info: FEP VDW SHIFTING COEFFICIENT 5
Info: FEP ELEC. ACTIVE FOR ANNIHILATED PARTICLES BETWEEN LAMBDA = 0 AND LAMBDA = 0.5
Info: FEP ELEC. ACTIVE FOR EXNIHILATED PARTICLES BETWEEN LAMBDA = 0.5 AND LAMBDA = 1
Info: FEP VDW ACTIVE FOR ANNIHILATED PARTICLES BETWEEN LAMBDA = 0 AND LAMBDA = 1
Info: FEP VDW ACTIVE FOR EXNIHILATED PARTICLES BETWEEN LAMBDA = 0 AND LAMBDA = 1
Info: FEP BOND ACTIVE FOR ANNIHILATED PARTICLES BETWEEN LAMBDA = 1 AND LAMBDA = 1
Info: FEP BOND ACTIVE FOR EXNIHILATED PARTICLES BETWEEN LAMBDA = 0 AND LAMBDA = 0
Info: LANGEVIN DYNAMICS ACTIVE
Info: LANGEVIN TEMPERATURE   300
Info: LANGEVIN USING BBK INTEGRATOR
Info: LANGEVIN DAMPING COEFFICIENT IS 1 INVERSE PS
Info: LANGEVIN DYNAMICS APPLIED TO HYDROGENS
Info: LANGEVIN PISTON PRESSURE CONTROL ACTIVE
Info:        TARGET PRESSURE IS 1.01325 BAR
Info:     OSCILLATION PERIOD IS 50 FS
Info:             DECAY TIME IS 25 FS
Info:     PISTON TEMPERATURE IS 300 K
Info:       PRESSURE CONTROL IS GROUP-BASED
Info:    INITIAL STRAIN RATE IS 0.000427367 0.000427367 0.000427367
Info:       CELL FLUCTUATION IS ISOTROPIC
Info: PARTICLE MESH EWALD (PME) ACTIVE
Info: PME TOLERANCE               1e-06
Info: PME EWALD COEFFICIENT       0.348832
Info: PME INTERPOLATION ORDER     4
Info: PME GRID DIMENSIONS         32 32 32
Info: PME MAXIMUM GRID SPACING    1
Info: PME CALCULATION WILL BE PERFORMED ON GPU
Info: FULL ELECTROSTATIC EVALUATION FREQUENCY      2
Info: USING VERLET I (r-RESPA) MTS SCHEME.
Info: C1 SPLITTING OF LONG RANGE ELECTROSTATICS
Info: PLACING ATOMS IN PATCHES BY HYDROGEN GROUPS
Info: RIGID BONDS TO HYDROGEN : ALL
Info:         ERROR TOLERANCE : 1e-08
Info:          MAX ITERATIONS : 100
Info: RIGID WATER USING SETTLE ALGORITHM
Info: RANDOM NUMBER SEED     1743606042
Info: USE HYDROGEN BONDS?    NO
Info: Using AMBER format force field!
Info: AMBER PARM FILE        mobley_1821184.prmtop
Info: COORDINATE PDB         mobley_1821184.pdb
Info: Exclusions will be read from PARM file!
Info: SCNB (VDW SCALING)     2
Info: USING ARITHMETIC MEAN TO COMBINE L-J SIGMA PARAMETERS
Info: BINARY COORDINATES     mobley_1821184_equil.coor
Info: SUMMARY OF PARAMETERS:
Info: 12 BONDS
Info: 15 ANGLES
Info:   15 HARMONIC
Info:   0 COSINE-BASED
Info: 7 DIHEDRAL
Info: 0 IMPROPER
Info: 0 CROSSTERM
Info: 0 VDW
Info: 45 VDW_PAIRS
Info: 0 NBTHOLE_PAIRS
Info: To read alchdata from file: mobley_1821184.pdb
Info: To read alchflag data from column: 5
Info: STRUCTURE SUMMARY:
Info: 2932 ATOMS
Info: 2933 BONDS
Info: 33 ANGLES
Info: 55 DIHEDRALS
Info: 0 IMPROPERS
Info: 0 CROSSTERMS
Info: 3004 EXCLUSIONS
Info: 2922 RIGID BONDS
Info: ALCH: 0 ATOMS TO DISAPPEAR IN FINAL STATE
Info: ALCH: 19 ATOMS TO APPEAR IN FINAL STATE
Info: 5874 DEGREES OF FREEDOM
Info: 981 HYDROGEN GROUPS
Info: 4 ATOMS IN LARGEST HYDROGEN GROUP
Info: 981 MIGRATION GROUPS
Info: 4 ATOMS IN LARGEST MIGRATION GROUP
Info: TOTAL MASS = 17624.7 amu
Info: TOTAL CHARGE = 9.99868e-05 e
Info: MASS DENSITY = 0.974425 g/cm^3
Info: ATOM DENSITY = 0.0976183 atoms/A^3
Info: ADDED 0 IMPLICIT EXCLUSIONS
Info: NONBONDED TABLE R-SQUARED SPACING: 0.0625
Info: NONBONDED TABLE SIZE: 705 POINTS
Info: REMOVING COM VELOCITY 0.180353 0.173325 0.138648
Info: Use 3D box decompostion in PME FFT.
Info: Updated CUDA force table with 4096 elements.
Info: Updated CUDA LJ table with 9 x 9 elements.
Info: Found 19 unique exclusion lists needing 52 bytes
TCL: Running for 1500000 steps
ETITLE: TS BOND ANGLE DIHED IMPRP ELECT VDW BOUNDARY MISC KINETIC TOTAL TEMP POTENTIAL TOTALAVG TEMPAVG PRESSURE GPRESSURE VOLUME PRESSAVG GPRESSAVG
ENERGY: 0 3.3712 19.9045 6.4240 0.0000 -10666.8322 1466.9455 0.0000 0.0000 1757.8626 -7412.3244 301.1906 -9170.1870 -7412.3244 301.1906 283.9700 367.1565 30035.3407 283.9700 367.1565
ENERGY: 300000 2.6881 15.7728 3.2194 0.0000 -10643.1956 1489.4206 0.0000 0.0000 1779.5845 -7352.5103 304.9124 -9132.0947 -7388.3321 299.0831 735.7688 831.7299 29592.9331 151.3447 239.3443
ENERGY: 600000 4.7225 13.5572 2.9153 0.0000 -10644.8606 1474.0186 0.0000 0.0000 1693.1828 -7456.4642 290.1084 -9149.6470 -7405.7843 296.8372 314.0330 308.8649 30176.0479 215.2151 289.2978
ENERGY: 900000 4.4354 13.0228 3.0734 0.0000 -10704.0778 1426.2000 0.0000 0.0000 1767.1728 -7490.1734 302.7858 -9257.3462 -7404.6926 297.9650 -112.2287 -73.9467 29510.2952 122.4759 196.6228
ENERGY: 1200000 3.3334 17.2529 5.1293 0.0000 -10713.7345 1477.5497 0.0000 0.0000 1750.0944 -7460.3749 299.8596 -9210.4693 -7416.6132 298.6783 90.1235 187.9368 29782.8854 51.9728 133.6128
ENERGY: 1500000 5.8569 13.8282 5.7805 0.0000 -10639.8321 1439.5830 0.0000 0.0000 1806.3857 -7368.3978 309.5045 -9174.7835 -7407.3448 299.1981 -219.5094 -126.6577 30405.5335 7.8483 87.3985
TCL: Running FEP window   2: Lambda1 0.05   Lambda2 0.1    [dLambda 0.05  ]
TCL: Setting parameter firsttimestep to 0
TCL: Setting parameter alchLambda to 0.05
Info: NONBONDED TABLE R-SQUARED SPACING: 0.0625
Info: NONBONDED TABLE SIZE: 705 POINTS
TCL: Setting parameter alchLambda2 to 0.1
Info: NONBONDED TABLE R-SQUARED SPACING: 0.0625
Info: NONBONDED TABLE SIZE: 705 POINTS
TCL: Running for 1500000 steps
ETITLE: TS BOND ANGLE DIHED IMPRP ELECT VDW BOUNDARY MISC KINETIC TOTAL TEMP POTENTIAL TOTALAVG TEMPAVG PRESSURE GPRESSURE VOLUME PRESSAVG GPRESSAVG
ENERGY: 0 5.8569 13.8282 5.7805 0.0000 -10639.8335 1444.0415 0.0000 0.0000 1805.4974 -7364.8290 309.3523 -9170.3263 -7364.8290 309.3523 -203.8841 -120.0039 30405.5335 -203.8841 -120.0039
ENERGY: 300000 4.3255 12.8717 5.5694 0.0000 -10569.3016 1367.0774 0.0000 0.0000 1730.6138 -7448.8439 296.5218 -9179.4577 -7410.8916 300.8138 -480.3779 -418.2019 29664.6837 -259.1235 -185.9600
ENERGY: 600000 6.2958 16.1681 4.0288 0.0000 -10615.3741 1443.2938 0.0000 0.0000 1747.1834 -7398.4042 299.3608 -9145.5876 -7423.4780 298.7093 -0.0548 36.8804 30120.5086 -185.9462 -121.3689
ENERGY: 900000 2.7960 15.8621 5.0201 0.0000 -10650.2641 1479.1184 0.0000 0.0000 1728.2826 -7419.1849 296.1224 -9147.4674 -7401.3594 299.5775 582.2917 640.3831 29642.4850 -129.4028 -70.7796
ENERGY: 1200000 5.0416 17.7102 5.3783 0.0000 -10641.7720 1483.6236 0.0000 0.0000 1731.6889 -7398.3294 296.7060 -9130.0184 -7408.7712 298.7309 469.6872 500.8215 30359.4579 -83.3645 -25.6952
ENERGY: 1500000 2.7372 19.5180 2.5361 0.0000 -10842.4566 1603.3843 0.0000 0.0000 1712.7613 -7501.5197 293.4630 -9214.2810 -7414.7257 298.4450 1187.2323 1350.2665 29480.2474 23.0512 83.9710
TCL: Running FEP window   3: Lambda1 0.1    Lambda2 0.15000000000000002 [dLambda 0.05000000000000002]
TCL: Setting parameter firsttimestep to 0
TCL: Setting parameter alchLambda to 0.1
Info: NONBONDED TABLE R-SQUARED SPACING: 0.0625
Info: NONBONDED TABLE SIZE: 705 POINTS
TCL: Setting parameter alchLambda2 to 0.15000000000000002
Info: NONBONDED TABLE R-SQUARED SPACING: 0.0625
Info: NONBONDED TABLE SIZE: 705 POINTS
TCL: Running for 1500000 steps
ETITLE: TS BOND ANGLE DIHED IMPRP ELECT VDW BOUNDARY MISC KINETIC TOTAL TEMP POTENTIAL TOTALAVG TEMPAVG PRESSURE GPRESSURE VOLUME PRESSAVG GPRESSAVG
ENERGY: 0 2.7372 19.5180 2.5361 0.0000 -10842.4573 1605.8990 0.0000 0.0000 1711.9146 -7499.8524 293.3179 -9211.7669 -7499.8524 293.3179 1280.5234 1363.5040 29480.2474 1280.5234 1363.5040
ENERGY: 300000 2.6687 18.3110 4.6600 0.0000 -10511.9305 1314.6057 0.0000 0.0000 1717.9895 -7453.6957 294.3588 -9171.6852 -7448.3785 296.7420 -1003.4719 -943.4832 30480.3000 -203.1407 -161.9756
ENERGY: 600000 2.5744 18.3126 4.4413 0.0000 -10557.3094 1409.9811 0.0000 0.0000 1712.7653 -7409.2346 293.4636 -9121.9999 -7430.5385 299.7843 -144.1619 -80.6258 29953.4609 -201.7034 -140.8910
ENERGY: 900000 5.8852 17.1433 3.0637 0.0000 -10486.2735 1394.1906 0.0000 0.0000 1717.2273 -7348.7634 294.2282 -9065.9907 -7404.0280 299.8670 -196.5019 -161.5002 30772.8268 -156.0241 -97.7619
ENERGY: 1200000 2.1303 15.3755 4.3368 0.0000 -10618.3985 1407.4437 0.0000 0.0000 1773.6286 -7415.4836 303.8919 -9189.1122 -7416.2184 299.4851 -140.3938 -34.0679 29767.4369 -174.8337 -112.5924
ENERGY: 1500000 7.9587 12.9085 5.9899 0.0000 -10610.7803 1466.3591 0.0000 0.0000 1741.6138 -7375.9502 298.4065 -9117.5641 -7408.2631 299.8143 446.5436 512.8990 29841.2258 -93.4347 -33.7554
TCL: Running FEP window   4: Lambda1 0.15000000000000002 Lambda2 0.2    [dLambda 0.04999999999999999]
TCL: Setting parameter firsttimestep to 0
TCL: Setting parameter alchLambda to 0.15000000000000002
Info: NONBONDED TABLE R-SQUARED SPACING: 0.0625
Info: NONBONDED TABLE SIZE: 705 POINTS
TCL: Setting parameter alchLambda2 to 0.2
Info: NONBONDED TABLE R-SQUARED SPACING: 0.0625
Info: NONBONDED TABLE SIZE: 705 POINTS
TCL: Running for 1500000 steps
ETITLE: TS BOND ANGLE DIHED IMPRP ELECT VDW BOUNDARY MISC KINETIC TOTAL TEMP POTENTIAL TOTALAVG TEMPAVG PRESSURE GPRESSURE VOLUME PRESSAVG GPRESSAVG
ENERGY: 0 7.9587 12.9085 5.9899 0.0000 -10610.7796 1468.3853 0.0000 0.0000 1740.7508 -7374.7865 298.2586 -9115.5373 -7374.7865 298.2586 422.4550 522.0799 29841.2258 422.4550 522.0799
ENERGY: 300000 2.4057 17.2395 8.0977 0.0000 -10640.1285 1463.4328 0.0000 0.0000 1761.2281 -7387.7248 301.7672 -9148.9529 -7357.5097 299.2280 298.2893 349.1327 30240.1488 -151.4581 -67.8936
ENERGY: 600000 2.2477 24.0998 2.7203 0.0000 -10516.8507 1426.4613 0.0000 0.0000 1777.5785 -7283.7430 304.5687 -9061.3215 -7355.0393 298.3890 140.3095 209.4731 30326.2305 -3.0917 87.4914
ENERGY: 900000 4.4357 16.7279 6.2029 0.0000 -10656.1457 1512.1534 0.0000 0.0000 1740.2955 -7376.3303 298.1806 -9116.6259 -7372.9321 299.6255 528.7508 588.7582 30278.7237 85.7657 173.6047
ENERGY: 1200000 2.0180 16.8052 1.9962 0.0000 -10479.4975 1331.5606 0.0000 0.0000 1694.6582 -7432.4593 290.3612 -9127.1175 -7378.9450 299.3835 -870.3732 -809.9014 30381.3893 -51.0840 32.5510
ENERGY: 1500000 6.3241 13.2477 3.8382 0.0000 -10640.4638 1464.0594 0.0000 0.0000 1676.9467 -7476.0477 287.3265 -9152.9944 -7381.8994 299.2560 -46.1410 3.1037 30201.0696 -45.7751 29.7772
TCL: Running FEP window   5: Lambda1 0.2    Lambda2 0.25   [dLambda 0.04999999999999999]
TCL: Setting parameter firsttimestep to 0
TCL: Setting parameter alchLambda to 0.2
Info: NONBONDED TABLE R-SQUARED SPACING: 0.0625
Info: NONBONDED TABLE SIZE: 705 POINTS
TCL: Setting parameter alchLambda2 to 0.25
Info: NONBONDED TABLE R-SQUARED SPACING: 0.0625
Info: NONBONDED TABLE SIZE: 705 POINTS
TCL: Running for 1500000 steps
ETITLE: TS BOND ANGLE DIHED IMPRP ELECT VDW BOUNDARY MISC KINETIC TOTAL TEMP POTENTIAL TOTALAVG TEMPAVG PRESSURE GPRESSURE VOLUME PRESSAVG GPRESSAVG
ENERGY: 0 6.3241 13.2477 3.8382 0.0000 -10640.4636 1464.6597 0.0000 0.0000 1676.0827 -7476.3113 287.1785 -9152.3939 -7476.3113 287.1785 -60.1310 8.4085 30201.0696 -60.1310 8.4085
ENERGY: 300000 8.0441 17.4855 4.6347 0.0000 -10594.2776 1375.2455 0.0000 0.0000 1745.0914 -7443.7763 299.0024 -9188.8677 -7441.3346 295.5352 -709.1105 -653.9886 30015.8863 -267.9516 -198.1104
ENERGY: 600000 2.6504 18.3119 3.6091 0.0000 -10636.3317 1447.9361 0.0000 0.0000 1763.5390 -7400.2851 302.1632 -9163.8242 -7422.8518 298.4286 195.1533 310.4609 30074.0765 -195.4773 -107.1493
ENERGY: 900000 4.1210 16.0459 2.9909 0.0000 -10618.1392 1420.6650 0.0000 0.0000 1773.7189 -7400.5974 303.9074 -9174.3163 -7409.0918 300.1496 2.3449 102.7551 30023.3226 -132.6905 -44.2522
ENERGY: 1200000 2.2118 15.4667 3.7828 0.0000 -10795.4967 1550.3248 0.0000 0.0000 1726.3987 -7497.3120 295.7996 -9223.7107 -7397.0505 299.9034 1107.5638 1131.0380 29453.1387 -76.2412 8.5364
ENERGY: 1500000 5.7919 16.7227 6.4405 0.0000 -10575.9897 1375.8302 0.0000 0.0000 1718.3101 -7452.8942 294.4137 -9171.2044 -7398.2762 299.9258 -192.6920 -144.6349 29494.9031 -143.4426 -66.5525
TCL: Running FEP window   6: Lambda1 0.25   Lambda2 0.3    [dLambda 0.04999999999999999]
TCL: Setting parameter firsttimestep to 0
TCL: Setting parameter alchLambda to 0.25
Info: NONBONDED TABLE R-SQUARED SPACING: 0.0625
Info: NONBONDED TABLE SIZE: 705 POINTS
TCL: Setting parameter alchLambda2 to 0.3
Info: NONBONDED TABLE R-SQUARED SPACING: 0.0625
Info: NONBONDED TABLE SIZE: 705 POINTS
TCL: Running for 1500000 steps
ETITLE: TS BOND ANGLE DIHED IMPRP ELECT VDW BOUNDARY MISC KINETIC TOTAL TEMP POTENTIAL TOTALAVG TEMPAVG PRESSURE GPRESSURE VOLUME PRESSAVG GPRESSAVG
ENERGY: 0 5.7919 16.7227 6.4405 0.0000 -10575.9902 1376.1208 0.0000 0.0000 1717.4087 -7453.5056 294.2592 -9170.9143 -7453.5056 294.2592 -217.5363 -137.3868 29494.9031 -217.5363 -137.3868
ENERGY: 300000 3.5832 18.3864 4.6298 0.0000 -10791.9226 1513.0954 0.0000 0.0000 1762.9608 -7489.2670 302.0641 -9252.2277 -7440.6379 301.6245 650.0567 729.4790 29461.2225 304.9948 353.0118
ENERGY: 600000 5.8869 18.0417 5.2612 0.0000 -10697.8727 1527.3914 0.0000 0.0000 1794.3585 -7346.9331 307.4437 -9141.2915 -7395.7585 302.8394 908.8530 968.2054 29996.1099 452.3568 499.0829
ENERGY: 900000 5.6765 14.8072 2.6553 0.0000 -10679.8850 1499.8541 0.0000 0.0000 1720.7139 -7436.1780 294.8255 -9156.8919 -7402.6493 302.3689 37.7743 88.6073 30725.1398 88.1738 136.8567
ENERGY: 1200000 3.6483 16.2878 4.3227 0.0000 -10672.7876 1521.8727 0.0000 0.0000 1760.5155 -7366.1406 301.6451 -9126.6561 -7394.4972 302.3273 927.4547 1011.9679 29790.4377 109.1500 162.6393
ENERGY: 1500000 2.0396 21.7740 5.6792 0.0000 -10621.1284 1468.3455 0.0000 0.0000 1749.8105 -7373.4796 299.8109 -9123.2901 -7395.8069 302.0978 400.6941 383.4699 30521.4949 158.2954 201.3545
TCL: Running FEP window   7: Lambda1 0.3    Lambda2 0.35   [dLambda 0.04999999999999999]
TCL: Setting parameter firsttimestep to 0
TCL: Setting parameter alchLambda to 0.3
Info: NONBONDED TABLE R-SQUARED SPACING: 0.0625
Info: NONBONDED TABLE SIZE: 705 POINTS
TCL: Setting parameter alchLambda2 to 0.35
Info: NONBONDED TABLE R-SQUARED SPACING: 0.0625
Info: NONBONDED TABLE SIZE: 705 POINTS
TCL: Running for 1500000 steps
ETITLE: TS BOND ANGLE DIHED IMPRP ELECT VDW BOUNDARY MISC KINETIC TOTAL TEMP POTENTIAL TOTALAVG TEMPAVG PRESSURE GPRESSURE VOLUME PRESSAVG GPRESSAVG
ENERGY: 0 2.0396 21.7740 5.6792 0.0000 -10621.1278 1468.6056 0.0000 0.0000 1748.9040 -7374.1255 299.6556 -9123.0294 -7374.1255 299.6556 313.6151 387.1050 30521.4949 313.6151 387.1050
ENERGY: 300000 5.3959 17.1769 4.6773 0.0000 -10561.9625 1350.2003 0.0000 0.0000 1723.9543 -7460.5578 295.3808 -9184.5121 -7402.5800 297.6296 -709.8317 -650.3818 30213.3668 66.5825 133.1752
ENERGY: 600000 3.7322 14.9794 3.3090 0.0000 -10673.1581 1362.4885 0.0000 0.0000 1725.9092 -7562.7396 295.7157 -9288.6488 -7425.3541 299.6701 -1009.5687 -934.9547 29681.0069 2.0450 67.6887
ENERGY: 900000 3.6115 14.8279 3.6026 0.0000 -10618.4733 1394.9391 0.0000 0.0000 1719.3421 -7482.1500 294.5905 -9201.4921 -7415.9549 300.6572 -321.6076 -319.7613 29986.3916 -53.2708 -6.8641
ENERGY: 1200000 5.4304 17.5726 7.3740 0.0000 -10588.7424 1446.7857 0.0000 0.0000 1747.1520 -7364.4278 299.3554 -9111.5798 -7402.1485 301.1322 176.4422 228.7362 30205.5713 -8.1333 44.7539
ENERGY: 1500000 5.1049 17.4601 5.3342 0.0000 -10702.8146 1487.5724 0.0000 0.0000 1731.8627 -7455.4803 296.7358 -9187.3430 -7399.4057 301.6436 486.9110 519.2199 29984.2999 14.0365 74.5798
TCL: Running FEP window   8: Lambda1 0.35   Lambda2 0.39999999999999997 [dLambda 0.04999999999999999]
TCL: Setting parameter firsttimestep to 0
TCL: Setting parameter alchLambda to 0.35
Info: NONBONDED TABLE R-SQUARED SPACING: 0.0625
Info: NONBONDED TABLE SIZE: 705 POINTS
TCL: Setting parameter alchLambda2 to 0.39999999999999997
Info: NONBONDED TABLE R-SQUARED SPACING: 0.0625
Info: NONBONDED TABLE SIZE: 705 POINTS
TCL: Running for 1500000 steps
ETITLE: TS BOND ANGLE DIHED IMPRP ELECT VDW BOUNDARY MISC KINETIC TOTAL TEMP POTENTIAL TOTALAVG TEMPAVG PRESSURE GPRESSURE VOLUME PRESSAVG GPRESSAVG
ENERGY: 0 5.1049 17.4601 5.3342 0.0000 -10702.8142 1487.2264 0.0000 0.0000 1730.9854 -7456.7032 296.5855 -9187.6886 -7456.7032 296.5855 441.7118 522.6406 29984.2999 441.7118 522.6406
ENERGY: 300000 4.4683 17.2405 3.4275 0.0000 -10466.5595 1415.7154 0.0000 0.0000 1720.5211 -7305.1868 294.7925 -9025.7078 -7370.2933 298.3377 252.9261 319.9041 30431.4140 251.4867 316.2278
ENERGY: 600000 2.7294 14.3358 2.6280 0.0000 -10573.9565 1379.0110 0.0000 0.0000 1769.2145 -7406.0379 303.1356 -9175.2524 -7386.7853 299.9070 -543.4703 -476.6207 30385.3376 124.3763 178.8237
ENERGY: 900000 5.6340 18.8483 3.7313 0.0000 -10606.4260 1416.3387 0.0000 0.0000 1735.6028 -7426.2708 297.3766 -9161.8737 -7386.4955 299.5650 -305.1081 -273.1680 30402.3178 92.2125 147.0370
ENERGY: 1200000 4.8897 21.8053 2.8482 0.0000 -10658.0795 1449.7726 0.0000 0.0000 1747.1796 -7431.5841 299.3602 -9178.7637 -7393.2131 299.7780 -35.3903 49.0858 30417.3878 97.1591 155.2004
ENERGY: 1500000 6.3013 16.4222 4.3012 0.0000 -10560.0863 1368.6417 0.0000 0.0000 1733.5986 -7430.8213 297.0332 -9164.4199 -7388.3845 300.5727 -464.9484 -358.8130 30482.3995 60.0162 120.7335
TCL: Running FEP window   9: Lambda1 0.39999999999999997 Lambda2 0.44999999999999996 [dLambda 0.04999999999999999]
TCL: Setting parameter firsttimestep to 0
TCL: Setting parameter alchLambda to 0.39999999999999997
Info: NONBONDED TABLE R-SQUARED SPACING: 0.0625
Info: NONBONDED TABLE SIZE: 705 POINTS
TCL: Setting parameter alchLambda2 to 0.44999999999999996
Info: NONBONDED TABLE R-SQUARED SPACING: 0.0625
Info: NONBONDED TABLE SIZE: 705 POINTS
TCL: Running for 1500000 steps
ETITLE: TS BOND ANGLE DIHED IMPRP ELECT VDW BOUNDARY MISC KINETIC TOTAL TEMP POTENTIAL TOTALAVG TEMPAVG PRESSURE GPRESSURE VOLUME PRESSAVG GPRESSAVG
ENERGY: 0 6.3013 16.4222 4.3012 0.0000 -10560.0876 1368.3300 0.0000 0.0000 1732.7256 -7432.0073 296.8836 -9164.7329 -7432.0073 296.8836 -434.3210 -354.6381 30482.3995 -434.3210 -354.6381
ENERGY: 300000 4.6530 23.3376 7.7423 0.0000 -10483.6635 1381.5019 0.0000 0.0000 1778.6752 -7287.7534 304.7566 -9066.4286 -7398.1424 300.0158 -310.7874 -318.0417 30230.7752 -469.0682 -418.7010
ENERGY: 600000 2.0540 18.9029 3.7212 0.0000 -10543.5035 1404.6954 0.0000 0.0000 1802.4508 -7311.6792 308.8303 -9114.1299 -7382.3134 302.7457 85.8133 116.9351 29848.6898 -169.0578 -115.5063
ENERGY: 900000 4.1900 20.8481 2.0206 0.0000 -10624.0713 1414.4469 0.0000 0.0000 1735.8176 -7446.7480 297.4134 -9182.5656 -7385.7356 302.3715 -13.6834 94.2639 29699.4585 -36.8327 28.4564
ENERGY: 1200000 6.3931 15.2318 4.4809 0.0000 -10522.8704 1320.1966 0.0000 0.0000 1777.0111 -7399.5569 304.4715 -9176.5680 -7383.2505 301.7538 -1195.3125 -1126.7553 30717.7694 -161.8432 -96.6352
ENERGY: 1500000 6.9706 17.5452 1.5484 0.0000 -10551.8355 1361.7500 0.0000 0.0000 1770.0811 -7393.9403 303.2841 -9164.0214 -7380.3494 302.0598 -451.9292 -385.7911 30045.2845 -74.6279 -19.5400
TCL: Running FEP window  10: Lambda1 0.44999999999999996 Lambda2 0.49999999999999994 [dLambda 0.04999999999999999]
TCL: Setting parameter firsttimestep to 0
TCL: Setting parameter alchLambda to 0.44999999999999996
Info: NONBONDED TABLE R-SQUARED SPACING: 0.0625
Info: NONBONDED TABLE SIZE: 705 POINTS
TCL: Setting parameter alchLambda2 to 0.49999999999999994
Info: NONBONDED TABLE R-SQUARED SPACING: 0.0625
Info: NONBONDED TABLE SIZE: 705 POINTS
TCL: Running for 1500000 steps
ETITLE: TS BOND ANGLE DIHED IMPRP ELECT VDW BOUNDARY MISC KINETIC TOTAL TEMP POTENTIAL TOTALAVG TEMPAVG PRESSURE GPRESSURE VOLUME PRESSAVG GPRESSAVG
ENERGY: 0 6.9706 17.5452 1.5484 0.0000 -10551.8352 1362.5057 0.0000 0.0000 1769.2300 -7394.0354 303.1382 -9163.2654 -7394.0354 303.1382 -466.4399 -377.3612 30045.2845 -466.4399 -377.3612
ENERGY: 300000 5.1754 15.3354 5.5310 0.0000 -10555.9294 1410.0459 0.0000 0.0000 1712.7167 -7407.1251 293.4553 -9119.8418 -7409.9069 301.9403 -37.4565 85.5812 30038.5938 -115.9742 -29.9579
ENERGY: 600000 4.7662 17.5591 2.0008 0.0000 -10523.4715 1379.2739 0.0000 0.0000 1713.5756 -7406.2960 293.6025 -9119.8716 -7401.3158 300.0258 -221.7213 -181.0644 30247.9083 -230.7987 -160.2896
ENERGY: 900000 7.2481 15.5019 6.0435 0.0000 -10586.9195 1431.6721 0.0000 0.0000 1728.2627 -7398.1912 296.1190 -9126.4539 -7414.6563 298.0301 320.6875 370.3051 29621.5755 -191.6631 -126.5199
ENERGY: 1200000 5.1634 17.0391 4.2814 0.0000 -10678.6109 1412.9261 0.0000 0.0000 1763.2231 -7475.9777 302.1090 -9239.2008 -7435.2587 297.5320 -152.9822 -60.4541 29921.5333 -240.3454 -175.5655
ENERGY: 1500000 6.3776 16.4138 2.5972 0.0000 -10551.0036 1370.6512 0.0000 0.0000 1753.4153 -7401.5486 300.4286 -9154.9638 -7427.3828 298.4679 -800.9301 -731.3204 30585.4632 -215.1853 -153.0744
TCL: Running FEP window  11: Lambda1 0.49999999999999994 Lambda2 0.5499999999999999 [dLambda 0.04999999999999999]
TCL: Setting parameter firsttimestep to 0
TCL: Setting parameter alchLambda to 0.49999999999999994
Info: NONBONDED TABLE R-SQUARED SPACING: 0.0625
Info: NONBONDED TABLE SIZE: 705 POINTS
TCL: Setting parameter alchLambda2 to 0.5499999999999999
Info: NONBONDED TABLE R-SQUARED SPACING: 0.0625
Info: NONBONDED TABLE SIZE: 705 POINTS
TCL: Running for 1500000 steps
ETITLE: TS BOND ANGLE DIHED IMPRP ELECT VDW BOUNDARY MISC KINETIC TOTAL TEMP POTENTIAL TOTALAVG TEMPAVG PRESSURE GPRESSURE VOLUME PRESSAVG GPRESSAVG
ENERGY: 0 6.3776 16.4138 2.5972 0.0000 -10551.0030 1370.4400 0.0000 0.0000 1752.5826 -7402.5919 300.2859 -9155.1745 -7402.5919 300.2859 -809.0904 -727.8768 30585.4632 -809.0904 -727.8768
ENERGY: 300000 3.2242 15.4678 2.4444 0.0000 -10585.9218 1417.7526 0.0000 0.0000 1768.5870 -7378.4458 303.0281 -9147.0328 -7375.4701 301.9098 -261.9221 -171.2813 30502.7308 -477.8567 -406.1807
ENERGY: 600000 3.3625 16.7854 2.9075 0.0000 -10446.6148 1292.9359 0.0000 0.0000 1764.9124 -7365.7110 302.3985 -9130.6234 -7372.0654 302.3568 -988.2192 -891.8186 30110.8615 -521.8165 -437.1112
ENERGY: 900000 5.5301 13.4849 1.7076 0.0000 -10636.7322 1429.3332 0.0000 0.0000 1742.0672 -7444.6092 298.4842 -9186.6764 -7384.1547 302.2264 -202.8648 -148.8963 30336.0267 -495.9630 -419.2569
ENERGY: 1200000 4.1147 18.7057 2.2401 0.0000 -10538.6891 1390.2670 0.0000 0.0000 1769.7425 -7353.6192 303.2261 -9123.3617 -7383.0424 302.0094 -319.7244 -202.5204 30360.2293 -469.2074 -396.2698
ENERGY: 1500000 5.4622 17.6515 2.3113 0.0000 -10354.7125 1323.4077 0.0000 0.0000 1710.3974 -7295.4825 293.0579 -9005.8798 -7382.2488 301.7453 -442.3882 -428.9797 30335.4610 -453.3957 -383.7956
TCL: Running FEP window  12: Lambda1 0.5499999999999999 Lambda2 0.6    [dLambda 0.050000000000000044]
TCL: Setting parameter firsttimestep to 0
TCL: Setting parameter alchLambda to 0.5499999999999999
Info: NONBONDED TABLE R-SQUARED SPACING: 0.0625
Info: NONBONDED TABLE SIZE: 705 POINTS
TCL: Setting parameter alchLambda2 to 0.6
Info: NONBONDED TABLE R-SQUARED SPACING: 0.0625
Info: NONBONDED TABLE SIZE: 705 POINTS
TCL: Running for 1500000 steps
ETITLE: TS BOND ANGLE DIHED IMPRP ELECT VDW BOUNDARY MISC KINETIC TOTAL TEMP POTENTIAL TOTALAVG TEMPAVG PRESSURE GPRESSURE VOLUME PRESSAVG GPRESSAVG
ENERGY: 0 5.4622 17.6515 2.3113 0.0000 -10354.5778 1323.3078 0.0000 0.0000 1709.5209 -7296.3241 292.9077 -9005.8450 -7296.3241 292.9077 -520.6395 -419.0196 30335.4610 -520.6395 -419.0196
ENERGY: 300000 8.0811 14.3817 3.8922 0.0000 -10519.4450 1366.8631 0.0000 0.0000 1694.9547 -7431.2721 290.4120 -9126.2268 -7390.5223 295.9086 -577.7732 -524.5505 30473.0248 -297.1041 -234.4469
ENERGY: 600000 6.8501 16.7814 3.1606 0.0000 -10711.1309 1499.2334 0.0000 0.0000 1742.6617 -7442.4436 298.5861 -9185.1053 -7399.5277 296.7159 653.8020 697.0191 29845.1594 -133.2322 -68.3656
ENERGY: 900000 3.3903 16.1218 4.8928 0.0000 -10624.2877 1427.7565 0.0000 0.0000 1769.4650 -7402.6613 303.1785 -9172.1263 -7403.8907 298.3412 -86.4086 -26.5052 30389.3603 -119.3916 -62.0478
ENERGY: 1200000 6.2686 17.2142 0.7734 0.0000 -10565.8130 1375.3368 0.0000 0.0000 1700.3679 -7465.8521 291.3395 -9166.2200 -7408.2924 297.8781 -503.1088 -440.6310 30427.0280 -202.8537 -139.0711
ENERGY: 1500000 4.8345 12.8065 4.0446 0.0000 -10665.9596 1428.4513 0.0000 0.0000 1720.5283 -7495.2944 294.7937 -9215.8227 -7406.1872 297.4628 -228.2102 -231.2025 30206.1440 -261.5384 -209.2540
TCL: Running FEP window  13: Lambda1 0.6    Lambda2 0.65   [dLambda 0.050000000000000044]
TCL: Setting parameter firsttimestep to 0
TCL: Setting parameter alchLambda to 0.6
Info: NONBONDED TABLE R-SQUARED SPACING: 0.0625
Info: NONBONDED TABLE SIZE: 705 POINTS
TCL: Setting parameter alchLambda2 to 0.65
Info: NONBONDED TABLE R-SQUARED SPACING: 0.0625
Info: NONBONDED TABLE SIZE: 705 POINTS
TCL: Running for 1500000 steps
ETITLE: TS BOND ANGLE DIHED IMPRP ELECT VDW BOUNDARY MISC KINETIC TOTAL TEMP POTENTIAL TOTALAVG TEMPAVG PRESSURE GPRESSURE VOLUME PRESSAVG GPRESSAVG
ENERGY: 0 4.8345 12.8065 4.0446 0.0000 -10665.8474 1427.9668 0.0000 0.0000 1719.6838 -7496.5111 294.6491 -9216.1950 -7496.5111 294.6491 -313.7640 -227.4339 30206.1440 -313.7640 -227.4339
ENERGY: 300000 3.0880 19.0996 5.8372 0.0000 -10635.7406 1428.3524 0.0000 0.0000 1734.4863 -7444.8771 297.1853 -9179.3634 -7447.3077 297.6865 157.4794 205.6226 29787.5652 -223.8687 -149.2402
ENERGY: 600000 3.8297 18.5936 1.9029 0.0000 -10475.3050 1345.4184 0.0000 0.0000 1792.2657 -7313.2947 307.0852 -9105.5604 -7407.9103 299.6171 -632.4971 -612.9344 30606.6599 -361.3434 -309.1067
ENERGY: 900000 5.0050 16.4299 4.6124 0.0000 -10615.2747 1435.1993 0.0000 0.0000 1731.6335 -7422.3946 296.6965 -9154.0281 -7412.4338 299.0124 -295.3141 -209.3194 30560.6183 -129.2643 -68.3357
ENERGY: 1200000 3.6962 15.5492 4.7523 0.0000 -10600.3892 1404.8780 0.0000 0.0000 1733.9554 -7437.5582 297.0943 -9171.5135 -7412.1817 298.9690 -149.8945 -157.1652 30109.6217 -143.9052 -97.2129
ENERGY: 1500000 5.0058 16.8223 6.0969 0.0000 -10494.7430 1367.5871 0.0000 0.0000 1745.5959 -7353.6350 299.0888 -9099.2309 -7408.3754 298.8427 -422.1777 -369.9606 30345.2408 -89.7788 -46.6519
TCL: Running FEP window  14: Lambda1 0.65   Lambda2 0.7000000000000001 [dLambda 0.050000000000000044]
TCL: Setting parameter firsttimestep to 0
TCL: Setting parameter alchLambda to 0.65
Info: NONBONDED TABLE R-SQUARED SPACING: 0.0625
Info: NONBONDED TABLE SIZE: 705 POINTS
TCL: Setting parameter alchLambda2 to 0.7000000000000001
Info: NONBONDED TABLE R-SQUARED SPACING: 0.0625
Info: NONBONDED TABLE SIZE: 705 POINTS
TCL: Running for 1500000 steps
ETITLE: TS BOND ANGLE DIHED IMPRP ELECT VDW BOUNDARY MISC KINETIC TOTAL TEMP POTENTIAL TOTALAVG TEMPAVG PRESSURE GPRESSURE VOLUME PRESSAVG GPRESSAVG
ENERGY: 0 5.0058 16.8223 6.0969 0.0000 -10495.7347 1368.6232 0.0000 0.0000 1744.6917 -7354.4948 298.9339 -9099.1865 -7354.4948 298.9339 -433.8720 -351.1629 30345.2408 -433.8720 -351.1629
ENERGY: 300000 1.8589 18.8218 2.8337 0.0000 -10577.2541 1353.7822 0.0000 0.0000 1770.2473 -7429.7102 303.3125 -9199.9575 -7367.7351 302.4834 -495.6691 -360.7458 29933.6203 -252.1242 -157.3847
ENERGY: 600000 4.0979 14.6413 3.3642 0.0000 -10687.1533 1493.0733 0.0000 0.0000 1761.0925 -7410.8841 301.7440 -9171.9766 -7417.3549 299.8459 555.8094 659.4069 29964.0891 -115.2832 -25.1847
ENERGY: 900000 6.0392 15.9453 2.7529 0.0000 -10567.1180 1379.2336 0.0000 0.0000 1752.9665 -7410.1805 300.3517 -9163.1470 -7405.6788 300.2707 -336.5627 -251.2169 30190.9453 -79.9805 -11.4798
ENERGY: 1200000 5.4426 21.5539 1.4238 0.0000 -10685.8030 1479.2667 0.0000 0.0000 1750.2091 -7427.9069 299.8792 -9178.1160 -7411.5001 299.9977 392.8726 456.2925 30120.2657 -89.9477 -23.7948
ENERGY: 1500000 3.8048 14.4835 1.4426 0.0000 -10446.0739 1296.8198 0.0000 0.0000 1728.4838 -7401.0394 296.1568 -9129.5232 -7404.4746 300.3917 -950.9025 -911.0774 30165.0662 -185.8444 -122.9870
TCL: Running FEP window  15: Lambda1 0.7000000000000001 Lambda2 0.7500000000000001 [dLambda 0.050000000000000044]
TCL: Setting parameter firsttimestep to 0
TCL: Setting parameter alchLambda to 0.7000000000000001
Info: NONBONDED TABLE R-SQUARED SPACING: 0.0625
Info: NONBONDED TABLE SIZE: 705 POINTS
TCL: Setting parameter alchLambda2 to 0.7500000000000001
Info: NONBONDED TABLE R-SQUARED SPACING: 0.0625
Info: NONBONDED TABLE SIZE: 705 POINTS
TCL: Running for 1500000 steps
ETITLE: TS BOND ANGLE DIHED IMPRP ELECT VDW BOUNDARY MISC KINETIC TOTAL TEMP POTENTIAL TOTALAVG TEMPAVG PRESSURE GPRESSURE VOLUME PRESSAVG GPRESSAVG
ENERGY: 0 3.8048 14.4835 1.4426 0.0000 -10447.7083 1297.1510 0.0000 0.0000 1727.6270 -7403.1995 296.0100 -9130.8264 -7403.1995 296.0100 -972.4103 -899.4033 30165.0662 -972.4103 -899.4033
ENERGY: 300000 6.9165 18.6231 5.3617 0.0000 -10715.5299 1483.0213 0.0000 0.0000 1769.6347 -7431.9728 303.2076 -9201.6074 -7416.2547 297.9981 305.2680 370.7390 30095.9234 -488.5234 -431.6148
ENERGY: 600000 1.7748 19.4010 3.2488 0.0000 -10605.8857 1430.4128 0.0000 0.0000 1757.3029 -7393.7455 301.0947 -9151.0483 -7407.2304 299.8235 115.6490 82.5527 30378.2763 -305.5857 -254.3261
ENERGY: 900000 3.9756 14.8304 4.6677 0.0000 -10718.1425 1447.5745 0.0000 0.0000 1770.0425 -7477.0518 303.2775 -9247.0943 -7424.0412 300.0345 202.6310 204.9390 29588.3735 -295.0091 -247.4452
ENERGY: 1200000 10.3689 16.5184 5.0612 0.0000 -10660.0724 1411.2212 0.0000 0.0000 1773.1676 -7443.7350 303.8129 -9216.9026 -7409.1308 300.7217 -301.3619 -246.4021 30120.0979 -249.6321 -203.9929
ENERGY: 1500000 5.5107 16.4544 5.0914 0.0000 -10574.4541 1419.5011 0.0000 0.0000 1714.8785 -7413.0181 293.8257 -9127.8965 -7402.9798 300.3957 -323.7131 -228.6180 30922.7841 -195.2443 -145.2110
TCL: Running FEP window  16: Lambda1 0.7500000000000001 Lambda2 0.8000000000000002 [dLambda 0.050000000000000044]
TCL: Setting parameter firsttimestep to 0
TCL: Setting parameter alchLambda to 0.7500000000000001
Info: NONBONDED TABLE R-SQUARED SPACING: 0.0625
Info: NONBONDED TABLE SIZE: 705 POINTS
TCL: Setting parameter alchLambda2 to 0.8000000000000002
Info: NONBONDED TABLE R-SQUARED SPACING: 0.0625
Info: NONBONDED TABLE SIZE: 705 POINTS
TCL: Running for 1500000 steps
ETITLE: TS BOND ANGLE DIHED IMPRP ELECT VDW BOUNDARY MISC KINETIC TOTAL TEMP POTENTIAL TOTALAVG TEMPAVG PRESSURE GPRESSURE VOLUME PRESSAVG GPRESSAVG
ENERGY: 0 5.5107 16.4544 5.0914 0.0000 -10575.6141 1419.8405 0.0000 0.0000 1713.9958 -7414.7213 293.6745 -9128.7171 -7414.7213 293.6745 -305.3972 -216.2013 30922.7841 -305.3972 -216.2013
ENERGY: 300000 4.7361 16.3757 4.2177 0.0000 -10605.0297 1406.2007 0.0000 0.0000 1748.3416 -7425.1579 299.5592 -9173.4995 -7402.5736 299.6353 -225.2651 -161.7682 30366.4334 171.9141 232.2323
ENERGY: 600000 4.1730 20.6359 5.6125 0.0000 -10608.1866 1478.8963 0.0000 0.0000 1765.3190 -7333.5498 302.4681 -9098.8688 -7387.4683 300.9444 408.1321 492.5006 30321.4241 87.7511 154.1095
ENERGY: 900000 5.8367 17.4033 6.1294 0.0000 -10735.7577 1486.6809 0.0000 0.0000 1774.9090 -7444.7984 304.1113 -9219.7074 -7407.7365 300.3201 510.6934 537.2385 29623.8976 141.6111 211.0040
ENERGY: 1200000 3.9636 20.2892 1.2878 0.0000 -10620.0300 1385.6013 0.0000 0.0000 1751.1141 -7457.7740 300.0343 -9208.8881 -7410.7747 300.4923 -244.8471 -254.0458 30080.7189 117.8478 186.2216
ENERGY: 1500000 4.9446 13.3372 7.7457 0.0000 -10601.5475 1392.9316 0.0000 0.0000 1747.8028 -7434.7856 299.4669 -9182.5884 -7413.1806 300.1172 -224.2607 -166.2511 29846.2669 47.8919 113.8151
TCL: Running FEP window  17: Lambda1 0.8000000000000002 Lambda2 0.8500000000000002 [dLambda 0.050000000000000044]
TCL: Setting parameter firsttimestep to 0
TCL: Setting parameter alchLambda to 0.8000000000000002
Info: NONBONDED TABLE R-SQUARED SPACING: 0.0625
Info: NONBONDED TABLE SIZE: 705 POINTS
TCL: Setting parameter alchLambda2 to 0.8500000000000002
Info: NONBONDED TABLE R-SQUARED SPACING: 0.0625
Info: NONBONDED TABLE SIZE: 705 POINTS
TCL: Running for 1500000 steps
ETITLE: TS BOND ANGLE DIHED IMPRP ELECT VDW BOUNDARY MISC KINETIC TOTAL TEMP POTENTIAL TOTALAVG TEMPAVG PRESSURE GPRESSURE VOLUME PRESSAVG GPRESSAVG
ENERGY: 0 4.9446 13.3372 7.7457 0.0000 -10603.3463 1393.2874 0.0000 0.0000 1746.9471 -7437.0842 299.3203 -9184.0313 -7437.0842 299.3203 -241.5303 -154.8086 29846.2669 -241.5303 -154.8086
ENERGY: 300000 2.9744 18.2367 5.8959 0.0000 -10639.2107 1428.9044 0.0000 0.0000 1735.6820 -7447.5173 297.3902 -9183.1993 -7383.4004 297.8333 -172.0869 -34.6264 30134.4917 -258.4245 -194.7439
ENERGY: 600000 2.6343 19.8921 4.9207 0.0000 -10660.4218 1383.1205 0.0000 0.0000 1785.5866 -7464.2676 305.9408 -9249.8542 -7416.0144 298.6062 -273.7715 -218.9162 29675.5530 -416.1068 -354.0481
ENERGY: 900000 8.0106 17.1515 4.6974 0.0000 -10625.9833 1491.5349 0.0000 0.0000 1702.7930 -7401.7959 291.7550 -9104.5889 -7412.7483 298.4734 413.0203 505.9489 30376.1273 -308.6258 -247.3497
ENERGY: 1200000 6.4028 14.6465 4.2200 0.0000 -10588.0744 1416.7516 0.0000 0.0000 1742.0071 -7404.0464 298.4739 -9146.0535 -7405.5712 299.5201 222.6109 253.3962 30242.9037 -264.0888 -198.6493
ENERGY: 1500000 1.9280 15.0309 1.9323 0.0000 -10630.6684 1464.7131 0.0000 0.0000 1767.7170 -7379.3473 302.8790 -9147.0642 -7400.3465 299.9105 420.2404 504.8653 30153.6494 -295.0920 -232.1431
TCL: Running FEP window  18: Lambda1 0.8500000000000002 Lambda2 0.9000000000000002 [dLambda 0.050000000000000044]
TCL: Setting parameter firsttimestep to 0
TCL: Setting parameter alchLambda to 0.8500000000000002
Info: NONBONDED TABLE R-SQUARED SPACING: 0.0625
Info: NONBONDED TABLE SIZE: 705 POINTS
TCL: Setting parameter alchLambda2 to 0.9000000000000002
Info: NONBONDED TABLE R-SQUARED SPACING: 0.0625
Info: NONBONDED TABLE SIZE: 705 POINTS
TCL: Running for 1500000 steps
ETITLE: TS BOND ANGLE DIHED IMPRP ELECT VDW BOUNDARY MISC KINETIC TOTAL TEMP POTENTIAL TOTALAVG TEMPAVG PRESSURE GPRESSURE VOLUME PRESSAVG GPRESSAVG
ENERGY: 0 1.9280 15.0309 1.9322 0.0000 -10633.8898 1467.4524 0.0000 0.0000 1766.8333 -7380.7130 302.7276 -9147.5464 -7380.7130 302.7276 449.3247 541.0837 30153.6494 449.3247 541.0837
ENERGY: 300000 3.5589 15.7496 2.6477 0.0000 -10645.4593 1478.7332 0.0000 0.0000 1768.3640 -7376.4060 302.9899 -9144.7700 -7371.1321 300.6974 496.0788 506.5368 30103.1487 332.7982 400.9934
ENERGY: 600000 3.7143 17.4337 2.5972 0.0000 -10587.3522 1385.3741 0.0000 0.0000 1730.7811 -7447.4518 296.5505 -9178.2330 -7390.5707 299.4602 -327.0937 -311.7600 30384.6590 223.8186 287.2431
ENERGY: 900000 10.9280 13.3244 6.0369 0.0000 -10523.0711 1330.4449 0.0000 0.0000 1732.3316 -7430.0052 296.8161 -9162.3368 -7403.2556 299.5622 -1058.9018 -989.4961 30506.7048 47.3495 111.8296
ENERGY: 1200000 4.7296 17.8980 2.8038 0.0000 -10570.3968 1390.0318 0.0000 0.0000 1746.8121 -7408.1215 299.2972 -9154.9336 -7399.3071 299.6900 -442.4567 -388.6064 30315.2339 -10.2463 55.2644
ENERGY: 1500000 2.0926 18.5798 3.4539 0.0000 -10727.3945 1455.0253 0.0000 0.0000 1746.7858 -7501.4571 299.2927 -9248.2429 -7400.8903 300.4961 165.8421 300.6252 29829.5687 -70.1959 -2.1901
TCL: Running FEP window  19: Lambda1 0.9000000000000002 Lambda2 0.9500000000000003 [dLambda 0.050000000000000044]
TCL: Setting parameter firsttimestep to 0
TCL: Setting parameter alchLambda to 0.9000000000000002
Info: NONBONDED TABLE R-SQUARED SPACING: 0.0625
Info: NONBONDED TABLE SIZE: 705 POINTS
TCL: Setting parameter alchLambda2 to 0.9500000000000003
Info: NONBONDED TABLE R-SQUARED SPACING: 0.0625
Info: NONBONDED TABLE SIZE: 705 POINTS
TCL: Running for 1500000 steps
ETITLE: TS BOND ANGLE DIHED IMPRP ELECT VDW BOUNDARY MISC KINETIC TOTAL TEMP POTENTIAL TOTALAVG TEMPAVG PRESSURE GPRESSURE VOLUME PRESSAVG GPRESSAVG
ENERGY: 0 2.0926 18.5798 3.4539 0.0000 -10729.1554 1454.9863 0.0000 0.0000 1745.8852 -7504.1577 299.1384 -9250.0429 -7504.1577 299.1384 216.7922 312.1381 29829.5687 216.7922 312.1381
ENERGY: 300000 3.0688 16.8412 2.4271 0.0000 -10606.7699 1425.0954 0.0000 0.0000 1787.3156 -7372.0217 306.2370 -9159.3373 -7446.8106 300.5020 184.8035 252.7372 29961.1472 -238.6545 -174.2075
ENERGY: 600000 4.1221 16.2681 4.2070 0.0000 -10666.3197 1471.1690 0.0000 0.0000 1711.9177 -7458.6359 293.3184 -9170.5536 -7419.9797 299.7502 -5.9458 162.0771 30169.4855 -206.8586 -137.2755
ENERGY: 900000 3.0995 19.7262 5.3945 0.0000 -10528.9923 1346.9714 0.0000 0.0000 1816.4636 -7337.3371 311.2312 -9153.8007 -7412.8704 299.7653 -747.7485 -650.9057 30537.8901 -164.6351 -90.3232
ENERGY: 1200000 8.4086 15.6729 1.7644 0.0000 -10607.1075 1410.4131 0.0000 0.0000 1772.0758 -7398.7727 303.6258 -9170.8485 -7411.5751 300.6285 93.0014 155.5717 30026.9017 -84.5931 -13.7164
ENERGY: 1500000 5.1689 14.3068 2.3262 0.0000 -10497.0126 1307.7087 0.0000 0.0000 1724.8617 -7442.6403 295.5362 -9167.5020 -7418.0120 299.8885 -1179.3566 -1035.0931 30641.9727 -127.4514 -53.2100
TCL: Running FEP window  20: Lambda1 0.9500000000000003 Lambda2 1.0    [dLambda 0.04999999999999971]
TCL: Setting parameter firsttimestep to 0
TCL: Setting parameter alchLambda to 0.9500000000000003
Info: NONBONDED TABLE R-SQUARED SPACING: 0.0625
Info: NONBONDED TABLE SIZE: 705 POINTS
TCL: Setting parameter alchLambda2 to 1.0
Info: NONBONDED TABLE R-SQUARED SPACING: 0.0625
Info: NONBONDED TABLE SIZE: 705 POINTS
TCL: Running for 1500000 steps
ETITLE: TS BOND ANGLE DIHED IMPRP ELECT VDW BOUNDARY MISC KINETIC TOTAL TEMP POTENTIAL TOTALAVG TEMPAVG PRESSURE GPRESSURE VOLUME PRESSAVG GPRESSAVG
ENERGY: 0 5.1689 14.3068 2.3262 0.0000 -10499.5465 1308.9372 0.0000 0.0000 1724.0058 -7444.8016 295.3896 -9168.8074 -7444.8016 295.3896 -1106.3401 -1009.7554 30641.9727 -1106.3401 -1009.7554
ENERGY: 300000 3.1190 18.5416 4.3008 0.0000 -10505.9171 1380.5722 0.0000 0.0000 1727.4132 -7371.9702 295.9734 -9099.3834 -7411.9410 298.5259 -311.8287 -191.7654 30527.3721 -267.7574 -151.9908
ENERGY: 600000 5.1493 15.0333 3.5509 0.0000 -10679.0534 1455.9497 0.0000 0.0000 1732.6120 -7466.7582 296.8642 -9199.3703 -7435.1945 298.0654 181.2543 269.1697 30117.7893 -77.4559 16.2912
ENERGY: 900000 5.3087 13.6795 2.4719 0.0000 -10583.9737 1386.4064 0.0000 0.0000 1744.0850 -7432.0222 298.8299 -9176.1072 -7429.8929 298.3818 -224.6634 -246.8407 30421.0683 -77.9164 -3.2764
ENERGY: 1200000 4.7346 18.9945 4.7999 0.0000 -10527.5917 1384.6476 0.0000 0.0000 1766.9103 -7347.5047 302.7408 -9114.4150 -7421.7826 299.3778 -289.1918 -177.1922 30491.6336 -156.4257 -86.4167
ENERGY: 1500000 6.1344 15.8482 3.7399 0.0000 -10577.4095 1392.3979 0.0000 0.0000 1773.8724 -7385.4167 303.9337 -9159.2891 -7420.5137 300.0027 -241.8493 -174.0614 30130.8835 -173.7525 -96.2512
TCL: Exiting due to exit command.
