Info: SIMULATION PARAMETERS:
Info: TIMESTEP               2
Info: NUMBER OF STEPS        0
Info: STEPS PER CYCLE        10
Info: PERIODIC CELL BASIS 1  31.9802 0 0
Info: PERIODIC CELL BASIS 2  0 34.0961 0
Info: PERIODIC CELL BASIS 3  0 0 27.398
Info: PERIODIC CELL CENTER   0 0 0
Info: WRAPPING WATERS AROUND PERIODIC BOUNDARIES ON OUTPUT.
Info: WRAPPING ALL CLUSTERS AROUND PERIODIC BOUNDARIES ON OUTPUT.
Info: FIRST LDB TIMESTEP     50
Info: LAST LDB TIMESTEP     -1
Info: HOM BACKGROUND SCALING 1
Info: PME BACKGROUND SCALING 1
Info: MIN ATOMS PER PATCH    40
Info: EMPTY PATCH LOAD       40 ATOMS
Info: VELOCITY FILE          mobley_4149784_equil.vel
Info: CENTER OF MASS MOVING INITIALLY? NO
Info: DIELECTRIC             1
Info: EXCLUDE                SCALED ONE-FOUR
Info: 1-4 ELECTROSTATICS SCALED BY 0.833333
Info: MODIFIED 1-4 VDW PARAMETERS WILL BE USED
Info: DCD FILENAME           mobley_4149784_prod.dcd
Info: DCD FREQUENCY          100000
Info: DCD FIRST STEP         100000
Info: DCD FILE WILL CONTAIN UNIT CELL DATA
Info: XST FILENAME           mobley_4149784_prod.xst
Info: XST FREQUENCY          100000
Info: NO VELOCITY DCD OUTPUT
Info: NO FORCE DCD OUTPUT
Info: OUTPUT FILENAME        mobley_4149784_prod
Info: BINARY OUTPUT FILES WILL BE USED
Info: RESTART FILENAME       mobley_4149784_prod.restart
Info: RESTART FREQUENCY      100000
Info: BINARY RESTART FILES WILL BE USED
Info: CUTOFF                 9
Info: PAIRLIST DISTANCE      11
Info: PAIRLIST SHRINK RATE   0.01
Info: PAIRLIST GROW RATE     0.01
Info: PAIRLIST TRIGGER       0.3
Info: PAIRLISTS PER CYCLE    2
Info: PAIRLISTS ENABLED
Info: MARGIN                 2
Info: HYDROGEN GROUP CUTOFF  2.5
Info: PATCH DIMENSION        15.5
Info: ENERGY OUTPUT STEPS    100000
Info: ENERGY EVALUATION STEPS    100000
Info: OUTPUT ENERGY PRECISION 4
Info: CROSSTERM ENERGY INCLUDED IN DIHEDRAL
Info: TIMING OUTPUT STEPS    1000000
Info: PRESSURE OUTPUT STEPS  100000
Info: ALCHEMICAL FEP ON
Info: FEP CURRENT LAMBDA VALUE     1
Info: FEP COMPARISON LAMBDA VALUE  0.95
Info: FEP INTRA-ALCHEMICAL NON-BONDED INTERACTIONS WILL BE RETAINED
Info: FEP INTRA-ALCHEMICAL BONDED INTERACTIONS WILL BE RETAINED
Info: FEP VDW SHIFTING COEFFICIENT 5
Info: FEP ELEC. ACTIVE FOR ANNIHILATED PARTICLES BETWEEN LAMBDA = 0 AND LAMBDA = 0.5
Info: FEP ELEC. ACTIVE FOR EXNIHILATED PARTICLES BETWEEN LAMBDA = 0.5 AND LAMBDA = 1
Info: FEP VDW ACTIVE FOR ANNIHILATED PARTICLES BETWEEN LAMBDA = 0 AND LAMBDA = 1
Info: FEP VDW ACTIVE FOR EXNIHILATED PARTICLES BETWEEN LAMBDA = 0 AND LAMBDA = 1
Info: FEP BOND ACTIVE FOR ANNIHILATED PARTICLES BETWEEN LAMBDA = 1 AND LAMBDA = 1
Info: FEP BOND ACTIVE FOR EXNIHILATED PARTICLES BETWEEN LAMBDA = 0 AND LAMBDA = 0
Info: LANGEVIN DYNAMICS ACTIVE
Info: LANGEVIN TEMPERATURE   300
Info: LANGEVIN USING BBK INTEGRATOR
Info: LANGEVIN DAMPING COEFFICIENT IS 1 INVERSE PS
Info: LANGEVIN DYNAMICS APPLIED TO HYDROGENS
Info: LANGEVIN PISTON PRESSURE CONTROL ACTIVE
Info:        TARGET PRESSURE IS 1.01325 BAR
Info:     OSCILLATION PERIOD IS 50 FS
Info:             DECAY TIME IS 25 FS
Info:     PISTON TEMPERATURE IS 300 K
Info:       PRESSURE CONTROL IS GROUP-BASED
Info:    INITIAL STRAIN RATE IS -0.00019985 -0.00019985 -0.00019985
Info:       CELL FLUCTUATION IS ISOTROPIC
Info: PARTICLE MESH EWALD (PME) ACTIVE
Info: PME TOLERANCE               1e-06
Info: PME EWALD COEFFICIENT       0.348832
Info: PME INTERPOLATION ORDER     4
Info: PME GRID DIMENSIONS         32 36 28
Info: PME MAXIMUM GRID SPACING    1
Info: PME CALCULATION WILL BE PERFORMED ON GPU
Info: FULL ELECTROSTATIC EVALUATION FREQUENCY      2
Info: USING VERLET I (r-RESPA) MTS SCHEME.
Info: C1 SPLITTING OF LONG RANGE ELECTROSTATICS
Info: PLACING ATOMS IN PATCHES BY HYDROGEN GROUPS
Info: RIGID BONDS TO HYDROGEN : ALL
Info:         ERROR TOLERANCE : 1e-08
Info:          MAX ITERATIONS : 100
Info: RIGID WATER USING SETTLE ALGORITHM
Info: RANDOM NUMBER SEED     1743646114
Info: USE HYDROGEN BONDS?    NO
Info: Using AMBER format force field!
Info: AMBER PARM FILE        mobley_4149784.prmtop
Info: COORDINATE PDB         mobley_4149784.pdb
Info: Exclusions will be read from PARM file!
Info: SCNB (VDW SCALING)     2
Info: USING ARITHMETIC MEAN TO COMBINE L-J SIGMA PARAMETERS
Info: BINARY COORDINATES     mobley_4149784_equil.coor
Info: SUMMARY OF PARAMETERS:
Info: 6 BONDS
Info: 5 ANGLES
Info:   5 HARMONIC
Info:   0 COSINE-BASED
Info: 3 DIHEDRAL
Info: 0 IMPROPER
Info: 0 CROSSTERM
Info: 0 VDW
Info: 21 VDW_PAIRS
Info: 0 NBTHOLE_PAIRS
Info: To read alchdata from file: mobley_4149784.pdb
Info: To read alchflag data from column: 5
Info: STRUCTURE SUMMARY:
Info: 2953 ATOMS
Info: 2955 BONDS
Info: 38 ANGLES
Info: 68 DIHEDRALS
Info: 0 IMPROPERS
Info: 0 CROSSTERMS
Info: 3040 EXCLUSIONS
Info: 2937 RIGID BONDS
Info: ALCH: 0 ATOMS TO DISAPPEAR IN FINAL STATE
Info: ALCH: 22 ATOMS TO APPEAR IN FINAL STATE
Info: 5922 DEGREES OF FREEDOM
Info: 993 HYDROGEN GROUPS
Info: 3 ATOMS IN LARGEST HYDROGEN GROUP
Info: 993 MIGRATION GROUPS
Info: 3 ATOMS IN LARGEST MIGRATION GROUP
Info: TOTAL MASS = 17854.7 amu
Info: TOTAL CHARGE = 9.99607e-05 e
Info: MASS DENSITY = 0.992443 g/cm^3
Info: ATOM DENSITY = 0.0988456 atoms/A^3
Info: ADDED 0 IMPLICIT EXCLUSIONS
Info: NONBONDED TABLE R-SQUARED SPACING: 0.0625
Info: NONBONDED TABLE SIZE: 705 POINTS
Info: REDUCING NUMBER OF PATCHES TO IMPROVE LOAD BALANCE
Info: REMOVING COM VELOCITY 0.0124836 -0.136064 0.127536
Info: Use 3D box decompostion in PME FFT.
Info: Updated CUDA force table with 4096 elements.
Info: Updated CUDA LJ table with 6 x 6 elements.
Info: Found 24 unique exclusion lists needing 68 bytes
TCL: Running for 1500000 steps
ETITLE: TS BOND ANGLE DIHED IMPRP ELECT VDW BOUNDARY MISC KINETIC TOTAL TEMP POTENTIAL TOTALAVG TEMPAVG PRESSURE GPRESSURE VOLUME PRESSAVG GPRESSAVG
ENERGY: 0 3.5160 6.0036 1.6197 0.0000 -10670.4181 1387.4473 0.0000 0.0000 1806.2241 -7465.6074 306.9684 -9271.8315 -7465.6074 306.9684 -151.7910 -60.1694 29874.8788 -151.7910 -60.1694
ENERGY: 300000 5.4241 6.0191 8.0934 0.0000 -10715.9793 1473.6746 0.0000 0.0000 1756.2662 -7466.5019 298.4780 -9222.7681 -7483.2592 297.5465 578.9808 567.9134 30039.4070 -19.7422 38.1192
ENERGY: 600000 3.8682 6.8746 3.8615 0.0000 -10621.8452 1363.3153 0.0000 0.0000 1761.0881 -7482.8374 299.2975 -9243.9255 -7457.1191 299.7163 -465.3901 -379.1886 30771.2889 -243.2851 -178.6152
ENERGY: 900000 9.7127 5.9589 4.2498 0.0000 -10701.1714 1407.3529 0.0000 0.0000 1735.7058 -7538.1914 294.9838 -9273.8972 -7483.0366 298.1598 -526.0402 -449.7105 30433.8146 -243.5816 -166.0875
ENERGY: 1200000 5.2448 7.5044 5.9750 0.0000 -10710.5026 1453.0183 0.0000 0.0000 1810.2603 -7428.4997 307.6543 -9238.7600 -7469.9974 299.4228 -254.2064 -211.2415 30861.9222 -355.5180 -286.9688
ENERGY: 1500000 3.5647 6.3379 7.2844 0.0000 -10832.0154 1476.5680 0.0000 0.0000 1691.8273 -7646.4332 287.5266 -9338.2605 -7483.9544 297.8885 33.6921 156.9312 30315.7417 -224.1497 -157.6946
TCL: Running FEP window   2: Lambda1 0.95   Lambda2 0.8999999999999999 [dLambda -0.050000000000000044]
TCL: Setting parameter firsttimestep to 0
TCL: Setting parameter alchLambda to 0.95
Info: NONBONDED TABLE R-SQUARED SPACING: 0.0625
Info: NONBONDED TABLE SIZE: 705 POINTS
TCL: Setting parameter alchLambda2 to 0.8999999999999999
Info: NONBONDED TABLE R-SQUARED SPACING: 0.0625
Info: NONBONDED TABLE SIZE: 705 POINTS
TCL: Running for 1500000 steps
ETITLE: TS BOND ANGLE DIHED IMPRP ELECT VDW BOUNDARY MISC KINETIC TOTAL TEMP POTENTIAL TOTALAVG TEMPAVG PRESSURE GPRESSURE VOLUME PRESSAVG GPRESSAVG
ENERGY: 0 3.5647 6.3379 7.2844 0.0000 -10830.9514 1475.8772 0.0000 0.0000 1690.9663 -7646.9209 287.3803 -9337.8872 -7646.9209 287.3803 47.8824 130.7770 30315.7417 47.8824 130.7770
ENERGY: 300000 8.6699 3.7185 7.6737 0.0000 -10689.1231 1404.9728 0.0000 0.0000 1765.8219 -7498.2664 300.1020 -9264.0883 -7534.5545 293.6593 -171.8705 -89.0801 30279.5152 -249.9318 -170.6571
ENERGY: 600000 4.9348 5.1854 3.2688 0.0000 -10715.3608 1489.6790 0.0000 0.0000 1764.9909 -7447.3018 299.9608 -9212.2927 -7499.1040 296.4174 525.5181 585.4562 30159.7602 -145.8825 -78.1897
ENERGY: 900000 4.4689 5.7640 4.3993 0.0000 -10680.9014 1392.7053 0.0000 0.0000 1793.8504 -7479.7134 304.8654 -9273.5638 -7482.9358 298.4713 -541.1143 -501.5951 30684.2240 -368.6752 -312.9923
ENERGY: 1200000 4.0424 5.4460 4.8851 0.0000 -10631.0577 1433.5991 0.0000 0.0000 1806.4926 -7376.5923 307.0140 -9183.0849 -7471.8331 299.4197 236.4880 369.7456 30662.7434 -235.6818 -169.2628
ENERGY: 1500000 7.7384 3.8352 7.8094 0.0000 -10732.0547 1493.3317 0.0000 0.0000 1734.4710 -7484.8690 294.7739 -9219.3400 -7466.8636 299.6001 671.9524 687.5514 30038.9199 -134.2792 -73.0323
TCL: Running FEP window   3: Lambda1 0.8999999999999999 Lambda2 0.8499999999999999 [dLambda -0.050000000000000044]
TCL: Setting parameter firsttimestep to 0
TCL: Setting parameter alchLambda to 0.8999999999999999
Info: NONBONDED TABLE R-SQUARED SPACING: 0.0625
Info: NONBONDED TABLE SIZE: 705 POINTS
TCL: Setting parameter alchLambda2 to 0.8499999999999999
Info: NONBONDED TABLE R-SQUARED SPACING: 0.0625
Info: NONBONDED TABLE SIZE: 705 POINTS
TCL: Running for 1500000 steps
ETITLE: TS BOND ANGLE DIHED IMPRP ELECT VDW BOUNDARY MISC KINETIC TOTAL TEMP POTENTIAL TOTALAVG TEMPAVG PRESSURE GPRESSURE VOLUME PRESSAVG GPRESSAVG
ENERGY: 0 7.7384 3.8352 7.8094 0.0000 -10731.5482 1493.4667 0.0000 0.0000 1733.5994 -7485.0990 294.6258 -9218.6985 -7485.0990 294.6258 593.4127 671.1907 30038.9199 593.4127 671.1907
ENERGY: 300000 6.7052 4.4526 7.3862 0.0000 -10727.8288 1409.1726 0.0000 0.0000 1764.5023 -7535.6098 299.8777 -9300.1121 -7497.0806 297.0506 -885.1700 -854.0326 30706.6101 20.3336 83.0789
ENERGY: 600000 7.3236 9.3273 6.3381 0.0000 -10583.3450 1337.8175 0.0000 0.0000 1817.9379 -7404.6006 308.9591 -9222.5385 -7490.4905 298.5156 -830.2265 -859.1994 30440.6945 -292.5428 -232.9509
ENERGY: 900000 6.1957 5.2287 5.3419 0.0000 -10696.1342 1376.0002 0.0000 0.0000 1662.6758 -7640.6919 282.5723 -9303.3677 -7493.0958 297.0179 -879.0667 -838.3205 30694.5969 -313.2152 -252.5508
ENERGY: 1200000 5.9976 6.2684 4.5046 0.0000 -10625.0213 1419.7169 0.0000 0.0000 1784.2778 -7404.2559 303.2386 -9188.5337 -7473.7734 298.4403 -273.6571 -210.8079 30925.3018 -273.6525 -215.3551
ENERGY: 1500000 5.6105 4.0011 4.9808 0.0000 -10769.8810 1465.2578 0.0000 0.0000 1802.1018 -7487.9289 306.2678 -9290.0308 -7474.1840 298.5824 246.3826 287.8904 30213.4157 -227.1237 -165.0697
TCL: Running FEP window   4: Lambda1 0.8499999999999999 Lambda2 0.7999999999999998 [dLambda -0.050000000000000044]
TCL: Setting parameter firsttimestep to 0
TCL: Setting parameter alchLambda to 0.8499999999999999
Info: NONBONDED TABLE R-SQUARED SPACING: 0.0625
Info: NONBONDED TABLE SIZE: 705 POINTS
TCL: Setting parameter alchLambda2 to 0.7999999999999998
Info: NONBONDED TABLE R-SQUARED SPACING: 0.0625
Info: NONBONDED TABLE SIZE: 705 POINTS
TCL: Running for 1500000 steps
ETITLE: TS BOND ANGLE DIHED IMPRP ELECT VDW BOUNDARY MISC KINETIC TOTAL TEMP POTENTIAL TOTALAVG TEMPAVG PRESSURE GPRESSURE VOLUME PRESSAVG GPRESSAVG
ENERGY: 0 5.6105 4.0011 4.9808 0.0000 -10769.1751 1465.8752 0.0000 0.0000 1801.2183 -7487.4892 306.1176 -9288.7075 -7487.4892 306.1176 211.1886 276.0226 30213.4157 211.1886 276.0226
ENERGY: 300000 3.8126 5.9817 5.4998 0.0000 -10664.7094 1465.5621 0.0000 0.0000 1800.6598 -7383.1934 306.0227 -9183.8532 -7440.8285 302.2993 388.7143 428.7473 30665.3081 155.0831 237.9496
ENERGY: 600000 4.1356 4.5166 6.5343 0.0000 -10638.1368 1461.1036 0.0000 0.0000 1699.4274 -7462.4193 288.8182 -9161.8467 -7452.9096 300.9639 382.1900 422.1259 30644.6927 139.3422 214.7829
ENERGY: 900000 4.5631 5.8161 4.5315 0.0000 -10784.3108 1535.3033 0.0000 0.0000 1736.5194 -7497.5774 295.1220 -9234.0969 -7455.7394 300.6061 646.9144 767.9810 30158.9081 67.1666 147.2390
ENERGY: 1200000 8.8131 3.7773 4.0182 0.0000 -10769.0904 1453.7051 0.0000 0.0000 1794.2317 -7504.5450 304.9302 -9298.7766 -7461.8876 301.5134 99.6621 131.2353 30021.7493 110.4432 186.0387
ENERGY: 1500000 4.7955 5.1737 6.0028 0.0000 -10703.0513 1498.2098 0.0000 0.0000 1784.4920 -7404.3774 303.2750 -9188.8694 -7453.1546 301.7677 459.0617 491.3602 30744.8596 62.6640 139.4356
TCL: Running FEP window   5: Lambda1 0.7999999999999998 Lambda2 0.7499999999999998 [dLambda -0.050000000000000044]
TCL: Setting parameter firsttimestep to 0
TCL: Setting parameter alchLambda to 0.7999999999999998
Info: NONBONDED TABLE R-SQUARED SPACING: 0.0625
Info: NONBONDED TABLE SIZE: 705 POINTS
TCL: Setting parameter alchLambda2 to 0.7499999999999998
Info: NONBONDED TABLE R-SQUARED SPACING: 0.0625
Info: NONBONDED TABLE SIZE: 705 POINTS
TCL: Running for 1500000 steps
ETITLE: TS BOND ANGLE DIHED IMPRP ELECT VDW BOUNDARY MISC KINETIC TOTAL TEMP POTENTIAL TOTALAVG TEMPAVG PRESSURE GPRESSURE VOLUME PRESSAVG GPRESSAVG
ENERGY: 0 4.7955 5.1737 6.0028 0.0000 -10702.3259 1498.6806 0.0000 0.0000 1783.6235 -7404.0497 303.1274 -9187.6733 -7404.0497 303.1274 411.8739 480.9520 30744.8596 411.8739 480.9520
ENERGY: 300000 2.0718 6.2105 8.3956 0.0000 -10656.4089 1447.1410 0.0000 0.0000 1753.3358 -7439.2542 297.9800 -9192.5900 -7448.3877 298.4221 43.5048 65.6642 30701.7237 234.1893 289.9488
ENERGY: 600000 9.4123 8.2179 5.8353 0.0000 -10711.9870 1415.5582 0.0000 0.0000 1677.6916 -7595.2717 285.1242 -9272.9633 -7473.4414 296.7801 -555.1780 -567.7048 30765.8463 45.0254 101.8153
ENERGY: 900000 7.0756 5.6090 2.8773 0.0000 -10695.1852 1454.3555 0.0000 0.0000 1823.2215 -7402.0463 309.8571 -9225.2678 -7464.2637 297.6986 161.7459 204.3840 30183.6212 -30.3443 31.4428
ENERGY: 1200000 5.3653 7.5977 4.7208 0.0000 -10767.8267 1479.9563 0.0000 0.0000 1772.0059 -7498.1806 301.1530 -9270.1865 -7463.5414 298.4208 130.7274 183.8296 30353.5354 -111.2932 -55.3923
ENERGY: 1500000 9.9889 5.4871 8.1153 0.0000 -10650.1996 1322.7626 0.0000 0.0000 1773.4469 -7530.3989 301.3979 -9303.8457 -7464.2656 298.0206 -857.0322 -768.1511 29955.9979 -235.2233 -173.0146
TCL: Running FEP window   6: Lambda1 0.7499999999999998 Lambda2 0.6999999999999997 [dLambda -0.050000000000000044]
TCL: Setting parameter firsttimestep to 0
TCL: Setting parameter alchLambda to 0.7499999999999998
Info: NONBONDED TABLE R-SQUARED SPACING: 0.0625
Info: NONBONDED TABLE SIZE: 705 POINTS
TCL: Setting parameter alchLambda2 to 0.6999999999999997
Info: NONBONDED TABLE R-SQUARED SPACING: 0.0625
Info: NONBONDED TABLE SIZE: 705 POINTS
TCL: Running for 1500000 steps
ETITLE: TS BOND ANGLE DIHED IMPRP ELECT VDW BOUNDARY MISC KINETIC TOTAL TEMP POTENTIAL TOTALAVG TEMPAVG PRESSURE GPRESSURE VOLUME PRESSAVG GPRESSAVG
ENERGY: 0 9.9889 5.4871 8.1153 0.0000 -10649.3345 1323.0463 0.0000 0.0000 1772.5851 -7530.1117 301.2514 -9302.6968 -7530.1117 301.2514 -851.7749 -777.0226 29955.9979 -851.7749 -777.0226
ENERGY: 300000 4.6164 4.3340 4.2405 0.0000 -10598.8893 1377.6184 0.0000 0.0000 1703.2055 -7504.8745 289.4603 -9208.0800 -7505.8571 296.5981 -313.7569 -301.4480 30459.9682 -533.3369 -477.1383
ENERGY: 600000 6.0931 3.3925 3.4134 0.0000 -10829.7768 1546.6641 0.0000 0.0000 1778.6336 -7491.5801 302.2793 -9270.2137 -7479.7093 299.9889 670.8953 696.5021 30586.8174 -273.3975 -214.4751
ENERGY: 900000 4.8098 4.6810 4.2721 0.0000 -10687.4491 1431.4306 0.0000 0.0000 1654.1147 -7588.1409 281.1173 -9242.2557 -7497.5422 296.9960 -211.8000 -148.3488 30331.4070 -181.5103 -111.4468
ENERGY: 1200000 3.8828 5.4626 6.2905 0.0000 -10764.0763 1489.6215 0.0000 0.0000 1778.0727 -7480.7462 302.1840 -9258.8189 -7494.8503 298.6848 455.6282 463.7914 30209.5157 -175.0950 -112.0959
ENERGY: 1500000 5.4569 6.3242 6.6516 0.0000 -10660.3098 1488.2782 0.0000 0.0000 1797.1573 -7356.4416 305.4274 -9153.5989 -7474.3672 299.9079 667.8881 743.6454 30239.8886 -110.9333 -46.1141
TCL: Running FEP window   7: Lambda1 0.6999999999999997 Lambda2 0.6499999999999997 [dLambda -0.050000000000000044]
TCL: Setting parameter firsttimestep to 0
TCL: Setting parameter alchLambda to 0.6999999999999997
Info: NONBONDED TABLE R-SQUARED SPACING: 0.0625
Info: NONBONDED TABLE SIZE: 705 POINTS
TCL: Setting parameter alchLambda2 to 0.6499999999999997
Info: NONBONDED TABLE R-SQUARED SPACING: 0.0625
Info: NONBONDED TABLE SIZE: 705 POINTS
TCL: Running for 1500000 steps
ETITLE: TS BOND ANGLE DIHED IMPRP ELECT VDW BOUNDARY MISC KINETIC TOTAL TEMP POTENTIAL TOTALAVG TEMPAVG PRESSURE GPRESSURE VOLUME PRESSAVG GPRESSAVG
ENERGY: 0 5.4568 6.3242 6.6517 0.0000 -10659.7588 1489.1323 0.0000 0.0000 1796.2878 -7355.9061 305.2797 -9152.1938 -7355.9061 305.2797 648.7437 736.7286 30239.8886 648.7437 736.7286
ENERGY: 300000 6.0906 2.8467 5.1393 0.0000 -10800.1491 1518.6781 0.0000 0.0000 1768.0132 -7499.3813 300.4744 -9267.3944 -7435.6341 296.9054 352.5659 481.7986 30341.8504 383.2164 472.7178
ENERGY: 600000 6.5723 6.1027 3.5218 0.0000 -10629.1873 1404.4806 0.0000 0.0000 1756.0830 -7452.4270 298.4469 -9208.5101 -7442.8536 297.2658 42.7823 115.8439 30195.1660 153.5244 231.2166
ENERGY: 900000 4.8169 10.3488 8.5133 0.0000 -10603.6061 1358.5741 0.0000 0.0000 1802.1562 -7419.1969 306.2770 -9221.3531 -7438.2353 299.2692 -571.3386 -517.9500 30488.6879 71.2923 134.6451
ENERGY: 1200000 6.5025 3.1091 6.8057 0.0000 -10665.7088 1438.7472 0.0000 0.0000 1768.5942 -7441.9500 300.5731 -9210.5442 -7441.0368 299.8803 418.9501 437.6016 29951.6246 155.1017 226.1082
ENERGY: 1500000 6.3459 5.6306 7.7392 0.0000 -10709.6643 1453.2121 0.0000 0.0000 1798.4364 -7438.3002 305.6448 -9236.7365 -7442.1923 299.8644 -189.7941 -123.8601 30634.4446 123.7026 190.5071
TCL: Running FEP window   8: Lambda1 0.6499999999999997 Lambda2 0.5999999999999996 [dLambda -0.050000000000000044]
TCL: Setting parameter firsttimestep to 0
TCL: Setting parameter alchLambda to 0.6499999999999997
Info: NONBONDED TABLE R-SQUARED SPACING: 0.0625
Info: NONBONDED TABLE SIZE: 705 POINTS
TCL: Setting parameter alchLambda2 to 0.5999999999999996
Info: NONBONDED TABLE R-SQUARED SPACING: 0.0625
Info: NONBONDED TABLE SIZE: 705 POINTS
TCL: Running for 1500000 steps
ETITLE: TS BOND ANGLE DIHED IMPRP ELECT VDW BOUNDARY MISC KINETIC TOTAL TEMP POTENTIAL TOTALAVG TEMPAVG PRESSURE GPRESSURE VOLUME PRESSAVG GPRESSAVG
ENERGY: 0 6.3459 5.6306 7.7392 0.0000 -10708.6981 1453.8514 0.0000 0.0000 1797.5654 -7437.5656 305.4968 -9235.1310 -7437.5656 305.4968 -203.1337 -126.9333 30634.4446 -203.1337 -126.9333
ENERGY: 300000 3.9600 6.3289 7.2371 0.0000 -10772.2624 1526.1190 0.0000 0.0000 1837.2448 -7391.3726 312.2403 -9228.6174 -7418.4131 306.5890 619.1400 709.0274 30517.4046 -8.3036 41.8122
ENERGY: 600000 4.4567 3.4070 6.1173 0.0000 -10815.1860 1471.6235 0.0000 0.0000 1764.4262 -7565.1552 299.8648 -9329.5814 -7436.3255 303.0761 186.6588 260.5229 29820.0298 43.4033 94.2666
ENERGY: 900000 3.4618 2.3761 4.8007 0.0000 -10557.2935 1364.6969 0.0000 0.0000 1759.9659 -7421.9921 299.1068 -9181.9580 -7448.3894 301.4248 -512.7313 -377.4984 30147.6672 -141.4001 -77.4054
ENERGY: 1200000 6.2916 5.7037 4.9601 0.0000 -10608.9276 1386.8055 0.0000 0.0000 1752.2552 -7452.9114 297.7963 -9205.1666 -7450.9231 300.0671 -383.0636 -256.4487 29979.9649 -196.7067 -128.1502
ENERGY: 1500000 2.9937 4.8752 8.8476 0.0000 -10542.0147 1353.8505 0.0000 0.0000 1741.1989 -7430.2488 295.9173 -9171.4477 -7447.2152 300.4651 -324.0381 -203.2653 30303.7879 -266.9408 -190.9324
TCL: Running FEP window   9: Lambda1 0.5999999999999996 Lambda2 0.5499999999999996 [dLambda -0.050000000000000044]
TCL: Setting parameter firsttimestep to 0
TCL: Setting parameter alchLambda to 0.5999999999999996
Info: NONBONDED TABLE R-SQUARED SPACING: 0.0625
Info: NONBONDED TABLE SIZE: 705 POINTS
TCL: Setting parameter alchLambda2 to 0.5499999999999996
Info: NONBONDED TABLE R-SQUARED SPACING: 0.0625
Info: NONBONDED TABLE SIZE: 705 POINTS
TCL: Running for 1500000 steps
ETITLE: TS BOND ANGLE DIHED IMPRP ELECT VDW BOUNDARY MISC KINETIC TOTAL TEMP POTENTIAL TOTALAVG TEMPAVG PRESSURE GPRESSURE VOLUME PRESSAVG GPRESSAVG
ENERGY: 0 2.9937 4.8752 8.8476 0.0000 -10541.3087 1353.9888 0.0000 0.0000 1740.3046 -7430.2988 295.7653 -9170.6034 -7430.2988 295.7653 -304.5103 -214.1875 30303.7879 -304.5103 -214.1875
ENERGY: 300000 6.5305 7.4157 6.0273 0.0000 -10683.9197 1439.8126 0.0000 0.0000 1781.6730 -7442.4608 302.7959 -9224.1338 -7440.8298 302.2652 179.7040 214.3335 30265.6821 -392.4302 -318.7027
ENERGY: 600000 5.4548 4.6846 6.1933 0.0000 -10627.4917 1456.3905 0.0000 0.0000 1771.3870 -7383.3817 301.0478 -9154.7687 -7458.1213 300.1456 219.7815 297.3786 30656.9784 -326.8329 -274.2582
ENERGY: 900000 7.8058 5.4992 5.3589 0.0000 -10671.7241 1463.1432 0.0000 0.0000 1775.0078 -7414.9092 301.6631 -9189.9170 -7459.7177 300.4075 98.1608 175.6414 30552.5075 -311.1765 -246.4059
ENERGY: 1200000 3.6690 9.2690 4.0438 0.0000 -10712.8360 1426.7477 0.0000 0.0000 1738.6693 -7530.4371 295.4874 -9269.1064 -7476.6918 299.7297 190.0432 223.8762 29785.7798 -212.0148 -153.3332
ENERGY: 1500000 4.0820 5.0950 2.2820 0.0000 -10685.1496 1436.2547 0.0000 0.0000 1714.4542 -7522.9816 291.3720 -9237.4359 -7474.1157 298.8640 14.9384 17.7918 30393.9243 -242.3992 -179.7937
TCL: Running FEP window  10: Lambda1 0.5499999999999996 Lambda2 0.4999999999999996 [dLambda -0.04999999999999999]
TCL: Setting parameter firsttimestep to 0
TCL: Setting parameter alchLambda to 0.5499999999999996
Info: NONBONDED TABLE R-SQUARED SPACING: 0.0625
Info: NONBONDED TABLE SIZE: 705 POINTS
TCL: Setting parameter alchLambda2 to 0.4999999999999996
Info: NONBONDED TABLE R-SQUARED SPACING: 0.0625
Info: NONBONDED TABLE SIZE: 705 POINTS
TCL: Running for 1500000 steps
ETITLE: TS BOND ANGLE DIHED IMPRP ELECT VDW BOUNDARY MISC KINETIC TOTAL TEMP POTENTIAL TOTALAVG TEMPAVG PRESSURE GPRESSURE VOLUME PRESSAVG GPRESSAVG
ENERGY: 0 4.0820 5.0950 2.2820 0.0000 -10685.1941 1436.7270 0.0000 0.0000 1713.6187 -7523.3894 291.2300 -9237.0081 -7523.3894 291.2300 -84.1613 10.4909 30393.9243 -84.1613 10.4909
ENERGY: 300000 6.3201 10.5556 6.4318 0.0000 -10809.4642 1489.0959 0.0000 0.0000 1811.2271 -7485.8337 307.8186 -9297.0608 -7475.7710 302.1083 681.4152 737.3616 29761.7604 131.3978 202.1292
ENERGY: 600000 12.5688 4.4499 3.6234 0.0000 -10662.1945 1445.6828 0.0000 0.0000 1776.7997 -7419.0700 301.9677 -9195.8697 -7462.9179 299.5730 -67.1193 7.6590 30539.1322 112.1723 184.0278
ENERGY: 900000 6.9200 4.6219 3.7964 0.0000 -10612.8160 1428.3557 0.0000 0.0000 1761.2984 -7407.8237 299.3332 -9169.1220 -7465.0547 299.3799 49.0887 209.1104 30382.1124 56.7377 135.7298
ENERGY: 1200000 11.4417 6.3339 6.7865 0.0000 -10634.4905 1465.4521 0.0000 0.0000 1755.4890 -7388.9872 298.3459 -9144.4762 -7460.5927 299.5839 -140.6247 -39.7591 30516.2088 97.1406 174.9773
ENERGY: 1500000 5.7656 4.7745 9.1607 0.0000 -10703.7204 1421.5524 0.0000 0.0000 1812.5898 -7449.8775 308.0502 -9262.4673 -7460.7972 300.2111 -151.7896 -125.3767 30437.3788 26.2451 95.0956
TCL: Running FEP window  11: Lambda1 0.4999999999999996 Lambda2 0.4499999999999996 [dLambda -0.04999999999999999]
TCL: Setting parameter firsttimestep to 0
TCL: Setting parameter alchLambda to 0.4999999999999996
Info: NONBONDED TABLE R-SQUARED SPACING: 0.0625
Info: NONBONDED TABLE SIZE: 705 POINTS
TCL: Setting parameter alchLambda2 to 0.4499999999999996
Info: NONBONDED TABLE R-SQUARED SPACING: 0.0625
Info: NONBONDED TABLE SIZE: 705 POINTS
TCL: Running for 1500000 steps
ETITLE: TS BOND ANGLE DIHED IMPRP ELECT VDW BOUNDARY MISC KINETIC TOTAL TEMP POTENTIAL TOTALAVG TEMPAVG PRESSURE GPRESSURE VOLUME PRESSAVG GPRESSAVG
ENERGY: 0 5.7656 4.7745 9.1607 0.0000 -10703.7789 1422.2902 0.0000 0.0000 1811.6858 -7450.1022 307.8966 -9261.7879 -7450.1022 307.8966 -227.0292 -131.0893 30437.3788 -227.0292 -131.0893
ENERGY: 300000 2.1859 8.2441 8.6635 0.0000 -10733.5504 1395.9556 0.0000 0.0000 1729.0328 -7589.4685 293.8497 -9318.5013 -7496.5506 298.0026 -549.7165 -524.5475 30184.0882 -140.1287 -70.6544
ENERGY: 600000 7.0009 4.8237 10.6345 0.0000 -10796.0166 1512.5458 0.0000 0.0000 1761.1110 -7499.9006 299.3014 -9261.0117 -7482.6100 297.5703 435.1637 564.2394 30576.8661 -72.8380 -3.8651
ENERGY: 900000 10.3185 5.6676 5.7738 0.0000 -10638.4651 1440.5111 0.0000 0.0000 1799.8920 -7376.3021 305.8922 -9176.1940 -7475.8055 297.7422 -22.2119 59.4059 30645.9977 -117.2356 -51.1033
ENERGY: 1200000 4.9103 4.7418 3.6414 0.0000 -10702.5235 1508.6848 0.0000 0.0000 1764.9392 -7415.6060 299.9520 -9180.5452 -7475.7025 298.0670 542.8819 651.8844 30570.0765 -23.2608 43.8904
ENERGY: 1500000 11.2018 2.3663 6.9988 0.0000 -10644.3567 1396.0118 0.0000 0.0000 1692.6891 -7535.0888 287.6731 -9227.7780 -7480.6863 298.1134 -785.6612 -701.6967 30630.5172 -107.3536 -40.3120
TCL: Running FEP window  12: Lambda1 0.4499999999999996 Lambda2 0.39999999999999963 [dLambda -0.04999999999999999]
TCL: Setting parameter firsttimestep to 0
TCL: Setting parameter alchLambda to 0.4499999999999996
Info: NONBONDED TABLE R-SQUARED SPACING: 0.0625
Info: NONBONDED TABLE SIZE: 705 POINTS
TCL: Setting parameter alchLambda2 to 0.39999999999999963
Info: NONBONDED TABLE R-SQUARED SPACING: 0.0625
Info: NONBONDED TABLE SIZE: 705 POINTS
TCL: Running for 1500000 steps
ETITLE: TS BOND ANGLE DIHED IMPRP ELECT VDW BOUNDARY MISC KINETIC TOTAL TEMP POTENTIAL TOTALAVG TEMPAVG PRESSURE GPRESSURE VOLUME PRESSAVG GPRESSAVG
ENERGY: 0 11.2018 2.3663 6.9988 0.0000 -10644.3567 1396.2645 0.0000 0.0000 1691.8351 -7535.6901 287.5279 -9227.5252 -7535.6901 287.5279 -802.4469 -713.1891 30630.5172 -802.4469 -713.1891
ENERGY: 300000 3.5656 4.2776 3.5546 0.0000 -10712.8741 1460.5890 0.0000 0.0000 1739.2592 -7501.6281 295.5877 -9240.8873 -7507.5539 295.3942 39.2731 114.5572 30080.8407 -256.2381 -191.3981
ENERGY: 600000 8.9259 2.2583 3.4633 0.0000 -10598.2123 1458.5079 0.0000 0.0000 1750.8264 -7374.2305 297.5535 -9125.0569 -7466.3715 298.0030 384.6196 474.7308 30411.8840 -85.9446 -38.1188
ENERGY: 900000 3.8299 7.9117 4.7593 0.0000 -10642.1572 1436.4475 0.0000 0.0000 1681.7275 -7507.4812 285.8101 -9189.2087 -7457.8248 298.6709 -52.9648 35.4307 30633.4435 69.1324 134.9846
ENERGY: 1200000 8.3375 5.9027 4.6113 0.0000 -10576.6256 1392.3364 0.0000 0.0000 1721.4229 -7444.0149 292.5564 -9165.4377 -7461.2477 298.4226 -563.8975 -443.7105 30478.2390 43.2401 108.1818
ENERGY: 1500000 4.1449 4.4557 6.5151 0.0000 -10607.6798 1370.9868 0.0000 0.0000 1771.4148 -7450.1625 301.0525 -9221.5773 -7457.5106 298.7757 -728.3407 -678.4663 30878.9753 -5.7717 57.5106
TCL: Running FEP window  13: Lambda1 0.39999999999999963 Lambda2 0.34999999999999964 [dLambda -0.04999999999999999]
TCL: Setting parameter firsttimestep to 0
TCL: Setting parameter alchLambda to 0.39999999999999963
Info: NONBONDED TABLE R-SQUARED SPACING: 0.0625
Info: NONBONDED TABLE SIZE: 705 POINTS
TCL: Setting parameter alchLambda2 to 0.34999999999999964
Info: NONBONDED TABLE R-SQUARED SPACING: 0.0625
Info: NONBONDED TABLE SIZE: 705 POINTS
TCL: Running for 1500000 steps
ETITLE: TS BOND ANGLE DIHED IMPRP ELECT VDW BOUNDARY MISC KINETIC TOTAL TEMP POTENTIAL TOTALAVG TEMPAVG PRESSURE GPRESSURE VOLUME PRESSAVG GPRESSAVG
ENERGY: 0 4.1449 4.4557 6.5151 0.0000 -10607.6807 1370.9988 0.0000 0.0000 1770.5407 -7451.0255 300.9040 -9221.5663 -7451.0255 300.9040 -775.9594 -687.9974 30878.9753 -775.9594 -687.9974
ENERGY: 300000 7.1068 6.6048 6.3815 0.0000 -10598.3611 1344.5152 0.0000 0.0000 1743.0556 -7490.6973 296.2328 -9233.7529 -7469.7193 299.0768 -902.4874 -831.3882 30590.7977 -466.4226 -385.8431
ENERGY: 600000 6.9374 9.5298 5.6516 0.0000 -10717.1620 1528.7518 0.0000 0.0000 1755.3363 -7410.9551 298.3200 -9166.2914 -7458.9859 299.1182 774.9425 778.5921 30825.4085 -246.8843 -183.9065
ENERGY: 900000 5.2946 5.5228 4.1865 0.0000 -10623.5681 1395.8540 0.0000 0.0000 1797.9544 -7414.7557 305.5629 -9212.7101 -7448.3483 300.2200 -527.1882 -439.7008 30586.7247 -163.1891 -93.0849
ENERGY: 1200000 8.9136 6.5643 6.2349 0.0000 -10708.0915 1432.1508 0.0000 0.0000 1719.7814 -7534.4465 292.2774 -9254.2279 -7455.9531 299.6173 -91.7700 36.0568 29694.8327 -168.2501 -96.3741
ENERGY: 1500000 5.1473 7.5748 7.2201 0.0000 -10596.4652 1358.5682 0.0000 0.0000 1748.5243 -7469.4304 297.1623 -9217.9548 -7455.9147 298.6943 -737.1621 -719.3245 30803.5850 -188.1019 -122.1644
TCL: Running FEP window  14: Lambda1 0.34999999999999964 Lambda2 0.29999999999999966 [dLambda -0.04999999999999999]
TCL: Setting parameter firsttimestep to 0
TCL: Setting parameter alchLambda to 0.34999999999999964
Info: NONBONDED TABLE R-SQUARED SPACING: 0.0625
Info: NONBONDED TABLE SIZE: 705 POINTS
TCL: Setting parameter alchLambda2 to 0.29999999999999966
Info: NONBONDED TABLE R-SQUARED SPACING: 0.0625
Info: NONBONDED TABLE SIZE: 705 POINTS
TCL: Running for 1500000 steps
ETITLE: TS BOND ANGLE DIHED IMPRP ELECT VDW BOUNDARY MISC KINETIC TOTAL TEMP POTENTIAL TOTALAVG TEMPAVG PRESSURE GPRESSURE VOLUME PRESSAVG GPRESSAVG
ENERGY: 0 5.1473 7.5748 7.2201 0.0000 -10596.4658 1358.6096 0.0000 0.0000 1747.6377 -7470.2764 297.0116 -9217.9141 -7470.2764 297.0116 -800.2834 -726.3149 30803.5850 -800.2834 -726.3149
ENERGY: 300000 5.0611 7.6251 4.7428 0.0000 -10669.3238 1454.8429 0.0000 0.0000 1771.0338 -7426.0181 300.9878 -9197.0519 -7422.7325 302.8906 436.1201 467.8338 30228.5124 -64.3072 1.3107
ENERGY: 600000 7.7266 4.9523 5.3406 0.0000 -10699.9772 1438.5732 0.0000 0.0000 1817.6602 -7425.7243 308.9119 -9243.3845 -7432.3179 301.8233 34.4660 91.9907 30319.9216 -25.1321 42.8739
ENERGY: 900000 2.8995 6.2363 10.5257 0.0000 -10722.7424 1465.3448 0.0000 0.0000 1761.6816 -7476.0544 299.3984 -9237.7360 -7438.2797 300.7733 -70.5170 -2.5296 30444.6189 -0.7700 66.1118
ENERGY: 1200000 3.7141 5.7424 4.4053 0.0000 -10693.8368 1480.6275 0.0000 0.0000 1757.1206 -7442.2268 298.6232 -9199.3474 -7444.4153 300.0972 153.2550 185.8698 30790.5636 60.0812 117.7193
ENERGY: 1500000 4.4077 5.5728 5.8059 0.0000 -10647.8907 1456.8969 0.0000 0.0000 1787.0354 -7388.1720 303.7072 -9175.2074 -7442.4492 299.9402 262.1155 375.1288 30272.2008 73.6797 130.0026
TCL: Running FEP window  15: Lambda1 0.29999999999999966 Lambda2 0.24999999999999967 [dLambda -0.04999999999999999]
TCL: Setting parameter firsttimestep to 0
TCL: Setting parameter alchLambda to 0.29999999999999966
Info: NONBONDED TABLE R-SQUARED SPACING: 0.0625
Info: NONBONDED TABLE SIZE: 705 POINTS
TCL: Setting parameter alchLambda2 to 0.24999999999999967
Info: NONBONDED TABLE R-SQUARED SPACING: 0.0625
Info: NONBONDED TABLE SIZE: 705 POINTS
TCL: Running for 1500000 steps
ETITLE: TS BOND ANGLE DIHED IMPRP ELECT VDW BOUNDARY MISC KINETIC TOTAL TEMP POTENTIAL TOTALAVG TEMPAVG PRESSURE GPRESSURE VOLUME PRESSAVG GPRESSAVG
ENERGY: 0 4.4077 5.5728 5.8059 0.0000 -10647.8917 1457.4375 0.0000 0.0000 1786.1763 -7388.4915 303.5612 -9174.6678 -7388.4915 303.5612 284.4081 371.5025 30272.2008 284.4081 371.5025
ENERGY: 300000 4.8535 5.6899 7.4543 0.0000 -10663.9787 1427.6932 0.0000 0.0000 1791.9886 -7426.2993 304.5490 -9218.2879 -7437.3239 302.3555 -95.1139 -63.0570 30188.2311 71.3741 123.3127
ENERGY: 600000 5.4890 4.7849 6.1309 0.0000 -10557.2854 1400.1917 0.0000 0.0000 1791.0641 -7349.6249 304.3919 -9140.6890 -7433.4433 300.7462 -121.7784 -59.6887 30269.7188 44.5170 102.7424
ENERGY: 900000 5.8591 6.1601 4.4629 0.0000 -10829.2572 1566.0825 0.0000 0.0000 1759.5681 -7487.1245 299.0392 -9246.6926 -7451.4973 299.6713 963.2967 1064.6148 29752.7272 175.7564 241.4288
ENERGY: 1200000 5.6931 2.4985 7.3165 0.0000 -10688.7984 1453.0975 0.0000 0.0000 1756.0006 -7464.1922 298.4329 -9220.1928 -7451.7061 299.3740 16.6886 101.0793 30366.6295 119.0098 183.0643
ENERGY: 1500000 5.2395 7.8930 2.8170 0.0000 -10601.1307 1369.8794 0.0000 0.0000 1768.1982 -7447.1036 300.5058 -9215.3017 -7446.1570 299.2410 -774.5169 -733.3986 30613.6016 51.9953 113.2462
TCL: Running FEP window  16: Lambda1 0.24999999999999967 Lambda2 0.19999999999999968 [dLambda -0.04999999999999999]
TCL: Setting parameter firsttimestep to 0
TCL: Setting parameter alchLambda to 0.24999999999999967
Info: NONBONDED TABLE R-SQUARED SPACING: 0.0625
Info: NONBONDED TABLE SIZE: 705 POINTS
TCL: Setting parameter alchLambda2 to 0.19999999999999968
Info: NONBONDED TABLE R-SQUARED SPACING: 0.0625
Info: NONBONDED TABLE SIZE: 705 POINTS
TCL: Running for 1500000 steps
ETITLE: TS BOND ANGLE DIHED IMPRP ELECT VDW BOUNDARY MISC KINETIC TOTAL TEMP POTENTIAL TOTALAVG TEMPAVG PRESSURE GPRESSURE VOLUME PRESSAVG GPRESSAVG
ENERGY: 0 5.2395 7.8930 2.8170 0.0000 -10601.1287 1369.5749 0.0000 0.0000 1767.3563 -7448.2479 300.3628 -9215.6043 -7448.2479 300.3628 -833.9862 -742.0671 30613.6016 -833.9862 -742.0671
ENERGY: 300000 4.1491 4.5395 6.8164 0.0000 -10684.0171 1452.4807 0.0000 0.0000 1713.1988 -7502.8326 291.1587 -9216.0314 -7491.3671 298.8352 470.8116 468.9769 30074.4618 -106.1969 -57.8161
ENERGY: 600000 3.2801 5.1885 8.1534 0.0000 -10713.8037 1493.5164 0.0000 0.0000 1824.9554 -7378.7098 310.1518 -9203.6653 -7469.3538 301.4967 411.4281 422.1766 30513.8448 79.0368 140.3949
ENERGY: 900000 7.0939 4.4465 4.4197 0.0000 -10707.1954 1450.5180 0.0000 0.0000 1729.0919 -7511.6255 293.8597 -9240.7174 -7479.2304 299.1184 -63.9938 19.0095 30051.4649 6.5650 60.3954
ENERGY: 1200000 7.5707 3.6178 4.5051 0.0000 -10716.1828 1436.5283 0.0000 0.0000 1766.1252 -7497.8359 300.1535 -9263.9610 -7473.9536 299.2828 -340.9807 -204.8056 30171.0768 84.9610 148.3472
ENERGY: 1500000 3.0041 3.2779 5.0174 0.0000 -10686.2356 1470.8229 0.0000 0.0000 1726.1775 -7477.9358 293.3644 -9204.1134 -7473.9761 298.1017 472.1862 520.1008 30091.1384 81.8376 143.1385
TCL: Running FEP window  17: Lambda1 0.19999999999999968 Lambda2 0.1499999999999997 [dLambda -0.04999999999999999]
TCL: Setting parameter firsttimestep to 0
TCL: Setting parameter alchLambda to 0.19999999999999968
Info: NONBONDED TABLE R-SQUARED SPACING: 0.0625
Info: NONBONDED TABLE SIZE: 705 POINTS
TCL: Setting parameter alchLambda2 to 0.1499999999999997
Info: NONBONDED TABLE R-SQUARED SPACING: 0.0625
Info: NONBONDED TABLE SIZE: 705 POINTS
TCL: Running for 1500000 steps
ETITLE: TS BOND ANGLE DIHED IMPRP ELECT VDW BOUNDARY MISC KINETIC TOTAL TEMP POTENTIAL TOTALAVG TEMPAVG PRESSURE GPRESSURE VOLUME PRESSAVG GPRESSAVG
ENERGY: 0 3.0041 3.2779 5.0174 0.0000 -10686.2342 1470.5296 0.0000 0.0000 1725.3236 -7479.0817 293.2193 -9204.4052 -7479.0817 293.2193 425.4602 513.1728 30091.1384 425.4602 513.1728
ENERGY: 300000 4.7493 6.1409 5.8218 0.0000 -10827.8037 1514.0632 0.0000 0.0000 1769.2788 -7527.7498 300.6895 -9297.0285 -7482.8089 298.6576 53.0205 150.4664 30476.5490 100.4059 194.8837
ENERGY: 600000 3.2881 3.6899 3.7343 0.0000 -10762.3925 1551.4537 0.0000 0.0000 1782.3619 -7417.8645 302.9130 -9200.2265 -7458.9264 301.2078 957.0707 969.1288 30403.9274 179.7267 263.2637
ENERGY: 900000 5.2157 2.9123 1.9740 0.0000 -10681.9426 1410.7364 0.0000 0.0000 1685.2701 -7575.8341 286.4122 -9261.1042 -7458.2835 300.9171 -122.8407 -69.2266 29577.8696 104.6672 176.8814
ENERGY: 1200000 3.0323 8.6888 3.4797 0.0000 -10604.1453 1429.5231 0.0000 0.0000 1770.0237 -7389.3976 300.8161 -9159.4213 -7450.6275 300.7912 -388.6338 -341.3725 30797.6587 68.5440 137.9515
ENERGY: 1500000 5.3476 4.1589 5.7806 0.0000 -10707.8399 1445.0994 0.0000 0.0000 1751.4803 -7495.9731 297.6646 -9247.4534 -7433.9611 301.7290 -222.8965 -136.1440 30405.8036 112.4129 183.3675
TCL: Running FEP window  18: Lambda1 0.1499999999999997 Lambda2 0.09999999999999969 [dLambda -0.05 ]
TCL: Setting parameter firsttimestep to 0
TCL: Setting parameter alchLambda to 0.1499999999999997
Info: NONBONDED TABLE R-SQUARED SPACING: 0.0625
Info: NONBONDED TABLE SIZE: 705 POINTS
TCL: Setting parameter alchLambda2 to 0.09999999999999969
Info: NONBONDED TABLE R-SQUARED SPACING: 0.0625
Info: NONBONDED TABLE SIZE: 705 POINTS
TCL: Running for 1500000 steps
ETITLE: TS BOND ANGLE DIHED IMPRP ELECT VDW BOUNDARY MISC KINETIC TOTAL TEMP POTENTIAL TOTALAVG TEMPAVG PRESSURE GPRESSURE VOLUME PRESSAVG GPRESSAVG
ENERGY: 0 5.3476 4.1589 5.7806 0.0000 -10707.8399 1445.7993 0.0000 0.0000 1750.6232 -7496.1303 297.5190 -9246.7535 -7496.1303 297.5190 -219.6987 -139.2121 30405.8036 -219.6987 -139.2121
ENERGY: 300000 8.6266 5.1684 5.5355 0.0000 -10723.4550 1475.3414 0.0000 0.0000 1780.5717 -7448.2114 302.6087 -9228.7831 -7442.3731 299.8087 -31.3857 11.5721 29943.4246 -347.3232 -272.5520
ENERGY: 600000 4.3316 6.1848 6.5606 0.0000 -10750.0822 1383.4014 0.0000 0.0000 1783.4429 -7566.1609 303.0967 -9349.6038 -7458.0136 300.7671 -785.1396 -715.7116 30089.4260 -342.2786 -271.5146
ENERGY: 900000 10.8381 5.5237 5.7690 0.0000 -10701.8468 1428.2694 0.0000 0.0000 1803.2433 -7448.2032 306.4618 -9251.4466 -7451.6330 301.1321 -540.8294 -477.0445 30674.0198 -258.9330 -192.6271
ENERGY: 1200000 6.0404 8.8588 4.6029 0.0000 -10724.9055 1523.1849 0.0000 0.0000 1746.3641 -7435.8544 296.7951 -9182.2185 -7451.5732 301.1324 601.2999 716.7466 30217.7326 -62.2253 -1.0089
ENERGY: 1500000 5.4230 7.3033 3.9623 0.0000 -10815.8041 1502.6558 0.0000 0.0000 1758.7528 -7537.7069 298.9006 -9296.4597 -7460.2882 299.8890 169.8051 309.9620 29862.2138 -83.0252 -14.7872
TCL: Running FEP window  19: Lambda1 0.09999999999999969 Lambda2 0.049999999999999684 [dLambda -0.05 ]
TCL: Setting parameter firsttimestep to 0
TCL: Setting parameter alchLambda to 0.09999999999999969
Info: NONBONDED TABLE R-SQUARED SPACING: 0.0625
Info: NONBONDED TABLE SIZE: 705 POINTS
TCL: Setting parameter alchLambda2 to 0.049999999999999684
Info: NONBONDED TABLE R-SQUARED SPACING: 0.0625
Info: NONBONDED TABLE SIZE: 705 POINTS
TCL: Running for 1500000 steps
ETITLE: TS BOND ANGLE DIHED IMPRP ELECT VDW BOUNDARY MISC KINETIC TOTAL TEMP POTENTIAL TOTALAVG TEMPAVG PRESSURE GPRESSURE VOLUME PRESSAVG GPRESSAVG
ENERGY: 0 5.4230 7.3033 3.9623 0.0000 -10815.8039 1502.3241 0.0000 0.0000 1757.8705 -7538.9208 298.7507 -9296.7913 -7538.9208 298.7507 217.8762 305.0269 29862.2138 217.8762 305.0269
ENERGY: 300000 4.1213 3.2069 5.2503 0.0000 -10695.0049 1482.1215 0.0000 0.0000 1752.4259 -7447.8790 297.8253 -9200.3050 -7484.2027 300.5054 290.8759 340.2538 30244.7530 309.9187 369.7769
ENERGY: 600000 4.2854 6.0230 5.4599 0.0000 -10576.5937 1409.8795 0.0000 0.0000 1780.9472 -7369.9987 302.6725 -9150.9459 -7454.9774 301.9651 258.5149 337.4323 29870.1999 177.4921 240.0996
ENERGY: 900000 2.8877 5.0421 3.7136 0.0000 -10617.2144 1358.4194 0.0000 0.0000 1762.0308 -7485.1207 299.4577 -9247.1515 -7447.1616 302.7727 -807.8363 -729.7629 30602.0804 -35.3731 36.5473
ENERGY: 1200000 7.5887 3.2113 9.7559 0.0000 -10607.8390 1451.9101 0.0000 0.0000 1809.2044 -7326.1685 307.4749 -9135.3730 -7434.4192 302.9861 -70.7646 -46.9120 30772.8227 -4.5949 58.7520
ENERGY: 1500000 7.2321 8.6944 11.7008 0.0000 -10527.6504 1398.4836 0.0000 0.0000 1762.4867 -7339.0528 299.5352 -9101.5395 -7424.0289 303.2727 27.5544 42.3273 30220.4788 64.7163 125.0585
TCL: Running FEP window  20: Lambda1 0.049999999999999684 Lambda2 0.0    [dLambda -0.049999999999999684]
TCL: Setting parameter firsttimestep to 0
TCL: Setting parameter alchLambda to 0.049999999999999684
Info: NONBONDED TABLE R-SQUARED SPACING: 0.0625
Info: NONBONDED TABLE SIZE: 705 POINTS
TCL: Setting parameter alchLambda2 to 0.0
Info: NONBONDED TABLE R-SQUARED SPACING: 0.0625
Info: NONBONDED TABLE SIZE: 705 POINTS
TCL: Running for 1500000 steps
ETITLE: TS BOND ANGLE DIHED IMPRP ELECT VDW BOUNDARY MISC KINETIC TOTAL TEMP POTENTIAL TOTALAVG TEMPAVG PRESSURE GPRESSURE VOLUME PRESSAVG GPRESSAVG
ENERGY: 0 7.2321 8.6944 11.7008 0.0000 -10527.6514 1396.6215 0.0000 0.0000 1761.6385 -7341.7642 299.3910 -9103.4027 -7341.7642 299.3910 -30.7080 37.6001 30220.4788 -30.7080 37.6001
ENERGY: 300000 5.5218 4.1941 3.3404 0.0000 -10659.2949 1433.5018 0.0000 0.0000 1841.2260 -7371.5108 312.9169 -9212.7368 -7408.1185 301.7836 -93.8427 -38.4832 30226.1565 -394.0041 -346.2622
ENERGY: 600000 8.7415 7.6960 5.4397 0.0000 -10719.7765 1476.1235 0.0000 0.0000 1759.3388 -7462.4370 299.0002 -9221.7758 -7423.9570 299.6885 21.0610 151.6769 30250.2344 -212.0197 -157.8325
ENERGY: 900000 2.7204 3.7175 3.6859 0.0000 -10526.3832 1347.0158 0.0000 0.0000 1766.1778 -7403.0658 300.1625 -9169.2436 -7419.7559 300.7464 -237.2349 -209.2021 30440.7748 -133.2522 -79.8108
ENERGY: 1200000 7.3678 7.8818 10.5186 0.0000 -10662.8857 1439.0086 0.0000 0.0000 1793.3735 -7404.7354 304.7844 -9198.1089 -7425.5872 300.5724 -149.2502 -53.1402 30226.6936 -116.6105 -60.5481
ENERGY: 1500000 7.1610 3.0438 6.0658 0.0000 -10618.5367 1403.0125 0.0000 0.0000 1738.3441 -7460.9095 295.4321 -9199.2536 -7431.9790 300.4203 -679.5596 -587.8697 30675.0840 -143.7474 -86.3983
TCL: Exiting due to exit command.
