Info: SIMULATION PARAMETERS:
Info: TIMESTEP               2
Info: NUMBER OF STEPS        0
Info: STEPS PER CYCLE        10
Info: PERIODIC CELL BASIS 1  30.7622 0 0
Info: PERIODIC CELL BASIS 2  0 32.3238 0
Info: PERIODIC CELL BASIS 3  0 0 30.4932
Info: PERIODIC CELL CENTER   0 0 0
Info: WRAPPING WATERS AROUND PERIODIC BOUNDARIES ON OUTPUT.
Info: WRAPPING ALL CLUSTERS AROUND PERIODIC BOUNDARIES ON OUTPUT.
Info: FIRST LDB TIMESTEP     50
Info: LAST LDB TIMESTEP     -1
Info: HOM BACKGROUND SCALING 1
Info: PME BACKGROUND SCALING 1
Info: MIN ATOMS PER PATCH    40
Info: EMPTY PATCH LOAD       40 ATOMS
Info: VELOCITY FILE          mobley_8260524_equil.vel
Info: CENTER OF MASS MOVING INITIALLY? NO
Info: DIELECTRIC             1
Info: EXCLUDE                SCALED ONE-FOUR
Info: 1-4 ELECTROSTATICS SCALED BY 0.833333
Info: MODIFIED 1-4 VDW PARAMETERS WILL BE USED
Info: DCD FILENAME           mobley_8260524_prod.dcd
Info: DCD FREQUENCY          100000
Info: DCD FIRST STEP         100000
Info: DCD FILE WILL CONTAIN UNIT CELL DATA
Info: XST FILENAME           mobley_8260524_prod.xst
Info: XST FREQUENCY          100000
Info: NO VELOCITY DCD OUTPUT
Info: NO FORCE DCD OUTPUT
Info: OUTPUT FILENAME        mobley_8260524_prod
Info: BINARY OUTPUT FILES WILL BE USED
Info: RESTART FILENAME       mobley_8260524_prod.restart
Info: RESTART FREQUENCY      100000
Info: BINARY RESTART FILES WILL BE USED
Info: CUTOFF                 9
Info: PAIRLIST DISTANCE      11
Info: PAIRLIST SHRINK RATE   0.01
Info: PAIRLIST GROW RATE     0.01
Info: PAIRLIST TRIGGER       0.3
Info: PAIRLISTS PER CYCLE    2
Info: PAIRLISTS ENABLED
Info: MARGIN                 2
Info: HYDROGEN GROUP CUTOFF  2.5
Info: PATCH DIMENSION        15.5
Info: ENERGY OUTPUT STEPS    100000
Info: ENERGY EVALUATION STEPS    100000
Info: OUTPUT ENERGY PRECISION 4
Info: CROSSTERM ENERGY INCLUDED IN DIHEDRAL
Info: TIMING OUTPUT STEPS    1000000
Info: PRESSURE OUTPUT STEPS  100000
Info: ALCHEMICAL FEP ON
Info: FEP CURRENT LAMBDA VALUE     1
Info: FEP COMPARISON LAMBDA VALUE  0.95
Info: FEP INTRA-ALCHEMICAL NON-BONDED INTERACTIONS WILL BE RETAINED
Info: FEP INTRA-ALCHEMICAL BONDED INTERACTIONS WILL BE RETAINED
Info: FEP VDW SHIFTING COEFFICIENT 5
Info: FEP ELEC. ACTIVE FOR ANNIHILATED PARTICLES BETWEEN LAMBDA = 0 AND LAMBDA = 0.5
Info: FEP ELEC. ACTIVE FOR EXNIHILATED PARTICLES BETWEEN LAMBDA = 0.5 AND LAMBDA = 1
Info: FEP VDW ACTIVE FOR ANNIHILATED PARTICLES BETWEEN LAMBDA = 0 AND LAMBDA = 1
Info: FEP VDW ACTIVE FOR EXNIHILATED PARTICLES BETWEEN LAMBDA = 0 AND LAMBDA = 1
Info: FEP BOND ACTIVE FOR ANNIHILATED PARTICLES BETWEEN LAMBDA = 1 AND LAMBDA = 1
Info: FEP BOND ACTIVE FOR EXNIHILATED PARTICLES BETWEEN LAMBDA = 0 AND LAMBDA = 0
Info: LANGEVIN DYNAMICS ACTIVE
Info: LANGEVIN TEMPERATURE   300
Info: LANGEVIN USING BBK INTEGRATOR
Info: LANGEVIN DAMPING COEFFICIENT IS 1 INVERSE PS
Info: LANGEVIN DYNAMICS APPLIED TO HYDROGENS
Info: LANGEVIN PISTON PRESSURE CONTROL ACTIVE
Info:        TARGET PRESSURE IS 1.01325 BAR
Info:     OSCILLATION PERIOD IS 50 FS
Info:             DECAY TIME IS 25 FS
Info:     PISTON TEMPERATURE IS 300 K
Info:       PRESSURE CONTROL IS GROUP-BASED
Info:    INITIAL STRAIN RATE IS 0.000322491 0.000322491 0.000322491
Info:       CELL FLUCTUATION IS ISOTROPIC
Info: PARTICLE MESH EWALD (PME) ACTIVE
Info: PME TOLERANCE               1e-06
Info: PME EWALD COEFFICIENT       0.348832
Info: PME INTERPOLATION ORDER     4
Info: PME GRID DIMENSIONS         32 36 32
Info: PME MAXIMUM GRID SPACING    1
Info: PME CALCULATION WILL BE PERFORMED ON GPU
Info: FULL ELECTROSTATIC EVALUATION FREQUENCY      2
Info: USING VERLET I (r-RESPA) MTS SCHEME.
Info: C1 SPLITTING OF LONG RANGE ELECTROSTATICS
Info: PLACING ATOMS IN PATCHES BY HYDROGEN GROUPS
Info: RIGID BONDS TO HYDROGEN : ALL
Info:         ERROR TOLERANCE : 1e-08
Info:          MAX ITERATIONS : 100
Info: RIGID WATER USING SETTLE ALGORITHM
Info: RANDOM NUMBER SEED     1743496348
Info: USE HYDROGEN BONDS?    NO
Info: Using AMBER format force field!
Info: AMBER PARM FILE        mobley_8260524.prmtop
Info: COORDINATE PDB         mobley_8260524.pdb
Info: Exclusions will be read from PARM file!
Info: SCNB (VDW SCALING)     2
Info: USING ARITHMETIC MEAN TO COMBINE L-J SIGMA PARAMETERS
Info: BINARY COORDINATES     mobley_8260524_equil.coor
Info: SUMMARY OF PARAMETERS:
Info: 6 BONDS
Info: 4 ANGLES
Info:   4 HARMONIC
Info:   0 COSINE-BASED
Info: 1 DIHEDRAL
Info: 0 IMPROPER
Info: 0 CROSSTERM
Info: 0 VDW
Info: 21 VDW_PAIRS
Info: 0 NBTHOLE_PAIRS
Info: To read alchdata from file: mobley_8260524.pdb
Info: To read alchflag data from column: 5
Info: STRUCTURE SUMMARY:
Info: 2932 ATOMS
Info: 2931 BONDS
Info: 8 ANGLES
Info: 4 DIHEDRALS
Info: 0 IMPROPERS
Info: 0 CROSSTERMS
Info: 2943 EXCLUSIONS
Info: 2929 RIGID BONDS
Info: ALCH: 0 ATOMS TO DISAPPEAR IN FINAL STATE
Info: ALCH: 7 ATOMS TO APPEAR IN FINAL STATE
Info: 5867 DEGREES OF FREEDOM
Info: 978 HYDROGEN GROUPS
Info: 4 ATOMS IN LARGEST HYDROGEN GROUP
Info: 978 MIGRATION GROUPS
Info: 4 ATOMS IN LARGEST MIGRATION GROUP
Info: TOTAL MASS = 17605.7 amu
Info: TOTAL CHARGE = 0.000100007 e
Info: MASS DENSITY = 0.964201 g/cm^3
Info: ATOM DENSITY = 0.0966986 atoms/A^3
Info: ADDED 0 IMPLICIT EXCLUSIONS
Info: NONBONDED TABLE R-SQUARED SPACING: 0.0625
Info: NONBONDED TABLE SIZE: 705 POINTS
Info: REMOVING COM VELOCITY 0.241956 -0.0603085 -0.0698625
Info: Use 3D box decompostion in PME FFT.
Info: Updated CUDA force table with 4096 elements.
Info: Updated CUDA LJ table with 6 x 6 elements.
Info: Found 10 unique exclusion lists needing 12 bytes
TCL: Running for 1500000 steps
ETITLE: TS BOND ANGLE DIHED IMPRP ELECT VDW BOUNDARY MISC KINETIC TOTAL TEMP POTENTIAL TOTALAVG TEMPAVG PRESSURE GPRESSURE VOLUME PRESSAVG GPRESSAVG
ENERGY: 0 0.3600 2.4827 0.0000 0.0000 -10678.3681 1400.9419 0.0000 0.0000 1758.2486 -7516.3350 301.6161 -9274.5836 -7516.3350 301.6161 -611.1944 -531.2359 30321.0213 -611.1944 -531.2359
ENERGY: 300000 0.7924 1.9377 0.0000 0.0000 -10669.1165 1440.7620 0.0000 0.0000 1780.8099 -7444.8146 305.4864 -9225.6245 -7507.8838 300.5844 215.0716 304.9477 29971.2724 -145.1433 -85.5162
ENERGY: 600000 0.7743 3.4080 0.0000 0.0000 -10707.6162 1438.7651 0.0000 0.0000 1714.1585 -7550.5104 294.0528 -9264.6689 -7515.2253 299.9363 -155.0410 -86.1702 30417.4974 -148.0420 -80.8366
ENERGY: 900000 0.5616 6.0214 0.0000 0.0000 -10496.6207 1315.4669 0.0000 0.0000 1724.0101 -7450.5607 295.7427 -9174.5708 -7506.1692 299.8678 -933.5655 -855.7910 30708.6163 -260.1579 -190.6306
ENERGY: 1200000 0.4206 1.4018 0.0000 0.0000 -10657.1184 1432.0766 0.0000 0.0000 1728.5332 -7494.6863 296.5187 -9223.2194 -7499.6828 299.4090 206.5710 283.6644 29999.5651 -294.0669 -217.3534
ENERGY: 1500000 0.1275 2.9571 0.0000 0.0000 -10595.4138 1397.2502 0.0000 0.0000 1704.8988 -7490.1802 292.4643 -9195.0790 -7502.9295 297.8306 -316.6706 -191.9237 30396.4940 -173.2038 -98.8115
TCL: Running FEP window   2: Lambda1 0.95   Lambda2 0.8999999999999999 [dLambda -0.050000000000000044]
TCL: Setting parameter firsttimestep to 0
TCL: Setting parameter alchLambda to 0.95
Info: NONBONDED TABLE R-SQUARED SPACING: 0.0625
Info: NONBONDED TABLE SIZE: 705 POINTS
TCL: Setting parameter alchLambda2 to 0.8999999999999999
Info: NONBONDED TABLE R-SQUARED SPACING: 0.0625
Info: NONBONDED TABLE SIZE: 705 POINTS
TCL: Running for 1500000 steps
ETITLE: TS BOND ANGLE DIHED IMPRP ELECT VDW BOUNDARY MISC KINETIC TOTAL TEMP POTENTIAL TOTALAVG TEMPAVG PRESSURE GPRESSURE VOLUME PRESSAVG GPRESSAVG
ENERGY: 0 0.1275 2.9571 0.0000 0.0000 -10595.2108 1397.5741 0.0000 0.0000 1703.9520 -7490.6001 292.3019 -9194.5521 -7490.6001 292.3019 -292.3562 -194.2766 30396.4940 -292.3562 -194.2766
ENERGY: 300000 0.3367 0.8790 0.0000 0.0000 -10716.8219 1442.5235 0.0000 0.0000 1749.6816 -7523.4010 300.1465 -9273.0827 -7507.0738 296.8967 -212.5569 -97.6105 30400.9264 34.9561 133.6895
ENERGY: 600000 0.2242 3.3598 0.0000 0.0000 -10584.1169 1332.7369 0.0000 0.0000 1830.4656 -7417.3304 314.0045 -9247.7960 -7474.3095 300.3526 -781.7634 -704.0697 29994.9208 -26.8968 52.6944
ENERGY: 900000 0.1565 1.7072 0.0000 0.0000 -10639.3968 1444.3343 0.0000 0.0000 1739.5206 -7453.6783 298.4035 -9193.1988 -7482.2671 299.9860 76.6793 84.9613 30690.6231 7.2925 83.8060
ENERGY: 1200000 0.5464 4.4310 0.0000 0.0000 -10400.0806 1302.8907 0.0000 0.0000 1699.1666 -7393.0459 291.4810 -9092.2124 -7476.9222 298.9102 -993.0346 -940.6080 31045.6941 -90.2746 -10.6401
ENERGY: 1500000 0.1121 2.6786 0.0000 0.0000 -10607.9271 1360.5311 0.0000 0.0000 1708.2338 -7536.3715 293.0364 -9244.6053 -7478.7647 298.5960 -507.5805 -453.5497 29968.1795 -108.5926 -36.9016
TCL: Running FEP window   3: Lambda1 0.8999999999999999 Lambda2 0.8499999999999999 [dLambda -0.050000000000000044]
TCL: Setting parameter firsttimestep to 0
TCL: Setting parameter alchLambda to 0.8999999999999999
Info: NONBONDED TABLE R-SQUARED SPACING: 0.0625
Info: NONBONDED TABLE SIZE: 705 POINTS
TCL: Setting parameter alchLambda2 to 0.8499999999999999
Info: NONBONDED TABLE R-SQUARED SPACING: 0.0625
Info: NONBONDED TABLE SIZE: 705 POINTS
TCL: Running for 1500000 steps
ETITLE: TS BOND ANGLE DIHED IMPRP ELECT VDW BOUNDARY MISC KINETIC TOTAL TEMP POTENTIAL TOTALAVG TEMPAVG PRESSURE GPRESSURE VOLUME PRESSAVG GPRESSAVG
ENERGY: 0 0.1121 2.6786 0.0000 0.0000 -10607.7711 1360.6316 0.0000 0.0000 1707.3390 -7537.0098 292.8829 -9244.3488 -7537.0098 292.8829 -540.0584 -460.8171 29968.1795 -540.0584 -460.8171
ENERGY: 300000 3.7532 1.2126 0.0000 0.0000 -10651.4311 1434.1004 0.0000 0.0000 1753.0979 -7459.2670 300.7326 -9212.3649 -7491.8482 296.6800 71.0783 123.9350 29927.4724 -100.6243 -26.4910
ENERGY: 600000 0.0848 2.2764 0.0000 0.0000 -10727.3723 1481.4411 0.0000 0.0000 1784.4828 -7459.0871 306.1165 -9243.5699 -7463.8023 300.6190 193.4204 262.4510 30325.7266 -203.1946 -137.5570
ENERGY: 900000 1.5747 3.3167 0.0000 0.0000 -10589.5612 1413.8869 0.0000 0.0000 1776.7941 -7393.9888 304.7975 -9170.7829 -7456.3999 300.4022 165.7783 259.2438 30304.3836 -239.6161 -176.8737
ENERGY: 1200000 0.1222 2.5887 0.0000 0.0000 -10796.1987 1468.6453 0.0000 0.0000 1730.0102 -7594.8323 296.7720 -9324.8425 -7462.4064 300.4977 126.6504 158.8095 29732.4445 -250.9511 -183.2494
ENERGY: 1500000 0.2896 2.6228 0.0000 0.0000 -10681.5892 1452.5147 0.0000 0.0000 1767.7388 -7458.4233 303.2441 -9226.1621 -7461.4615 301.4077 208.9060 278.2960 30025.3069 -173.3928 -111.3961
TCL: Running FEP window   4: Lambda1 0.8499999999999999 Lambda2 0.7999999999999998 [dLambda -0.050000000000000044]
TCL: Setting parameter firsttimestep to 0
TCL: Setting parameter alchLambda to 0.8499999999999999
Info: NONBONDED TABLE R-SQUARED SPACING: 0.0625
Info: NONBONDED TABLE SIZE: 705 POINTS
TCL: Setting parameter alchLambda2 to 0.7999999999999998
Info: NONBONDED TABLE R-SQUARED SPACING: 0.0625
Info: NONBONDED TABLE SIZE: 705 POINTS
TCL: Running for 1500000 steps
ETITLE: TS BOND ANGLE DIHED IMPRP ELECT VDW BOUNDARY MISC KINETIC TOTAL TEMP POTENTIAL TOTALAVG TEMPAVG PRESSURE GPRESSURE VOLUME PRESSAVG GPRESSAVG
ENERGY: 0 0.2896 2.6228 0.0000 0.0000 -10681.3275 1452.6116 0.0000 0.0000 1766.8375 -7458.9659 303.0895 -9225.8034 -7458.9659 303.0895 188.4314 272.3158 30025.3069 188.4314 272.3158
ENERGY: 300000 1.7965 1.1785 0.0000 0.0000 -10622.8760 1362.7745 0.0000 0.0000 1764.8371 -7492.2893 302.7464 -9257.1265 -7512.0969 300.2903 -534.9702 -486.1853 30127.5958 -238.8767 -190.6249
ENERGY: 600000 0.3178 3.5317 0.0000 0.0000 -10728.1967 1473.5632 0.0000 0.0000 1747.6859 -7503.0981 299.8042 -9250.7840 -7482.1776 300.5472 484.5577 546.6490 29786.3872 -137.5013 -95.9927
ENERGY: 900000 0.7837 1.2610 0.0000 0.0000 -10549.5679 1380.6190 0.0000 0.0000 1747.7327 -7419.1715 299.8122 -9166.9042 -7472.9947 300.4717 -437.3007 -401.4597 30770.7483 -138.7703 -92.8636
ENERGY: 1200000 1.4219 4.2951 0.0000 0.0000 -10626.3208 1403.9400 0.0000 0.0000 1838.0107 -7378.6531 315.2988 -9216.6638 -7461.8178 301.7571 -142.1723 -110.4110 30426.6445 -114.3490 -68.4850
ENERGY: 1500000 0.0577 2.8936 0.0000 0.0000 -10668.0497 1483.0144 0.0000 0.0000 1770.3791 -7411.7049 303.6970 -9182.0840 -7472.4456 301.1053 390.3242 403.4354 30521.7373 -14.6619 24.7219
TCL: Running FEP window   5: Lambda1 0.7999999999999998 Lambda2 0.7499999999999998 [dLambda -0.050000000000000044]
TCL: Setting parameter firsttimestep to 0
TCL: Setting parameter alchLambda to 0.7999999999999998
Info: NONBONDED TABLE R-SQUARED SPACING: 0.0625
Info: NONBONDED TABLE SIZE: 705 POINTS
TCL: Setting parameter alchLambda2 to 0.7499999999999998
Info: NONBONDED TABLE R-SQUARED SPACING: 0.0625
Info: NONBONDED TABLE SIZE: 705 POINTS
TCL: Running for 1500000 steps
ETITLE: TS BOND ANGLE DIHED IMPRP ELECT VDW BOUNDARY MISC KINETIC TOTAL TEMP POTENTIAL TOTALAVG TEMPAVG PRESSURE GPRESSURE VOLUME PRESSAVG GPRESSAVG
ENERGY: 0 0.0577 2.8936 0.0000 0.0000 -10667.8344 1483.4369 0.0000 0.0000 1769.4754 -7411.9708 303.5420 -9181.4462 -7411.9708 303.5420 316.7271 404.3593 30521.7373 316.7271 404.3593
ENERGY: 300000 0.6434 3.7406 0.0000 0.0000 -10600.9199 1386.2964 0.0000 0.0000 1783.0908 -7427.1487 305.8777 -9210.2395 -7449.5343 302.2738 -234.2546 -275.7210 30244.8679 -235.4182 -179.7511
ENERGY: 600000 0.1073 4.1628 0.0000 0.0000 -10670.8425 1368.3399 0.0000 0.0000 1690.2539 -7607.9786 289.9521 -9298.2325 -7472.7687 300.3368 -605.9194 -539.7480 29691.1029 -307.9080 -253.0292
ENERGY: 900000 0.7963 0.9371 0.0000 0.0000 -10602.6846 1418.0981 0.0000 0.0000 1768.3964 -7414.4568 303.3569 -9182.8532 -7461.8392 300.9082 316.3329 361.6945 29713.0328 -246.1385 -195.1895
ENERGY: 1200000 0.3992 2.1949 0.0000 0.0000 -10536.6335 1360.2947 0.0000 0.0000 1720.9786 -7452.7662 295.2227 -9173.7448 -7463.5890 301.0051 -520.0451 -410.7887 30303.8651 -149.5208 -96.0030
ENERGY: 1500000 0.2187 3.8359 0.0000 0.0000 -10599.4013 1401.4534 0.0000 0.0000 1785.2846 -7408.6088 306.2540 -9193.8933 -7462.9319 301.1513 -191.1391 -63.1089 30312.7911 -200.2057 -140.6343
TCL: Running FEP window   6: Lambda1 0.7499999999999998 Lambda2 0.6999999999999997 [dLambda -0.050000000000000044]
TCL: Setting parameter firsttimestep to 0
TCL: Setting parameter alchLambda to 0.7499999999999998
Info: NONBONDED TABLE R-SQUARED SPACING: 0.0625
Info: NONBONDED TABLE SIZE: 705 POINTS
TCL: Setting parameter alchLambda2 to 0.6999999999999997
Info: NONBONDED TABLE R-SQUARED SPACING: 0.0625
Info: NONBONDED TABLE SIZE: 705 POINTS
TCL: Running for 1500000 steps
ETITLE: TS BOND ANGLE DIHED IMPRP ELECT VDW BOUNDARY MISC KINETIC TOTAL TEMP POTENTIAL TOTALAVG TEMPAVG PRESSURE GPRESSURE VOLUME PRESSAVG GPRESSAVG
ENERGY: 0 0.2187 3.8359 0.0000 0.0000 -10599.4164 1401.2511 0.0000 0.0000 1784.4357 -7409.6750 306.1084 -9194.1107 -7409.6750 306.1084 -142.8726 -69.9234 30312.7911 -142.8726 -69.9234
ENERGY: 300000 0.1446 1.5531 0.0000 0.0000 -10539.8815 1347.0010 0.0000 0.0000 1762.8591 -7428.3237 302.4070 -9191.1828 -7455.6004 299.4892 -536.8009 -467.2927 30165.5664 285.2130 359.5900
ENERGY: 600000 0.3988 3.6841 0.0000 0.0000 -10676.1010 1507.8055 0.0000 0.0000 1760.3333 -7403.8793 301.9737 -9164.2126 -7446.7547 301.8016 755.0353 810.7647 30250.7284 88.6423 169.3693
ENERGY: 900000 0.7225 2.2529 0.0000 0.0000 -10649.0547 1432.8131 0.0000 0.0000 1752.2799 -7460.9863 300.5922 -9213.2662 -7447.2584 300.5520 -23.4482 50.2356 30207.8066 -30.3456 40.9990
ENERGY: 1200000 0.6458 2.2097 0.0000 0.0000 -10429.4943 1293.3947 0.0000 0.0000 1745.8595 -7387.3847 299.4909 -9133.2441 -7441.7036 299.9779 -787.3032 -776.3171 30210.8080 -21.1911 54.3396
ENERGY: 1500000 0.4109 2.1304 0.0000 0.0000 -10742.0785 1502.9844 0.0000 0.0000 1711.8068 -7524.7459 293.6494 -9236.5527 -7451.7726 300.0713 444.1139 543.8051 30213.8272 22.0100 104.5327
TCL: Running FEP window   7: Lambda1 0.6999999999999997 Lambda2 0.6499999999999997 [dLambda -0.050000000000000044]
TCL: Setting parameter firsttimestep to 0
TCL: Setting parameter alchLambda to 0.6999999999999997
Info: NONBONDED TABLE R-SQUARED SPACING: 0.0625
Info: NONBONDED TABLE SIZE: 705 POINTS
TCL: Setting parameter alchLambda2 to 0.6499999999999997
Info: NONBONDED TABLE R-SQUARED SPACING: 0.0625
Info: NONBONDED TABLE SIZE: 705 POINTS
TCL: Running for 1500000 steps
ETITLE: TS BOND ANGLE DIHED IMPRP ELECT VDW BOUNDARY MISC KINETIC TOTAL TEMP POTENTIAL TOTALAVG TEMPAVG PRESSURE GPRESSURE VOLUME PRESSAVG GPRESSAVG
ENERGY: 0 0.4109 2.1304 0.0000 0.0000 -10741.9384 1503.1931 0.0000 0.0000 1710.9421 -7525.2619 293.5010 -9236.2040 -7525.2619 293.5010 440.4521 539.4419 30213.8272 440.4521 539.4419
ENERGY: 300000 0.6770 4.4486 0.0000 0.0000 -10810.3379 1541.0982 0.0000 0.0000 1744.6074 -7519.5066 299.2761 -9264.1140 -7479.0333 301.9507 1086.0834 1149.4896 29525.4377 18.7214 73.0537
ENERGY: 600000 0.5345 1.0839 0.0000 0.0000 -10592.2972 1406.0428 0.0000 0.0000 1755.7970 -7428.8390 301.1956 -9184.6360 -7477.5988 301.7032 -198.1236 -91.6338 30158.3767 -36.7335 32.6373
ENERGY: 900000 0.4727 2.9912 0.0000 0.0000 -10737.1854 1453.3911 0.0000 0.0000 1774.1492 -7506.1813 304.3438 -9280.3305 -7475.5678 302.2299 -81.9704 -74.3462 30410.2349 -65.0903 -5.5987
ENERGY: 1200000 0.7101 1.4818 0.0000 0.0000 -10707.2229 1478.4662 0.0000 0.0000 1764.4320 -7462.1328 302.6769 -9226.5647 -7469.7075 301.8733 329.4302 428.0628 30002.2066 100.5691 165.0964
ENERGY: 1500000 0.1532 4.1108 0.0000 0.0000 -10607.8029 1403.2028 0.0000 0.0000 1722.2402 -7478.0959 295.4391 -9200.3361 -7476.4652 301.0082 -241.6506 -223.5920 30571.2951 55.4251 109.6038
TCL: Running FEP window   8: Lambda1 0.6499999999999997 Lambda2 0.5999999999999996 [dLambda -0.050000000000000044]
TCL: Setting parameter firsttimestep to 0
TCL: Setting parameter alchLambda to 0.6499999999999997
Info: NONBONDED TABLE R-SQUARED SPACING: 0.0625
Info: NONBONDED TABLE SIZE: 705 POINTS
TCL: Setting parameter alchLambda2 to 0.5999999999999996
Info: NONBONDED TABLE R-SQUARED SPACING: 0.0625
Info: NONBONDED TABLE SIZE: 705 POINTS
TCL: Running for 1500000 steps
ETITLE: TS BOND ANGLE DIHED IMPRP ELECT VDW BOUNDARY MISC KINETIC TOTAL TEMP POTENTIAL TOTALAVG TEMPAVG PRESSURE GPRESSURE VOLUME PRESSAVG GPRESSAVG
ENERGY: 0 0.1532 4.1108 0.0000 0.0000 -10607.7485 1403.6257 0.0000 0.0000 1721.3616 -7478.4973 295.2884 -9199.8589 -7478.4973 295.2884 -304.5324 -221.7627 30571.2951 -304.5324 -221.7627
ENERGY: 300000 1.1469 1.5594 0.0000 0.0000 -10666.1336 1432.0402 0.0000 0.0000 1773.0224 -7458.3647 304.1505 -9231.3871 -7471.9197 298.7574 -339.0796 -287.2145 30634.5822 -144.4691 -94.0913
ENERGY: 600000 2.3189 4.7195 0.0000 0.0000 -10610.2736 1394.9295 0.0000 0.0000 1665.1329 -7543.1728 285.6427 -9208.3057 -7472.0844 297.5829 -684.6615 -623.2973 30647.1830 -134.5914 -82.3617
ENERGY: 900000 1.5826 4.6916 0.0000 0.0000 -10751.9994 1510.3683 0.0000 0.0000 1824.4005 -7410.9565 312.9641 -9235.3570 -7462.0604 299.0520 747.6650 793.4347 30009.3847 65.4148 114.6622
ENERGY: 1200000 2.9810 3.0647 0.0000 0.0000 -10602.0720 1415.0131 0.0000 0.0000 1734.5499 -7446.4632 297.5508 -9181.0131 -7458.8514 298.9597 -390.8512 -358.1017 30767.1086 -133.9200 -84.1427
ENERGY: 1500000 1.6736 2.0242 0.0000 0.0000 -10427.5290 1311.8506 0.0000 0.0000 1721.7317 -7390.2489 295.3519 -9111.9805 -7447.2079 299.8193 -634.5815 -599.7989 30666.2111 -113.7838 -63.9942
TCL: Running FEP window   9: Lambda1 0.5999999999999996 Lambda2 0.5499999999999996 [dLambda -0.050000000000000044]
TCL: Setting parameter firsttimestep to 0
TCL: Setting parameter alchLambda to 0.5999999999999996
Info: NONBONDED TABLE R-SQUARED SPACING: 0.0625
Info: NONBONDED TABLE SIZE: 705 POINTS
TCL: Setting parameter alchLambda2 to 0.5499999999999996
Info: NONBONDED TABLE R-SQUARED SPACING: 0.0625
Info: NONBONDED TABLE SIZE: 705 POINTS
TCL: Running for 1500000 steps
ETITLE: TS BOND ANGLE DIHED IMPRP ELECT VDW BOUNDARY MISC KINETIC TOTAL TEMP POTENTIAL TOTALAVG TEMPAVG PRESSURE GPRESSURE VOLUME PRESSAVG GPRESSAVG
ENERGY: 0 1.6736 2.0242 0.0000 0.0000 -10427.3681 1312.2606 0.0000 0.0000 1720.8672 -7390.5425 295.2036 -9111.4097 -7390.5425 295.2036 -688.3511 -600.5748 30666.2111 -688.3511 -600.5748
ENERGY: 300000 0.4412 2.3642 0.0000 0.0000 -10700.6334 1459.3003 0.0000 0.0000 1776.2056 -7462.3221 304.6965 -9238.5276 -7436.7230 299.6937 169.4337 199.7118 30243.8390 -125.9392 -75.6322
ENERGY: 600000 0.3362 3.4036 0.0000 0.0000 -10645.1334 1449.4673 0.0000 0.0000 1697.6269 -7494.2994 291.2169 -9191.9263 -7442.4139 299.7532 -9.7205 40.0416 30519.9491 -83.1166 -36.7044
ENERGY: 900000 0.7402 1.9749 0.0000 0.0000 -10742.3771 1464.2529 0.0000 0.0000 1756.8191 -7518.5900 301.3709 -9275.4090 -7452.7999 300.3875 248.7827 338.0563 29721.4882 14.6518 62.6790
ENERGY: 1200000 0.5694 2.4429 0.0000 0.0000 -10668.8647 1380.4593 0.0000 0.0000 1787.2486 -7498.1445 306.5909 -9285.3931 -7460.1145 301.0300 -404.0962 -265.6178 29494.3646 -96.5852 -40.0797
ENERGY: 1500000 0.0400 2.5400 0.0000 0.0000 -10675.3951 1427.8362 0.0000 0.0000 1743.6793 -7501.2996 299.1169 -9244.9789 -7473.0101 300.1749 -424.4546 -345.4691 30560.9034 -99.2978 -40.8749
TCL: Running FEP window  10: Lambda1 0.5499999999999996 Lambda2 0.4999999999999996 [dLambda -0.04999999999999999]
TCL: Setting parameter firsttimestep to 0
TCL: Setting parameter alchLambda to 0.5499999999999996
Info: NONBONDED TABLE R-SQUARED SPACING: 0.0625
Info: NONBONDED TABLE SIZE: 705 POINTS
TCL: Setting parameter alchLambda2 to 0.4999999999999996
Info: NONBONDED TABLE R-SQUARED SPACING: 0.0625
Info: NONBONDED TABLE SIZE: 705 POINTS
TCL: Running for 1500000 steps
ETITLE: TS BOND ANGLE DIHED IMPRP ELECT VDW BOUNDARY MISC KINETIC TOTAL TEMP POTENTIAL TOTALAVG TEMPAVG PRESSURE GPRESSURE VOLUME PRESSAVG GPRESSAVG
ENERGY: 0 0.0400 2.5400 0.0000 0.0000 -10675.2379 1428.0287 0.0000 0.0000 1742.8200 -7501.8092 298.9695 -9244.6292 -7501.8092 298.9695 -438.8607 -349.1644 30560.9034 -438.8607 -349.1644
ENERGY: 300000 1.7875 2.7754 0.0000 0.0000 -10624.1762 1465.0673 0.0000 0.0000 1748.8810 -7405.6651 300.0092 -9154.5461 -7476.5285 302.1138 290.7006 279.7153 30553.7578 -288.3747 -241.8510
ENERGY: 600000 0.8383 2.3396 0.0000 0.0000 -10665.0577 1483.7458 0.0000 0.0000 1757.5927 -7420.5412 301.5036 -9178.1339 -7460.0973 302.4162 507.6867 555.2743 30096.2675 -117.6728 -57.1005
ENERGY: 900000 0.1586 2.9643 0.0000 0.0000 -10685.6654 1476.1503 0.0000 0.0000 1748.6751 -7457.7171 299.9739 -9206.3922 -7458.0339 302.1429 522.0110 554.1454 29890.3508 -69.2434 -12.6099
ENERGY: 1200000 0.1162 0.6781 0.0000 0.0000 -10588.1440 1400.4322 0.0000 0.0000 1702.8574 -7484.0600 292.1141 -9186.9174 -7459.4937 301.6011 -193.7820 -217.1865 30303.2778 -105.3679 -61.3076
ENERGY: 1500000 0.3880 3.4865 0.0000 0.0000 -10560.2704 1393.8174 0.0000 0.0000 1749.3180 -7413.2605 300.0842 -9162.5785 -7453.3831 301.5688 -304.7873 -205.7435 30442.3255 -57.0424 -5.5780
TCL: Running FEP window  11: Lambda1 0.4999999999999996 Lambda2 0.4499999999999996 [dLambda -0.04999999999999999]
TCL: Setting parameter firsttimestep to 0
TCL: Setting parameter alchLambda to 0.4999999999999996
Info: NONBONDED TABLE R-SQUARED SPACING: 0.0625
Info: NONBONDED TABLE SIZE: 705 POINTS
TCL: Setting parameter alchLambda2 to 0.4499999999999996
Info: NONBONDED TABLE R-SQUARED SPACING: 0.0625
Info: NONBONDED TABLE SIZE: 705 POINTS
TCL: Running for 1500000 steps
ETITLE: TS BOND ANGLE DIHED IMPRP ELECT VDW BOUNDARY MISC KINETIC TOTAL TEMP POTENTIAL TOTALAVG TEMPAVG PRESSURE GPRESSURE VOLUME PRESSAVG GPRESSAVG
ENERGY: 0 0.3880 3.4865 0.0000 0.0000 -10560.2523 1394.2455 0.0000 0.0000 1748.4865 -7413.6457 299.9415 -9162.1322 -7413.6457 299.9415 -286.4846 -205.5119 30442.3255 -286.4846 -205.5119
ENERGY: 300000 0.9229 3.1943 0.0000 0.0000 -10772.6863 1463.7441 0.0000 0.0000 1796.8655 -7507.9596 308.2406 -9304.8251 -7452.9685 304.4503 51.9181 147.2063 29951.1135 -179.7297 -130.3825
ENERGY: 600000 0.3079 3.0720 0.0000 0.0000 -10648.2755 1447.8996 0.0000 0.0000 1757.0651 -7439.9309 301.4131 -9196.9960 -7439.0688 303.5647 54.2788 137.0595 30331.4540 -252.5901 -202.7995
ENERGY: 900000 0.2565 1.3673 0.0000 0.0000 -10660.7753 1411.7078 0.0000 0.0000 1754.6119 -7492.8318 300.9923 -9247.4437 -7445.4040 301.5410 -289.0563 -162.1955 30134.6087 -174.4053 -115.4387
ENERGY: 1200000 1.6542 1.7776 0.0000 0.0000 -10460.2646 1317.0308 0.0000 0.0000 1770.0152 -7369.7867 303.6346 -9139.8019 -7437.6350 301.4419 -742.0106 -707.7913 30516.9915 -139.4126 -81.5894
ENERGY: 1500000 0.2551 4.0526 0.0000 0.0000 -10539.3460 1332.6566 0.0000 0.0000 1746.1276 -7456.2541 299.5369 -9202.3817 -7441.3166 301.7429 -876.0348 -819.1736 30447.0800 -163.9648 -107.3026
TCL: Running FEP window  12: Lambda1 0.4499999999999996 Lambda2 0.39999999999999963 [dLambda -0.04999999999999999]
TCL: Setting parameter firsttimestep to 0
TCL: Setting parameter alchLambda to 0.4499999999999996
Info: NONBONDED TABLE R-SQUARED SPACING: 0.0625
Info: NONBONDED TABLE SIZE: 705 POINTS
TCL: Setting parameter alchLambda2 to 0.39999999999999963
Info: NONBONDED TABLE R-SQUARED SPACING: 0.0625
Info: NONBONDED TABLE SIZE: 705 POINTS
TCL: Running for 1500000 steps
ETITLE: TS BOND ANGLE DIHED IMPRP ELECT VDW BOUNDARY MISC KINETIC TOTAL TEMP POTENTIAL TOTALAVG TEMPAVG PRESSURE GPRESSURE VOLUME PRESSAVG GPRESSAVG
ENERGY: 0 0.2551 4.0526 0.0000 0.0000 -10539.3461 1332.6520 0.0000 0.0000 1745.2425 -7457.1439 299.3850 -9202.3864 -7457.1439 299.3850 -913.3830 -823.6095 30447.0800 -913.3830 -823.6095
ENERGY: 300000 0.5521 1.4487 0.0000 0.0000 -10578.8206 1371.2029 0.0000 0.0000 1771.1850 -7434.4320 303.8353 -9205.6170 -7466.5464 303.4896 -288.2296 -302.2862 30000.5254 -77.7056 -32.9394
ENERGY: 600000 0.5377 1.0856 0.0000 0.0000 -10721.7377 1540.1116 0.0000 0.0000 1743.4163 -7436.5865 299.0718 -9180.0028 -7480.9522 300.2553 860.1373 812.2032 30528.6154 69.8286 95.0491
ENERGY: 900000 0.7802 1.6302 0.0000 0.0000 -10640.6198 1450.6511 0.0000 0.0000 1755.9491 -7431.6092 301.2217 -9187.5583 -7474.2033 300.5622 348.0239 400.7497 29949.0957 108.5916 139.0052
ENERGY: 1200000 0.0986 0.9351 0.0000 0.0000 -10689.8861 1504.6226 0.0000 0.0000 1720.3710 -7463.8588 295.1185 -9184.2299 -7473.2802 299.8428 744.2157 823.4122 29775.9598 115.6954 160.9587
ENERGY: 1500000 0.6665 1.5742 0.0000 0.0000 -10615.1252 1382.4767 0.0000 0.0000 1731.7415 -7498.6663 297.0690 -9230.4078 -7466.7907 299.2933 -885.1152 -815.4793 30918.1982 32.9709 83.0971
TCL: Running FEP window  13: Lambda1 0.39999999999999963 Lambda2 0.34999999999999964 [dLambda -0.04999999999999999]
TCL: Setting parameter firsttimestep to 0
TCL: Setting parameter alchLambda to 0.39999999999999963
Info: NONBONDED TABLE R-SQUARED SPACING: 0.0625
Info: NONBONDED TABLE SIZE: 705 POINTS
TCL: Setting parameter alchLambda2 to 0.34999999999999964
Info: NONBONDED TABLE R-SQUARED SPACING: 0.0625
Info: NONBONDED TABLE SIZE: 705 POINTS
TCL: Running for 1500000 steps
ETITLE: TS BOND ANGLE DIHED IMPRP ELECT VDW BOUNDARY MISC KINETIC TOTAL TEMP POTENTIAL TOTALAVG TEMPAVG PRESSURE GPRESSURE VOLUME PRESSAVG GPRESSAVG
ENERGY: 0 0.6665 1.5742 0.0000 0.0000 -10615.1266 1382.6834 0.0000 0.0000 1730.8504 -7499.3521 296.9162 -9230.2025 -7499.3521 296.9162 -898.5429 -818.3883 30918.1982 -898.5429 -818.3883
ENERGY: 300000 0.0866 1.3371 0.0000 0.0000 -10734.3265 1509.3931 0.0000 0.0000 1732.7860 -7490.7237 297.2482 -9223.5097 -7481.3628 299.9662 769.5192 860.5108 29475.7754 -154.1092 -63.1402
ENERGY: 600000 0.1714 3.0813 0.0000 0.0000 -10607.3656 1360.8457 0.0000 0.0000 1765.5375 -7477.7298 302.8665 -9243.2673 -7462.8989 300.4823 -539.6432 -531.9524 30203.7887 -145.6706 -68.1082
ENERGY: 900000 0.2401 1.5738 0.0000 0.0000 -10675.0336 1475.4284 0.0000 0.0000 1793.1039 -7404.6874 307.5953 -9197.7913 -7462.1248 300.6743 345.7745 399.0551 30032.5335 -178.4185 -104.6421
ENERGY: 1200000 0.6922 2.4182 0.0000 0.0000 -10636.2325 1412.8223 0.0000 0.0000 1723.0021 -7497.2977 295.5698 -9220.2998 -7477.8865 298.8733 -139.1991 -82.9549 30356.8569 -197.7541 -124.5083
ENERGY: 1500000 0.1764 1.1277 0.0000 0.0000 -10691.6266 1506.6758 0.0000 0.0000 1716.8691 -7466.7777 294.5177 -9183.6468 -7486.1165 297.5826 587.0757 683.1592 29989.6585 -126.8667 -55.0773
TCL: Running FEP window  14: Lambda1 0.34999999999999964 Lambda2 0.29999999999999966 [dLambda -0.04999999999999999]
TCL: Setting parameter firsttimestep to 0
TCL: Setting parameter alchLambda to 0.34999999999999964
Info: NONBONDED TABLE R-SQUARED SPACING: 0.0625
Info: NONBONDED TABLE SIZE: 705 POINTS
TCL: Setting parameter alchLambda2 to 0.29999999999999966
Info: NONBONDED TABLE R-SQUARED SPACING: 0.0625
Info: NONBONDED TABLE SIZE: 705 POINTS
TCL: Running for 1500000 steps
ETITLE: TS BOND ANGLE DIHED IMPRP ELECT VDW BOUNDARY MISC KINETIC TOTAL TEMP POTENTIAL TOTALAVG TEMPAVG PRESSURE GPRESSURE VOLUME PRESSAVG GPRESSAVG
ENERGY: 0 0.1764 1.1277 0.0000 0.0000 -10691.6277 1506.6813 0.0000 0.0000 1716.0144 -7467.6280 294.3711 -9183.6424 -7467.6280 294.3711 588.0099 682.1485 29989.6585 588.0099 682.1485
ENERGY: 300000 1.1674 3.2736 0.0000 0.0000 -10668.0212 1431.8720 0.0000 0.0000 1739.4339 -7492.2743 298.3886 -9231.7082 -7492.5049 297.0441 129.0247 210.9928 29867.6929 -28.3332 39.0342
ENERGY: 600000 0.1884 3.5101 0.0000 0.0000 -10611.1190 1421.3138 0.0000 0.0000 1823.2255 -7362.8812 312.7625 -9186.1067 -7467.1135 301.4344 -88.7827 -40.1602 30614.5091 -213.1104 -147.5150
ENERGY: 900000 0.3855 5.2028 0.0000 0.0000 -10728.6993 1499.1668 0.0000 0.0000 1734.6542 -7489.2900 297.5687 -9223.9442 -7473.1992 300.3804 401.1314 394.6819 30438.8004 26.6806 79.4135
ENERGY: 1200000 0.6496 3.5518 0.0000 0.0000 -10655.1880 1435.1505 0.0000 0.0000 1750.2913 -7465.5448 300.2511 -9215.8361 -7472.6289 299.7575 97.5580 186.8119 30055.8830 80.4365 135.6415
ENERGY: 1500000 0.5540 2.4355 0.0000 0.0000 -10703.7450 1407.9796 0.0000 0.0000 1766.1707 -7526.6052 302.9751 -9292.7759 -7475.9078 300.4441 -343.1595 -286.2439 30200.8896 85.1904 135.8207
TCL: Running FEP window  15: Lambda1 0.29999999999999966 Lambda2 0.24999999999999967 [dLambda -0.04999999999999999]
TCL: Setting parameter firsttimestep to 0
TCL: Setting parameter alchLambda to 0.29999999999999966
Info: NONBONDED TABLE R-SQUARED SPACING: 0.0625
Info: NONBONDED TABLE SIZE: 705 POINTS
TCL: Setting parameter alchLambda2 to 0.24999999999999967
Info: NONBONDED TABLE R-SQUARED SPACING: 0.0625
Info: NONBONDED TABLE SIZE: 705 POINTS
TCL: Running for 1500000 steps
ETITLE: TS BOND ANGLE DIHED IMPRP ELECT VDW BOUNDARY MISC KINETIC TOTAL TEMP POTENTIAL TOTALAVG TEMPAVG PRESSURE GPRESSURE VOLUME PRESSAVG GPRESSAVG
ENERGY: 0 0.5540 2.4355 0.0000 0.0000 -10703.7459 1408.2180 0.0000 0.0000 1765.3101 -7527.2283 302.8275 -9292.5384 -7527.2283 302.8275 -367.9648 -286.5952 30200.8896 -367.9648 -286.5952
ENERGY: 300000 0.3711 3.4415 0.0000 0.0000 -10555.3838 1356.9759 0.0000 0.0000 1729.9818 -7464.6135 296.7671 -9194.5953 -7502.4769 298.7030 -799.0526 -724.8739 30652.8208 -310.6155 -236.0145
ENERGY: 600000 0.4346 2.6655 0.0000 0.0000 -10670.8974 1483.0675 0.0000 0.0000 1767.3106 -7417.4193 303.1707 -9184.7299 -7461.0252 300.8170 391.3013 464.4605 30165.2361 -43.1006 35.6152
ENERGY: 900000 0.8668 3.1912 0.0000 0.0000 -10716.5303 1447.8873 0.0000 0.0000 1786.6312 -7477.9538 306.4850 -9264.5850 -7459.1320 301.7915 237.1813 322.0034 29842.7279 -23.5625 53.3911
ENERGY: 1200000 0.0630 2.5478 0.0000 0.0000 -10575.1858 1391.5313 0.0000 0.0000 1736.1828 -7444.8610 297.8309 -9181.0438 -7457.8831 300.6129 -518.1320 -424.6764 30530.5151 -117.3068 -47.5046
ENERGY: 1500000 1.0265 2.6659 0.0000 0.0000 -10570.1193 1400.9664 0.0000 0.0000 1727.9520 -7437.5085 296.4190 -9165.4605 -7453.0683 300.1612 -285.7465 -223.8732 30322.5389 -138.8525 -67.0546
TCL: Running FEP window  16: Lambda1 0.24999999999999967 Lambda2 0.19999999999999968 [dLambda -0.04999999999999999]
TCL: Setting parameter firsttimestep to 0
TCL: Setting parameter alchLambda to 0.24999999999999967
Info: NONBONDED TABLE R-SQUARED SPACING: 0.0625
Info: NONBONDED TABLE SIZE: 705 POINTS
TCL: Setting parameter alchLambda2 to 0.19999999999999968
Info: NONBONDED TABLE R-SQUARED SPACING: 0.0625
Info: NONBONDED TABLE SIZE: 705 POINTS
TCL: Running for 1500000 steps
ETITLE: TS BOND ANGLE DIHED IMPRP ELECT VDW BOUNDARY MISC KINETIC TOTAL TEMP POTENTIAL TOTALAVG TEMPAVG PRESSURE GPRESSURE VOLUME PRESSAVG GPRESSAVG
ENERGY: 0 1.0265 2.6659 0.0000 0.0000 -10570.1193 1401.1105 0.0000 0.0000 1727.0825 -7438.2339 296.2698 -9165.3164 -7438.2339 296.2698 -306.8340 -224.5438 30322.5389 -306.8340 -224.5438
ENERGY: 300000 0.2103 0.7120 0.0000 0.0000 -10756.5869 1550.2151 0.0000 0.0000 1715.0380 -7490.4114 294.2036 -9205.4495 -7477.0246 296.5756 810.6653 888.1447 30166.1765 -105.0403 -38.2818
ENERGY: 600000 0.4806 1.8731 0.0000 0.0000 -10709.7588 1511.5939 0.0000 0.0000 1781.9115 -7413.8998 305.6753 -9195.8112 -7458.1713 298.5948 414.6492 438.3986 30434.2441 163.2488 230.3093
ENERGY: 900000 0.4839 0.9291 0.0000 0.0000 -10736.3226 1504.1632 0.0000 0.0000 1754.5445 -7476.2020 300.9807 -9230.7465 -7456.9542 301.0450 578.7193 719.5185 30015.6000 297.5987 364.8788
ENERGY: 1200000 0.2796 2.3388 0.0000 0.0000 -10584.0079 1373.6299 0.0000 0.0000 1759.1140 -7448.6456 301.7646 -9207.7596 -7465.2110 302.1296 -546.4372 -524.3953 30350.2322 177.5401 240.2001
ENERGY: 1500000 2.4275 2.0762 0.0000 0.0000 -10682.6145 1390.1571 0.0000 0.0000 1785.3136 -7502.6400 306.2590 -9287.9536 -7459.8569 302.2984 -566.9503 -497.8058 29884.2828 110.7412 175.5608
TCL: Running FEP window  17: Lambda1 0.19999999999999968 Lambda2 0.1499999999999997 [dLambda -0.04999999999999999]
TCL: Setting parameter firsttimestep to 0
TCL: Setting parameter alchLambda to 0.19999999999999968
Info: NONBONDED TABLE R-SQUARED SPACING: 0.0625
Info: NONBONDED TABLE SIZE: 705 POINTS
TCL: Setting parameter alchLambda2 to 0.1499999999999997
Info: NONBONDED TABLE R-SQUARED SPACING: 0.0625
Info: NONBONDED TABLE SIZE: 705 POINTS
TCL: Running for 1500000 steps
ETITLE: TS BOND ANGLE DIHED IMPRP ELECT VDW BOUNDARY MISC KINETIC TOTAL TEMP POTENTIAL TOTALAVG TEMPAVG PRESSURE GPRESSURE VOLUME PRESSAVG GPRESSAVG
ENERGY: 0 2.4275 2.0762 0.0000 0.0000 -10682.6158 1390.3294 0.0000 0.0000 1784.4340 -7503.3487 306.1081 -9287.7826 -7503.3487 306.1081 -586.0033 -499.5250 29884.2828 -586.0033 -499.5250
ENERGY: 300000 0.4019 3.1595 0.0000 0.0000 -10698.8204 1441.6256 0.0000 0.0000 1704.8509 -7548.7826 292.4561 -9253.6334 -7510.5073 299.1645 3.6497 73.5160 29856.6311 -85.1852 -6.1742
ENERGY: 600000 0.1055 4.8084 0.0000 0.0000 -10550.5525 1390.8735 0.0000 0.0000 1731.6366 -7423.1286 297.0510 -9154.7652 -7475.5006 299.8994 -48.7237 -31.5075 30002.5826 3.3408 57.8750
ENERGY: 900000 0.0506 1.2939 0.0000 0.0000 -10602.1473 1412.4021 0.0000 0.0000 1833.3799 -7355.0208 314.5044 -9188.4007 -7460.8780 300.6753 -189.0203 -119.6384 30474.5102 2.0466 58.1678
ENERGY: 1200000 0.6829 4.1367 0.0000 0.0000 -10662.0476 1409.3390 0.0000 0.0000 1750.5216 -7497.3675 300.2906 -9247.8890 -7468.2490 300.7187 -358.5145 -276.2785 30220.7642 -131.7749 -64.0025
ENERGY: 1500000 1.0857 1.9926 0.0000 0.0000 -10636.8923 1455.2955 0.0000 0.0000 1719.9346 -7458.5839 295.0436 -9178.5185 -7466.4175 300.1730 307.7013 349.9793 30068.4550 -64.3619 -1.0940
TCL: Running FEP window  18: Lambda1 0.1499999999999997 Lambda2 0.09999999999999969 [dLambda -0.05 ]
TCL: Setting parameter firsttimestep to 0
TCL: Setting parameter alchLambda to 0.1499999999999997
Info: NONBONDED TABLE R-SQUARED SPACING: 0.0625
Info: NONBONDED TABLE SIZE: 705 POINTS
TCL: Setting parameter alchLambda2 to 0.09999999999999969
Info: NONBONDED TABLE R-SQUARED SPACING: 0.0625
Info: NONBONDED TABLE SIZE: 705 POINTS
TCL: Running for 1500000 steps
ETITLE: TS BOND ANGLE DIHED IMPRP ELECT VDW BOUNDARY MISC KINETIC TOTAL TEMP POTENTIAL TOTALAVG TEMPAVG PRESSURE GPRESSURE VOLUME PRESSAVG GPRESSAVG
ENERGY: 0 1.0857 1.9926 0.0000 0.0000 -10636.8931 1453.7963 0.0000 0.0000 1719.0502 -7460.9683 294.8919 -9180.0185 -7460.9683 294.8919 253.1666 341.5384 30068.4550 253.1666 341.5384
ENERGY: 300000 0.3088 1.8551 0.0000 0.0000 -10693.2194 1490.0695 0.0000 0.0000 1756.9004 -7444.0856 301.3849 -9200.9861 -7472.8772 298.1271 509.6245 621.8874 29918.8620 -45.6547 34.4346
ENERGY: 600000 0.9592 2.4816 0.0000 0.0000 -10644.9616 1466.7118 0.0000 0.0000 1705.3010 -7469.5081 292.5333 -9174.8091 -7480.4404 296.3699 354.3157 374.1757 30154.0256 20.3870 91.3854
ENERGY: 900000 0.8075 1.9717 0.0000 0.0000 -10681.2241 1385.0439 0.0000 0.0000 1746.7001 -7546.7009 299.6351 -9293.4010 -7476.8129 297.6003 -598.9925 -569.9592 30255.0472 -211.4158 -140.4711
ENERGY: 1200000 0.7692 2.7494 0.0000 0.0000 -10633.1450 1443.2531 0.0000 0.0000 1728.2075 -7458.1658 296.4628 -9186.3733 -7472.4503 297.8853 318.2169 349.5661 29995.9755 -249.7122 -182.5313
ENERGY: 1500000 0.8392 3.0429 0.0000 0.0000 -10697.6610 1465.2089 0.0000 0.0000 1814.5864 -7413.9835 311.2805 -9228.5699 -7465.1334 299.8806 93.6135 123.5301 30435.1510 -133.9850 -69.3551
TCL: Running FEP window  19: Lambda1 0.09999999999999969 Lambda2 0.049999999999999684 [dLambda -0.05 ]
TCL: Setting parameter firsttimestep to 0
TCL: Setting parameter alchLambda to 0.09999999999999969
Info: NONBONDED TABLE R-SQUARED SPACING: 0.0625
Info: NONBONDED TABLE SIZE: 705 POINTS
TCL: Setting parameter alchLambda2 to 0.049999999999999684
Info: NONBONDED TABLE R-SQUARED SPACING: 0.0625
Info: NONBONDED TABLE SIZE: 705 POINTS
TCL: Running for 1500000 steps
ETITLE: TS BOND ANGLE DIHED IMPRP ELECT VDW BOUNDARY MISC KINETIC TOTAL TEMP POTENTIAL TOTALAVG TEMPAVG PRESSURE GPRESSURE VOLUME PRESSAVG GPRESSAVG
ENERGY: 0 0.8392 3.0429 0.0000 0.0000 -10697.6606 1465.3717 0.0000 0.0000 1813.7099 -7414.6969 311.1302 -9228.4068 -7414.6969 311.1302 44.3966 123.2026 30435.1510 44.3966 123.2026
ENERGY: 300000 1.5163 1.1932 0.0000 0.0000 -10541.0494 1321.8049 0.0000 0.0000 1749.7259 -7466.8092 300.1541 -9216.5351 -7435.3837 303.1869 -811.4311 -744.0809 30189.8928 -179.2537 -106.1444
ENERGY: 600000 0.3726 1.6984 0.0000 0.0000 -10707.3749 1463.7304 0.0000 0.0000 1820.5894 -7420.9841 312.3103 -9241.5735 -7424.2664 305.4085 222.9016 274.9258 30028.7977 24.5623 91.3545
ENERGY: 900000 0.6913 3.4313 0.0000 0.0000 -10538.0960 1409.1486 0.0000 0.0000 1728.1457 -7396.6791 296.4522 -9124.8247 -7435.6519 302.7090 72.1038 73.1295 30319.5093 -110.1276 -40.5701
ENERGY: 1200000 0.6313 1.0783 0.0000 0.0000 -10653.8312 1436.5898 0.0000 0.0000 1746.8431 -7468.6886 299.6596 -9215.5317 -7445.1125 301.5736 -141.5557 -9.4547 30236.6698 -84.5572 -6.4510
ENERGY: 1500000 1.6243 2.3113 0.0000 0.0000 -10537.5519 1273.4632 0.0000 0.0000 1731.7032 -7528.4500 297.0624 -9260.1532 -7458.3598 300.7598 -1095.8920 -1138.3035 29786.0440 -193.2417 -123.6631
TCL: Running FEP window  20: Lambda1 0.049999999999999684 Lambda2 0.0    [dLambda -0.049999999999999684]
TCL: Setting parameter firsttimestep to 0
TCL: Setting parameter alchLambda to 0.049999999999999684
Info: NONBONDED TABLE R-SQUARED SPACING: 0.0625
Info: NONBONDED TABLE SIZE: 705 POINTS
TCL: Setting parameter alchLambda2 to 0.0
Info: NONBONDED TABLE R-SQUARED SPACING: 0.0625
Info: NONBONDED TABLE SIZE: 705 POINTS
TCL: Running for 1500000 steps
ETITLE: TS BOND ANGLE DIHED IMPRP ELECT VDW BOUNDARY MISC KINETIC TOTAL TEMP POTENTIAL TOTALAVG TEMPAVG PRESSURE GPRESSURE VOLUME PRESSAVG GPRESSAVG
ENERGY: 0 1.6243 2.3113 0.0000 0.0000 -10537.5513 1273.5487 0.0000 0.0000 1730.8492 -7529.2179 296.9159 -9260.0671 -7529.2179 296.9159 -1223.3369 -1140.8054 29786.0440 -1223.3369 -1140.8054
ENERGY: 300000 0.0859 1.2176 0.0000 0.0000 -10706.0861 1433.6263 0.0000 0.0000 1737.5720 -7533.5842 298.0692 -9271.1562 -7481.0776 302.0689 -188.0659 -46.1780 29965.0470 -506.6103 -419.0743
ENERGY: 600000 0.1091 5.3772 0.0000 0.0000 -10625.5006 1436.0135 0.0000 0.0000 1729.7254 -7454.2753 296.7232 -9184.0007 -7466.4334 300.6969 65.4509 100.5692 30083.9549 -470.0236 -383.8933
ENERGY: 900000 0.4812 0.4098 0.0000 0.0000 -10538.9796 1368.8358 0.0000 0.0000 1758.7948 -7410.4580 301.7098 -9169.2528 -7461.4931 300.5383 -238.2827 -235.7432 30032.4928 -406.4637 -329.3012
ENERGY: 1200000 0.2967 2.5607 0.0000 0.0000 -10650.9401 1406.8294 0.0000 0.0000 1756.2799 -7484.9734 301.2784 -9241.2532 -7461.9457 301.8005 -359.6464 -343.8462 30215.2681 -314.7069 -245.6087
ENERGY: 1500000 0.6321 4.7798 0.0000 0.0000 -10622.5727 1391.5029 0.0000 0.0000 1740.7376 -7484.9203 298.6122 -9225.6579 -7466.9642 300.6804 -567.2897 -500.9215 30423.9586 -340.0248 -274.5018
TCL: Exiting due to exit command.
