Info: SIMULATION PARAMETERS:
Info: TIMESTEP               2
Info: NUMBER OF STEPS        0
Info: STEPS PER CYCLE        10
Info: PERIODIC CELL BASIS 1  32.28 0 0
Info: PERIODIC CELL BASIS 2  0 30.2228 0
Info: PERIODIC CELL BASIS 3  0 0 31.5134
Info: PERIODIC CELL CENTER   0 0 0
Info: WRAPPING WATERS AROUND PERIODIC BOUNDARIES ON OUTPUT.
Info: WRAPPING ALL CLUSTERS AROUND PERIODIC BOUNDARIES ON OUTPUT.
Info: FIRST LDB TIMESTEP     50
Info: LAST LDB TIMESTEP     -1
Info: HOM BACKGROUND SCALING 1
Info: PME BACKGROUND SCALING 1
Info: MIN ATOMS PER PATCH    40
Info: EMPTY PATCH LOAD       40 ATOMS
Info: VELOCITY FILE          mobley_1079207_equil.vel
Info: CENTER OF MASS MOVING INITIALLY? NO
Info: DIELECTRIC             1
Info: EXCLUDE                SCALED ONE-FOUR
Info: 1-4 ELECTROSTATICS SCALED BY 0.833333
Info: MODIFIED 1-4 VDW PARAMETERS WILL BE USED
Info: DCD FILENAME           mobley_1079207_prod.dcd
Info: DCD FREQUENCY          100000
Info: DCD FIRST STEP         100000
Info: DCD FILE WILL CONTAIN UNIT CELL DATA
Info: XST FILENAME           mobley_1079207_prod.xst
Info: XST FREQUENCY          100000
Info: NO VELOCITY DCD OUTPUT
Info: NO FORCE DCD OUTPUT
Info: OUTPUT FILENAME        mobley_1079207_prod
Info: BINARY OUTPUT FILES WILL BE USED
Info: RESTART FILENAME       mobley_1079207_prod.restart
Info: RESTART FREQUENCY      100000
Info: BINARY RESTART FILES WILL BE USED
Info: CUTOFF                 9
Info: PAIRLIST DISTANCE      11
Info: PAIRLIST SHRINK RATE   0.01
Info: PAIRLIST GROW RATE     0.01
Info: PAIRLIST TRIGGER       0.3
Info: PAIRLISTS PER CYCLE    2
Info: PAIRLISTS ENABLED
Info: MARGIN                 2
Info: HYDROGEN GROUP CUTOFF  2.5
Info: PATCH DIMENSION        15.5
Info: ENERGY OUTPUT STEPS    100000
Info: ENERGY EVALUATION STEPS    100000
Info: OUTPUT ENERGY PRECISION 4
Info: CROSSTERM ENERGY INCLUDED IN DIHEDRAL
Info: TIMING OUTPUT STEPS    1000000
Info: PRESSURE OUTPUT STEPS  100000
Info: ALCHEMICAL FEP ON
Info: FEP CURRENT LAMBDA VALUE     0
Info: FEP COMPARISON LAMBDA VALUE  0.05
Info: FEP INTRA-ALCHEMICAL NON-BONDED INTERACTIONS WILL BE RETAINED
Info: FEP INTRA-ALCHEMICAL BONDED INTERACTIONS WILL BE RETAINED
Info: FEP VDW SHIFTING COEFFICIENT 5
Info: FEP ELEC. ACTIVE FOR ANNIHILATED PARTICLES BETWEEN LAMBDA = 0 AND LAMBDA = 0.5
Info: FEP ELEC. ACTIVE FOR EXNIHILATED PARTICLES BETWEEN LAMBDA = 0.5 AND LAMBDA = 1
Info: FEP VDW ACTIVE FOR ANNIHILATED PARTICLES BETWEEN LAMBDA = 0 AND LAMBDA = 1
Info: FEP VDW ACTIVE FOR EXNIHILATED PARTICLES BETWEEN LAMBDA = 0 AND LAMBDA = 1
Info: FEP BOND ACTIVE FOR ANNIHILATED PARTICLES BETWEEN LAMBDA = 1 AND LAMBDA = 1
Info: FEP BOND ACTIVE FOR EXNIHILATED PARTICLES BETWEEN LAMBDA = 0 AND LAMBDA = 0
Info: LANGEVIN DYNAMICS ACTIVE
Info: LANGEVIN TEMPERATURE   300
Info: LANGEVIN USING BBK INTEGRATOR
Info: LANGEVIN DAMPING COEFFICIENT IS 1 INVERSE PS
Info: LANGEVIN DYNAMICS APPLIED TO HYDROGENS
Info: LANGEVIN PISTON PRESSURE CONTROL ACTIVE
Info:        TARGET PRESSURE IS 1.01325 BAR
Info:     OSCILLATION PERIOD IS 50 FS
Info:             DECAY TIME IS 25 FS
Info:     PISTON TEMPERATURE IS 300 K
Info:       PRESSURE CONTROL IS GROUP-BASED
Info:    INITIAL STRAIN RATE IS 0.000267637 0.000267637 0.000267637
Info:       CELL FLUCTUATION IS ISOTROPIC
Info: PARTICLE MESH EWALD (PME) ACTIVE
Info: PME TOLERANCE               1e-06
Info: PME EWALD COEFFICIENT       0.348832
Info: PME INTERPOLATION ORDER     4
Info: PME GRID DIMENSIONS         36 32 32
Info: PME MAXIMUM GRID SPACING    1
Info: PME CALCULATION WILL BE PERFORMED ON GPU
Info: FULL ELECTROSTATIC EVALUATION FREQUENCY      2
Info: USING VERLET I (r-RESPA) MTS SCHEME.
Info: C1 SPLITTING OF LONG RANGE ELECTROSTATICS
Info: PLACING ATOMS IN PATCHES BY HYDROGEN GROUPS
Info: RIGID BONDS TO HYDROGEN : ALL
Info:         ERROR TOLERANCE : 1e-08
Info:          MAX ITERATIONS : 100
Info: RIGID WATER USING SETTLE ALGORITHM
Info: RANDOM NUMBER SEED     1743517783
Info: USE HYDROGEN BONDS?    NO
Info: Using AMBER format force field!
Info: AMBER PARM FILE        mobley_1079207.prmtop
Info: COORDINATE PDB         mobley_1079207.pdb
Info: Exclusions will be read from PARM file!
Info: SCNB (VDW SCALING)     2
Info: USING ARITHMETIC MEAN TO COMBINE L-J SIGMA PARAMETERS
Info: BINARY COORDINATES     mobley_1079207_equil.coor
Info: SUMMARY OF PARAMETERS:
Info: 5 BONDS
Info: 3 ANGLES
Info:   3 HARMONIC
Info:   0 COSINE-BASED
Info: 2 DIHEDRAL
Info: 0 IMPROPER
Info: 0 CROSSTERM
Info: 0 VDW
Info: 15 VDW_PAIRS
Info: 0 NBTHOLE_PAIRS
Info: To read alchdata from file: mobley_1079207.pdb
Info: To read alchflag data from column: 5
Info: STRUCTURE SUMMARY:
Info: 2976 ATOMS
Info: 2976 BONDS
Info: 18 ANGLES
Info: 30 DIHEDRALS
Info: 0 IMPROPERS
Info: 0 CROSSTERMS
Info: 3015 EXCLUSIONS
Info: 2968 RIGID BONDS
Info: ALCH: 0 ATOMS TO DISAPPEAR IN FINAL STATE
Info: ALCH: 12 ATOMS TO APPEAR IN FINAL STATE
Info: 5960 DEGREES OF FREEDOM
Info: 996 HYDROGEN GROUPS
Info: 3 ATOMS IN LARGEST HYDROGEN GROUP
Info: 996 MIGRATION GROUPS
Info: 3 ATOMS IN LARGEST MIGRATION GROUP
Info: TOTAL MASS = 17946.8 amu
Info: TOTAL CHARGE = 0.000199996 e
Info: MASS DENSITY = 0.969354 g/cm^3
Info: ATOM DENSITY = 0.0967986 atoms/A^3
Info: ADDED 0 IMPLICIT EXCLUSIONS
Info: NONBONDED TABLE R-SQUARED SPACING: 0.0625
Info: NONBONDED TABLE SIZE: 705 POINTS
Info: REMOVING COM VELOCITY -0.0390241 -0.0244697 -0.290407
Info: Use 3D box decompostion in PME FFT.
Info: Updated CUDA force table with 4096 elements.
Info: Updated CUDA LJ table with 5 x 5 elements.
Info: Found 15 unique exclusion lists needing 28 bytes
TCL: Running for 1500000 steps
ETITLE: TS BOND ANGLE DIHED IMPRP ELECT VDW BOUNDARY MISC KINETIC TOTAL TEMP POTENTIAL TOTALAVG TEMPAVG PRESSURE GPRESSURE VOLUME PRESSAVG GPRESSAVG
ENERGY: 0 1.4671 1.8608 3.7031 0.0000 -10737.2438 1461.6432 0.0000 0.0000 1740.5257 -7528.0438 293.9169 -9268.5695 -7528.0438 293.9169 109.4994 193.9488 30744.2377 109.4994 193.9488
ENERGY: 300000 3.9779 4.0790 1.9125 0.0000 -10725.0392 1403.3736 0.0000 0.0000 1837.2269 -7474.4693 310.2465 -9311.6962 -7524.0566 302.8958 -687.8389 -693.5684 31117.5919 -41.4036 -6.9128
ENERGY: 600000 3.0750 4.2533 3.4073 0.0000 -10702.9710 1431.6847 0.0000 0.0000 1782.4462 -7478.1044 300.9959 -9260.5506 -7545.4087 300.3022 -180.4374 -142.5434 30606.6096 -43.7440 -0.3470
ENERGY: 900000 1.6259 2.6757 2.3809 0.0000 -10727.4620 1426.3549 0.0000 0.0000 1765.9734 -7528.4512 298.2142 -9294.4247 -7528.9453 301.4120 -376.1271 -318.2577 30726.5585 -150.9086 -103.3075
ENERGY: 1200000 2.2741 1.6389 5.8245 0.0000 -10667.4819 1381.8850 0.0000 0.0000 1751.9372 -7523.9222 295.8439 -9275.8594 -7528.6768 300.2328 -561.4714 -509.6908 30579.3443 -216.3232 -165.9150
ENERGY: 1500000 2.6431 0.6097 1.6013 0.0000 -10777.6794 1442.8611 0.0000 0.0000 1765.0337 -7564.9305 298.0555 -9329.9642 -7546.5281 300.0897 240.9439 299.7152 30122.3506 -173.6715 -120.1322
TCL: Running FEP window   2: Lambda1 0.05   Lambda2 0.1    [dLambda 0.05  ]
TCL: Setting parameter firsttimestep to 0
TCL: Setting parameter alchLambda to 0.05
Info: NONBONDED TABLE R-SQUARED SPACING: 0.0625
Info: NONBONDED TABLE SIZE: 705 POINTS
TCL: Setting parameter alchLambda2 to 0.1
Info: NONBONDED TABLE R-SQUARED SPACING: 0.0625
Info: NONBONDED TABLE SIZE: 705 POINTS
TCL: Running for 1500000 steps
ETITLE: TS BOND ANGLE DIHED IMPRP ELECT VDW BOUNDARY MISC KINETIC TOTAL TEMP POTENTIAL TOTALAVG TEMPAVG PRESSURE GPRESSURE VOLUME PRESSAVG GPRESSAVG
ENERGY: 0 2.6431 0.6097 1.6013 0.0000 -10777.6797 1447.2142 0.0000 0.0000 1764.1135 -7561.4978 297.9001 -9325.6113 -7561.4978 297.9001 235.9202 305.4625 30122.3506 235.9202 305.4625
ENERGY: 300000 1.1245 1.1970 2.6648 0.0000 -10715.9669 1419.8319 0.0000 0.0000 1774.7465 -7516.4021 299.6957 -9291.1486 -7560.3460 298.8711 -238.4145 -137.5982 30705.0185 53.0157 118.1957
ENERGY: 600000 1.7410 2.5004 1.0484 0.0000 -10698.4711 1435.4376 0.0000 0.0000 1771.8074 -7485.9362 299.1994 -9257.7436 -7564.7944 298.0937 -19.3354 117.1072 30476.7741 47.9412 125.9990
ENERGY: 900000 1.3294 2.7632 2.4725 0.0000 -10837.2680 1515.7792 0.0000 0.0000 1870.7757 -7444.1480 315.9118 -9314.9237 -7548.7770 301.1043 764.5959 827.1622 30139.0401 2.2937 77.0264
ENERGY: 1200000 1.5293 2.0162 3.4239 0.0000 -10906.4048 1480.5703 0.0000 0.0000 1808.2963 -7610.5688 305.3611 -9418.8652 -7548.2944 302.2468 -288.8677 -223.0490 31005.1688 15.5175 90.7955
ENERGY: 1500000 5.0183 1.9381 1.7672 0.0000 -10775.8610 1470.6926 0.0000 0.0000 1797.7037 -7498.7411 303.5724 -9296.4448 -7539.1379 302.2256 -51.2794 60.3196 30817.3585 -35.8971 37.9487
TCL: Running FEP window   3: Lambda1 0.1    Lambda2 0.15000000000000002 [dLambda 0.05000000000000002]
TCL: Setting parameter firsttimestep to 0
TCL: Setting parameter alchLambda to 0.1
Info: NONBONDED TABLE R-SQUARED SPACING: 0.0625
Info: NONBONDED TABLE SIZE: 705 POINTS
TCL: Setting parameter alchLambda2 to 0.15000000000000002
Info: NONBONDED TABLE R-SQUARED SPACING: 0.0625
Info: NONBONDED TABLE SIZE: 705 POINTS
TCL: Running for 1500000 steps
ETITLE: TS BOND ANGLE DIHED IMPRP ELECT VDW BOUNDARY MISC KINETIC TOTAL TEMP POTENTIAL TOTALAVG TEMPAVG PRESSURE GPRESSURE VOLUME PRESSAVG GPRESSAVG
ENERGY: 0 5.0183 1.9381 1.7672 0.0000 -10775.8620 1472.7257 0.0000 0.0000 1796.8428 -7497.5700 303.4270 -9294.4128 -7497.5700 303.4270 -30.5476 69.2464 30817.3585 -30.5476 69.2464
ENERGY: 300000 1.9283 3.8001 4.3888 0.0000 -10914.8427 1509.0844 0.0000 0.0000 1772.7927 -7622.8485 299.3657 -9395.6411 -7559.0520 299.4766 199.5713 314.4417 30397.3639 113.5444 218.9354
ENERGY: 600000 2.4148 2.6635 2.5725 0.0000 -10688.1505 1419.1566 0.0000 0.0000 1762.5992 -7498.7438 297.6444 -9261.3431 -7552.1405 299.5135 -322.4289 -237.1691 30953.2327 130.1179 230.8564
ENERGY: 900000 0.8999 1.8549 0.7709 0.0000 -10752.1459 1442.1699 0.0000 0.0000 1788.4544 -7517.9959 302.0105 -9306.4503 -7553.7895 299.5995 68.6603 142.5451 30667.8251 70.9298 163.0484
ENERGY: 1200000 2.1825 2.9469 3.8453 0.0000 -10757.8190 1391.1187 0.0000 0.0000 1761.8514 -7595.8742 297.5181 -9357.7255 -7564.5480 299.0972 -740.3527 -722.4345 30878.5661 -34.7055 45.1798
ENERGY: 1500000 4.9930 3.0834 3.3138 0.0000 -10861.1179 1487.3602 0.0000 0.0000 1759.5734 -7602.7940 297.1334 -9362.3674 -7570.7727 298.9909 13.3856 81.5770 30567.1000 -98.0035 -18.5711
TCL: Running FEP window   4: Lambda1 0.15000000000000002 Lambda2 0.2    [dLambda 0.04999999999999999]
TCL: Setting parameter firsttimestep to 0
TCL: Setting parameter alchLambda to 0.15000000000000002
Info: NONBONDED TABLE R-SQUARED SPACING: 0.0625
Info: NONBONDED TABLE SIZE: 705 POINTS
TCL: Setting parameter alchLambda2 to 0.2
Info: NONBONDED TABLE R-SQUARED SPACING: 0.0625
Info: NONBONDED TABLE SIZE: 705 POINTS
TCL: Running for 1500000 steps
ETITLE: TS BOND ANGLE DIHED IMPRP ELECT VDW BOUNDARY MISC KINETIC TOTAL TEMP POTENTIAL TOTALAVG TEMPAVG PRESSURE GPRESSURE VOLUME PRESSAVG GPRESSAVG
ENERGY: 0 4.9930 3.0834 3.3138 0.0000 -10861.1173 1488.5882 0.0000 0.0000 1758.7045 -7602.4344 296.9867 -9361.1389 -7602.4344 296.9867 2.4837 88.0317 30567.1000 2.4837 88.0317
ENERGY: 300000 0.8545 2.9492 2.6161 0.0000 -10657.0843 1380.6215 0.0000 0.0000 1771.2210 -7498.8220 299.1003 -9270.0430 -7533.1732 303.8970 -485.0948 -399.9459 30844.4116 -149.7460 -77.3735
ENERGY: 600000 2.8586 2.0434 2.9741 0.0000 -10941.4228 1583.9048 0.0000 0.0000 1738.3609 -7611.2810 293.5513 -9349.6419 -7548.0247 301.5711 993.0304 1055.6405 30152.0356 -71.3692 -8.0034
ENERGY: 900000 1.2417 2.8247 1.4451 0.0000 -10755.7006 1447.9824 0.0000 0.0000 1775.5576 -7526.6490 299.8326 -9302.2066 -7543.9231 301.1402 -213.5982 -116.4522 30973.3791 -97.6695 -34.6728
ENERGY: 1200000 3.5454 2.5527 1.9302 0.0000 -10852.6064 1512.8865 0.0000 0.0000 1733.5739 -7598.1177 292.7430 -9331.6916 -7543.5491 300.6296 165.5524 241.8058 30821.6888 -46.1846 16.3562
ENERGY: 1500000 2.8069 1.2416 1.9864 0.0000 -10821.7375 1436.4415 0.0000 0.0000 1788.4246 -7590.8366 302.0054 -9379.2611 -7548.7298 300.5656 -592.0854 -498.5923 30850.8298 -114.6515 -50.7854
TCL: Running FEP window   5: Lambda1 0.2    Lambda2 0.25   [dLambda 0.04999999999999999]
TCL: Setting parameter firsttimestep to 0
TCL: Setting parameter alchLambda to 0.2
Info: NONBONDED TABLE R-SQUARED SPACING: 0.0625
Info: NONBONDED TABLE SIZE: 705 POINTS
TCL: Setting parameter alchLambda2 to 0.25
Info: NONBONDED TABLE R-SQUARED SPACING: 0.0625
Info: NONBONDED TABLE SIZE: 705 POINTS
TCL: Running for 1500000 steps
ETITLE: TS BOND ANGLE DIHED IMPRP ELECT VDW BOUNDARY MISC KINETIC TOTAL TEMP POTENTIAL TOTALAVG TEMPAVG PRESSURE GPRESSURE VOLUME PRESSAVG GPRESSAVG
ENERGY: 0 2.8069 1.2416 1.9864 0.0000 -10821.7381 1437.0925 0.0000 0.0000 1787.5230 -7591.0877 301.8532 -9378.6107 -7591.0877 301.8532 -584.6046 -494.7364 30850.8298 -584.6046 -494.7364
ENERGY: 300000 2.6313 3.8154 5.6417 0.0000 -10757.8316 1453.6287 0.0000 0.0000 1780.7715 -7511.3429 300.7131 -9292.1145 -7556.1430 302.7134 210.1369 247.1955 30362.6694 82.9638 167.6692
ENERGY: 600000 1.7758 2.9068 4.0103 0.0000 -10794.1926 1410.8241 0.0000 0.0000 1748.3541 -7626.3215 295.2389 -9374.6756 -7574.8160 298.2872 -539.6432 -469.5264 30609.9991 -60.3563 16.9272
ENERGY: 900000 1.7521 5.5737 4.8405 0.0000 -10915.5164 1508.9579 0.0000 0.0000 1771.5520 -7622.8403 299.1562 -9394.3923 -7575.7536 298.5265 445.2520 481.2894 30320.4582 17.0821 86.2400
ENERGY: 1200000 1.1944 2.0799 4.7685 0.0000 -10666.9457 1413.6293 0.0000 0.0000 1771.0891 -7474.1846 299.0780 -9245.2737 -7565.0206 298.3189 -221.5642 -153.8029 30926.1510 -4.9653 67.0334
ENERGY: 1500000 4.2848 2.2715 3.8470 0.0000 -10732.1761 1419.4438 0.0000 0.0000 1810.2635 -7492.0654 305.6933 -9302.3289 -7567.8571 298.7868 -356.4356 -326.7106 31002.9082 -88.0287 -23.6990
TCL: Running FEP window   6: Lambda1 0.25   Lambda2 0.3    [dLambda 0.04999999999999999]
TCL: Setting parameter firsttimestep to 0
TCL: Setting parameter alchLambda to 0.25
Info: NONBONDED TABLE R-SQUARED SPACING: 0.0625
Info: NONBONDED TABLE SIZE: 705 POINTS
TCL: Setting parameter alchLambda2 to 0.3
Info: NONBONDED TABLE R-SQUARED SPACING: 0.0625
Info: NONBONDED TABLE SIZE: 705 POINTS
TCL: Running for 1500000 steps
ETITLE: TS BOND ANGLE DIHED IMPRP ELECT VDW BOUNDARY MISC KINETIC TOTAL TEMP POTENTIAL TOTALAVG TEMPAVG PRESSURE GPRESSURE VOLUME PRESSAVG GPRESSAVG
ENERGY: 0 4.2848 2.2715 3.8470 0.0000 -10732.1761 1418.9534 0.0000 0.0000 1809.3861 -7493.4332 305.5451 -9302.8193 -7493.4332 305.5451 -406.3754 -324.2524 31002.9082 -406.3754 -324.2524
ENERGY: 300000 0.9880 3.7285 2.6657 0.0000 -10779.1851 1448.2826 0.0000 0.0000 1786.1143 -7537.4061 301.6153 -9323.5205 -7547.3467 301.5765 -101.6697 5.1382 30675.1510 23.9348 86.5983
ENERGY: 600000 1.2580 2.2172 4.0496 0.0000 -10843.5102 1434.0305 0.0000 0.0000 1732.9489 -7669.0059 292.6374 -9401.9548 -7555.5653 299.5483 -576.7773 -483.8603 30697.6237 -96.0765 -30.3291
ENERGY: 900000 4.3458 1.0107 3.5701 0.0000 -10762.0442 1485.0197 0.0000 0.0000 1800.5626 -7467.5351 304.0551 -9268.0977 -7541.4555 300.7261 252.3794 353.6444 30576.8536 -118.0751 -39.9956
ENERGY: 1200000 1.6011 1.8992 3.4711 0.0000 -10723.7546 1456.8804 0.0000 0.0000 1746.7785 -7513.1243 294.9728 -9259.9029 -7534.5483 300.4923 97.3937 144.7261 30939.2510 -28.3268 41.8004
ENERGY: 1500000 4.2090 1.3987 2.3890 0.0000 -10760.8652 1474.3210 0.0000 0.0000 1807.8949 -7470.6526 305.2933 -9278.5475 -7539.0189 300.3955 160.9614 253.6982 30617.0132 13.8471 84.4678
TCL: Running FEP window   7: Lambda1 0.3    Lambda2 0.35   [dLambda 0.04999999999999999]
TCL: Setting parameter firsttimestep to 0
TCL: Setting parameter alchLambda to 0.3
Info: NONBONDED TABLE R-SQUARED SPACING: 0.0625
Info: NONBONDED TABLE SIZE: 705 POINTS
TCL: Setting parameter alchLambda2 to 0.35
Info: NONBONDED TABLE R-SQUARED SPACING: 0.0625
Info: NONBONDED TABLE SIZE: 705 POINTS
TCL: Running for 1500000 steps
ETITLE: TS BOND ANGLE DIHED IMPRP ELECT VDW BOUNDARY MISC KINETIC TOTAL TEMP POTENTIAL TOTALAVG TEMPAVG PRESSURE GPRESSURE VOLUME PRESSAVG GPRESSAVG
ENERGY: 0 4.2090 1.3987 2.3890 0.0000 -10760.8663 1474.2129 0.0000 0.0000 1807.0417 -7471.6150 305.1493 -9278.6567 -7471.6150 305.1493 182.5778 258.1718 30617.0132 182.5778 258.1718
ENERGY: 300000 1.7910 1.8255 2.2731 0.0000 -10826.0865 1468.7509 0.0000 0.0000 1759.7660 -7591.6800 297.1659 -9351.4460 -7484.9168 302.8111 337.6198 334.9833 30342.5482 -216.2991 -180.2070
ENERGY: 600000 2.1400 2.0685 2.4993 0.0000 -10810.1424 1412.7615 0.0000 0.0000 1732.3122 -7658.3609 292.5299 -9390.6731 -7539.4721 298.6902 -569.2226 -555.9709 30677.7557 -264.5880 -238.3185
ENERGY: 900000 1.6194 1.9801 3.2379 0.0000 -10670.8656 1346.4418 0.0000 0.0000 1802.9481 -7514.6383 304.4580 -9317.5864 -7544.8170 299.5759 -845.6310 -765.3479 30697.0074 -233.1178 -188.5512
ENERGY: 1200000 2.0376 4.6979 3.1574 0.0000 -10780.5110 1457.6942 0.0000 0.0000 1764.8078 -7548.1161 298.0174 -9312.9239 -7548.9351 299.9963 91.7674 178.8914 30703.3937 -170.6642 -112.5256
ENERGY: 1500000 1.2066 5.0554 2.3878 0.0000 -10935.7839 1552.8627 0.0000 0.0000 1792.4853 -7581.7862 302.6912 -9374.2715 -7546.0580 300.5907 737.9318 817.4954 30561.9967 -149.7382 -82.2952
TCL: Running FEP window   8: Lambda1 0.35   Lambda2 0.39999999999999997 [dLambda 0.04999999999999999]
TCL: Setting parameter firsttimestep to 0
TCL: Setting parameter alchLambda to 0.35
Info: NONBONDED TABLE R-SQUARED SPACING: 0.0625
Info: NONBONDED TABLE SIZE: 705 POINTS
TCL: Setting parameter alchLambda2 to 0.39999999999999997
Info: NONBONDED TABLE R-SQUARED SPACING: 0.0625
Info: NONBONDED TABLE SIZE: 705 POINTS
TCL: Running for 1500000 steps
ETITLE: TS BOND ANGLE DIHED IMPRP ELECT VDW BOUNDARY MISC KINETIC TOTAL TEMP POTENTIAL TOTALAVG TEMPAVG PRESSURE GPRESSURE VOLUME PRESSAVG GPRESSAVG
ENERGY: 0 1.2066 5.0554 2.3878 0.0000 -10935.7851 1553.4112 0.0000 0.0000 1791.5692 -7582.1550 302.5365 -9373.7242 -7582.1550 302.5365 733.2629 825.8921 30561.9967 733.2629 825.8921
ENERGY: 300000 6.5314 1.4350 1.9517 0.0000 -10696.0854 1422.3595 0.0000 0.0000 1792.5178 -7471.2899 302.6966 -9263.8078 -7526.2795 300.3307 -244.4165 -166.8920 30834.1604 66.0419 137.4273
ENERGY: 600000 3.9723 4.0080 5.3383 0.0000 -10792.2736 1464.5752 0.0000 0.0000 1803.7453 -7510.6345 304.5926 -9314.3798 -7532.9842 298.9676 -100.7598 -45.1123 31058.5351 36.9960 88.4648
ENERGY: 900000 1.9631 1.7648 1.3574 0.0000 -10793.0994 1463.2152 0.0000 0.0000 1793.4361 -7531.3628 302.8517 -9324.7989 -7521.9711 300.9241 339.7729 423.6635 30255.7177 33.8298 96.0495
ENERGY: 1200000 3.4686 1.4915 3.6600 0.0000 -10707.7982 1338.1369 0.0000 0.0000 1800.0894 -7560.9519 303.9752 -9361.0412 -7514.3054 302.5891 -777.6447 -697.4576 30165.9733 -75.5084 -11.4063
ENERGY: 1500000 1.6635 2.6313 2.4588 0.0000 -10827.0815 1474.5478 0.0000 0.0000 1832.7599 -7513.0201 309.4922 -9345.7800 -7519.6918 302.8007 341.2840 465.7876 30276.9373 -27.2615 41.7402
TCL: Running FEP window   9: Lambda1 0.39999999999999997 Lambda2 0.44999999999999996 [dLambda 0.04999999999999999]
TCL: Setting parameter firsttimestep to 0
TCL: Setting parameter alchLambda to 0.39999999999999997
Info: NONBONDED TABLE R-SQUARED SPACING: 0.0625
Info: NONBONDED TABLE SIZE: 705 POINTS
TCL: Setting parameter alchLambda2 to 0.44999999999999996
Info: NONBONDED TABLE R-SQUARED SPACING: 0.0625
Info: NONBONDED TABLE SIZE: 705 POINTS
TCL: Running for 1500000 steps
ETITLE: TS BOND ANGLE DIHED IMPRP ELECT VDW BOUNDARY MISC KINETIC TOTAL TEMP POTENTIAL TOTALAVG TEMPAVG PRESSURE GPRESSURE VOLUME PRESSAVG GPRESSAVG
ENERGY: 0 1.6635 2.6313 2.4588 0.0000 -10827.0818 1475.0811 0.0000 0.0000 1831.8869 -7513.3603 309.3448 -9345.2471 -7513.3603 309.3448 378.5328 476.1948 30276.9373 378.5328 476.1948
ENERGY: 300000 2.5340 2.3811 2.7359 0.0000 -10636.2096 1397.3711 0.0000 0.0000 1762.4995 -7468.6881 297.6275 -9231.1876 -7506.0136 302.3119 -506.9472 -368.1806 31318.2203 -85.2283 -4.9104
ENERGY: 600000 0.5292 1.6249 2.6416 0.0000 -10920.2338 1545.0611 0.0000 0.0000 1781.5346 -7588.8423 300.8419 -9370.3769 -7513.1568 301.0529 486.0748 560.1434 30458.9867 12.7978 78.5001
ENERGY: 900000 1.8555 2.9981 5.8868 0.0000 -10789.9480 1441.9366 0.0000 0.0000 1760.2512 -7577.0197 297.2479 -9337.2710 -7518.9731 301.0066 -412.2129 -275.1776 30791.7074 3.3622 75.8242
ENERGY: 1200000 0.7970 1.3149 1.6651 0.0000 -10782.9396 1453.0908 0.0000 0.0000 1742.2166 -7583.8551 294.2024 -9326.0718 -7531.2509 300.6885 -27.1525 72.6988 30756.8616 -6.5241 65.0757
ENERGY: 1500000 1.9995 8.0368 4.8282 0.0000 -10723.7599 1380.4059 0.0000 0.0000 1768.7740 -7559.7154 298.6871 -9328.4894 -7541.8264 300.7510 -720.2334 -619.6745 30786.2167 -6.6939 68.9531
TCL: Running FEP window  10: Lambda1 0.44999999999999996 Lambda2 0.49999999999999994 [dLambda 0.04999999999999999]
TCL: Setting parameter firsttimestep to 0
TCL: Setting parameter alchLambda to 0.44999999999999996
Info: NONBONDED TABLE R-SQUARED SPACING: 0.0625
Info: NONBONDED TABLE SIZE: 705 POINTS
TCL: Setting parameter alchLambda2 to 0.49999999999999994
Info: NONBONDED TABLE R-SQUARED SPACING: 0.0625
Info: NONBONDED TABLE SIZE: 705 POINTS
TCL: Running for 1500000 steps
ETITLE: TS BOND ANGLE DIHED IMPRP ELECT VDW BOUNDARY MISC KINETIC TOTAL TEMP POTENTIAL TOTALAVG TEMPAVG PRESSURE GPRESSURE VOLUME PRESSAVG GPRESSAVG
ENERGY: 0 1.9995 8.0368 4.8282 0.0000 -10723.7603 1379.9991 0.0000 0.0000 1767.8897 -7561.0070 298.5378 -9328.8967 -7561.0070 298.5378 -695.9653 -618.3098 30786.2167 -695.9653 -618.3098
ENERGY: 300000 3.3858 1.0904 1.1029 0.0000 -10796.6685 1468.3905 0.0000 0.0000 1730.7135 -7591.9855 292.2599 -9322.6989 -7575.9782 296.0160 199.8882 235.4829 30397.2056 197.3301 233.1117
ENERGY: 600000 2.2809 3.6091 2.7096 0.0000 -10838.7973 1489.4695 0.0000 0.0000 1778.3690 -7562.3592 300.3074 -9340.7282 -7566.9506 298.1598 227.6595 330.6995 30392.9693 44.0086 115.6479
ENERGY: 900000 3.4563 4.0225 1.5068 0.0000 -10824.8875 1494.2841 0.0000 0.0000 1744.8885 -7576.7293 294.6536 -9321.6178 -7573.6741 297.2533 130.2816 155.2993 30795.5612 -60.2107 8.3727
ENERGY: 1200000 4.5602 2.2268 0.4941 0.0000 -10842.1036 1500.5705 0.0000 0.0000 1743.2363 -7591.0157 294.3746 -9334.2520 -7571.2423 296.1827 138.7059 213.4288 30831.3942 16.1165 84.4421
ENERGY: 1500000 3.2409 2.1358 3.3076 0.0000 -10728.7987 1435.9290 0.0000 0.0000 1814.5155 -7469.6700 306.4113 -9284.1855 -7560.8203 298.2070 84.0217 164.2065 30444.8194 30.5973 96.7900
TCL: Running FEP window  11: Lambda1 0.49999999999999994 Lambda2 0.5499999999999999 [dLambda 0.04999999999999999]
TCL: Setting parameter firsttimestep to 0
TCL: Setting parameter alchLambda to 0.49999999999999994
Info: NONBONDED TABLE R-SQUARED SPACING: 0.0625
Info: NONBONDED TABLE SIZE: 705 POINTS
TCL: Setting parameter alchLambda2 to 0.5499999999999999
Info: NONBONDED TABLE R-SQUARED SPACING: 0.0625
Info: NONBONDED TABLE SIZE: 705 POINTS
TCL: Running for 1500000 steps
ETITLE: TS BOND ANGLE DIHED IMPRP ELECT VDW BOUNDARY MISC KINETIC TOTAL TEMP POTENTIAL TOTALAVG TEMPAVG PRESSURE GPRESSURE VOLUME PRESSAVG GPRESSAVG
ENERGY: 0 3.2409 2.1358 3.3076 0.0000 -10728.7981 1435.8023 0.0000 0.0000 1813.6013 -7470.7103 306.2569 -9284.3115 -7470.7103 306.2569 79.8329 168.7703 30444.8194 79.8329 168.7703
ENERGY: 300000 0.7217 2.5187 4.5777 0.0000 -10866.9084 1537.8031 0.0000 0.0000 1787.7275 -7533.5597 301.8877 -9321.2872 -7568.3271 298.6097 502.0636 531.8486 31103.7222 293.0230 345.7744
ENERGY: 600000 6.9913 1.5327 1.7516 0.0000 -10672.2941 1361.8800 0.0000 0.0000 1804.5108 -7495.6277 304.7219 -9300.1385 -7541.8200 300.5673 -763.3447 -648.4366 31024.3555 33.8441 92.2469
ENERGY: 900000 1.9360 0.9324 3.4488 0.0000 -10961.6000 1511.7961 0.0000 0.0000 1825.7711 -7617.7155 308.3120 -9443.4866 -7555.9040 301.8742 330.8933 414.4242 30278.5794 -21.0198 40.7441
ENERGY: 1200000 2.8433 3.7049 1.6099 0.0000 -10804.2226 1531.0047 0.0000 0.0000 1803.4289 -7461.6309 304.5392 -9265.0598 -7547.7993 302.3954 643.4254 769.8666 30748.2449 -50.6962 14.0982
ENERGY: 1500000 1.3703 2.7383 1.7955 0.0000 -10835.2386 1416.9634 0.0000 0.0000 1787.7094 -7624.6616 301.8847 -9412.3711 -7547.4763 302.5445 -400.1169 -411.4807 30453.0112 -83.1884 -23.9834
TCL: Running FEP window  12: Lambda1 0.5499999999999999 Lambda2 0.6    [dLambda 0.050000000000000044]
TCL: Setting parameter firsttimestep to 0
TCL: Setting parameter alchLambda to 0.5499999999999999
Info: NONBONDED TABLE R-SQUARED SPACING: 0.0625
Info: NONBONDED TABLE SIZE: 705 POINTS
TCL: Setting parameter alchLambda2 to 0.6
Info: NONBONDED TABLE R-SQUARED SPACING: 0.0625
Info: NONBONDED TABLE SIZE: 705 POINTS
TCL: Running for 1500000 steps
ETITLE: TS BOND ANGLE DIHED IMPRP ELECT VDW BOUNDARY MISC KINETIC TOTAL TEMP POTENTIAL TOTALAVG TEMPAVG PRESSURE GPRESSURE VOLUME PRESSAVG GPRESSAVG
ENERGY: 0 1.3703 2.7383 1.7955 0.0000 -10835.4447 1417.3779 0.0000 0.0000 1786.8430 -7625.3197 301.7383 -9412.1626 -7625.3197 301.7383 -487.1335 -401.4149 30453.0112 -487.1335 -401.4149
ENERGY: 300000 1.7576 4.7686 4.0065 0.0000 -11057.7138 1641.8665 0.0000 0.0000 1803.7005 -7601.6141 304.5850 -9405.3146 -7590.8429 300.3298 1430.4897 1454.5113 30498.3480 23.5284 82.8441
ENERGY: 600000 2.4928 3.7082 3.7273 0.0000 -10652.1941 1368.5176 0.0000 0.0000 1748.3169 -7525.4312 295.2326 -9273.7481 -7557.6346 299.4167 -570.2975 -500.7805 30572.2121 -276.1381 -208.4902
ENERGY: 900000 3.8054 3.5303 3.1360 0.0000 -10928.2459 1526.3230 0.0000 0.0000 1800.0771 -7591.3740 303.9732 -9391.4511 -7570.0994 299.0460 119.7930 254.3664 30717.8342 -184.9642 -116.1709
ENERGY: 1200000 3.6300 1.6754 4.2132 0.0000 -10733.4253 1463.9569 0.0000 0.0000 1783.9036 -7476.0463 301.2420 -9259.9499 -7560.4730 299.6083 459.4698 495.2835 30239.2581 -161.5001 -95.3421
ENERGY: 1500000 6.9549 5.3081 1.2854 0.0000 -10794.1837 1420.8141 0.0000 0.0000 1798.3406 -7561.4806 303.6799 -9359.8212 -7567.6727 299.2979 -395.7951 -314.8314 30230.0438 -165.4018 -96.6116
TCL: Running FEP window  13: Lambda1 0.6    Lambda2 0.65   [dLambda 0.050000000000000044]
TCL: Setting parameter firsttimestep to 0
TCL: Setting parameter alchLambda to 0.6
Info: NONBONDED TABLE R-SQUARED SPACING: 0.0625
Info: NONBONDED TABLE SIZE: 705 POINTS
TCL: Setting parameter alchLambda2 to 0.65
Info: NONBONDED TABLE R-SQUARED SPACING: 0.0625
Info: NONBONDED TABLE SIZE: 705 POINTS
TCL: Running for 1500000 steps
ETITLE: TS BOND ANGLE DIHED IMPRP ELECT VDW BOUNDARY MISC KINETIC TOTAL TEMP POTENTIAL TOTALAVG TEMPAVG PRESSURE GPRESSURE VOLUME PRESSAVG GPRESSAVG
ENERGY: 0 6.9549 5.3081 1.2854 0.0000 -10794.4547 1420.5380 0.0000 0.0000 1797.4419 -7562.9263 303.5282 -9360.3682 -7562.9263 303.5282 -404.8015 -308.9022 30230.0438 -404.8015 -308.9022
ENERGY: 300000 4.0981 0.8503 2.8727 0.0000 -10924.4295 1537.3747 0.0000 0.0000 1828.5398 -7550.6939 308.7796 -9379.2337 -7539.6448 305.2650 705.0389 693.8543 30194.0007 35.8969 99.8454
ENERGY: 600000 1.1855 2.8706 0.4197 0.0000 -10677.4491 1358.0593 0.0000 0.0000 1768.1339 -7546.7801 298.5790 -9314.9140 -7536.0433 303.2214 -660.6120 -646.1174 30791.1027 -234.5864 -169.1721
ENERGY: 900000 3.2339 1.8320 4.8261 0.0000 -10679.2328 1389.1432 0.0000 0.0000 1771.2556 -7508.9419 299.1062 -9280.1975 -7520.1967 303.6382 -357.7251 -368.3965 30937.5562 -295.8988 -241.7147
ENERGY: 1200000 0.9286 2.3326 4.3121 0.0000 -10770.0286 1429.2913 0.0000 0.0000 1743.2249 -7589.9391 294.3727 -9333.1640 -7529.2748 301.9615 -343.8793 -292.8237 31078.4511 -321.4923 -267.2891
ENERGY: 1500000 4.2833 3.3834 1.9600 0.0000 -10715.5000 1380.9101 0.0000 0.0000 1804.7938 -7520.1694 304.7696 -9324.9632 -7536.3495 301.4769 -404.9930 -345.2020 30825.2623 -299.6883 -244.2068
TCL: Running FEP window  14: Lambda1 0.65   Lambda2 0.7000000000000001 [dLambda 0.050000000000000044]
TCL: Setting parameter firsttimestep to 0
TCL: Setting parameter alchLambda to 0.65
Info: NONBONDED TABLE R-SQUARED SPACING: 0.0625
Info: NONBONDED TABLE SIZE: 705 POINTS
TCL: Setting parameter alchLambda2 to 0.7000000000000001
Info: NONBONDED TABLE R-SQUARED SPACING: 0.0625
Info: NONBONDED TABLE SIZE: 705 POINTS
TCL: Running for 1500000 steps
ETITLE: TS BOND ANGLE DIHED IMPRP ELECT VDW BOUNDARY MISC KINETIC TOTAL TEMP POTENTIAL TOTALAVG TEMPAVG PRESSURE GPRESSURE VOLUME PRESSAVG GPRESSAVG
ENERGY: 0 4.2833 3.3834 1.9600 0.0000 -10715.4397 1380.6748 0.0000 0.0000 1803.8877 -7521.2505 304.6166 -9325.1381 -7521.2505 304.6166 -416.8724 -339.3898 30825.2623 -416.8724 -339.3898
ENERGY: 300000 4.1646 2.9264 1.7819 0.0000 -10685.0724 1383.6331 0.0000 0.0000 1810.5619 -7482.0045 305.7437 -9292.5664 -7503.0423 306.1853 -449.2780 -421.4980 30763.7821 -261.2925 -203.2305
ENERGY: 600000 2.2861 3.0064 6.1018 0.0000 -10784.9129 1439.6737 0.0000 0.0000 1765.0970 -7568.7479 298.0662 -9333.8449 -7525.1338 304.1535 -182.0526 -189.6756 30979.1664 -8.9083 43.3374
ENERGY: 900000 1.0019 5.6585 2.8567 0.0000 -10869.0274 1519.5682 0.0000 0.0000 1799.1642 -7540.7780 303.8190 -9339.9422 -7520.1702 304.1388 754.6009 817.6700 30153.1430 104.0060 155.5960
ENERGY: 1200000 0.3803 0.5588 4.2419 0.0000 -10745.0486 1418.2562 0.0000 0.0000 1784.2374 -7537.3740 301.2984 -9321.6114 -7529.2858 302.8897 65.4684 110.7741 30531.3625 27.2644 79.6150
ENERGY: 1500000 0.8364 0.9920 2.0219 0.0000 -10751.8839 1400.4618 0.0000 0.0000 1816.1153 -7531.4564 306.6815 -9347.5717 -7529.1594 302.8451 -419.2595 -337.9445 30583.6376 -79.3446 -20.3753
TCL: Running FEP window  15: Lambda1 0.7000000000000001 Lambda2 0.7500000000000001 [dLambda 0.050000000000000044]
TCL: Setting parameter firsttimestep to 0
TCL: Setting parameter alchLambda to 0.7000000000000001
Info: NONBONDED TABLE R-SQUARED SPACING: 0.0625
Info: NONBONDED TABLE SIZE: 705 POINTS
TCL: Setting parameter alchLambda2 to 0.7500000000000001
Info: NONBONDED TABLE R-SQUARED SPACING: 0.0625
Info: NONBONDED TABLE SIZE: 705 POINTS
TCL: Running for 1500000 steps
ETITLE: TS BOND ANGLE DIHED IMPRP ELECT VDW BOUNDARY MISC KINETIC TOTAL TEMP POTENTIAL TOTALAVG TEMPAVG PRESSURE GPRESSURE VOLUME PRESSAVG GPRESSAVG
ENERGY: 0 0.8364 0.9920 2.0219 0.0000 -10752.0644 1400.2024 0.0000 0.0000 1815.2000 -7532.8117 306.5269 -9348.0117 -7532.8117 306.5269 -405.2464 -331.9787 30583.6376 -405.2464 -331.9787
ENERGY: 300000 3.3041 3.6082 2.7622 0.0000 -10752.2161 1421.4082 0.0000 0.0000 1755.5951 -7565.5383 296.4616 -9321.1334 -7545.6460 301.9066 -398.3003 -293.8473 30763.4524 93.5524 166.8344
ENERGY: 600000 3.5351 2.9868 4.9171 0.0000 -10803.8362 1437.4270 0.0000 0.0000 1752.7613 -7602.2090 295.9831 -9354.9703 -7579.2861 299.6988 -388.0706 -335.9518 30527.8014 105.9996 168.5929
ENERGY: 900000 0.5939 1.8369 3.8165 0.0000 -10826.6839 1439.6809 0.0000 0.0000 1731.4172 -7649.3386 292.3788 -9380.7558 -7589.4826 298.2206 -105.6549 -16.4828 30518.5141 12.7326 82.8995
ENERGY: 1200000 3.6952 4.6511 4.4808 0.0000 -10808.8056 1423.6865 0.0000 0.0000 1793.5439 -7578.7481 302.8699 -9372.2920 -7577.1204 298.4198 -151.3882 -137.4102 30390.8778 11.8586 80.1223
ENERGY: 1500000 2.2911 1.8210 2.9149 0.0000 -10620.2495 1377.9619 0.0000 0.0000 1784.3486 -7450.9120 301.3171 -9235.2607 -7563.0463 299.4003 -384.2965 -336.1623 31017.2938 -102.3297 -35.9721
TCL: Running FEP window  16: Lambda1 0.7500000000000001 Lambda2 0.8000000000000002 [dLambda 0.050000000000000044]
TCL: Setting parameter firsttimestep to 0
TCL: Setting parameter alchLambda to 0.7500000000000001
Info: NONBONDED TABLE R-SQUARED SPACING: 0.0625
Info: NONBONDED TABLE SIZE: 705 POINTS
TCL: Setting parameter alchLambda2 to 0.8000000000000002
Info: NONBONDED TABLE R-SQUARED SPACING: 0.0625
Info: NONBONDED TABLE SIZE: 705 POINTS
TCL: Running for 1500000 steps
ETITLE: TS BOND ANGLE DIHED IMPRP ELECT VDW BOUNDARY MISC KINETIC TOTAL TEMP POTENTIAL TOTALAVG TEMPAVG PRESSURE GPRESSURE VOLUME PRESSAVG GPRESSAVG
ENERGY: 0 2.2911 1.8210 2.9149 0.0000 -10620.4109 1378.0623 0.0000 0.0000 1783.4289 -7451.8927 301.1618 -9235.3216 -7451.8927 301.1618 -402.8711 -325.5531 31017.2938 -402.8711 -325.5531
ENERGY: 300000 4.8768 3.8151 4.1925 0.0000 -10735.1937 1348.6745 0.0000 0.0000 1778.3726 -7595.2621 300.3080 -9373.6347 -7571.0583 297.1520 -1102.7856 -1063.8798 30844.2474 -504.3029 -447.7739
ENERGY: 600000 0.2846 1.0541 2.5439 0.0000 -10808.5427 1471.0134 0.0000 0.0000 1783.1028 -7550.5439 301.1068 -9333.6467 -7562.9513 298.6911 324.0973 399.5099 30462.5536 -322.2181 -254.2858
ENERGY: 900000 1.6672 3.0220 1.8783 0.0000 -10786.5210 1468.8644 0.0000 0.0000 1751.1081 -7559.9810 295.7039 -9311.0892 -7567.3256 299.6075 129.1086 269.8175 30613.3583 -280.8832 -204.0872
ENERGY: 1200000 4.8241 3.0116 1.6835 0.0000 -10855.4503 1471.1253 0.0000 0.0000 1815.6455 -7559.1603 306.6021 -9374.8058 -7553.2464 301.3728 209.4626 207.9593 30360.5545 -225.0675 -152.2844
ENERGY: 1500000 3.8642 4.9194 4.4919 0.0000 -10738.1253 1438.2206 0.0000 0.0000 1808.8547 -7477.7745 305.4554 -9286.6293 -7543.8966 301.2088 13.3754 48.9424 30925.6348 -216.0968 -146.0133
TCL: Running FEP window  17: Lambda1 0.8000000000000002 Lambda2 0.8500000000000002 [dLambda 0.050000000000000044]
TCL: Setting parameter firsttimestep to 0
TCL: Setting parameter alchLambda to 0.8000000000000002
Info: NONBONDED TABLE R-SQUARED SPACING: 0.0625
Info: NONBONDED TABLE SIZE: 705 POINTS
TCL: Setting parameter alchLambda2 to 0.8500000000000002
Info: NONBONDED TABLE R-SQUARED SPACING: 0.0625
Info: NONBONDED TABLE SIZE: 705 POINTS
TCL: Running for 1500000 steps
ETITLE: TS BOND ANGLE DIHED IMPRP ELECT VDW BOUNDARY MISC KINETIC TOTAL TEMP POTENTIAL TOTALAVG TEMPAVG PRESSURE GPRESSURE VOLUME PRESSAVG GPRESSAVG
ENERGY: 0 3.8642 4.9194 4.4919 0.0000 -10738.4928 1437.7121 0.0000 0.0000 1807.9491 -7479.5561 305.3025 -9287.5053 -7479.5561 305.3025 -20.3894 52.0307 30925.6348 -20.3894 52.0307
ENERGY: 300000 0.8955 4.8951 2.7471 0.0000 -10709.5814 1382.4606 0.0000 0.0000 1778.4819 -7540.1011 300.3264 -9318.5830 -7521.5608 298.9540 -113.5137 -68.8131 30345.2699 105.5908 173.6269
ENERGY: 600000 2.0267 3.3089 1.9842 0.0000 -10781.8867 1417.3788 0.0000 0.0000 1724.0069 -7633.1813 291.1274 -9357.1881 -7552.8685 297.9313 -579.4552 -569.2315 30935.3887 81.1486 138.5723
ENERGY: 900000 2.8461 1.7422 1.3852 0.0000 -10793.7939 1471.0680 0.0000 0.0000 1731.6546 -7585.0979 292.4189 -9316.7525 -7534.4470 299.3417 774.5224 826.1266 30119.9988 43.1187 102.2943
ENERGY: 1200000 1.2004 2.7452 2.0695 0.0000 -10899.9450 1543.0651 0.0000 0.0000 1811.0833 -7539.7816 305.8317 -9350.8649 -7538.5154 300.5564 1112.9734 1149.5888 30050.5522 105.8204 158.9316
ENERGY: 1500000 1.7397 2.2600 3.6044 0.0000 -10833.9711 1475.7060 0.0000 0.0000 1764.4270 -7586.2340 297.9530 -9350.6610 -7538.2606 300.9236 117.8427 259.3545 30475.2771 178.9638 242.9698
TCL: Running FEP window  18: Lambda1 0.8500000000000002 Lambda2 0.9000000000000002 [dLambda 0.050000000000000044]
TCL: Setting parameter firsttimestep to 0
TCL: Setting parameter alchLambda to 0.8500000000000002
Info: NONBONDED TABLE R-SQUARED SPACING: 0.0625
Info: NONBONDED TABLE SIZE: 705 POINTS
TCL: Setting parameter alchLambda2 to 0.9000000000000002
Info: NONBONDED TABLE R-SQUARED SPACING: 0.0625
Info: NONBONDED TABLE SIZE: 705 POINTS
TCL: Running for 1500000 steps
ETITLE: TS BOND ANGLE DIHED IMPRP ELECT VDW BOUNDARY MISC KINETIC TOTAL TEMP POTENTIAL TOTALAVG TEMPAVG PRESSURE GPRESSURE VOLUME PRESSAVG GPRESSAVG
ENERGY: 0 1.7397 2.2600 3.6044 0.0000 -10834.1950 1475.1438 0.0000 0.0000 1763.5346 -7587.9125 297.8023 -9351.4470 -7587.9125 297.8023 169.9704 261.4791 30475.2771 169.9704 261.4791
ENERGY: 300000 2.0883 0.9202 3.5655 0.0000 -10661.6064 1325.6314 0.0000 0.0000 1750.7455 -7578.6555 295.6427 -9329.4010 -7576.4302 297.1150 -675.9622 -636.8609 30321.6724 -97.5136 -34.0362
ENERGY: 600000 4.2129 3.0259 2.4528 0.0000 -10978.7359 1533.7788 0.0000 0.0000 1799.6934 -7635.5720 303.9084 -9435.2655 -7590.9358 300.0142 812.2176 824.5791 29976.9302 136.7649 200.3581
ENERGY: 900000 5.8160 2.6223 5.9400 0.0000 -10697.2857 1442.2901 0.0000 0.0000 1745.1409 -7495.4764 294.6963 -9240.6173 -7573.0166 299.3758 17.5942 120.5119 31172.6977 26.9534 88.1454
ENERGY: 1200000 2.6580 3.7884 2.9422 0.0000 -10916.0578 1548.1383 0.0000 0.0000 1765.5171 -7593.0138 298.1371 -9358.5309 -7572.1069 299.6275 619.2643 650.2910 30589.7364 63.9828 119.3587
ENERGY: 1500000 1.1064 1.6097 5.2951 0.0000 -10731.9751 1390.8197 0.0000 0.0000 1806.4481 -7526.6960 305.0490 -9333.1441 -7574.2664 299.7803 -502.7936 -441.1019 30765.4903 -10.1461 43.6544
TCL: Running FEP window  19: Lambda1 0.9000000000000002 Lambda2 0.9500000000000003 [dLambda 0.050000000000000044]
TCL: Setting parameter firsttimestep to 0
TCL: Setting parameter alchLambda to 0.9000000000000002
Info: NONBONDED TABLE R-SQUARED SPACING: 0.0625
Info: NONBONDED TABLE SIZE: 705 POINTS
TCL: Setting parameter alchLambda2 to 0.9500000000000003
Info: NONBONDED TABLE R-SQUARED SPACING: 0.0625
Info: NONBONDED TABLE SIZE: 705 POINTS
TCL: Running for 1500000 steps
ETITLE: TS BOND ANGLE DIHED IMPRP ELECT VDW BOUNDARY MISC KINETIC TOTAL TEMP POTENTIAL TOTALAVG TEMPAVG PRESSURE GPRESSURE VOLUME PRESSAVG GPRESSAVG
ENERGY: 0 1.1064 1.6097 5.2951 0.0000 -10732.2259 1390.5280 0.0000 0.0000 1805.6036 -7528.0830 304.9064 -9333.6866 -7528.0830 304.9064 -518.4587 -435.2597 30765.4903 -518.4587 -435.2597
ENERGY: 300000 5.2334 2.8120 1.7965 0.0000 -10759.1000 1439.8138 0.0000 0.0000 1875.4680 -7433.9763 316.7042 -9309.4443 -7525.4967 304.8205 86.1276 161.4329 30717.4851 268.9445 334.4757
ENERGY: 600000 3.5939 0.9803 1.9063 0.0000 -10836.5084 1491.1140 0.0000 0.0000 1786.9425 -7551.9715 301.7552 -9338.9140 -7547.2559 302.4167 532.8232 580.5061 30324.3253 232.1904 293.9883
ENERGY: 900000 2.5832 3.2837 3.2811 0.0000 -10841.2769 1479.0583 0.0000 0.0000 1756.7399 -7596.3308 296.6549 -9353.0706 -7555.3500 301.8112 -191.2018 -84.3965 30926.1554 66.9170 130.1668
ENERGY: 1200000 4.3982 0.9118 1.8053 0.0000 -10990.8902 1556.5835 0.0000 0.0000 1800.3712 -7626.8202 304.0228 -9427.1914 -7562.1450 301.8261 729.9983 744.5584 30342.3666 96.7964 157.3559
ENERGY: 1500000 2.5186 3.8170 2.6896 0.0000 -10797.5549 1492.3461 0.0000 0.0000 1774.8999 -7521.2837 299.7216 -9296.1836 -7558.0495 301.5454 578.5341 627.4535 30493.7765 129.1544 192.1406
TCL: Running FEP window  20: Lambda1 0.9500000000000003 Lambda2 1.0    [dLambda 0.04999999999999971]
TCL: Setting parameter firsttimestep to 0
TCL: Setting parameter alchLambda to 0.9500000000000003
Info: NONBONDED TABLE R-SQUARED SPACING: 0.0625
Info: NONBONDED TABLE SIZE: 705 POINTS
TCL: Setting parameter alchLambda2 to 1.0
Info: NONBONDED TABLE R-SQUARED SPACING: 0.0625
Info: NONBONDED TABLE SIZE: 705 POINTS
TCL: Running for 1500000 steps
ETITLE: TS BOND ANGLE DIHED IMPRP ELECT VDW BOUNDARY MISC KINETIC TOTAL TEMP POTENTIAL TOTALAVG TEMPAVG PRESSURE GPRESSURE VOLUME PRESSAVG GPRESSAVG
ENERGY: 0 2.5186 3.8169 2.6896 0.0000 -10797.8078 1492.3520 0.0000 0.0000 1773.9849 -7522.4458 299.5670 -9296.4306 -7522.4458 299.5670 563.1806 641.2140 30493.7765 563.1806 641.2140
ENERGY: 300000 4.3887 2.1974 3.6757 0.0000 -10750.2191 1430.6793 0.0000 0.0000 1736.9752 -7572.3028 293.3173 -9309.2780 -7551.3220 298.3796 -334.5725 -277.0102 31106.6654 141.2324 206.9074
ENERGY: 600000 2.1809 5.5130 5.3772 0.0000 -10623.0689 1320.7283 0.0000 0.0000 1767.8062 -7521.4633 298.5237 -9289.2696 -7568.2895 298.5237 -1102.1637 -1053.3364 31330.7470 -143.3212 -91.7901
ENERGY: 900000 3.8810 1.5582 3.1662 0.0000 -10761.2918 1412.6956 0.0000 0.0000 1794.3119 -7545.6791 302.9996 -9339.9910 -7548.8798 300.1622 -350.1199 -294.8834 30765.2301 -172.6439 -129.8379
ENERGY: 1200000 2.9356 1.5146 1.8256 0.0000 -10770.1473 1431.7446 0.0000 0.0000 1751.9128 -7580.2140 295.8398 -9332.1268 -7563.8776 299.3773 -186.9610 -171.8102 30947.1912 -81.0537 -37.4142
ENERGY: 1500000 0.7881 4.1041 5.2055 0.0000 -10692.7073 1364.8766 0.0000 0.0000 1823.2383 -7494.4946 307.8843 -9317.7329 -7564.1587 299.4877 -704.0839 -572.8018 30990.3710 -156.2841 -101.2864
TCL: Exiting due to exit command.
