Info: SIMULATION PARAMETERS:
Info: TIMESTEP               2
Info: NUMBER OF STEPS        0
Info: STEPS PER CYCLE        10
Info: PERIODIC CELL BASIS 1  31.0278 0 0
Info: PERIODIC CELL BASIS 2  0 30.3839 0
Info: PERIODIC CELL BASIS 3  0 0 32.1036
Info: PERIODIC CELL CENTER   0 0 0
Info: WRAPPING WATERS AROUND PERIODIC BOUNDARIES ON OUTPUT.
Info: WRAPPING ALL CLUSTERS AROUND PERIODIC BOUNDARIES ON OUTPUT.
Info: FIRST LDB TIMESTEP     50
Info: LAST LDB TIMESTEP     -1
Info: HOM BACKGROUND SCALING 1
Info: PME BACKGROUND SCALING 1
Info: MIN ATOMS PER PATCH    40
Info: EMPTY PATCH LOAD       40 ATOMS
Info: VELOCITY FILE          mobley_303222_equil.vel
Info: CENTER OF MASS MOVING INITIALLY? NO
Info: DIELECTRIC             1
Info: EXCLUDE                SCALED ONE-FOUR
Info: 1-4 ELECTROSTATICS SCALED BY 0.833333
Info: MODIFIED 1-4 VDW PARAMETERS WILL BE USED
Info: DCD FILENAME           mobley_303222_prod.dcd
Info: DCD FREQUENCY          100000
Info: DCD FIRST STEP         100000
Info: DCD FILE WILL CONTAIN UNIT CELL DATA
Info: XST FILENAME           mobley_303222_prod.xst
Info: XST FREQUENCY          100000
Info: NO VELOCITY DCD OUTPUT
Info: NO FORCE DCD OUTPUT
Info: OUTPUT FILENAME        mobley_303222_prod
Info: BINARY OUTPUT FILES WILL BE USED
Info: RESTART FILENAME       mobley_303222_prod.restart
Info: RESTART FREQUENCY      100000
Info: BINARY RESTART FILES WILL BE USED
Info: CUTOFF                 9
Info: PAIRLIST DISTANCE      11
Info: PAIRLIST SHRINK RATE   0.01
Info: PAIRLIST GROW RATE     0.01
Info: PAIRLIST TRIGGER       0.3
Info: PAIRLISTS PER CYCLE    2
Info: PAIRLISTS ENABLED
Info: MARGIN                 2
Info: HYDROGEN GROUP CUTOFF  2.5
Info: PATCH DIMENSION        15.5
Info: ENERGY OUTPUT STEPS    100000
Info: ENERGY EVALUATION STEPS    100000
Info: OUTPUT ENERGY PRECISION 4
Info: CROSSTERM ENERGY INCLUDED IN DIHEDRAL
Info: TIMING OUTPUT STEPS    1000000
Info: PRESSURE OUTPUT STEPS  100000
Info: ALCHEMICAL FEP ON
Info: FEP CURRENT LAMBDA VALUE     0
Info: FEP COMPARISON LAMBDA VALUE  0.05
Info: FEP INTRA-ALCHEMICAL NON-BONDED INTERACTIONS WILL BE RETAINED
Info: FEP INTRA-ALCHEMICAL BONDED INTERACTIONS WILL BE RETAINED
Info: FEP VDW SHIFTING COEFFICIENT 5
Info: FEP ELEC. ACTIVE FOR ANNIHILATED PARTICLES BETWEEN LAMBDA = 0 AND LAMBDA = 0.5
Info: FEP ELEC. ACTIVE FOR EXNIHILATED PARTICLES BETWEEN LAMBDA = 0.5 AND LAMBDA = 1
Info: FEP VDW ACTIVE FOR ANNIHILATED PARTICLES BETWEEN LAMBDA = 0 AND LAMBDA = 1
Info: FEP VDW ACTIVE FOR EXNIHILATED PARTICLES BETWEEN LAMBDA = 0 AND LAMBDA = 1
Info: FEP BOND ACTIVE FOR ANNIHILATED PARTICLES BETWEEN LAMBDA = 1 AND LAMBDA = 1
Info: FEP BOND ACTIVE FOR EXNIHILATED PARTICLES BETWEEN LAMBDA = 0 AND LAMBDA = 0
Info: LANGEVIN DYNAMICS ACTIVE
Info: LANGEVIN TEMPERATURE   300
Info: LANGEVIN USING BBK INTEGRATOR
Info: LANGEVIN DAMPING COEFFICIENT IS 1 INVERSE PS
Info: LANGEVIN DYNAMICS APPLIED TO HYDROGENS
Info: LANGEVIN PISTON PRESSURE CONTROL ACTIVE
Info:        TARGET PRESSURE IS 1.01325 BAR
Info:     OSCILLATION PERIOD IS 50 FS
Info:             DECAY TIME IS 25 FS
Info:     PISTON TEMPERATURE IS 300 K
Info:       PRESSURE CONTROL IS GROUP-BASED
Info:    INITIAL STRAIN RATE IS 0.000314464 0.000314464 0.000314464
Info:       CELL FLUCTUATION IS ISOTROPIC
Info: PARTICLE MESH EWALD (PME) ACTIVE
Info: PME TOLERANCE               1e-06
Info: PME EWALD COEFFICIENT       0.348832
Info: PME INTERPOLATION ORDER     4
Info: PME GRID DIMENSIONS         32 32 36
Info: PME MAXIMUM GRID SPACING    1
Info: PME CALCULATION WILL BE PERFORMED ON GPU
Info: FULL ELECTROSTATIC EVALUATION FREQUENCY      2
Info: USING VERLET I (r-RESPA) MTS SCHEME.
Info: C1 SPLITTING OF LONG RANGE ELECTROSTATICS
Info: PLACING ATOMS IN PATCHES BY HYDROGEN GROUPS
Info: RIGID BONDS TO HYDROGEN : ALL
Info:         ERROR TOLERANCE : 1e-08
Info:          MAX ITERATIONS : 100
Info: RIGID WATER USING SETTLE ALGORITHM
Info: RANDOM NUMBER SEED     1743501925
Info: USE HYDROGEN BONDS?    NO
Info: Using AMBER format force field!
Info: AMBER PARM FILE        mobley_303222.prmtop
Info: COORDINATE PDB         mobley_303222.pdb
Info: Exclusions will be read from PARM file!
Info: SCNB (VDW SCALING)     2
Info: USING ARITHMETIC MEAN TO COMBINE L-J SIGMA PARAMETERS
Info: BINARY COORDINATES     mobley_303222_equil.coor
Info: SUMMARY OF PARAMETERS:
Info: 6 BONDS
Info: 6 ANGLES
Info:   6 HARMONIC
Info:   0 COSINE-BASED
Info: 5 DIHEDRAL
Info: 0 IMPROPER
Info: 0 CROSSTERM
Info: 0 VDW
Info: 21 VDW_PAIRS
Info: 0 NBTHOLE_PAIRS
Info: To read alchdata from file: mobley_303222.pdb
Info: To read alchflag data from column: 5
Info: STRUCTURE SUMMARY:
Info: 2934 ATOMS
Info: 2933 BONDS
Info: 12 ANGLES
Info: 18 DIHEDRALS
Info: 0 IMPROPERS
Info: 0 CROSSTERMS
Info: 2955 EXCLUSIONS
Info: 2931 RIGID BONDS
Info: ALCH: 0 ATOMS TO DISAPPEAR IN FINAL STATE
Info: ALCH: 9 ATOMS TO APPEAR IN FINAL STATE
Info: 5871 DEGREES OF FREEDOM
Info: 978 HYDROGEN GROUPS
Info: 4 ATOMS IN LARGEST HYDROGEN GROUP
Info: 978 MIGRATION GROUPS
Info: 4 ATOMS IN LARGEST MIGRATION GROUP
Info: TOTAL MASS = 17607.7 amu
Info: TOTAL CHARGE = -9.99942e-05 e
Info: MASS DENSITY = 0.966079 g/cm^3
Info: ATOM DENSITY = 0.0969419 atoms/A^3
Info: ADDED 0 IMPLICIT EXCLUSIONS
Info: NONBONDED TABLE R-SQUARED SPACING: 0.0625
Info: NONBONDED TABLE SIZE: 705 POINTS
Info: REMOVING COM VELOCITY 0.0422607 -0.263084 -0.0654655
Info: Use 3D box decompostion in PME FFT.
Info: Updated CUDA force table with 4096 elements.
Info: Updated CUDA LJ table with 6 x 6 elements.
Info: Found 12 unique exclusion lists needing 16 bytes
TCL: Running for 1500000 steps
ETITLE: TS BOND ANGLE DIHED IMPRP ELECT VDW BOUNDARY MISC KINETIC TOTAL TEMP POTENTIAL TOTALAVG TEMPAVG PRESSURE GPRESSURE VOLUME PRESSAVG GPRESSAVG
ENERGY: 0 0.5103 2.3743 5.4442 0.0000 -10659.3989 1462.0438 0.0000 0.0000 1767.9379 -7421.0883 303.0717 -9189.0262 -7421.0883 303.0717 147.1278 231.4319 30265.5647 147.1278 231.4319
ENERGY: 300000 0.1916 1.5228 4.2476 0.0000 -10563.3810 1413.8428 0.0000 0.0000 1729.1070 -7414.4693 296.4150 -9143.5763 -7430.1876 300.7010 52.6148 86.8653 30148.5447 103.0124 165.4685
ENERGY: 600000 1.4551 1.0041 4.1216 0.0000 -10472.6660 1323.7515 0.0000 0.0000 1704.5467 -7437.7871 292.2047 -9142.3338 -7428.1722 299.1194 -749.0691 -690.3380 30319.1525 -90.3129 -31.7519
ENERGY: 900000 0.1996 1.6261 5.5434 0.0000 -10763.8884 1470.3322 0.0000 0.0000 1705.2263 -7580.9608 292.3212 -9286.1871 -7435.6857 300.0685 224.9305 275.3834 29552.9306 28.6006 95.2688
ENERGY: 1200000 0.9078 1.6577 3.9629 0.0000 -10621.2966 1413.8159 0.0000 0.0000 1745.5532 -7455.3991 299.2343 -9200.9523 -7434.4310 300.3842 -216.5315 -141.3267 30358.6947 -59.6911 12.0285
ENERGY: 1500000 0.1466 2.0933 4.6649 0.0000 -10796.8279 1549.3730 0.0000 0.0000 1766.7243 -7473.8257 302.8636 -9240.5500 -7444.3293 300.5753 926.8587 982.9085 29857.6938 35.6054 105.3795
TCL: Running FEP window   2: Lambda1 0.05   Lambda2 0.1    [dLambda 0.05  ]
TCL: Setting parameter firsttimestep to 0
TCL: Setting parameter alchLambda to 0.05
Info: NONBONDED TABLE R-SQUARED SPACING: 0.0625
Info: NONBONDED TABLE SIZE: 705 POINTS
TCL: Setting parameter alchLambda2 to 0.1
Info: NONBONDED TABLE R-SQUARED SPACING: 0.0625
Info: NONBONDED TABLE SIZE: 705 POINTS
TCL: Running for 1500000 steps
ETITLE: TS BOND ANGLE DIHED IMPRP ELECT VDW BOUNDARY MISC KINETIC TOTAL TEMP POTENTIAL TOTALAVG TEMPAVG PRESSURE GPRESSURE VOLUME PRESSAVG GPRESSAVG
ENERGY: 0 0.1466 2.0933 4.6649 0.0000 -10796.8275 1552.1449 0.0000 0.0000 1765.9055 -7471.8723 302.7232 -9237.7778 -7471.8723 302.7232 895.5616 987.0515 29857.6938 895.5616 987.0515
ENERGY: 300000 1.6867 3.4973 4.6296 0.0000 -10651.8980 1465.6667 0.0000 0.0000 1720.3520 -7456.0658 294.9142 -9176.4178 -7426.8466 300.7662 379.5039 415.6208 30050.0669 224.5395 269.6214
ENERGY: 600000 0.2280 2.6337 4.5955 0.0000 -10534.5210 1445.9375 0.0000 0.0000 1790.7811 -7290.3451 306.9876 -9081.1262 -7427.3826 299.2083 507.9201 600.3585 30085.1733 178.8339 250.1492
ENERGY: 900000 0.0906 3.0961 4.3904 0.0000 -10488.5491 1321.9448 0.0000 0.0000 1711.3508 -7447.6764 293.3711 -9159.0272 -7434.7120 299.2885 -612.5364 -567.8831 30069.8682 6.5724 82.2765
ENERGY: 1200000 0.6306 1.5652 4.8446 0.0000 -10726.8671 1450.1063 0.0000 0.0000 1680.8872 -7588.8332 288.1488 -9269.7204 -7452.8457 298.6299 -249.5900 -194.6773 30152.6193 -81.4798 -17.9473
ENERGY: 1500000 1.3429 1.4741 3.9091 0.0000 -10594.1091 1432.3216 0.0000 0.0000 1728.5013 -7426.5602 296.3112 -9155.0615 -7448.7702 299.0595 7.7942 89.5766 30118.3672 -2.4202 55.7466
TCL: Running FEP window   3: Lambda1 0.1    Lambda2 0.15000000000000002 [dLambda 0.05000000000000002]
TCL: Setting parameter firsttimestep to 0
TCL: Setting parameter alchLambda to 0.1
Info: NONBONDED TABLE R-SQUARED SPACING: 0.0625
Info: NONBONDED TABLE SIZE: 705 POINTS
TCL: Setting parameter alchLambda2 to 0.15000000000000002
Info: NONBONDED TABLE R-SQUARED SPACING: 0.0625
Info: NONBONDED TABLE SIZE: 705 POINTS
TCL: Running for 1500000 steps
ETITLE: TS BOND ANGLE DIHED IMPRP ELECT VDW BOUNDARY MISC KINETIC TOTAL TEMP POTENTIAL TOTALAVG TEMPAVG PRESSURE GPRESSURE VOLUME PRESSAVG GPRESSAVG
ENERGY: 0 1.3429 1.4741 3.9091 0.0000 -10594.1094 1432.9387 0.0000 0.0000 1727.6246 -7426.8199 296.1609 -9154.4446 -7426.8199 296.1609 5.7457 92.0049 30118.3672 5.7457 92.0049
ENERGY: 300000 0.7938 2.6951 4.6758 0.0000 -10699.2625 1494.8317 0.0000 0.0000 1796.9678 -7399.2982 308.0481 -9196.2661 -7423.5750 300.7551 293.8736 368.2197 30249.8609 -170.5771 -109.4068
ENERGY: 600000 1.6047 4.7842 5.5402 0.0000 -10576.5311 1422.3758 0.0000 0.0000 1732.3220 -7409.9043 296.9661 -9142.2263 -7442.0996 298.0152 -129.1802 -8.6163 30160.4067 -125.1121 -61.6074
ENERGY: 900000 1.0541 1.3576 4.9733 0.0000 -10824.8257 1550.4808 0.0000 0.0000 1742.2537 -7524.7061 298.6687 -9266.9598 -7435.3832 298.1609 604.9940 665.9121 30357.1595 -88.2042 -24.5054
ENERGY: 1200000 0.6932 4.7702 5.6141 0.0000 -10559.7681 1407.0899 0.0000 0.0000 1735.6688 -7405.9320 297.5399 -9141.6008 -7435.8316 298.4397 -272.5238 -200.2349 30332.9376 -79.4906 -17.4929
ENERGY: 1500000 0.2278 4.2192 7.7740 0.0000 -10545.2161 1416.9105 0.0000 0.0000 1746.3370 -7369.7475 299.3687 -9116.0846 -7427.7899 298.5126 -30.7336 -30.2415 30593.4249 -23.0334 31.1522
TCL: Running FEP window   4: Lambda1 0.15000000000000002 Lambda2 0.2    [dLambda 0.04999999999999999]
TCL: Setting parameter firsttimestep to 0
TCL: Setting parameter alchLambda to 0.15000000000000002
Info: NONBONDED TABLE R-SQUARED SPACING: 0.0625
Info: NONBONDED TABLE SIZE: 705 POINTS
TCL: Setting parameter alchLambda2 to 0.2
Info: NONBONDED TABLE R-SQUARED SPACING: 0.0625
Info: NONBONDED TABLE SIZE: 705 POINTS
TCL: Running for 1500000 steps
ETITLE: TS BOND ANGLE DIHED IMPRP ELECT VDW BOUNDARY MISC KINETIC TOTAL TEMP POTENTIAL TOTALAVG TEMPAVG PRESSURE GPRESSURE VOLUME PRESSAVG GPRESSAVG
ENERGY: 0 0.2279 4.2192 7.7740 0.0000 -10545.2169 1417.4445 0.0000 0.0000 1745.5048 -7370.0466 299.2260 -9115.5514 -7370.0466 299.2260 -94.5901 -26.1187 30593.4249 -94.5901 -26.1187
ENERGY: 300000 1.2936 2.5820 7.4308 0.0000 -10651.3779 1447.8227 0.0000 0.0000 1756.8239 -7435.4249 301.1664 -9192.2488 -7433.0023 298.4057 195.4587 192.2417 30037.9526 83.8879 129.1905
ENERGY: 600000 0.1431 3.6258 5.5146 0.0000 -10665.0246 1434.3712 0.0000 0.0000 1722.3896 -7498.9803 295.2634 -9221.3699 -7460.1277 299.1415 -117.7789 -52.9614 30183.4425 -11.5209 26.9971
ENERGY: 900000 0.2675 0.6042 6.9923 0.0000 -10785.6500 1520.5623 0.0000 0.0000 1793.4805 -7463.7432 307.4503 -9257.2236 -7458.3544 300.8918 586.0001 682.9987 30106.5386 28.0771 61.9623
ENERGY: 1200000 0.1444 6.5104 5.9101 0.0000 -10618.6643 1411.6591 0.0000 0.0000 1791.4950 -7402.9453 307.1100 -9194.4402 -7456.7298 301.2166 -346.7076 -304.4226 30262.9362 -102.3654 -68.9026
ENERGY: 1500000 0.4542 2.6326 4.4626 0.0000 -10773.6920 1553.6576 0.0000 0.0000 1742.3180 -7470.1669 298.6797 -9212.4850 -7447.8232 301.0830 885.7106 922.2087 29859.3244 -75.9910 -34.1078
TCL: Running FEP window   5: Lambda1 0.2    Lambda2 0.25   [dLambda 0.04999999999999999]
TCL: Setting parameter firsttimestep to 0
TCL: Setting parameter alchLambda to 0.2
Info: NONBONDED TABLE R-SQUARED SPACING: 0.0625
Info: NONBONDED TABLE SIZE: 705 POINTS
TCL: Setting parameter alchLambda2 to 0.25
Info: NONBONDED TABLE R-SQUARED SPACING: 0.0625
Info: NONBONDED TABLE SIZE: 705 POINTS
TCL: Running for 1500000 steps
ETITLE: TS BOND ANGLE DIHED IMPRP ELECT VDW BOUNDARY MISC KINETIC TOTAL TEMP POTENTIAL TOTALAVG TEMPAVG PRESSURE GPRESSURE VOLUME PRESSAVG GPRESSAVG
ENERGY: 0 0.4542 2.6326 4.4626 0.0000 -10773.6923 1554.2175 0.0000 0.0000 1741.4557 -7470.4697 298.5319 -9211.9254 -7470.4697 298.5319 845.1271 929.2948 29859.3244 845.1271 929.2948
ENERGY: 300000 0.0585 1.5809 5.6757 0.0000 -10751.5473 1432.4751 0.0000 0.0000 1763.6454 -7548.1118 302.3358 -9311.7572 -7483.8022 298.3080 -441.6063 -318.9415 30098.9945 343.5702 434.3315
ENERGY: 600000 0.1547 3.5740 5.4118 0.0000 -10744.1479 1456.9691 0.0000 0.0000 1711.4943 -7566.5439 293.3957 -9278.0382 -7479.4003 298.9386 -119.9795 -96.7454 30167.5073 317.8721 396.9052
ENERGY: 900000 0.4637 3.5605 6.0107 0.0000 -10586.7182 1381.2928 0.0000 0.0000 1700.9337 -7494.4567 291.5853 -9195.3904 -7465.4161 299.7592 -646.3627 -587.3427 30751.7958 92.3328 173.3563
ENERGY: 1200000 2.1855 2.2786 5.5352 0.0000 -10786.8426 1539.2349 0.0000 0.0000 1715.2761 -7522.3325 294.0440 -9237.6085 -7467.7810 299.3581 791.0234 808.1305 30279.9940 208.1717 276.5733
ENERGY: 1500000 0.0798 2.5818 6.7088 0.0000 -10822.7785 1589.6969 0.0000 0.0000 1757.2648 -7466.4465 301.2420 -9223.7112 -7467.2178 300.0307 1412.0175 1474.7007 29575.3423 237.8576 299.9904
TCL: Running FEP window   6: Lambda1 0.25   Lambda2 0.3    [dLambda 0.04999999999999999]
TCL: Setting parameter firsttimestep to 0
TCL: Setting parameter alchLambda to 0.25
Info: NONBONDED TABLE R-SQUARED SPACING: 0.0625
Info: NONBONDED TABLE SIZE: 705 POINTS
TCL: Setting parameter alchLambda2 to 0.3
Info: NONBONDED TABLE R-SQUARED SPACING: 0.0625
Info: NONBONDED TABLE SIZE: 705 POINTS
TCL: Running for 1500000 steps
ETITLE: TS BOND ANGLE DIHED IMPRP ELECT VDW BOUNDARY MISC KINETIC TOTAL TEMP POTENTIAL TOTALAVG TEMPAVG PRESSURE GPRESSURE VOLUME PRESSAVG GPRESSAVG
ENERGY: 0 0.0798 2.5818 6.7088 0.0000 -10822.7789 1590.3502 0.0000 0.0000 1756.4234 -7466.6350 301.0978 -9223.0584 -7466.6350 301.0978 1394.5518 1482.0637 29575.3423 1394.5518 1482.0637
ENERGY: 300000 0.4925 4.5435 5.0265 0.0000 -10582.3208 1356.8794 0.0000 0.0000 1702.8529 -7512.5260 291.9143 -9215.3789 -7483.8350 299.1072 -797.6440 -765.2022 30547.4394 -153.3443 -80.1616
ENERGY: 600000 0.0906 1.1246 4.2302 0.0000 -10756.1659 1484.8302 0.0000 0.0000 1726.7354 -7539.1550 296.0084 -9265.8904 -7481.5852 299.7253 341.7572 418.2843 29805.3538 -113.9847 -55.2922
ENERGY: 900000 0.5735 3.1363 4.5209 0.0000 -10708.3628 1459.5940 0.0000 0.0000 1796.0941 -7444.4439 307.8984 -9240.5380 -7459.7176 300.8671 110.9813 146.3211 30222.5348 -20.0150 36.7024
ENERGY: 1200000 0.9403 0.8271 3.6514 0.0000 -10596.1381 1377.8487 0.0000 0.0000 1699.7588 -7513.1117 291.3839 -9212.8705 -7465.2546 299.4158 -317.9538 -249.0217 29826.2408 44.7335 98.9245
ENERGY: 1500000 0.5613 2.2500 3.4626 0.0000 -10614.4148 1440.8934 0.0000 0.0000 1696.6292 -7470.6183 290.8474 -9167.2476 -7461.1443 298.7885 143.0388 216.5103 30123.2336 98.9399 146.8484
TCL: Running FEP window   7: Lambda1 0.3    Lambda2 0.35   [dLambda 0.04999999999999999]
TCL: Setting parameter firsttimestep to 0
TCL: Setting parameter alchLambda to 0.3
Info: NONBONDED TABLE R-SQUARED SPACING: 0.0625
Info: NONBONDED TABLE SIZE: 705 POINTS
TCL: Setting parameter alchLambda2 to 0.35
Info: NONBONDED TABLE R-SQUARED SPACING: 0.0625
Info: NONBONDED TABLE SIZE: 705 POINTS
TCL: Running for 1500000 steps
ETITLE: TS BOND ANGLE DIHED IMPRP ELECT VDW BOUNDARY MISC KINETIC TOTAL TEMP POTENTIAL TOTALAVG TEMPAVG PRESSURE GPRESSURE VOLUME PRESSAVG GPRESSAVG
ENERGY: 0 0.5613 2.2500 3.4626 0.0000 -10614.4148 1441.3444 0.0000 0.0000 1695.7865 -7471.0101 290.7030 -9166.7966 -7471.0101 290.7030 140.8327 220.1975 30123.2336 140.8327 220.1975
ENERGY: 300000 0.9132 2.2172 3.5714 0.0000 -10636.6350 1406.6926 0.0000 0.0000 1797.8968 -7425.3439 308.2074 -9223.2407 -7446.9023 301.2160 -293.9195 -265.0990 30507.9988 -49.3173 15.0054
ENERGY: 600000 1.0039 4.9506 4.6589 0.0000 -10622.8456 1416.3395 0.0000 0.0000 1668.2635 -7527.6291 285.9848 -9195.8926 -7461.7977 298.4390 -291.3857 -229.6746 30428.8171 47.9214 113.9666
ENERGY: 900000 0.0219 1.8079 4.7639 0.0000 -10705.0943 1441.7061 0.0000 0.0000 1780.0081 -7476.7864 305.1408 -9256.7945 -7469.5806 299.8518 -148.5803 -128.0964 30305.4195 57.9130 122.3365
ENERGY: 1200000 1.1227 3.9848 4.6473 0.0000 -10650.4569 1461.4792 0.0000 0.0000 1719.6814 -7459.5414 294.7992 -9179.2228 -7452.4023 300.6783 -89.6265 -28.0768 30566.1616 -16.7892 41.8154
ENERGY: 1500000 1.7893 1.8511 4.2277 0.0000 -10639.4276 1390.9634 0.0000 0.0000 1829.9732 -7410.6230 313.7061 -9240.5961 -7446.1624 301.5662 -324.6605 -276.2613 30076.9850 9.5632 66.3320
TCL: Running FEP window   8: Lambda1 0.35   Lambda2 0.39999999999999997 [dLambda 0.04999999999999999]
TCL: Setting parameter firsttimestep to 0
TCL: Setting parameter alchLambda to 0.35
Info: NONBONDED TABLE R-SQUARED SPACING: 0.0625
Info: NONBONDED TABLE SIZE: 705 POINTS
TCL: Setting parameter alchLambda2 to 0.39999999999999997
Info: NONBONDED TABLE R-SQUARED SPACING: 0.0625
Info: NONBONDED TABLE SIZE: 705 POINTS
TCL: Running for 1500000 steps
ETITLE: TS BOND ANGLE DIHED IMPRP ELECT VDW BOUNDARY MISC KINETIC TOTAL TEMP POTENTIAL TOTALAVG TEMPAVG PRESSURE GPRESSURE VOLUME PRESSAVG GPRESSAVG
ENERGY: 0 1.7893 1.8511 4.2277 0.0000 -10639.4269 1390.8626 0.0000 0.0000 1829.0771 -7411.6191 313.5525 -9240.6962 -7411.6191 313.5525 -359.2066 -273.2924 30076.9850 -359.2066 -273.2924
ENERGY: 300000 1.4616 2.0995 5.8636 0.0000 -10578.5829 1385.2967 0.0000 0.0000 1786.0978 -7397.7636 306.1847 -9183.8614 -7444.2182 304.7681 -335.3843 -270.5771 30025.1944 -435.6314 -397.5276
ENERGY: 600000 0.8789 2.5090 4.0998 0.0000 -10589.9890 1364.9050 0.0000 0.0000 1721.2382 -7496.3582 295.0661 -9217.5964 -7445.7219 301.8078 -767.5439 -707.3078 30539.9719 -336.4785 -291.7441
ENERGY: 900000 0.5742 2.7173 6.9283 0.0000 -10650.8117 1406.5906 0.0000 0.0000 1819.3720 -7414.6294 311.8888 -9234.0013 -7443.6349 302.6880 -85.5770 15.3759 29711.7711 -173.8302 -126.7962
ENERGY: 1200000 0.0125 1.9047 4.1886 0.0000 -10658.5760 1470.9989 0.0000 0.0000 1747.6126 -7433.8588 299.5873 -9181.4714 -7442.8759 301.9965 312.0659 407.4379 30055.6394 -84.3463 -29.0796
ENERGY: 1500000 0.1128 1.5221 5.2225 0.0000 -10625.3388 1389.1484 0.0000 0.0000 1789.3292 -7440.0038 306.7387 -9229.3330 -7440.4806 302.1446 -108.8979 -79.2750 29970.5071 -60.1852 -8.8989
TCL: Running FEP window   9: Lambda1 0.39999999999999997 Lambda2 0.44999999999999996 [dLambda 0.04999999999999999]
TCL: Setting parameter firsttimestep to 0
TCL: Setting parameter alchLambda to 0.39999999999999997
Info: NONBONDED TABLE R-SQUARED SPACING: 0.0625
Info: NONBONDED TABLE SIZE: 705 POINTS
TCL: Setting parameter alchLambda2 to 0.44999999999999996
Info: NONBONDED TABLE R-SQUARED SPACING: 0.0625
Info: NONBONDED TABLE SIZE: 705 POINTS
TCL: Running for 1500000 steps
ETITLE: TS BOND ANGLE DIHED IMPRP ELECT VDW BOUNDARY MISC KINETIC TOTAL TEMP POTENTIAL TOTALAVG TEMPAVG PRESSURE GPRESSURE VOLUME PRESSAVG GPRESSAVG
ENERGY: 0 0.1128 1.5221 5.2225 0.0000 -10625.3383 1389.4754 0.0000 0.0000 1788.4576 -7440.5479 306.5893 -9229.0055 -7440.5479 306.5893 -165.4204 -71.1183 29970.5071 -165.4204 -71.1183
ENERGY: 300000 0.4759 1.5543 4.9825 0.0000 -10573.1923 1432.7243 0.0000 0.0000 1802.6114 -7330.8439 309.0156 -9133.4552 -7433.8252 304.4430 203.0407 249.3246 30298.1981 6.2448 85.4456
ENERGY: 600000 0.4614 4.5269 5.3436 0.0000 -10672.8355 1466.1236 0.0000 0.0000 1766.1110 -7430.2690 302.7585 -9196.3800 -7452.3098 302.3932 -14.2489 89.1743 30447.2443 82.1386 157.2058
ENERGY: 900000 1.1316 3.4693 4.6499 0.0000 -10634.7194 1446.6106 0.0000 0.0000 1791.4380 -7387.4201 307.1002 -9178.8580 -7443.4479 303.3052 155.9522 240.5985 30190.5388 136.0562 195.7210
ENERGY: 1200000 0.8650 0.9142 3.9573 0.0000 -10561.3291 1364.2855 0.0000 0.0000 1762.8822 -7428.4248 302.2050 -9191.3070 -7453.9076 301.3862 -660.4394 -641.1631 30489.4192 104.1069 157.9166
ENERGY: 1500000 1.9300 2.6688 3.9529 0.0000 -10830.2226 1531.1884 0.0000 0.0000 1794.6341 -7495.8484 307.6481 -9290.4825 -7455.6285 301.0896 627.7237 566.3285 29879.8761 162.1731 212.9504
TCL: Running FEP window  10: Lambda1 0.44999999999999996 Lambda2 0.49999999999999994 [dLambda 0.04999999999999999]
TCL: Setting parameter firsttimestep to 0
TCL: Setting parameter alchLambda to 0.44999999999999996
Info: NONBONDED TABLE R-SQUARED SPACING: 0.0625
Info: NONBONDED TABLE SIZE: 705 POINTS
TCL: Setting parameter alchLambda2 to 0.49999999999999994
Info: NONBONDED TABLE R-SQUARED SPACING: 0.0625
Info: NONBONDED TABLE SIZE: 705 POINTS
TCL: Running for 1500000 steps
ETITLE: TS BOND ANGLE DIHED IMPRP ELECT VDW BOUNDARY MISC KINETIC TOTAL TEMP POTENTIAL TOTALAVG TEMPAVG PRESSURE GPRESSURE VOLUME PRESSAVG GPRESSAVG
ENERGY: 0 1.9300 2.6688 3.9529 0.0000 -10830.2234 1531.3732 0.0000 0.0000 1793.7948 -7496.5037 307.5042 -9290.2985 -7496.5037 307.5042 497.8562 571.3683 29879.8761 497.8562 571.3683
ENERGY: 300000 0.2702 2.9620 3.6582 0.0000 -10636.2960 1347.2871 0.0000 0.0000 1705.8163 -7576.3023 292.4223 -9282.1185 -7507.8744 299.6118 -1039.3206 -1015.1120 30338.2000 60.4790 121.0411
ENERGY: 600000 0.1277 2.2161 3.6441 0.0000 -10515.0374 1390.7334 0.0000 0.0000 1742.8722 -7375.4440 298.7747 -9118.3161 -7482.1587 298.8855 -212.6758 -101.7091 30344.1607 76.3300 153.7122
ENERGY: 900000 0.1318 2.9883 6.0368 0.0000 -10604.2088 1421.8818 0.0000 0.0000 1722.0354 -7451.1346 295.2027 -9173.1700 -7472.6630 299.0687 14.4999 113.5587 30262.4717 32.0239 105.2288
ENERGY: 1200000 1.3856 2.1151 6.6189 0.0000 -10481.4424 1409.6715 0.0000 0.0000 1794.3866 -7267.2648 307.6057 -9061.6514 -7445.2652 300.2105 155.4291 207.7027 30216.2342 -35.1529 35.8227
ENERGY: 1500000 0.5938 1.8654 3.6112 0.0000 -10544.9496 1370.9020 0.0000 0.0000 1794.7295 -7373.2477 307.6644 -9167.9771 -7440.7909 301.1698 -283.9857 -176.6961 29941.6007 -61.0159 3.6461
TCL: Running FEP window  11: Lambda1 0.49999999999999994 Lambda2 0.5499999999999999 [dLambda 0.04999999999999999]
TCL: Setting parameter firsttimestep to 0
TCL: Setting parameter alchLambda to 0.49999999999999994
Info: NONBONDED TABLE R-SQUARED SPACING: 0.0625
Info: NONBONDED TABLE SIZE: 705 POINTS
TCL: Setting parameter alchLambda2 to 0.5499999999999999
Info: NONBONDED TABLE R-SQUARED SPACING: 0.0625
Info: NONBONDED TABLE SIZE: 705 POINTS
TCL: Running for 1500000 steps
ETITLE: TS BOND ANGLE DIHED IMPRP ELECT VDW BOUNDARY MISC KINETIC TOTAL TEMP POTENTIAL TOTALAVG TEMPAVG PRESSURE GPRESSURE VOLUME PRESSAVG GPRESSAVG
ENERGY: 0 0.5938 1.8654 3.6112 0.0000 -10544.9495 1371.3403 0.0000 0.0000 1793.8510 -7373.6877 307.5138 -9167.5387 -7373.6877 307.5138 -256.4255 -171.3393 29941.6007 -256.4255 -171.3393
ENERGY: 300000 0.3382 3.9721 4.9237 0.0000 -10635.0639 1408.4269 0.0000 0.0000 1707.7094 -7509.6936 292.7469 -9217.4030 -7403.5801 302.4170 -133.7479 -21.9735 29916.1551 -393.6627 -296.7471
ENERGY: 600000 0.1324 0.5491 4.3749 0.0000 -10604.1759 1384.3718 0.0000 0.0000 1805.7266 -7409.0211 309.5496 -9214.7477 -7417.9132 301.5386 -407.9851 -375.2060 30191.7316 -302.7926 -223.2867
ENERGY: 900000 0.0312 1.9282 4.7774 0.0000 -10576.6181 1417.9770 0.0000 0.0000 1790.5735 -7361.3308 306.9520 -9151.9043 -7408.5138 301.8099 147.9583 108.7859 30280.0654 -332.9698 -256.9751
ENERGY: 1200000 0.0029 1.9131 3.7377 0.0000 -10688.4222 1455.5971 0.0000 0.0000 1681.7924 -7545.3789 288.3040 -9227.1713 -7415.9177 301.0355 228.3003 283.1660 29933.4526 -264.0831 -195.5027
ENERGY: 1500000 1.3315 1.9071 6.0028 0.0000 -10594.2303 1412.5915 0.0000 0.0000 1721.5101 -7450.8873 295.1127 -9172.3974 -7415.4906 300.2707 255.7545 229.9303 29666.3147 -176.5419 -111.7773
TCL: Running FEP window  12: Lambda1 0.5499999999999999 Lambda2 0.6    [dLambda 0.050000000000000044]
TCL: Setting parameter firsttimestep to 0
TCL: Setting parameter alchLambda to 0.5499999999999999
Info: NONBONDED TABLE R-SQUARED SPACING: 0.0625
Info: NONBONDED TABLE SIZE: 705 POINTS
TCL: Setting parameter alchLambda2 to 0.6
Info: NONBONDED TABLE R-SQUARED SPACING: 0.0625
Info: NONBONDED TABLE SIZE: 705 POINTS
TCL: Running for 1500000 steps
ETITLE: TS BOND ANGLE DIHED IMPRP ELECT VDW BOUNDARY MISC KINETIC TOTAL TEMP POTENTIAL TOTALAVG TEMPAVG PRESSURE GPRESSURE VOLUME PRESSAVG GPRESSAVG
ENERGY: 0 1.3315 1.9071 6.0028 0.0000 -10594.1454 1413.3379 0.0000 0.0000 1720.6842 -7450.8818 294.9711 -9171.5660 -7450.8818 294.9711 155.4129 240.1908 29666.3147 155.4129 240.1908
ENERGY: 300000 0.8467 3.8905 6.0476 0.0000 -10599.9681 1383.5703 0.0000 0.0000 1825.3789 -7380.2342 312.9186 -9205.6131 -7424.9904 303.6173 -427.9791 -351.8613 30517.5057 -414.8051 -324.3157
ENERGY: 600000 0.0819 3.7016 5.5159 0.0000 -10578.0535 1390.5862 0.0000 0.0000 1765.5743 -7412.5935 302.6665 -9178.1679 -7441.1859 300.2241 -462.8922 -433.5087 30500.8846 -243.8510 -163.2722
ENERGY: 900000 1.2681 2.6587 4.6537 0.0000 -10674.2893 1435.7024 0.0000 0.0000 1762.1843 -7467.8221 302.0853 -9230.0063 -7439.7060 300.3177 -76.1705 -36.4799 30094.6032 -124.8853 -60.5270
ENERGY: 1200000 0.8519 2.7159 4.4815 0.0000 -10559.8894 1372.4046 0.0000 0.0000 1704.6617 -7474.7737 292.2244 -9179.4354 -7443.4116 299.3985 -279.8445 -264.9312 30192.6097 -240.1923 -181.7017
ENERGY: 1500000 1.0816 4.2016 4.4273 0.0000 -10752.4898 1493.0076 0.0000 0.0000 1734.4727 -7515.2990 297.3348 -9249.7717 -7452.7110 298.9846 331.6043 323.4614 30099.3118 -148.7967 -97.5683
TCL: Running FEP window  13: Lambda1 0.6    Lambda2 0.65   [dLambda 0.050000000000000044]
TCL: Setting parameter firsttimestep to 0
TCL: Setting parameter alchLambda to 0.6
Info: NONBONDED TABLE R-SQUARED SPACING: 0.0625
Info: NONBONDED TABLE SIZE: 705 POINTS
TCL: Setting parameter alchLambda2 to 0.65
Info: NONBONDED TABLE R-SQUARED SPACING: 0.0625
Info: NONBONDED TABLE SIZE: 705 POINTS
TCL: Running for 1500000 steps
ETITLE: TS BOND ANGLE DIHED IMPRP ELECT VDW BOUNDARY MISC KINETIC TOTAL TEMP POTENTIAL TOTALAVG TEMPAVG PRESSURE GPRESSURE VOLUME PRESSAVG GPRESSAVG
ENERGY: 0 1.0816 4.2016 4.4273 0.0000 -10752.4361 1492.9945 0.0000 0.0000 1733.5749 -7516.1561 297.1809 -9249.7311 -7516.1561 297.1809 253.3440 330.1452 30099.3118 253.3440 330.1452
ENERGY: 300000 0.4455 1.0521 4.2426 0.0000 -10685.7824 1406.3290 0.0000 0.0000 1673.7231 -7599.9901 286.9207 -9273.7132 -7499.1863 297.7105 -503.5015 -464.6458 30166.9508 -419.8113 -334.8620
ENERGY: 600000 0.8516 4.0273 7.6009 0.0000 -10603.2354 1378.0460 0.0000 0.0000 1805.1547 -7407.5549 309.4516 -9212.7096 -7488.4688 299.3238 -435.7451 -407.5952 30084.0030 -168.7196 -92.6214
ENERGY: 900000 0.5036 3.6395 5.7487 0.0000 -10587.0510 1404.3166 0.0000 0.0000 1747.7309 -7425.1117 299.6076 -9172.8426 -7465.8836 299.4039 -71.2611 -11.6264 30282.0208 -228.6170 -162.2327
ENERGY: 1200000 0.2831 2.3670 4.8565 0.0000 -10619.0745 1435.2890 0.0000 0.0000 1705.2955 -7470.9835 292.3331 -9176.2789 -7461.7980 298.3965 -13.1823 12.3599 30424.5048 -181.1980 -114.3367
ENERGY: 1500000 1.1491 3.7999 4.6807 0.0000 -10509.3292 1342.3528 0.0000 0.0000 1763.1300 -7394.2168 302.2474 -9157.3467 -7449.7387 298.4266 -493.6612 -469.5713 30064.4858 -195.0984 -132.1578
TCL: Running FEP window  14: Lambda1 0.65   Lambda2 0.7000000000000001 [dLambda 0.050000000000000044]
TCL: Setting parameter firsttimestep to 0
TCL: Setting parameter alchLambda to 0.65
Info: NONBONDED TABLE R-SQUARED SPACING: 0.0625
Info: NONBONDED TABLE SIZE: 705 POINTS
TCL: Setting parameter alchLambda2 to 0.7000000000000001
Info: NONBONDED TABLE R-SQUARED SPACING: 0.0625
Info: NONBONDED TABLE SIZE: 705 POINTS
TCL: Running for 1500000 steps
ETITLE: TS BOND ANGLE DIHED IMPRP ELECT VDW BOUNDARY MISC KINETIC TOTAL TEMP POTENTIAL TOTALAVG TEMPAVG PRESSURE GPRESSURE VOLUME PRESSAVG GPRESSAVG
ENERGY: 0 1.1491 3.7999 4.6807 0.0000 -10509.3184 1343.0004 0.0000 0.0000 1762.2480 -7394.4403 302.0962 -9156.6883 -7394.4403 302.0962 -543.9280 -458.3882 30064.4858 -543.9280 -458.3882
ENERGY: 300000 0.5173 2.4596 6.1048 0.0000 -10721.5493 1495.9382 0.0000 0.0000 1763.6739 -7452.8555 302.3407 -9216.5293 -7450.8848 300.7322 383.9730 417.0060 30306.4594 -225.0733 -160.1251
ENERGY: 600000 0.0540 0.9848 5.5213 0.0000 -10643.7471 1420.8395 0.0000 0.0000 1742.9196 -7473.4280 298.7829 -9216.3476 -7455.5143 300.8254 -203.8025 -105.1680 30118.3628 -210.8742 -135.6517
ENERGY: 900000 0.9831 1.6663 5.6266 0.0000 -10618.1747 1410.1562 0.0000 0.0000 1712.6243 -7487.1182 293.5894 -9199.7425 -7444.3897 301.3276 -46.9432 52.7860 29778.2151 21.9968 94.3735
ENERGY: 1200000 1.0035 1.9236 3.4903 0.0000 -10746.3704 1436.8555 0.0000 0.0000 1727.3145 -7575.7829 296.1077 -9303.0975 -7470.5123 299.2883 -305.3765 -301.1680 30354.2699 -77.8271 -10.2523
ENERGY: 1500000 0.5469 4.6021 5.1774 0.0000 -10710.8108 1447.9394 0.0000 0.0000 1721.2653 -7531.2797 295.0707 -9252.5450 -7466.1010 299.3073 9.7136 72.4938 30098.4335 -97.1603 -26.6735
TCL: Running FEP window  15: Lambda1 0.7000000000000001 Lambda2 0.7500000000000001 [dLambda 0.050000000000000044]
TCL: Setting parameter firsttimestep to 0
TCL: Setting parameter alchLambda to 0.7000000000000001
Info: NONBONDED TABLE R-SQUARED SPACING: 0.0625
Info: NONBONDED TABLE SIZE: 705 POINTS
TCL: Setting parameter alchLambda2 to 0.7500000000000001
Info: NONBONDED TABLE R-SQUARED SPACING: 0.0625
Info: NONBONDED TABLE SIZE: 705 POINTS
TCL: Running for 1500000 steps
ETITLE: TS BOND ANGLE DIHED IMPRP ELECT VDW BOUNDARY MISC KINETIC TOTAL TEMP POTENTIAL TOTALAVG TEMPAVG PRESSURE GPRESSURE VOLUME PRESSAVG GPRESSAVG
ENERGY: 0 0.5469 4.6021 5.1774 0.0000 -10710.6381 1447.5920 0.0000 0.0000 1720.3970 -7532.3227 294.9219 -9252.7197 -7532.3227 294.9219 -0.4613 73.3918 30098.4335 -0.4613 73.3918
ENERGY: 300000 0.5619 1.0545 4.2088 0.0000 -10719.5360 1465.4825 0.0000 0.0000 1738.1756 -7510.0527 297.9696 -9248.2283 -7456.4624 298.3141 474.6285 511.0107 29467.0403 46.1531 78.1149
ENERGY: 600000 0.2124 3.9649 6.3658 0.0000 -10493.0195 1274.5259 0.0000 0.0000 1773.1237 -7434.8268 303.9606 -9207.9505 -7449.5444 299.6497 -1334.8638 -1257.4298 30280.2655 -261.8702 -215.3256
ENERGY: 900000 1.0233 6.7973 4.6134 0.0000 -10657.1461 1424.8342 0.0000 0.0000 1770.7250 -7449.1529 303.5494 -9219.8779 -7451.3780 300.3007 -121.4148 -75.0680 30182.3713 -195.0941 -136.5516
ENERGY: 1200000 0.6467 2.0153 5.7896 0.0000 -10729.2330 1471.1479 0.0000 0.0000 1767.8877 -7481.7458 303.0630 -9249.6335 -7453.9473 299.8422 648.8947 710.1148 29362.3118 -129.8175 -66.9593
ENERGY: 1500000 0.8439 2.3592 4.9071 0.0000 -10693.6567 1469.6393 0.0000 0.0000 1740.2265 -7475.6809 298.3212 -9215.9074 -7445.8196 300.3876 233.1661 321.2138 30204.2503 -59.7133 4.3783
TCL: Running FEP window  16: Lambda1 0.7500000000000001 Lambda2 0.8000000000000002 [dLambda 0.050000000000000044]
TCL: Setting parameter firsttimestep to 0
TCL: Setting parameter alchLambda to 0.7500000000000001
Info: NONBONDED TABLE R-SQUARED SPACING: 0.0625
Info: NONBONDED TABLE SIZE: 705 POINTS
TCL: Setting parameter alchLambda2 to 0.8000000000000002
Info: NONBONDED TABLE R-SQUARED SPACING: 0.0625
Info: NONBONDED TABLE SIZE: 705 POINTS
TCL: Running for 1500000 steps
ETITLE: TS BOND ANGLE DIHED IMPRP ELECT VDW BOUNDARY MISC KINETIC TOTAL TEMP POTENTIAL TOTALAVG TEMPAVG PRESSURE GPRESSURE VOLUME PRESSAVG GPRESSAVG
ENERGY: 0 0.8439 2.3592 4.9071 0.0000 -10693.5920 1469.3206 0.0000 0.0000 1739.3397 -7476.8217 298.1692 -9216.1614 -7476.8217 298.1692 249.5758 323.7247 30204.2503 249.5758 323.7247
ENERGY: 300000 0.2516 2.1802 3.6323 0.0000 -10645.0833 1515.3617 0.0000 0.0000 1789.5236 -7334.1339 306.7720 -9123.6575 -7450.1207 300.5614 760.0869 792.1344 30180.2564 217.1459 281.0944
ENERGY: 600000 1.0351 1.6383 4.8758 0.0000 -10667.5987 1438.8652 0.0000 0.0000 1716.2841 -7504.9001 294.2168 -9221.1842 -7435.1566 300.2745 -29.2949 13.1218 30448.2777 55.1497 108.9419
ENERGY: 900000 0.3389 5.0032 5.2077 0.0000 -10734.6396 1506.4907 0.0000 0.0000 1778.1627 -7439.4365 304.8244 -9217.5992 -7435.0039 301.0675 249.5801 298.0975 30594.2658 -32.3848 17.0797
ENERGY: 1200000 0.5749 3.7476 5.5946 0.0000 -10770.5944 1469.8966 0.0000 0.0000 1742.3952 -7548.3855 298.6929 -9290.7806 -7447.6325 300.9843 -49.1547 -0.6139 30210.0707 -78.2982 -29.9649
ENERGY: 1500000 1.0204 2.9301 5.2503 0.0000 -10752.2102 1493.8018 0.0000 0.0000 1757.8648 -7491.3428 301.3449 -9249.2076 -7457.4238 300.0901 463.7367 533.1818 30262.2347 -16.7734 27.7520
TCL: Running FEP window  17: Lambda1 0.8000000000000002 Lambda2 0.8500000000000002 [dLambda 0.050000000000000044]
TCL: Setting parameter firsttimestep to 0
TCL: Setting parameter alchLambda to 0.8000000000000002
Info: NONBONDED TABLE R-SQUARED SPACING: 0.0625
Info: NONBONDED TABLE SIZE: 705 POINTS
TCL: Setting parameter alchLambda2 to 0.8500000000000002
Info: NONBONDED TABLE R-SQUARED SPACING: 0.0625
Info: NONBONDED TABLE SIZE: 705 POINTS
TCL: Running for 1500000 steps
ETITLE: TS BOND ANGLE DIHED IMPRP ELECT VDW BOUNDARY MISC KINETIC TOTAL TEMP POTENTIAL TOTALAVG TEMPAVG PRESSURE GPRESSURE VOLUME PRESSAVG GPRESSAVG
ENERGY: 0 1.0204 2.9301 5.2503 0.0000 -10752.2664 1493.4596 0.0000 0.0000 1756.9850 -7492.6211 301.1940 -9249.6061 -7492.6211 301.1940 461.3575 533.9622 30262.2347 461.3575 533.9622
ENERGY: 300000 1.5094 2.8015 4.7608 0.0000 -10669.8047 1448.8305 0.0000 0.0000 1755.5628 -7456.3396 300.9502 -9211.9024 -7460.0295 301.4112 133.6886 144.5277 30083.0711 47.6888 100.5482
ENERGY: 600000 0.3523 3.3819 7.1042 0.0000 -10632.2118 1359.5391 0.0000 0.0000 1773.3671 -7488.4672 304.0024 -9261.8343 -7478.1123 300.4004 -654.2295 -561.2883 30054.6910 125.9265 170.6158
ENERGY: 900000 0.1907 4.9577 4.6013 0.0000 -10582.4140 1413.4166 0.0000 0.0000 1769.6838 -7389.5640 303.3709 -9159.2477 -7468.2726 301.1169 -310.1963 -278.4915 30619.6495 147.2600 201.1132
ENERGY: 1200000 2.1457 3.1447 4.6450 0.0000 -10593.3039 1387.0773 0.0000 0.0000 1792.4343 -7403.8569 307.2710 -9196.2912 -7451.7321 301.9313 -136.8480 -116.6290 30165.8016 70.2405 127.4418
ENERGY: 1500000 0.4610 2.1326 4.9893 0.0000 -10748.0250 1472.8334 0.0000 0.0000 1756.9700 -7510.6387 301.1915 -9267.6087 -7451.7018 301.6045 18.8624 40.4975 30346.6444 62.4327 118.0216
TCL: Running FEP window  18: Lambda1 0.8500000000000002 Lambda2 0.9000000000000002 [dLambda 0.050000000000000044]
TCL: Setting parameter firsttimestep to 0
TCL: Setting parameter alchLambda to 0.8500000000000002
Info: NONBONDED TABLE R-SQUARED SPACING: 0.0625
Info: NONBONDED TABLE SIZE: 705 POINTS
TCL: Setting parameter alchLambda2 to 0.9000000000000002
Info: NONBONDED TABLE R-SQUARED SPACING: 0.0625
Info: NONBONDED TABLE SIZE: 705 POINTS
TCL: Running for 1500000 steps
ETITLE: TS BOND ANGLE DIHED IMPRP ELECT VDW BOUNDARY MISC KINETIC TOTAL TEMP POTENTIAL TOTALAVG TEMPAVG PRESSURE GPRESSURE VOLUME PRESSAVG GPRESSAVG
ENERGY: 0 0.4610 2.1326 4.9893 0.0000 -10748.0424 1472.5543 0.0000 0.0000 1756.1209 -7511.7843 301.0459 -9267.9052 -7511.7843 301.0459 -45.8385 43.2314 30346.6444 -45.8385 43.2314
ENERGY: 300000 1.1244 3.3372 5.5788 0.0000 -10621.9745 1466.0214 0.0000 0.0000 1728.7573 -7417.1553 296.3551 -9145.9126 -7428.1784 297.4270 232.2615 331.0404 30336.3681 211.2626 302.9032
ENERGY: 600000 0.3737 1.7782 3.7981 0.0000 -10530.4128 1371.0968 0.0000 0.0000 1710.8996 -7442.4665 293.2938 -9153.3660 -7446.8384 296.5055 -395.1299 -346.8714 30364.4003 111.6520 182.6307
ENERGY: 900000 0.6037 3.6124 4.3776 0.0000 -10739.6882 1414.5714 0.0000 0.0000 1760.4346 -7556.0885 301.7854 -9316.5231 -7472.4154 297.8932 -457.5439 -458.7263 30473.8757 61.5580 122.4557
ENERGY: 1200000 0.3994 4.4921 7.6181 0.0000 -10592.9657 1409.6686 0.0000 0.0000 1764.2642 -7406.5234 302.4419 -9170.7875 -7469.0496 298.7243 -215.1986 -168.8844 30632.7105 152.3901 211.6782
ENERGY: 1500000 0.0169 2.4915 4.1110 0.0000 -10539.3944 1416.4555 0.0000 0.0000 1759.1617 -7357.1578 301.5672 -9116.3194 -7465.6512 298.3173 188.1764 271.3213 30162.0137 191.5437 253.9084
TCL: Running FEP window  19: Lambda1 0.9000000000000002 Lambda2 0.9500000000000003 [dLambda 0.050000000000000044]
TCL: Setting parameter firsttimestep to 0
TCL: Setting parameter alchLambda to 0.9000000000000002
Info: NONBONDED TABLE R-SQUARED SPACING: 0.0625
Info: NONBONDED TABLE SIZE: 705 POINTS
TCL: Setting parameter alchLambda2 to 0.9500000000000003
Info: NONBONDED TABLE R-SQUARED SPACING: 0.0625
Info: NONBONDED TABLE SIZE: 705 POINTS
TCL: Running for 1500000 steps
ETITLE: TS BOND ANGLE DIHED IMPRP ELECT VDW BOUNDARY MISC KINETIC TOTAL TEMP POTENTIAL TOTALAVG TEMPAVG PRESSURE GPRESSURE VOLUME PRESSAVG GPRESSAVG
ENERGY: 0 0.0169 2.4915 4.1110 0.0000 -10539.4078 1417.0429 0.0000 0.0000 1758.3083 -7357.4372 301.4209 -9115.7454 -7357.4372 301.4209 212.4002 286.7674 30162.0137 212.4002 286.7674
ENERGY: 300000 0.6387 2.9635 6.5063 0.0000 -10601.0782 1449.3986 0.0000 0.0000 1723.3884 -7418.1826 295.4347 -9141.5710 -7406.3086 300.4614 200.7857 273.9187 30435.4310 176.4739 244.0297
ENERGY: 600000 1.7664 0.8450 3.8411 0.0000 -10728.5145 1558.2255 0.0000 0.0000 1714.9097 -7448.9267 293.9812 -9163.8364 -7425.2764 299.4003 979.7326 986.9707 30541.7267 280.7684 339.9313
ENERGY: 900000 0.4176 4.5161 4.1309 0.0000 -10488.8407 1370.5925 0.0000 0.0000 1764.8955 -7344.2882 302.5501 -9109.1836 -7428.0779 299.8887 -156.0808 -79.5970 30185.2468 302.2140 369.3068
ENERGY: 1200000 1.0300 3.6141 3.8048 0.0000 -10689.1822 1451.1316 0.0000 0.0000 1695.3185 -7534.2832 290.6227 -9229.6017 -7449.5142 299.0235 80.9571 167.6065 29993.9086 275.8094 344.1707
ENERGY: 1500000 0.3303 3.1325 5.4942 0.0000 -10658.8632 1375.0221 0.0000 0.0000 1771.6260 -7503.2581 303.7039 -9274.8841 -7461.6486 298.9181 -579.5957 -561.3029 30191.7151 143.0089 201.2177
TCL: Running FEP window  20: Lambda1 0.9500000000000003 Lambda2 1.0    [dLambda 0.04999999999999971]
TCL: Setting parameter firsttimestep to 0
TCL: Setting parameter alchLambda to 0.9500000000000003
Info: NONBONDED TABLE R-SQUARED SPACING: 0.0625
Info: NONBONDED TABLE SIZE: 705 POINTS
TCL: Setting parameter alchLambda2 to 1.0
Info: NONBONDED TABLE R-SQUARED SPACING: 0.0625
Info: NONBONDED TABLE SIZE: 705 POINTS
TCL: Running for 1500000 steps
ETITLE: TS BOND ANGLE DIHED IMPRP ELECT VDW BOUNDARY MISC KINETIC TOTAL TEMP POTENTIAL TOTALAVG TEMPAVG PRESSURE GPRESSURE VOLUME PRESSAVG GPRESSAVG
ENERGY: 0 0.3303 3.1325 5.4942 0.0000 -10658.8708 1375.1330 0.0000 0.0000 1770.7682 -7504.0127 303.5568 -9274.7809 -7504.0127 303.5568 -622.4251 -554.0088 30191.7151 -622.4251 -554.0088
ENERGY: 300000 0.3918 2.3503 4.3853 0.0000 -10649.7999 1417.7502 0.0000 0.0000 1747.1775 -7477.7448 299.5128 -9224.9224 -7438.8437 304.8235 -69.7844 -9.2395 30039.0023 180.2674 234.9254
ENERGY: 600000 0.2170 3.3226 5.4632 0.0000 -10542.1010 1332.0699 0.0000 0.0000 1746.4304 -7454.5980 299.3847 -9201.0284 -7418.0330 305.0106 -789.1641 -682.5937 30271.5877 42.7180 99.5135
ENERGY: 900000 0.1187 3.2546 4.6050 0.0000 -10733.7911 1479.1410 0.0000 0.0000 1771.4166 -7475.2552 303.6680 -9246.6718 -7444.5581 304.3991 496.1368 544.8353 29887.8252 54.6827 105.4376
ENERGY: 1200000 0.2214 1.7351 6.9922 0.0000 -10659.6640 1464.5010 0.0000 0.0000 1745.1881 -7441.0262 299.1717 -9186.2143 -7447.2230 302.5645 283.9300 344.7589 30184.8573 10.7349 63.7425
ENERGY: 1500000 0.2024 1.2137 4.9557 0.0000 -10749.8328 1487.1001 0.0000 0.0000 1767.4176 -7488.9432 302.9825 -9256.3608 -7455.6735 301.8771 243.1878 293.1007 30198.8154 -45.5186 6.8184
TCL: Exiting due to exit command.
