Info: SIMULATION PARAMETERS:
Info: TIMESTEP               2
Info: NUMBER OF STEPS        0
Info: STEPS PER CYCLE        10
Info: PERIODIC CELL BASIS 1  33.1269 0 0
Info: PERIODIC CELL BASIS 2  0 33.4956 0
Info: PERIODIC CELL BASIS 3  0 0 27.7821
Info: PERIODIC CELL CENTER   0 0 0
Info: WRAPPING WATERS AROUND PERIODIC BOUNDARIES ON OUTPUT.
Info: WRAPPING ALL CLUSTERS AROUND PERIODIC BOUNDARIES ON OUTPUT.
Info: FIRST LDB TIMESTEP     50
Info: LAST LDB TIMESTEP     -1
Info: HOM BACKGROUND SCALING 1
Info: PME BACKGROUND SCALING 1
Info: MIN ATOMS PER PATCH    40
Info: EMPTY PATCH LOAD       40 ATOMS
Info: VELOCITY FILE          mobley_1469079_equil.vel
Info: CENTER OF MASS MOVING INITIALLY? NO
Info: DIELECTRIC             1
Info: EXCLUDE                SCALED ONE-FOUR
Info: 1-4 ELECTROSTATICS SCALED BY 0.833333
Info: MODIFIED 1-4 VDW PARAMETERS WILL BE USED
Info: DCD FILENAME           mobley_1469079_prod.dcd
Info: DCD FREQUENCY          100000
Info: DCD FIRST STEP         100000
Info: DCD FILE WILL CONTAIN UNIT CELL DATA
Info: XST FILENAME           mobley_1469079_prod.xst
Info: XST FREQUENCY          100000
Info: NO VELOCITY DCD OUTPUT
Info: NO FORCE DCD OUTPUT
Info: OUTPUT FILENAME        mobley_1469079_prod
Info: BINARY OUTPUT FILES WILL BE USED
Info: RESTART FILENAME       mobley_1469079_prod.restart
Info: RESTART FREQUENCY      100000
Info: BINARY RESTART FILES WILL BE USED
Info: CUTOFF                 9
Info: PAIRLIST DISTANCE      11
Info: PAIRLIST SHRINK RATE   0.01
Info: PAIRLIST GROW RATE     0.01
Info: PAIRLIST TRIGGER       0.3
Info: PAIRLISTS PER CYCLE    2
Info: PAIRLISTS ENABLED
Info: MARGIN                 2
Info: HYDROGEN GROUP CUTOFF  2.5
Info: PATCH DIMENSION        15.5
Info: ENERGY OUTPUT STEPS    100000
Info: ENERGY EVALUATION STEPS    100000
Info: OUTPUT ENERGY PRECISION 4
Info: CROSSTERM ENERGY INCLUDED IN DIHEDRAL
Info: TIMING OUTPUT STEPS    1000000
Info: PRESSURE OUTPUT STEPS  100000
Info: ALCHEMICAL FEP ON
Info: FEP CURRENT LAMBDA VALUE     0
Info: FEP COMPARISON LAMBDA VALUE  0.05
Info: FEP INTRA-ALCHEMICAL NON-BONDED INTERACTIONS WILL BE RETAINED
Info: FEP INTRA-ALCHEMICAL BONDED INTERACTIONS WILL BE RETAINED
Info: FEP VDW SHIFTING COEFFICIENT 5
Info: FEP ELEC. ACTIVE FOR ANNIHILATED PARTICLES BETWEEN LAMBDA = 0 AND LAMBDA = 0.5
Info: FEP ELEC. ACTIVE FOR EXNIHILATED PARTICLES BETWEEN LAMBDA = 0.5 AND LAMBDA = 1
Info: FEP VDW ACTIVE FOR ANNIHILATED PARTICLES BETWEEN LAMBDA = 0 AND LAMBDA = 1
Info: FEP VDW ACTIVE FOR EXNIHILATED PARTICLES BETWEEN LAMBDA = 0 AND LAMBDA = 1
Info: FEP BOND ACTIVE FOR ANNIHILATED PARTICLES BETWEEN LAMBDA = 1 AND LAMBDA = 1
Info: FEP BOND ACTIVE FOR EXNIHILATED PARTICLES BETWEEN LAMBDA = 0 AND LAMBDA = 0
Info: LANGEVIN DYNAMICS ACTIVE
Info: LANGEVIN TEMPERATURE   300
Info: LANGEVIN USING BBK INTEGRATOR
Info: LANGEVIN DAMPING COEFFICIENT IS 1 INVERSE PS
Info: LANGEVIN DYNAMICS APPLIED TO HYDROGENS
Info: LANGEVIN PISTON PRESSURE CONTROL ACTIVE
Info:        TARGET PRESSURE IS 1.01325 BAR
Info:     OSCILLATION PERIOD IS 50 FS
Info:             DECAY TIME IS 25 FS
Info:     PISTON TEMPERATURE IS 300 K
Info:       PRESSURE CONTROL IS GROUP-BASED
Info:    INITIAL STRAIN RATE IS -8.02894e-05 -8.02894e-05 -8.02894e-05
Info:       CELL FLUCTUATION IS ISOTROPIC
Info: PARTICLE MESH EWALD (PME) ACTIVE
Info: PME TOLERANCE               1e-06
Info: PME EWALD COEFFICIENT       0.348832
Info: PME INTERPOLATION ORDER     4
Info: PME GRID DIMENSIONS         36 36 28
Info: PME MAXIMUM GRID SPACING    1
Info: PME CALCULATION WILL BE PERFORMED ON GPU
Info: FULL ELECTROSTATIC EVALUATION FREQUENCY      2
Info: USING VERLET I (r-RESPA) MTS SCHEME.
Info: C1 SPLITTING OF LONG RANGE ELECTROSTATICS
Info: PLACING ATOMS IN PATCHES BY HYDROGEN GROUPS
Info: RIGID BONDS TO HYDROGEN : ALL
Info:         ERROR TOLERANCE : 1e-08
Info:          MAX ITERATIONS : 100
Info: RIGID WATER USING SETTLE ALGORITHM
Info: RANDOM NUMBER SEED     1743626838
Info: USE HYDROGEN BONDS?    NO
Info: Using AMBER format force field!
Info: AMBER PARM FILE        mobley_1469079.prmtop
Info: COORDINATE PDB         mobley_1469079.pdb
Info: Exclusions will be read from PARM file!
Info: SCNB (VDW SCALING)     2
Info: USING ARITHMETIC MEAN TO COMBINE L-J SIGMA PARAMETERS
Info: BINARY COORDINATES     mobley_1469079_equil.coor
Info: SUMMARY OF PARAMETERS:
Info: 6 BONDS
Info: 5 ANGLES
Info:   5 HARMONIC
Info:   0 COSINE-BASED
Info: 3 DIHEDRAL
Info: 0 IMPROPER
Info: 0 CROSSTERM
Info: 0 VDW
Info: 21 VDW_PAIRS
Info: 0 NBTHOLE_PAIRS
Info: To read alchdata from file: mobley_1469079.pdb
Info: To read alchflag data from column: 5
Info: STRUCTURE SUMMARY:
Info: 2959 ATOMS
Info: 2961 BONDS
Info: 38 ANGLES
Info: 68 DIHEDRALS
Info: 0 IMPROPERS
Info: 0 CROSSTERMS
Info: 3046 EXCLUSIONS
Info: 2943 RIGID BONDS
Info: ALCH: 0 ATOMS TO DISAPPEAR IN FINAL STATE
Info: ALCH: 22 ATOMS TO APPEAR IN FINAL STATE
Info: 5934 DEGREES OF FREEDOM
Info: 995 HYDROGEN GROUPS
Info: 3 ATOMS IN LARGEST HYDROGEN GROUP
Info: 995 MIGRATION GROUPS
Info: 3 ATOMS IN LARGEST MIGRATION GROUP
Info: TOTAL MASS = 17890.7 amu
Info: TOTAL CHARGE = 0.000100005 e
Info: MASS DENSITY = 0.963724 g/cm^3
Info: ATOM DENSITY = 0.0959865 atoms/A^3
Info: ADDED 0 IMPLICIT EXCLUSIONS
Info: NONBONDED TABLE R-SQUARED SPACING: 0.0625
Info: NONBONDED TABLE SIZE: 705 POINTS
Info: REDUCING NUMBER OF PATCHES TO IMPROVE LOAD BALANCE
Info: REMOVING COM VELOCITY 0.233812 -0.0344944 0.181626
Info: Use 3D box decompostion in PME FFT.
Info: Updated CUDA force table with 4096 elements.
Info: Updated CUDA LJ table with 6 x 6 elements.
Info: Found 24 unique exclusion lists needing 72 bytes
TCL: Running for 1500000 steps
ETITLE: TS BOND ANGLE DIHED IMPRP ELECT VDW BOUNDARY MISC KINETIC TOTAL TEMP POTENTIAL TOTALAVG TEMPAVG PRESSURE GPRESSURE VOLUME PRESSAVG GPRESSAVG
ENERGY: 0 6.2230 8.1445 3.3888 0.0000 -10731.6060 1481.4432 0.0000 0.0000 1771.7258 -7460.6807 300.4965 -9232.4065 -7460.6807 300.4965 -172.4973 -99.6264 30827.2446 -172.4973 -99.6264
ENERGY: 300000 3.7322 3.8065 3.4892 0.0000 -10923.0888 1623.8160 0.0000 0.0000 1803.6815 -7484.5634 305.9164 -9288.2449 -7465.9357 302.5218 1383.7315 1470.2829 30163.9690 528.5729 639.1976
ENERGY: 600000 5.5264 3.5731 3.9101 0.0000 -10650.5844 1422.9054 0.0000 0.0000 1755.9668 -7458.7025 297.8236 -9214.6693 -7488.2268 300.5790 40.5133 53.8613 30122.9172 340.0927 425.9969
ENERGY: 900000 3.9344 7.4807 7.9116 0.0000 -10744.4212 1477.0393 0.0000 0.0000 1760.9670 -7487.0882 298.6717 -9248.0553 -7489.8467 299.8607 325.9053 379.5505 29841.3179 455.6833 523.4991
ENERGY: 1200000 6.2661 2.3911 6.2372 0.0000 -10686.5954 1417.9776 0.0000 0.0000 1785.4076 -7468.3159 302.8170 -9253.7235 -7485.2522 299.4333 -500.2318 -398.0003 30403.7009 216.7942 286.0154
ENERGY: 1500000 7.0049 5.6738 6.3599 0.0000 -10627.6467 1408.2528 0.0000 0.0000 1721.4488 -7478.9064 291.9691 -9200.3552 -7474.4322 299.1203 -451.3363 -369.9078 30520.4188 95.0858 160.9046
TCL: Running FEP window   2: Lambda1 0.05   Lambda2 0.1    [dLambda 0.05  ]
TCL: Setting parameter firsttimestep to 0
TCL: Setting parameter alchLambda to 0.05
Info: NONBONDED TABLE R-SQUARED SPACING: 0.0625
Info: NONBONDED TABLE SIZE: 705 POINTS
TCL: Setting parameter alchLambda2 to 0.1
Info: NONBONDED TABLE R-SQUARED SPACING: 0.0625
Info: NONBONDED TABLE SIZE: 705 POINTS
TCL: Running for 1500000 steps
ETITLE: TS BOND ANGLE DIHED IMPRP ELECT VDW BOUNDARY MISC KINETIC TOTAL TEMP POTENTIAL TOTALAVG TEMPAVG PRESSURE GPRESSURE VOLUME PRESSAVG GPRESSAVG
ENERGY: 0 7.0049 5.6738 6.3599 0.0000 -10627.6461 1410.5017 0.0000 0.0000 1720.5958 -7477.5100 291.8245 -9198.1058 -7477.5100 291.8245 -443.9610 -359.8686 30520.4188 -443.9610 -359.8686
ENERGY: 300000 6.8522 7.0957 7.8851 0.0000 -10598.9277 1428.2026 0.0000 0.0000 1742.7645 -7406.1275 295.5844 -9148.8921 -7460.5282 295.9686 -245.5394 -191.4913 30742.8157 -100.0412 -49.0093
ENERGY: 600000 3.6506 7.4828 6.1550 0.0000 -10795.9051 1531.8725 0.0000 0.0000 1751.6604 -7495.0837 297.0932 -9246.7441 -7464.1916 298.5286 735.3415 764.4804 29752.1550 -51.5748 9.0685
ENERGY: 900000 6.7472 5.4309 9.1854 0.0000 -10637.2249 1429.2970 0.0000 0.0000 1760.9020 -7425.6624 298.6607 -9186.5644 -7446.8337 298.4870 -214.6908 -184.1070 30621.6692 -71.1332 -11.4164
ENERGY: 1200000 6.0018 2.5350 4.4103 0.0000 -10860.6399 1544.1060 0.0000 0.0000 1722.1680 -7581.4187 292.0911 -9303.5867 -7459.2187 299.1925 528.4720 597.7218 29953.4004 65.5087 126.6551
ENERGY: 1500000 5.2497 6.0703 5.6229 0.0000 -10661.7073 1476.8910 0.0000 0.0000 1729.6216 -7438.2518 293.3553 -9167.8734 -7467.0924 298.8588 129.1519 249.2822 30466.6752 21.9304 89.0696
TCL: Running FEP window   3: Lambda1 0.1    Lambda2 0.15000000000000002 [dLambda 0.05000000000000002]
TCL: Setting parameter firsttimestep to 0
TCL: Setting parameter alchLambda to 0.1
Info: NONBONDED TABLE R-SQUARED SPACING: 0.0625
Info: NONBONDED TABLE SIZE: 705 POINTS
TCL: Setting parameter alchLambda2 to 0.15000000000000002
Info: NONBONDED TABLE R-SQUARED SPACING: 0.0625
Info: NONBONDED TABLE SIZE: 705 POINTS
TCL: Running for 1500000 steps
ETITLE: TS BOND ANGLE DIHED IMPRP ELECT VDW BOUNDARY MISC KINETIC TOTAL TEMP POTENTIAL TOTALAVG TEMPAVG PRESSURE GPRESSURE VOLUME PRESSAVG GPRESSAVG
ENERGY: 0 5.2497 6.0703 5.6229 0.0000 -10661.7081 1480.8203 0.0000 0.0000 1728.7472 -7435.1978 293.2070 -9163.9450 -7435.1978 293.2070 182.4794 267.6368 30466.6752 182.4794 267.6368
ENERGY: 300000 3.4417 2.8083 6.0190 0.0000 -10765.9655 1502.5093 0.0000 0.0000 1777.0049 -7474.1824 301.3918 -9251.1872 -7429.8519 299.8160 496.3468 565.1314 30112.2085 154.2488 226.1397
ENERGY: 600000 3.2453 5.7951 6.9062 0.0000 -10675.9746 1441.7210 0.0000 0.0000 1783.4789 -7434.8280 302.4899 -9218.3070 -7441.5466 301.2135 47.7265 151.6835 30400.5343 137.6623 204.7795
ENERGY: 900000 4.3006 6.1115 5.4587 0.0000 -10681.5140 1435.5928 0.0000 0.0000 1783.5841 -7446.4663 302.5077 -9230.0504 -7445.0093 300.0024 -173.6770 -108.7836 30256.0710 32.6029 104.6207
ENERGY: 1200000 6.6144 5.0261 4.8994 0.0000 -10733.6395 1435.2593 0.0000 0.0000 1767.8045 -7514.0360 299.8314 -9281.8404 -7445.7011 300.3744 -674.4005 -545.1116 30572.2397 -17.2373 60.6127
ENERGY: 1500000 4.5542 5.4814 3.7670 0.0000 -10646.1709 1417.0563 0.0000 0.0000 1815.2880 -7400.0241 307.8849 -9215.3121 -7438.7615 301.2887 -345.5186 -285.9303 30628.6587 -39.5387 34.9242
TCL: Running FEP window   4: Lambda1 0.15000000000000002 Lambda2 0.2    [dLambda 0.04999999999999999]
TCL: Setting parameter firsttimestep to 0
TCL: Setting parameter alchLambda to 0.15000000000000002
Info: NONBONDED TABLE R-SQUARED SPACING: 0.0625
Info: NONBONDED TABLE SIZE: 705 POINTS
TCL: Setting parameter alchLambda2 to 0.2
Info: NONBONDED TABLE R-SQUARED SPACING: 0.0625
Info: NONBONDED TABLE SIZE: 705 POINTS
TCL: Running for 1500000 steps
ETITLE: TS BOND ANGLE DIHED IMPRP ELECT VDW BOUNDARY MISC KINETIC TOTAL TEMP POTENTIAL TOTALAVG TEMPAVG PRESSURE GPRESSURE VOLUME PRESSAVG GPRESSAVG
ENERGY: 0 4.5542 5.4814 3.7670 0.0000 -10646.1722 1420.9162 0.0000 0.0000 1814.3904 -7397.0630 307.7327 -9211.4535 -7397.0630 307.7327 -356.9718 -265.1122 30628.6587 -356.9718 -265.1122
ENERGY: 300000 5.4120 3.4893 5.4400 0.0000 -10650.9588 1471.9090 0.0000 0.0000 1774.5355 -7390.1730 300.9730 -9164.7085 -7384.6111 305.0911 340.1442 368.2525 30325.3695 -41.4117 23.0678
ENERGY: 600000 4.9218 4.0206 7.7786 0.0000 -10729.5308 1464.2273 0.0000 0.0000 1779.7256 -7468.8569 301.8533 -9248.5825 -7406.9592 304.1641 109.1913 175.1305 30029.8036 -42.0163 15.6162
ENERGY: 900000 4.1920 5.3705 4.1237 0.0000 -10662.9393 1399.4821 0.0000 0.0000 1809.9022 -7439.8687 306.9714 -9249.7710 -7422.2746 302.6124 -400.0244 -308.9657 30026.1068 -71.8497 -5.8886
ENERGY: 1200000 4.1580 1.5881 3.2822 0.0000 -10607.2013 1428.8920 0.0000 0.0000 1828.0105 -7341.2704 310.0427 -9169.2809 -7418.8219 302.1911 -160.1164 -108.1401 30606.9718 -103.5517 -33.0588
ENERGY: 1500000 7.9661 5.5984 6.5534 0.0000 -10829.1125 1565.2916 0.0000 0.0000 1785.2855 -7458.4176 302.7963 -9243.7031 -7427.4401 301.8075 1207.6635 1284.8519 29929.5773 9.6325 80.5175
TCL: Running FEP window   5: Lambda1 0.2    Lambda2 0.25   [dLambda 0.04999999999999999]
TCL: Setting parameter firsttimestep to 0
TCL: Setting parameter alchLambda to 0.2
Info: NONBONDED TABLE R-SQUARED SPACING: 0.0625
Info: NONBONDED TABLE SIZE: 705 POINTS
TCL: Setting parameter alchLambda2 to 0.25
Info: NONBONDED TABLE R-SQUARED SPACING: 0.0625
Info: NONBONDED TABLE SIZE: 705 POINTS
TCL: Running for 1500000 steps
ETITLE: TS BOND ANGLE DIHED IMPRP ELECT VDW BOUNDARY MISC KINETIC TOTAL TEMP POTENTIAL TOTALAVG TEMPAVG PRESSURE GPRESSURE VOLUME PRESSAVG GPRESSAVG
ENERGY: 0 7.9661 5.5984 6.5534 0.0000 -10829.1130 1566.5667 0.0000 0.0000 1784.4395 -7457.9889 302.6528 -9242.4284 -7457.9889 302.6528 1205.0660 1295.3607 29929.5773 1205.0660 1295.3607
ENERGY: 300000 5.0078 2.1891 6.2315 0.0000 -10696.5753 1485.2717 0.0000 0.0000 1762.3116 -7435.5637 298.8997 -9197.8752 -7466.6415 298.3263 776.7849 787.2113 30074.2739 488.5485 544.5153
ENERGY: 600000 4.2855 5.7701 6.2019 0.0000 -10678.9243 1452.4998 0.0000 0.0000 1838.5568 -7371.6102 311.8314 -9210.1671 -7457.2406 300.3185 218.5576 267.1989 30419.3144 256.3011 305.2790
ENERGY: 900000 12.5890 6.1961 7.0219 0.0000 -10808.0275 1457.5470 0.0000 0.0000 1737.6142 -7587.0593 294.7109 -9324.6735 -7453.2654 300.9054 134.7782 161.6570 29706.2889 168.9378 210.3889
ENERGY: 1200000 2.7201 3.6145 4.7964 0.0000 -10742.2999 1446.4385 0.0000 0.0000 1771.3608 -7513.3696 300.4345 -9284.7304 -7460.0090 300.4152 -359.3782 -286.8776 30677.8157 161.2847 205.0698
ENERGY: 1500000 3.7817 11.5915 4.8091 0.0000 -10655.0423 1437.6328 0.0000 0.0000 1798.1852 -7399.0419 304.9841 -9197.2271 -7457.4505 300.2218 142.0656 204.1107 30024.1087 173.0547 217.4756
TCL: Running FEP window   6: Lambda1 0.25   Lambda2 0.3    [dLambda 0.04999999999999999]
TCL: Setting parameter firsttimestep to 0
TCL: Setting parameter alchLambda to 0.25
Info: NONBONDED TABLE R-SQUARED SPACING: 0.0625
Info: NONBONDED TABLE SIZE: 705 POINTS
TCL: Setting parameter alchLambda2 to 0.3
Info: NONBONDED TABLE R-SQUARED SPACING: 0.0625
Info: NONBONDED TABLE SIZE: 705 POINTS
TCL: Running for 1500000 steps
ETITLE: TS BOND ANGLE DIHED IMPRP ELECT VDW BOUNDARY MISC KINETIC TOTAL TEMP POTENTIAL TOTALAVG TEMPAVG PRESSURE GPRESSURE VOLUME PRESSAVG GPRESSAVG
ENERGY: 0 3.7817 11.5915 4.8091 0.0000 -10655.0428 1438.3342 0.0000 0.0000 1797.3081 -7399.2183 304.8354 -9196.5263 -7399.2183 304.8354 130.6307 211.8053 30024.1087 130.6307 211.8053
ENERGY: 300000 7.0208 4.8838 3.2771 0.0000 -10794.1440 1520.3328 0.0000 0.0000 1767.9620 -7490.6674 299.8581 -9258.6295 -7438.3860 301.4949 737.5272 862.3310 29755.1911 70.9535 148.4428
ENERGY: 600000 5.6792 4.5541 5.7198 0.0000 -10785.0546 1488.4948 0.0000 0.0000 1779.8838 -7500.7228 301.8801 -9280.6066 -7435.5525 303.9301 179.4069 255.2885 30418.1770 -99.3313 -15.9426
ENERGY: 900000 5.9553 7.5016 3.9523 0.0000 -10776.2110 1496.3625 0.0000 0.0000 1804.2114 -7458.2280 306.0062 -9262.4393 -7441.6693 304.4600 131.8178 217.6372 30422.8210 -158.1221 -75.1153
ENERGY: 1200000 5.8108 7.0126 3.2267 0.0000 -10637.2534 1389.5094 0.0000 0.0000 1684.5853 -7547.1086 285.7168 -9231.6939 -7459.8722 302.3989 -715.3608 -671.6445 30892.3431 -234.2156 -154.2917
ENERGY: 1500000 10.8734 3.2656 8.5868 0.0000 -10676.1168 1480.3971 0.0000 0.0000 1809.2843 -7363.7096 306.8666 -9172.9939 -7449.1782 303.3304 -60.8164 -65.5760 30928.9306 -154.6784 -80.8175
TCL: Running FEP window   7: Lambda1 0.3    Lambda2 0.35   [dLambda 0.04999999999999999]
TCL: Setting parameter firsttimestep to 0
TCL: Setting parameter alchLambda to 0.3
Info: NONBONDED TABLE R-SQUARED SPACING: 0.0625
Info: NONBONDED TABLE SIZE: 705 POINTS
TCL: Setting parameter alchLambda2 to 0.35
Info: NONBONDED TABLE R-SQUARED SPACING: 0.0625
Info: NONBONDED TABLE SIZE: 705 POINTS
TCL: Running for 1500000 steps
ETITLE: TS BOND ANGLE DIHED IMPRP ELECT VDW BOUNDARY MISC KINETIC TOTAL TEMP POTENTIAL TOTALAVG TEMPAVG PRESSURE GPRESSURE VOLUME PRESSAVG GPRESSAVG
ENERGY: 0 10.8734 3.2656 8.5868 0.0000 -10676.1155 1481.2191 0.0000 0.0000 1808.4010 -7363.7696 306.7168 -9172.1705 -7363.7696 306.7168 -137.1561 -52.6235 30928.9306 -137.1561 -52.6235
ENERGY: 300000 2.7860 6.4522 4.7210 0.0000 -10651.6070 1371.5481 0.0000 0.0000 1793.5315 -7472.5682 304.1948 -9266.0996 -7457.6363 301.7227 -455.2135 -397.7440 30396.7914 61.1759 120.4054
ENERGY: 600000 4.2222 4.8142 8.7121 0.0000 -10768.1949 1524.3324 0.0000 0.0000 1722.9498 -7503.1642 292.2237 -9226.1140 -7482.4229 298.3013 627.4559 679.0538 30445.7866 36.5718 101.9500
ENERGY: 900000 4.6847 5.0195 6.9244 0.0000 -10705.2460 1438.0164 0.0000 0.0000 1721.1320 -7529.4688 291.9154 -9250.6008 -7481.9936 298.7604 -9.3237 51.6161 30255.4594 70.1595 116.1804
ENERGY: 1200000 7.0635 6.6957 5.7847 0.0000 -10695.9133 1416.8039 0.0000 0.0000 1756.2173 -7503.3482 297.8661 -9259.5655 -7474.9199 299.0460 -369.0099 -359.4059 30240.6697 46.9575 89.5741
ENERGY: 1500000 6.4186 3.1971 5.0090 0.0000 -10673.5186 1448.4765 0.0000 0.0000 1768.0874 -7442.3301 299.8794 -9210.4175 -7467.9024 299.6859 -108.0897 -8.9989 30404.1270 45.7683 92.1656
TCL: Running FEP window   8: Lambda1 0.35   Lambda2 0.39999999999999997 [dLambda 0.04999999999999999]
TCL: Setting parameter firsttimestep to 0
TCL: Setting parameter alchLambda to 0.35
Info: NONBONDED TABLE R-SQUARED SPACING: 0.0625
Info: NONBONDED TABLE SIZE: 705 POINTS
TCL: Setting parameter alchLambda2 to 0.39999999999999997
Info: NONBONDED TABLE R-SQUARED SPACING: 0.0625
Info: NONBONDED TABLE SIZE: 705 POINTS
TCL: Running for 1500000 steps
ETITLE: TS BOND ANGLE DIHED IMPRP ELECT VDW BOUNDARY MISC KINETIC TOTAL TEMP POTENTIAL TOTALAVG TEMPAVG PRESSURE GPRESSURE VOLUME PRESSAVG GPRESSAVG
ENERGY: 0 6.4186 3.1971 5.0090 0.0000 -10673.5182 1448.2075 0.0000 0.0000 1767.2237 -7443.4623 299.7329 -9210.6860 -7443.4623 299.7329 -99.9772 -1.9398 30404.1270 -99.9772 -1.9398
ENERGY: 300000 4.2082 4.8592 4.3777 0.0000 -10667.4969 1434.3950 0.0000 0.0000 1781.7109 -7437.9458 302.1900 -9219.6567 -7448.0480 298.2511 -0.0996 24.7544 30402.7599 31.8917 76.2564
ENERGY: 600000 5.9378 4.8985 4.9619 0.0000 -10649.3007 1386.6143 0.0000 0.0000 1744.4362 -7502.4520 295.8680 -9246.8882 -7461.9564 298.3953 -648.9533 -580.6219 30589.5875 -12.6761 44.9361
ENERGY: 900000 5.8098 9.2296 6.1466 0.0000 -10685.8203 1403.7129 0.0000 0.0000 1760.2924 -7500.6290 298.5573 -9260.9215 -7464.7287 298.3975 -320.8807 -308.1792 30251.5055 -108.7532 -57.1611
ENERGY: 1200000 5.4692 6.8544 4.0296 0.0000 -10662.2560 1490.0758 0.0000 0.0000 1809.7947 -7346.0324 306.9532 -9155.8271 -7448.4143 299.4491 589.9394 664.9911 30371.0739 -14.0785 33.8045
ENERGY: 1500000 8.5442 9.0545 5.0452 0.0000 -10695.0266 1420.1299 0.0000 0.0000 1779.2253 -7473.0276 301.7684 -9252.2528 -7443.3235 300.1405 -159.9942 -159.6368 30113.6086 69.8446 119.3294
TCL: Running FEP window   9: Lambda1 0.39999999999999997 Lambda2 0.44999999999999996 [dLambda 0.04999999999999999]
TCL: Setting parameter firsttimestep to 0
TCL: Setting parameter alchLambda to 0.39999999999999997
Info: NONBONDED TABLE R-SQUARED SPACING: 0.0625
Info: NONBONDED TABLE SIZE: 705 POINTS
TCL: Setting parameter alchLambda2 to 0.44999999999999996
Info: NONBONDED TABLE R-SQUARED SPACING: 0.0625
Info: NONBONDED TABLE SIZE: 705 POINTS
TCL: Running for 1500000 steps
ETITLE: TS BOND ANGLE DIHED IMPRP ELECT VDW BOUNDARY MISC KINETIC TOTAL TEMP POTENTIAL TOTALAVG TEMPAVG PRESSURE GPRESSURE VOLUME PRESSAVG GPRESSAVG
ENERGY: 0 8.5442 9.0545 5.0452 0.0000 -10695.0269 1419.9433 0.0000 0.0000 1778.3305 -7474.1092 301.6167 -9252.4397 -7474.1092 301.6167 -233.6127 -152.9017 30113.6086 -233.6127 -152.9017
ENERGY: 300000 7.0027 3.9236 4.5544 0.0000 -10699.0086 1479.2979 0.0000 0.0000 1769.7447 -7434.4853 300.1605 -9204.2301 -7439.9129 304.3774 271.7779 341.3402 29996.3989 -207.2853 -140.4791
ENERGY: 600000 7.5518 3.6666 6.3620 0.0000 -10743.4697 1436.4435 0.0000 0.0000 1784.3596 -7505.0863 302.6392 -9289.4458 -7450.6629 303.8620 -198.1433 -102.9118 30151.3137 -178.5145 -116.6125
ENERGY: 900000 6.1115 5.4951 7.0163 0.0000 -10557.7551 1370.5322 0.0000 0.0000 1759.2128 -7409.3871 298.3742 -9168.5999 -7441.3334 303.8841 -403.8437 -352.0029 30569.6236 -235.6159 -173.1319
ENERGY: 1200000 3.3551 9.5616 5.4162 0.0000 -10739.3797 1461.7422 0.0000 0.0000 1820.9615 -7438.3431 308.8472 -9259.3046 -7430.6037 304.0993 102.9294 143.0790 30606.5899 -206.3781 -148.3415
ENERGY: 1500000 9.6919 5.9908 5.1696 0.0000 -10830.5608 1512.4549 0.0000 0.0000 1776.0052 -7521.2484 301.2223 -9297.2536 -7443.7932 302.6395 54.8926 113.9024 30270.1159 -129.8897 -68.3337
TCL: Running FEP window  10: Lambda1 0.44999999999999996 Lambda2 0.49999999999999994 [dLambda 0.04999999999999999]
TCL: Setting parameter firsttimestep to 0
TCL: Setting parameter alchLambda to 0.44999999999999996
Info: NONBONDED TABLE R-SQUARED SPACING: 0.0625
Info: NONBONDED TABLE SIZE: 705 POINTS
TCL: Setting parameter alchLambda2 to 0.49999999999999994
Info: NONBONDED TABLE R-SQUARED SPACING: 0.0625
Info: NONBONDED TABLE SIZE: 705 POINTS
TCL: Running for 1500000 steps
ETITLE: TS BOND ANGLE DIHED IMPRP ELECT VDW BOUNDARY MISC KINETIC TOTAL TEMP POTENTIAL TOTALAVG TEMPAVG PRESSURE GPRESSURE VOLUME PRESSAVG GPRESSAVG
ENERGY: 0 9.6919 5.9908 5.1696 0.0000 -10830.5617 1512.3716 0.0000 0.0000 1775.1136 -7522.2242 301.0710 -9297.3378 -7522.2242 301.0710 29.6253 122.9696 30270.1159 29.6253 122.9696
ENERGY: 300000 5.5335 4.0121 6.2845 0.0000 -10608.2173 1383.3498 0.0000 0.0000 1748.7926 -7460.2448 296.6068 -9209.0374 -7494.4214 300.0448 -235.4017 -204.4463 30559.1803 -201.5046 -155.0377
ENERGY: 600000 4.9642 5.2917 2.6508 0.0000 -10694.8193 1472.4596 0.0000 0.0000 1767.3336 -7442.1194 299.7515 -9209.4530 -7472.2449 301.0115 318.4999 368.1823 30141.8691 50.3479 104.9927
ENERGY: 900000 5.9378 4.0531 10.3441 0.0000 -10590.0015 1335.9208 0.0000 0.0000 1781.5037 -7452.2420 302.1549 -9233.7457 -7465.9223 301.2535 -1088.0934 -980.1679 30710.2070 -40.0757 27.0711
ENERGY: 1200000 3.7087 3.1397 3.5126 0.0000 -10802.4053 1465.7601 0.0000 0.0000 1761.6530 -7564.6312 298.7880 -9326.2842 -7466.4896 302.0558 -224.9855 -143.9969 30454.1646 -4.8848 65.8252
ENERGY: 1500000 6.2670 6.0109 8.4050 0.0000 -10837.9182 1597.0171 0.0000 0.0000 1699.1804 -7521.0377 288.1923 -9220.2181 -7472.3622 300.0026 1411.7864 1497.7910 30178.8564 91.6776 163.4643
TCL: Running FEP window  11: Lambda1 0.49999999999999994 Lambda2 0.5499999999999999 [dLambda 0.04999999999999999]
TCL: Setting parameter firsttimestep to 0
TCL: Setting parameter alchLambda to 0.49999999999999994
Info: NONBONDED TABLE R-SQUARED SPACING: 0.0625
Info: NONBONDED TABLE SIZE: 705 POINTS
TCL: Setting parameter alchLambda2 to 0.5499999999999999
Info: NONBONDED TABLE R-SQUARED SPACING: 0.0625
Info: NONBONDED TABLE SIZE: 705 POINTS
TCL: Running for 1500000 steps
ETITLE: TS BOND ANGLE DIHED IMPRP ELECT VDW BOUNDARY MISC KINETIC TOTAL TEMP POTENTIAL TOTALAVG TEMPAVG PRESSURE GPRESSURE VOLUME PRESSAVG GPRESSAVG
ENERGY: 0 6.2670 6.0109 8.4050 0.0000 -10837.9171 1597.6302 0.0000 0.0000 1698.2964 -7521.3076 288.0423 -9219.6040 -7521.3076 288.0423 1429.0051 1511.7240 30178.8564 1429.0051 1511.7240
ENERGY: 300000 5.7398 7.5264 6.1027 0.0000 -10743.2676 1486.6085 0.0000 0.0000 1830.0806 -7407.2097 310.3938 -9237.2902 -7472.4161 295.2330 234.5672 332.7212 30468.0701 480.8635 541.2623
ENERGY: 600000 5.3802 6.8750 4.8840 0.0000 -10652.0519 1389.3738 0.0000 0.0000 1725.1650 -7520.3740 292.5994 -9245.5390 -7490.5477 297.4987 -497.6496 -550.3822 30510.6224 195.4233 243.2995
ENERGY: 900000 3.8668 4.9859 5.4706 0.0000 -10594.4535 1399.3428 0.0000 0.0000 1755.7133 -7425.0741 297.7806 -9180.7874 -7457.9901 300.1817 -191.8715 -107.7980 30477.6342 -4.5329 51.2144
ENERGY: 1200000 2.8099 6.8087 5.3123 0.0000 -10759.5581 1541.4748 0.0000 0.0000 1727.3867 -7475.7658 292.9762 -9203.1525 -7466.5816 298.9357 864.2353 904.1611 30272.0023 38.7701 87.5374
ENERGY: 1500000 4.0808 5.0859 2.9739 0.0000 -10625.7642 1408.4747 0.0000 0.0000 1788.3382 -7416.8107 303.3140 -9205.1489 -7460.9236 299.3078 -128.8831 -61.0556 30696.8397 64.3336 121.7675
TCL: Running FEP window  12: Lambda1 0.5499999999999999 Lambda2 0.6    [dLambda 0.050000000000000044]
TCL: Setting parameter firsttimestep to 0
TCL: Setting parameter alchLambda to 0.5499999999999999
Info: NONBONDED TABLE R-SQUARED SPACING: 0.0625
Info: NONBONDED TABLE SIZE: 705 POINTS
TCL: Setting parameter alchLambda2 to 0.6
Info: NONBONDED TABLE R-SQUARED SPACING: 0.0625
Info: NONBONDED TABLE SIZE: 705 POINTS
TCL: Running for 1500000 steps
ETITLE: TS BOND ANGLE DIHED IMPRP ELECT VDW BOUNDARY MISC KINETIC TOTAL TEMP POTENTIAL TOTALAVG TEMPAVG PRESSURE GPRESSURE VOLUME PRESSAVG GPRESSAVG
ENERGY: 0 4.0808 5.0859 2.9739 0.0000 -10625.9496 1408.5640 0.0000 0.0000 1787.4729 -7417.7721 303.1673 -9205.2450 -7417.7721 303.1673 -137.2946 -47.6465 30696.8397 -137.2946 -47.6465
ENERGY: 300000 7.8816 7.0023 5.3164 0.0000 -10729.7043 1495.4599 0.0000 0.0000 1770.5224 -7443.5218 300.2923 -9214.0442 -7482.7036 296.6682 454.2604 495.8184 30431.0441 -174.3813 -88.3954
ENERGY: 600000 3.0463 4.9818 2.5298 0.0000 -10671.4651 1493.9151 0.0000 0.0000 1813.2955 -7353.6966 307.5470 -9166.9921 -7453.2450 298.1251 469.9620 548.2489 30802.2282 42.2529 125.2919
ENERGY: 900000 4.7058 3.2455 3.9814 0.0000 -10778.7314 1529.6760 0.0000 0.0000 1763.1876 -7473.9351 299.0483 -9237.1227 -7454.8350 298.8492 491.8702 614.7239 30797.2535 60.9822 133.0610
ENERGY: 1200000 6.8058 6.8126 8.5968 0.0000 -10762.7432 1504.4380 0.0000 0.0000 1785.8614 -7450.2285 302.8939 -9236.0900 -7454.8557 298.9958 418.1624 482.3141 30538.4656 87.2063 159.2481
ENERGY: 1500000 5.5104 4.4121 8.8970 0.0000 -10585.0346 1388.6763 0.0000 0.0000 1791.2052 -7386.3336 303.8003 -9177.5388 -7452.7580 298.5570 -291.5175 -224.5751 30817.3630 13.4596 81.2423
TCL: Running FEP window  13: Lambda1 0.6    Lambda2 0.65   [dLambda 0.050000000000000044]
TCL: Setting parameter firsttimestep to 0
TCL: Setting parameter alchLambda to 0.6
Info: NONBONDED TABLE R-SQUARED SPACING: 0.0625
Info: NONBONDED TABLE SIZE: 705 POINTS
TCL: Setting parameter alchLambda2 to 0.65
Info: NONBONDED TABLE R-SQUARED SPACING: 0.0625
Info: NONBONDED TABLE SIZE: 705 POINTS
TCL: Running for 1500000 steps
ETITLE: TS BOND ANGLE DIHED IMPRP ELECT VDW BOUNDARY MISC KINETIC TOTAL TEMP POTENTIAL TOTALAVG TEMPAVG PRESSURE GPRESSURE VOLUME PRESSAVG GPRESSAVG
ENERGY: 0 5.5104 4.4121 8.8970 0.0000 -10584.6601 1389.0212 0.0000 0.0000 1790.3056 -7386.5137 303.6477 -9176.8193 -7386.5137 303.6477 -277.5556 -205.8509 30817.3630 -277.5556 -205.8509
ENERGY: 300000 5.0259 5.4044 4.1316 0.0000 -10756.3118 1495.8031 0.0000 0.0000 1773.5278 -7472.4190 300.8021 -9245.9467 -7436.3563 301.2358 374.4447 443.3088 30736.8680 -62.0374 32.6538
ENERGY: 600000 3.2147 7.4378 5.0865 0.0000 -10703.7635 1456.9903 0.0000 0.0000 1769.8890 -7461.1451 300.1849 -9231.0342 -7456.6844 300.6861 417.8609 473.9566 29812.1651 184.1465 250.0965
ENERGY: 900000 5.0957 5.5519 6.1530 0.0000 -10641.7769 1405.6099 0.0000 0.0000 1781.2841 -7438.0823 302.1176 -9219.3664 -7446.4334 301.2862 9.0155 103.8243 30345.5829 92.0575 168.3094
ENERGY: 1200000 3.3493 5.7163 8.1499 0.0000 -10701.2635 1481.9605 0.0000 0.0000 1754.9270 -7447.1604 297.6473 -9202.0875 -7450.7687 301.3007 649.5625 719.4400 30161.3084 183.6875 246.8096
ENERGY: 1500000 6.3294 4.5528 5.3997 0.0000 -10614.4772 1410.9960 0.0000 0.0000 1770.6464 -7416.5529 300.3134 -9187.1993 -7449.4115 301.3744 -105.6267 -37.3861 30493.7925 168.7243 229.2674
TCL: Running FEP window  14: Lambda1 0.65   Lambda2 0.7000000000000001 [dLambda 0.050000000000000044]
TCL: Setting parameter firsttimestep to 0
TCL: Setting parameter alchLambda to 0.65
Info: NONBONDED TABLE R-SQUARED SPACING: 0.0625
Info: NONBONDED TABLE SIZE: 705 POINTS
TCL: Setting parameter alchLambda2 to 0.7000000000000001
Info: NONBONDED TABLE R-SQUARED SPACING: 0.0625
Info: NONBONDED TABLE SIZE: 705 POINTS
TCL: Running for 1500000 steps
ETITLE: TS BOND ANGLE DIHED IMPRP ELECT VDW BOUNDARY MISC KINETIC TOTAL TEMP POTENTIAL TOTALAVG TEMPAVG PRESSURE GPRESSURE VOLUME PRESSAVG GPRESSAVG
ENERGY: 0 6.3294 4.5528 5.3997 0.0000 -10614.7137 1410.6375 0.0000 0.0000 1769.7557 -7418.0386 300.1623 -9187.7943 -7418.0386 300.1623 -92.6261 -26.2085 30493.7925 -92.6261 -26.2085
ENERGY: 300000 10.8543 4.2137 6.6718 0.0000 -10574.0000 1372.0222 0.0000 0.0000 1768.8691 -7411.3688 300.0119 -9180.2379 -7383.5090 302.6000 -575.1113 -476.6645 30526.2376 -47.9955 32.8177
ENERGY: 600000 3.4105 5.3185 8.9296 0.0000 -10618.8381 1405.2202 0.0000 0.0000 1800.4787 -7395.4807 305.3731 -9195.9594 -7408.7658 301.6931 -410.0379 -339.6896 31116.5309 -103.0661 -36.5713
ENERGY: 900000 6.4466 7.4269 5.6105 0.0000 -10624.5728 1439.9952 0.0000 0.0000 1839.1804 -7325.9134 311.9372 -9165.0937 -7410.7306 302.0330 56.1296 187.3426 30551.1179 -75.9796 4.9736
ENERGY: 1200000 3.3769 4.4231 4.3984 0.0000 -10719.9154 1524.9020 0.0000 0.0000 1739.0926 -7443.7226 294.9616 -9182.8152 -7420.1851 300.8775 1048.3223 1081.7514 30229.4695 12.5998 90.6089
ENERGY: 1500000 5.7447 5.4044 8.0386 0.0000 -10758.0544 1520.7804 0.0000 0.0000 1792.7384 -7425.3479 304.0603 -9218.0863 -7430.6623 300.0761 485.8901 562.6736 30486.9159 44.7212 121.9677
TCL: Running FEP window  15: Lambda1 0.7000000000000001 Lambda2 0.7500000000000001 [dLambda 0.050000000000000044]
TCL: Setting parameter firsttimestep to 0
TCL: Setting parameter alchLambda to 0.7000000000000001
Info: NONBONDED TABLE R-SQUARED SPACING: 0.0625
Info: NONBONDED TABLE SIZE: 705 POINTS
TCL: Setting parameter alchLambda2 to 0.7500000000000001
Info: NONBONDED TABLE R-SQUARED SPACING: 0.0625
Info: NONBONDED TABLE SIZE: 705 POINTS
TCL: Running for 1500000 steps
ETITLE: TS BOND ANGLE DIHED IMPRP ELECT VDW BOUNDARY MISC KINETIC TOTAL TEMP POTENTIAL TOTALAVG TEMPAVG PRESSURE GPRESSURE VOLUME PRESSAVG GPRESSAVG
ENERGY: 0 5.7447 5.4044 8.0386 0.0000 -10758.2950 1520.2204 0.0000 0.0000 1791.8774 -7427.0095 303.9143 -9218.8869 -7427.0095 303.9143 503.1514 568.6989 30486.9159 503.1514 568.6989
ENERGY: 300000 8.4475 4.5276 6.9549 0.0000 -10696.7652 1420.0903 0.0000 0.0000 1805.5632 -7451.1817 306.2355 -9256.7449 -7452.6041 301.8823 15.6027 61.0397 30246.3238 188.9441 245.4519
ENERGY: 600000 3.4815 4.3662 4.6665 0.0000 -10540.2256 1347.9578 0.0000 0.0000 1797.9938 -7381.7599 304.9517 -9179.7537 -7452.8062 301.6700 -432.1463 -369.0590 30849.0842 0.1024 59.7425
ENERGY: 900000 11.5213 3.1029 7.9889 0.0000 -10733.1380 1476.0721 0.0000 0.0000 1788.1408 -7446.3121 303.2805 -9234.4528 -7463.0769 300.3381 115.1695 130.1748 30493.5241 15.2182 69.9109
ENERGY: 1200000 5.0557 2.2871 4.8329 0.0000 -10681.1447 1444.6037 0.0000 0.0000 1723.4459 -7500.9195 292.3079 -9224.3653 -7461.3943 299.3276 125.2015 175.5833 30125.5733 49.0553 106.7235
ENERGY: 1500000 4.9262 6.9841 6.9684 0.0000 -10639.1730 1379.6322 0.0000 0.0000 1792.3225 -7448.3396 303.9898 -9240.6621 -7461.7787 299.9907 -542.9047 -483.2090 30641.2719 23.8926 78.3935
TCL: Running FEP window  16: Lambda1 0.7500000000000001 Lambda2 0.8000000000000002 [dLambda 0.050000000000000044]
TCL: Setting parameter firsttimestep to 0
TCL: Setting parameter alchLambda to 0.7500000000000001
Info: NONBONDED TABLE R-SQUARED SPACING: 0.0625
Info: NONBONDED TABLE SIZE: 705 POINTS
TCL: Setting parameter alchLambda2 to 0.8000000000000002
Info: NONBONDED TABLE R-SQUARED SPACING: 0.0625
Info: NONBONDED TABLE SIZE: 705 POINTS
TCL: Running for 1500000 steps
ETITLE: TS BOND ANGLE DIHED IMPRP ELECT VDW BOUNDARY MISC KINETIC TOTAL TEMP POTENTIAL TOTALAVG TEMPAVG PRESSURE GPRESSURE VOLUME PRESSAVG GPRESSAVG
ENERGY: 0 4.9262 6.9841 6.9684 0.0000 -10639.2232 1378.7501 0.0000 0.0000 1791.4415 -7450.1529 303.8404 -9241.5944 -7450.1529 303.8404 -561.2948 -480.2768 30641.2719 -561.2948 -480.2768
ENERGY: 300000 3.1776 8.0407 10.0348 0.0000 -10711.7355 1457.5964 0.0000 0.0000 1728.8612 -7504.0248 293.2263 -9232.8860 -7469.6817 298.9403 110.5587 138.8516 30538.8174 135.7598 198.3482
ENERGY: 600000 9.3913 3.6639 7.6092 0.0000 -10848.3596 1498.8367 0.0000 0.0000 1769.8838 -7558.9748 300.1840 -9328.8585 -7472.6922 298.4538 52.8972 99.8496 30701.5472 214.5008 284.6919
ENERGY: 900000 6.6837 4.1611 5.4847 0.0000 -10654.7244 1433.7888 0.0000 0.0000 1753.8754 -7450.7306 297.4689 -9204.6060 -7455.5724 298.6951 84.8698 179.8987 30426.6241 253.1855 319.4816
ENERGY: 1200000 5.8081 4.6155 4.9020 0.0000 -10709.0543 1459.9017 0.0000 0.0000 1766.3206 -7467.5063 299.5797 -9233.8269 -7458.6714 299.0913 307.8313 376.8404 30423.4914 236.0109 299.4232
ENERGY: 1500000 4.3837 7.0243 3.4350 0.0000 -10733.1756 1497.0878 0.0000 0.0000 1819.3301 -7401.9148 308.5705 -9221.2450 -7453.8267 300.4061 565.4024 631.3534 30400.5871 206.8472 270.5958
TCL: Running FEP window  17: Lambda1 0.8000000000000002 Lambda2 0.8500000000000002 [dLambda 0.050000000000000044]
TCL: Setting parameter firsttimestep to 0
TCL: Setting parameter alchLambda to 0.8000000000000002
Info: NONBONDED TABLE R-SQUARED SPACING: 0.0625
Info: NONBONDED TABLE SIZE: 705 POINTS
TCL: Setting parameter alchLambda2 to 0.8500000000000002
Info: NONBONDED TABLE R-SQUARED SPACING: 0.0625
Info: NONBONDED TABLE SIZE: 705 POINTS
TCL: Running for 1500000 steps
ETITLE: TS BOND ANGLE DIHED IMPRP ELECT VDW BOUNDARY MISC KINETIC TOTAL TEMP POTENTIAL TOTALAVG TEMPAVG PRESSURE GPRESSURE VOLUME PRESSAVG GPRESSAVG
ENERGY: 0 4.3837 7.0243 3.4350 0.0000 -10733.6776 1497.0071 0.0000 0.0000 1818.4826 -7403.3450 308.4267 -9221.8276 -7403.3450 308.4267 578.3814 652.1424 30400.5871 578.3814 652.1424
ENERGY: 300000 5.8294 5.7054 9.1922 0.0000 -10588.5643 1380.2107 0.0000 0.0000 1795.4453 -7392.1813 304.5194 -9187.6267 -7413.3171 302.8781 -640.2023 -526.3847 30565.1016 -36.1969 53.9966
ENERGY: 600000 4.3577 6.2873 7.3409 0.0000 -10607.4893 1337.0175 0.0000 0.0000 1730.6532 -7521.8327 293.5303 -9252.4859 -7429.9673 303.2921 -890.9174 -836.3847 30449.0652 -186.3825 -120.6875
ENERGY: 900000 5.5727 6.6176 6.2330 0.0000 -10720.0655 1508.6471 0.0000 0.0000 1763.7352 -7429.2599 299.1412 -9192.9951 -7452.2419 301.3838 513.3728 523.7266 30712.5070 -78.7476 -27.9615
ENERGY: 1200000 4.8579 3.2452 4.9994 0.0000 -10538.5139 1389.6932 0.0000 0.0000 1770.2896 -7365.4286 300.2529 -9135.7182 -7452.4318 300.2967 105.2387 117.0616 30440.4872 -84.6844 -42.5738
ENERGY: 1500000 7.2780 7.2032 4.7811 0.0000 -10596.1834 1385.5458 0.0000 0.0000 1743.6142 -7447.7611 295.7285 -9191.3753 -7457.4577 299.9888 -216.9725 -147.9428 30757.9001 -94.2229 -46.2196
TCL: Running FEP window  18: Lambda1 0.8500000000000002 Lambda2 0.9000000000000002 [dLambda 0.050000000000000044]
TCL: Setting parameter firsttimestep to 0
TCL: Setting parameter alchLambda to 0.8500000000000002
Info: NONBONDED TABLE R-SQUARED SPACING: 0.0625
Info: NONBONDED TABLE SIZE: 705 POINTS
TCL: Setting parameter alchLambda2 to 0.9000000000000002
Info: NONBONDED TABLE R-SQUARED SPACING: 0.0625
Info: NONBONDED TABLE SIZE: 705 POINTS
TCL: Running for 1500000 steps
ETITLE: TS BOND ANGLE DIHED IMPRP ELECT VDW BOUNDARY MISC KINETIC TOTAL TEMP POTENTIAL TOTALAVG TEMPAVG PRESSURE GPRESSURE VOLUME PRESSAVG GPRESSAVG
ENERGY: 0 7.2780 7.2032 4.7811 0.0000 -10596.6588 1386.7438 0.0000 0.0000 1742.7144 -7447.9384 295.5759 -9190.6527 -7447.9384 295.5759 -197.3750 -115.7984 30757.9001 -197.3750 -115.7984
ENERGY: 300000 3.3116 4.7585 7.0998 0.0000 -10762.6377 1434.3013 0.0000 0.0000 1794.0383 -7519.1282 304.2808 -9313.1665 -7521.3977 297.1194 118.3711 124.5270 30156.6029 55.5773 114.4894
ENERGY: 600000 3.8915 5.7585 5.0484 0.0000 -10657.4767 1383.0583 0.0000 0.0000 1763.2665 -7496.4535 299.0617 -9259.7201 -7497.6814 298.8416 -484.8285 -389.7089 30678.3245 26.2871 95.2172
ENERGY: 900000 5.0721 4.7143 6.4475 0.0000 -10725.0227 1461.5005 0.0000 0.0000 1738.1731 -7509.1152 294.8057 -9247.2884 -7501.3346 298.7528 -96.5642 -39.6792 30640.3273 1.9862 64.9718
ENERGY: 1200000 8.9286 6.7804 6.0226 0.0000 -10670.6587 1438.5724 0.0000 0.0000 1779.8830 -7430.4717 301.8800 -9210.3547 -7492.7445 298.9957 2.4697 43.7164 30480.5794 -85.4006 -27.8523
ENERGY: 1500000 7.6216 6.9115 6.5616 0.0000 -10568.7742 1388.7580 0.0000 0.0000 1752.3476 -7406.5739 297.2098 -9158.9215 -7485.1247 299.6572 -310.6934 -230.2749 30778.6694 -70.8835 -15.3430
TCL: Running FEP window  19: Lambda1 0.9000000000000002 Lambda2 0.9500000000000003 [dLambda 0.050000000000000044]
TCL: Setting parameter firsttimestep to 0
TCL: Setting parameter alchLambda to 0.9000000000000002
Info: NONBONDED TABLE R-SQUARED SPACING: 0.0625
Info: NONBONDED TABLE SIZE: 705 POINTS
TCL: Setting parameter alchLambda2 to 0.9500000000000003
Info: NONBONDED TABLE R-SQUARED SPACING: 0.0625
Info: NONBONDED TABLE SIZE: 705 POINTS
TCL: Running for 1500000 steps
ETITLE: TS BOND ANGLE DIHED IMPRP ELECT VDW BOUNDARY MISC KINETIC TOTAL TEMP POTENTIAL TOTALAVG TEMPAVG PRESSURE GPRESSURE VOLUME PRESSAVG GPRESSAVG
ENERGY: 0 7.6217 6.9115 6.5616 0.0000 -10569.4373 1388.2478 0.0000 0.0000 1751.4850 -7408.6097 297.0635 -9160.0948 -7408.6097 297.0635 -312.9450 -221.9690 30778.6694 -312.9450 -221.9690
ENERGY: 300000 5.9648 6.4020 6.9627 0.0000 -10776.8236 1491.9006 0.0000 0.0000 1738.6683 -7526.9252 294.8897 -9265.5935 -7488.9841 298.3260 344.8893 404.9835 30228.5637 -123.2523 -57.6371
ENERGY: 600000 6.2195 5.6618 4.3338 0.0000 -10722.3960 1468.1436 0.0000 0.0000 1780.9846 -7457.0527 302.0668 -9238.0373 -7484.2454 299.8527 723.6435 784.6134 29811.3991 78.6106 131.6030
ENERGY: 900000 7.9968 4.0222 5.4422 0.0000 -10665.5470 1464.4330 0.0000 0.0000 1737.5275 -7446.1253 294.6962 -9183.6528 -7487.2338 299.7650 -80.8078 76.4331 30774.9880 21.9111 87.7878
ENERGY: 1200000 9.2106 5.6004 7.5396 0.0000 -10541.2064 1332.9207 0.0000 0.0000 1745.7403 -7440.1950 296.0891 -9185.9353 -7490.9073 298.6336 -717.5724 -608.9691 30568.2706 -126.1512 -50.6277
ENERGY: 1500000 5.1232 5.6820 5.2041 0.0000 -10722.2688 1416.0692 0.0000 0.0000 1725.4648 -7564.7255 292.6503 -9290.1903 -7495.1041 298.7690 -366.7727 -297.9545 30492.7316 -170.3308 -98.8239
TCL: Running FEP window  20: Lambda1 0.9500000000000003 Lambda2 1.0    [dLambda 0.04999999999999971]
TCL: Setting parameter firsttimestep to 0
TCL: Setting parameter alchLambda to 0.9500000000000003
Info: NONBONDED TABLE R-SQUARED SPACING: 0.0625
Info: NONBONDED TABLE SIZE: 705 POINTS
TCL: Setting parameter alchLambda2 to 1.0
Info: NONBONDED TABLE R-SQUARED SPACING: 0.0625
Info: NONBONDED TABLE SIZE: 705 POINTS
TCL: Running for 1500000 steps
ETITLE: TS BOND ANGLE DIHED IMPRP ELECT VDW BOUNDARY MISC KINETIC TOTAL TEMP POTENTIAL TOTALAVG TEMPAVG PRESSURE GPRESSURE VOLUME PRESSAVG GPRESSAVG
ENERGY: 0 5.1232 5.6820 5.2041 0.0000 -10722.8402 1415.1395 0.0000 0.0000 1724.5857 -7567.1057 292.5012 -9291.6914 -7567.1057 292.5012 -366.2057 -290.1743 30492.7316 -366.2057 -290.1743
ENERGY: 300000 5.4939 5.6900 3.5787 0.0000 -10470.2589 1307.0203 0.0000 0.0000 1811.9427 -7336.5333 307.3175 -9148.4760 -7432.2971 299.7687 -833.6232 -753.7986 30615.3304 64.7031 118.0851
ENERGY: 600000 5.8986 5.5383 6.0110 0.0000 -10644.0384 1373.2025 0.0000 0.0000 1822.0897 -7431.2983 309.0385 -9253.3880 -7449.4964 301.3426 -637.7477 -489.1943 30732.3620 -59.6357 2.8948
ENERGY: 900000 6.2965 3.8035 5.2063 0.0000 -10665.2790 1383.0718 0.0000 0.0000 1738.1633 -7528.7376 294.8040 -9266.9009 -7455.5027 301.1184 -423.0201 -295.6253 30217.7471 43.2653 115.8398
ENERGY: 1200000 6.5928 2.7486 3.0580 0.0000 -10530.5696 1408.9732 0.0000 0.0000 1776.2401 -7332.9569 301.2621 -9109.1970 -7448.0182 300.5372 169.6561 230.9369 30796.0721 76.0644 142.3541
ENERGY: 1500000 9.2377 7.4678 6.9333 0.0000 -10728.7772 1462.1352 0.0000 0.0000 1801.5928 -7441.4104 305.5621 -9243.0032 -7446.7506 301.0892 -106.9463 -24.1289 30726.5942 48.5137 120.1781
TCL: Exiting due to exit command.
