Info: SIMULATION PARAMETERS:
Info: TIMESTEP               2
Info: NUMBER OF STEPS        0
Info: STEPS PER CYCLE        10
Info: PERIODIC CELL BASIS 1  31.769 0 0
Info: PERIODIC CELL BASIS 2  0 30.5006 0
Info: PERIODIC CELL BASIS 3  0 0 31.5513
Info: PERIODIC CELL CENTER   0 0 0
Info: WRAPPING WATERS AROUND PERIODIC BOUNDARIES ON OUTPUT.
Info: WRAPPING ALL CLUSTERS AROUND PERIODIC BOUNDARIES ON OUTPUT.
Info: FIRST LDB TIMESTEP     50
Info: LAST LDB TIMESTEP     -1
Info: HOM BACKGROUND SCALING 1
Info: PME BACKGROUND SCALING 1
Info: MIN ATOMS PER PATCH    40
Info: EMPTY PATCH LOAD       40 ATOMS
Info: VELOCITY FILE          mobley_1838110_equil.vel
Info: CENTER OF MASS MOVING INITIALLY? NO
Info: DIELECTRIC             1
Info: EXCLUDE                SCALED ONE-FOUR
Info: 1-4 ELECTROSTATICS SCALED BY 0.833333
Info: MODIFIED 1-4 VDW PARAMETERS WILL BE USED
Info: DCD FILENAME           mobley_1838110_prod.dcd
Info: DCD FREQUENCY          100000
Info: DCD FIRST STEP         100000
Info: DCD FILE WILL CONTAIN UNIT CELL DATA
Info: XST FILENAME           mobley_1838110_prod.xst
Info: XST FREQUENCY          100000
Info: NO VELOCITY DCD OUTPUT
Info: NO FORCE DCD OUTPUT
Info: OUTPUT FILENAME        mobley_1838110_prod
Info: BINARY OUTPUT FILES WILL BE USED
Info: RESTART FILENAME       mobley_1838110_prod.restart
Info: RESTART FREQUENCY      100000
Info: BINARY RESTART FILES WILL BE USED
Info: CUTOFF                 9
Info: PAIRLIST DISTANCE      11
Info: PAIRLIST SHRINK RATE   0.01
Info: PAIRLIST GROW RATE     0.01
Info: PAIRLIST TRIGGER       0.3
Info: PAIRLISTS PER CYCLE    2
Info: PAIRLISTS ENABLED
Info: MARGIN                 2
Info: HYDROGEN GROUP CUTOFF  2.5
Info: PATCH DIMENSION        15.5
Info: ENERGY OUTPUT STEPS    100000
Info: ENERGY EVALUATION STEPS    100000
Info: OUTPUT ENERGY PRECISION 4
Info: CROSSTERM ENERGY INCLUDED IN DIHEDRAL
Info: TIMING OUTPUT STEPS    1000000
Info: PRESSURE OUTPUT STEPS  100000
Info: ALCHEMICAL FEP ON
Info: FEP CURRENT LAMBDA VALUE     0
Info: FEP COMPARISON LAMBDA VALUE  0.05
Info: FEP INTRA-ALCHEMICAL NON-BONDED INTERACTIONS WILL BE RETAINED
Info: FEP INTRA-ALCHEMICAL BONDED INTERACTIONS WILL BE RETAINED
Info: FEP VDW SHIFTING COEFFICIENT 5
Info: FEP ELEC. ACTIVE FOR ANNIHILATED PARTICLES BETWEEN LAMBDA = 0 AND LAMBDA = 0.5
Info: FEP ELEC. ACTIVE FOR EXNIHILATED PARTICLES BETWEEN LAMBDA = 0.5 AND LAMBDA = 1
Info: FEP VDW ACTIVE FOR ANNIHILATED PARTICLES BETWEEN LAMBDA = 0 AND LAMBDA = 1
Info: FEP VDW ACTIVE FOR EXNIHILATED PARTICLES BETWEEN LAMBDA = 0 AND LAMBDA = 1
Info: FEP BOND ACTIVE FOR ANNIHILATED PARTICLES BETWEEN LAMBDA = 1 AND LAMBDA = 1
Info: FEP BOND ACTIVE FOR EXNIHILATED PARTICLES BETWEEN LAMBDA = 0 AND LAMBDA = 0
Info: LANGEVIN DYNAMICS ACTIVE
Info: LANGEVIN TEMPERATURE   300
Info: LANGEVIN USING BBK INTEGRATOR
Info: LANGEVIN DAMPING COEFFICIENT IS 1 INVERSE PS
Info: LANGEVIN DYNAMICS APPLIED TO HYDROGENS
Info: LANGEVIN PISTON PRESSURE CONTROL ACTIVE
Info:        TARGET PRESSURE IS 1.01325 BAR
Info:     OSCILLATION PERIOD IS 50 FS
Info:             DECAY TIME IS 25 FS
Info:     PISTON TEMPERATURE IS 300 K
Info:       PRESSURE CONTROL IS GROUP-BASED
Info:    INITIAL STRAIN RATE IS 0.000127475 0.000127475 0.000127475
Info:       CELL FLUCTUATION IS ISOTROPIC
Info: PARTICLE MESH EWALD (PME) ACTIVE
Info: PME TOLERANCE               1e-06
Info: PME EWALD COEFFICIENT       0.348832
Info: PME INTERPOLATION ORDER     4
Info: PME GRID DIMENSIONS         32 32 32
Info: PME MAXIMUM GRID SPACING    1
Info: PME CALCULATION WILL BE PERFORMED ON GPU
Info: FULL ELECTROSTATIC EVALUATION FREQUENCY      2
Info: USING VERLET I (r-RESPA) MTS SCHEME.
Info: C1 SPLITTING OF LONG RANGE ELECTROSTATICS
Info: PLACING ATOMS IN PATCHES BY HYDROGEN GROUPS
Info: RIGID BONDS TO HYDROGEN : ALL
Info:         ERROR TOLERANCE : 1e-08
Info:          MAX ITERATIONS : 100
Info: RIGID WATER USING SETTLE ALGORITHM
Info: RANDOM NUMBER SEED     1743672341
Info: USE HYDROGEN BONDS?    NO
Info: Using AMBER format force field!
Info: AMBER PARM FILE        mobley_1838110.prmtop
Info: COORDINATE PDB         mobley_1838110.pdb
Info: Exclusions will be read from PARM file!
Info: SCNB (VDW SCALING)     2
Info: USING ARITHMETIC MEAN TO COMBINE L-J SIGMA PARAMETERS
Info: BINARY COORDINATES     mobley_1838110_equil.coor
Info: SUMMARY OF PARAMETERS:
Info: 5 BONDS
Info: 5 ANGLES
Info:   5 HARMONIC
Info:   0 COSINE-BASED
Info: 4 DIHEDRAL
Info: 0 IMPROPER
Info: 0 CROSSTERM
Info: 0 VDW
Info: 15 VDW_PAIRS
Info: 0 NBTHOLE_PAIRS
Info: To read alchdata from file: mobley_1838110.pdb
Info: To read alchflag data from column: 5
Info: STRUCTURE SUMMARY:
Info: 2915 ATOMS
Info: 2914 BONDS
Info: 12 ANGLES
Info: 13 DIHEDRALS
Info: 0 IMPROPERS
Info: 0 CROSSTERMS
Info: 2935 EXCLUSIONS
Info: 2907 RIGID BONDS
Info: ALCH: 0 ATOMS TO DISAPPEAR IN FINAL STATE
Info: ALCH: 8 ATOMS TO APPEAR IN FINAL STATE
Info: 5838 DEGREES OF FREEDOM
Info: 977 HYDROGEN GROUPS
Info: 3 ATOMS IN LARGEST HYDROGEN GROUP
Info: 977 MIGRATION GROUPS
Info: 3 ATOMS IN LARGEST MIGRATION GROUP
Info: TOTAL MASS = 17644.9 amu
Info: TOTAL CHARGE = 0.000100017 e
Info: MASS DENSITY = 0.958406 g/cm^3
Info: ATOM DENSITY = 0.0953477 atoms/A^3
Info: ADDED 0 IMPLICIT EXCLUSIONS
Info: NONBONDED TABLE R-SQUARED SPACING: 0.0625
Info: NONBONDED TABLE SIZE: 705 POINTS
Info: REMOVING COM VELOCITY 0.150713 0.0721373 -0.260168
Info: Use 3D box decompostion in PME FFT.
Info: Updated CUDA force table with 4096 elements.
Info: Updated CUDA LJ table with 5 x 5 elements.
Info: Found 11 unique exclusion lists needing 16 bytes
TCL: Running for 1500000 steps
ETITLE: TS BOND ANGLE DIHED IMPRP ELECT VDW BOUNDARY MISC KINETIC TOTAL TEMP POTENTIAL TOTALAVG TEMPAVG PRESSURE GPRESSURE VOLUME PRESSAVG GPRESSAVG
ENERGY: 0 0.6182 5.0839 1.7248 0.0000 -10587.9614 1453.8091 0.0000 0.0000 1739.5422 -7387.1833 299.8895 -9126.7255 -7387.1833 299.8895 0.5953 91.4356 30572.3087 0.5953 91.4356
ENERGY: 300000 1.2375 1.5795 1.5273 0.0000 -10557.0126 1403.8317 0.0000 0.0000 1716.9393 -7431.8974 295.9929 -9148.8367 -7410.4832 298.9262 -193.5600 -146.8192 29930.5686 -189.9571 -132.6115
ENERGY: 600000 2.9546 3.8051 1.7015 0.0000 -10570.6188 1411.5216 0.0000 0.0000 1690.3186 -7460.3173 291.4036 -9150.6359 -7428.8452 297.5174 -202.3793 -189.1804 29993.1315 -217.3971 -170.2004
ENERGY: 900000 2.3538 1.8770 1.8303 0.0000 -10416.5683 1359.3645 0.0000 0.0000 1775.9290 -7275.2138 306.1624 -9051.1428 -7409.6451 298.8532 -522.5968 -462.2670 30164.1470 -192.0582 -141.7736
ENERGY: 1200000 1.3853 1.2169 1.7986 0.0000 -10542.3162 1416.1854 0.0000 0.0000 1673.6252 -7448.1048 288.5257 -9121.7300 -7419.9318 297.5446 135.4197 133.6443 29766.6524 -118.4341 -70.0154
ENERGY: 1500000 2.0603 2.8310 1.6520 0.0000 -10744.2529 1549.9403 0.0000 0.0000 1715.7682 -7472.0010 295.7910 -9187.7692 -7421.4668 296.7355 1094.0773 1130.1899 29272.8207 -57.3305 -0.2245
TCL: Running FEP window   2: Lambda1 0.05   Lambda2 0.1    [dLambda 0.05  ]
TCL: Setting parameter firsttimestep to 0
TCL: Setting parameter alchLambda to 0.05
Info: NONBONDED TABLE R-SQUARED SPACING: 0.0625
Info: NONBONDED TABLE SIZE: 705 POINTS
TCL: Setting parameter alchLambda2 to 0.1
Info: NONBONDED TABLE R-SQUARED SPACING: 0.0625
Info: NONBONDED TABLE SIZE: 705 POINTS
TCL: Running for 1500000 steps
ETITLE: TS BOND ANGLE DIHED IMPRP ELECT VDW BOUNDARY MISC KINETIC TOTAL TEMP POTENTIAL TOTALAVG TEMPAVG PRESSURE GPRESSURE VOLUME PRESSAVG GPRESSAVG
ENERGY: 0 2.0603 2.8310 1.6520 0.0000 -10744.2531 1551.1876 0.0000 0.0000 1714.9206 -7471.6016 295.6448 -9186.5221 -7471.6016 295.6448 1044.8426 1136.1504 29272.8207 1044.8426 1136.1504
ENERGY: 300000 1.0634 5.5255 1.8704 0.0000 -10664.6102 1539.9517 0.0000 0.0000 1793.4998 -7322.6995 309.1916 -9116.1993 -7438.9386 298.9321 1089.8119 1154.7477 29484.7341 847.0310 951.1068
ENERGY: 600000 1.5456 4.4399 1.6857 0.0000 -10609.8632 1454.0736 0.0000 0.0000 1711.7245 -7436.3939 295.0938 -9148.1184 -7457.6982 296.2965 -95.5021 -72.0296 30120.0495 606.2666 688.7938
ENERGY: 900000 1.8606 2.3671 1.9049 0.0000 -10594.4963 1435.4150 0.0000 0.0000 1748.1515 -7404.7972 301.3737 -9152.9487 -7433.1867 297.1298 -391.7401 -326.0110 30216.0648 401.8861 477.6603
ENERGY: 1200000 2.4527 2.2763 1.8048 0.0000 -10544.8351 1411.4049 0.0000 0.0000 1775.5675 -7351.3288 306.1001 -9126.8964 -7421.9545 298.8085 -276.3329 -290.7314 30215.1010 229.8409 299.4767
ENERGY: 1500000 2.9373 1.1292 1.6881 0.0000 -10544.1036 1414.8111 0.0000 0.0000 1737.9280 -7385.6098 299.6112 -9123.5378 -7412.2604 299.8030 -203.2048 -149.1362 29999.6631 205.4555 267.6752
TCL: Running FEP window   3: Lambda1 0.1    Lambda2 0.15000000000000002 [dLambda 0.05000000000000002]
TCL: Setting parameter firsttimestep to 0
TCL: Setting parameter alchLambda to 0.1
Info: NONBONDED TABLE R-SQUARED SPACING: 0.0625
Info: NONBONDED TABLE SIZE: 705 POINTS
TCL: Setting parameter alchLambda2 to 0.15000000000000002
Info: NONBONDED TABLE R-SQUARED SPACING: 0.0625
Info: NONBONDED TABLE SIZE: 705 POINTS
TCL: Running for 1500000 steps
ETITLE: TS BOND ANGLE DIHED IMPRP ELECT VDW BOUNDARY MISC KINETIC TOTAL TEMP POTENTIAL TOTALAVG TEMPAVG PRESSURE GPRESSURE VOLUME PRESSAVG GPRESSAVG
ENERGY: 0 2.9373 1.1292 1.6881 0.0000 -10544.1022 1416.9306 0.0000 0.0000 1737.0705 -7384.3464 299.4634 -9121.4169 -7384.3464 299.4634 -217.0975 -137.5638 29999.6631 -217.0975 -137.5638
ENERGY: 300000 1.3676 3.5703 1.6259 0.0000 -10509.1564 1480.5472 0.0000 0.0000 1705.2306 -7316.8149 293.9743 -9022.0455 -7360.0755 300.1277 462.2181 570.9571 29954.7223 41.7155 127.9992
ENERGY: 600000 2.5520 2.2356 1.7585 0.0000 -10635.9491 1524.7521 0.0000 0.0000 1791.0971 -7313.5538 308.7773 -9104.6509 -7356.2856 303.5251 795.1570 872.6480 29837.3718 69.3076 147.0848
ENERGY: 900000 1.9902 1.0050 1.6547 0.0000 -10691.4787 1506.8446 0.0000 0.0000 1740.1680 -7439.8162 299.9974 -9179.9842 -7371.7227 300.8496 465.1390 501.6082 29654.1202 -52.4241 26.9019
ENERGY: 1200000 2.9867 1.8106 1.6393 0.0000 -10508.1413 1402.6879 0.0000 0.0000 1780.5575 -7318.4593 306.9604 -9099.0169 -7366.6439 301.6346 -253.0284 -147.7567 30072.8414 -53.3955 26.6333
ENERGY: 1500000 1.5762 4.9939 1.5827 0.0000 -10646.4221 1470.6816 0.0000 0.0000 1773.2102 -7394.3776 305.6937 -9167.5878 -7358.6924 302.4177 332.6584 372.5930 29868.1360 2.6895 77.4573
TCL: Running FEP window   4: Lambda1 0.15000000000000002 Lambda2 0.2    [dLambda 0.04999999999999999]
TCL: Setting parameter firsttimestep to 0
TCL: Setting parameter alchLambda to 0.15000000000000002
Info: NONBONDED TABLE R-SQUARED SPACING: 0.0625
Info: NONBONDED TABLE SIZE: 705 POINTS
TCL: Setting parameter alchLambda2 to 0.2
Info: NONBONDED TABLE R-SQUARED SPACING: 0.0625
Info: NONBONDED TABLE SIZE: 705 POINTS
TCL: Running for 1500000 steps
ETITLE: TS BOND ANGLE DIHED IMPRP ELECT VDW BOUNDARY MISC KINETIC TOTAL TEMP POTENTIAL TOTALAVG TEMPAVG PRESSURE GPRESSURE VOLUME PRESSAVG GPRESSAVG
ENERGY: 0 1.5762 4.9939 1.5827 0.0000 -10646.4235 1472.0072 0.0000 0.0000 1772.4078 -7393.8557 305.5554 -9166.2635 -7393.8557 305.5554 283.6597 379.8766 29868.1360 283.6597 379.8766
ENERGY: 300000 1.0482 4.8436 1.8550 0.0000 -10506.2700 1340.6547 0.0000 0.0000 1721.3847 -7436.4838 296.7592 -9157.8684 -7398.8280 298.4530 -1122.0076 -1050.5386 30675.7814 -299.6802 -223.3859
ENERGY: 600000 2.7354 0.9782 3.9761 0.0000 -10459.8769 1404.2314 0.0000 0.0000 1693.1554 -7354.8004 291.8926 -9047.9558 -7390.1351 296.3354 -105.4863 16.5012 30143.3695 -104.9111 -9.8271
ENERGY: 900000 2.6474 2.0441 4.0198 0.0000 -10537.6238 1398.7399 0.0000 0.0000 1752.9853 -7377.1872 302.2070 -9130.1726 -7385.0569 296.8731 -128.5460 -132.4411 29857.3710 -113.0586 -31.0148
ENERGY: 1200000 1.1523 3.9338 2.3772 0.0000 -10661.9663 1490.7575 0.0000 0.0000 1709.8362 -7453.9093 294.7683 -9163.7455 -7396.8437 297.5860 601.9668 634.5741 29722.1388 -74.8273 -5.2734
ENERGY: 1500000 0.8111 2.5746 1.6494 0.0000 -10579.6958 1421.2765 0.0000 0.0000 1738.6026 -7414.7817 299.7275 -9153.3843 -7400.9268 297.3575 -358.3418 -213.1321 30295.8220 -64.5402 7.4554
TCL: Running FEP window   5: Lambda1 0.2    Lambda2 0.25   [dLambda 0.04999999999999999]
TCL: Setting parameter firsttimestep to 0
TCL: Setting parameter alchLambda to 0.2
Info: NONBONDED TABLE R-SQUARED SPACING: 0.0625
Info: NONBONDED TABLE SIZE: 705 POINTS
TCL: Setting parameter alchLambda2 to 0.25
Info: NONBONDED TABLE R-SQUARED SPACING: 0.0625
Info: NONBONDED TABLE SIZE: 705 POINTS
TCL: Running for 1500000 steps
ETITLE: TS BOND ANGLE DIHED IMPRP ELECT VDW BOUNDARY MISC KINETIC TOTAL TEMP POTENTIAL TOTALAVG TEMPAVG PRESSURE GPRESSURE VOLUME PRESSAVG GPRESSAVG
ENERGY: 0 0.8111 2.5746 1.6494 0.0000 -10579.6952 1422.0190 0.0000 0.0000 1737.7396 -7414.9016 299.5787 -9152.6411 -7414.9016 299.5787 -294.0699 -205.3701 30295.8220 -294.0699 -205.3701
ENERGY: 300000 0.6053 3.5705 1.8494 0.0000 -10460.5729 1305.3268 0.0000 0.0000 1766.6160 -7382.6048 304.5569 -9149.2208 -7393.6354 301.4771 -930.3382 -869.6519 30049.0586 -473.6016 -383.4949
ENERGY: 600000 1.7022 1.3565 1.5788 0.0000 -10557.4957 1389.3549 0.0000 0.0000 1741.8700 -7421.6334 300.2908 -9163.5034 -7389.9886 301.3410 -305.7317 -320.7547 29776.8608 -195.0120 -123.1878
ENERGY: 900000 2.1225 3.0569 1.6308 0.0000 -10635.9122 1496.0104 0.0000 0.0000 1736.8548 -7396.2368 299.4262 -9133.0916 -7399.0559 301.3053 541.7837 561.6850 30185.5656 70.2882 127.3911
ENERGY: 1200000 1.8726 2.5150 1.5957 0.0000 -10556.5174 1436.3493 0.0000 0.0000 1769.9452 -7344.2396 305.1309 -9114.1848 -7397.3724 300.7117 411.8994 485.4097 29732.7722 17.6267 75.6794
ENERGY: 1500000 0.5853 2.3079 1.7943 0.0000 -10602.1954 1401.1910 0.0000 0.0000 1765.6543 -7430.6626 304.3911 -9196.3169 -7401.3957 300.3505 -73.1193 -35.1242 29706.1923 -7.2500 53.5304
TCL: Running FEP window   6: Lambda1 0.25   Lambda2 0.3    [dLambda 0.04999999999999999]
TCL: Setting parameter firsttimestep to 0
TCL: Setting parameter alchLambda to 0.25
Info: NONBONDED TABLE R-SQUARED SPACING: 0.0625
Info: NONBONDED TABLE SIZE: 705 POINTS
TCL: Setting parameter alchLambda2 to 0.3
Info: NONBONDED TABLE R-SQUARED SPACING: 0.0625
Info: NONBONDED TABLE SIZE: 705 POINTS
TCL: Running for 1500000 steps
ETITLE: TS BOND ANGLE DIHED IMPRP ELECT VDW BOUNDARY MISC KINETIC TOTAL TEMP POTENTIAL TOTALAVG TEMPAVG PRESSURE GPRESSURE VOLUME PRESSAVG GPRESSAVG
ENERGY: 0 0.5853 2.3079 1.7943 0.0000 -10602.1965 1401.2006 0.0000 0.0000 1764.7623 -7431.5460 304.2373 -9196.3084 -7431.5460 304.2373 -103.1195 -31.0976 29706.1923 -103.1195 -31.0976
ENERGY: 300000 1.0923 1.6964 1.5620 0.0000 -10375.0684 1259.9084 0.0000 0.0000 1687.8964 -7422.9129 290.9860 -9110.8093 -7415.0184 295.5142 -1377.3624 -1326.0709 30381.6305 -676.6922 -603.9224
ENERGY: 600000 1.2572 3.2549 1.6737 0.0000 -10480.0727 1369.3238 0.0000 0.0000 1772.8142 -7331.7489 305.6254 -9104.5631 -7399.8354 298.3261 -132.9616 28.2605 29728.8298 -497.5684 -412.2568
ENERGY: 900000 2.9496 1.9166 1.7416 0.0000 -10524.3685 1397.9472 0.0000 0.0000 1727.0036 -7392.8099 297.7279 -9119.8135 -7380.7574 299.4831 -477.5983 -431.1063 30324.9301 -493.8687 -418.6118
ENERGY: 1200000 0.9300 1.5505 1.6220 0.0000 -10426.2348 1374.5256 0.0000 0.0000 1784.5599 -7263.0468 307.6504 -9047.6067 -7385.5929 300.3364 -565.3877 -469.8752 30909.9238 -411.5414 -340.6452
ENERGY: 1500000 2.9486 1.4422 1.6456 0.0000 -10610.7255 1421.6164 0.0000 0.0000 1763.1909 -7419.8818 303.9664 -9183.0727 -7389.5326 300.1745 -387.7744 -295.1536 30083.5321 -381.0735 -312.6085
TCL: Running FEP window   7: Lambda1 0.3    Lambda2 0.35   [dLambda 0.04999999999999999]
TCL: Setting parameter firsttimestep to 0
TCL: Setting parameter alchLambda to 0.3
Info: NONBONDED TABLE R-SQUARED SPACING: 0.0625
Info: NONBONDED TABLE SIZE: 705 POINTS
TCL: Setting parameter alchLambda2 to 0.35
Info: NONBONDED TABLE R-SQUARED SPACING: 0.0625
Info: NONBONDED TABLE SIZE: 705 POINTS
TCL: Running for 1500000 steps
ETITLE: TS BOND ANGLE DIHED IMPRP ELECT VDW BOUNDARY MISC KINETIC TOTAL TEMP POTENTIAL TOTALAVG TEMPAVG PRESSURE GPRESSURE VOLUME PRESSAVG GPRESSAVG
ENERGY: 0 2.9486 1.4422 1.6456 0.0000 -10610.7261 1421.2591 0.0000 0.0000 1762.3405 -7421.0901 303.8198 -9183.4307 -7421.0901 303.8198 -380.0419 -295.3343 30083.5321 -380.0419 -295.3343
ENERGY: 300000 1.4783 2.0187 1.7450 0.0000 -10707.2432 1474.9796 0.0000 0.0000 1732.5123 -7494.5093 298.6776 -9227.0216 -7420.2239 300.4800 -57.8246 -9.7322 30067.9123 -191.8408 -122.1255
ENERGY: 600000 1.0196 5.0478 1.7578 0.0000 -10625.1933 1376.1794 0.0000 0.0000 1758.4604 -7482.7283 303.1509 -9241.1887 -7418.5503 301.8915 -609.0731 -578.3412 29796.2270 -134.3514 -67.9577
ENERGY: 900000 1.5810 1.8235 1.6908 0.0000 -10484.8902 1392.6865 0.0000 0.0000 1765.9212 -7321.1871 304.4371 -9087.1084 -7408.4960 301.4586 -53.5232 15.9474 30137.9775 -62.8657 9.9961
ENERGY: 1200000 1.4085 1.8353 1.7231 0.0000 -10772.5197 1526.7447 0.0000 0.0000 1769.7294 -7471.0786 305.0936 -9240.8080 -7412.2692 300.1733 870.8809 878.9644 29751.0080 -37.3980 29.7876
ENERGY: 1500000 1.5535 2.4806 1.5511 0.0000 -10612.9122 1457.6131 0.0000 0.0000 1664.1630 -7485.5510 286.8945 -9149.7140 -7412.8291 299.2989 441.3480 459.8079 29505.6673 3.9071 63.8752
TCL: Running FEP window   8: Lambda1 0.35   Lambda2 0.39999999999999997 [dLambda 0.04999999999999999]
TCL: Setting parameter firsttimestep to 0
TCL: Setting parameter alchLambda to 0.35
Info: NONBONDED TABLE R-SQUARED SPACING: 0.0625
Info: NONBONDED TABLE SIZE: 705 POINTS
TCL: Setting parameter alchLambda2 to 0.39999999999999997
Info: NONBONDED TABLE R-SQUARED SPACING: 0.0625
Info: NONBONDED TABLE SIZE: 705 POINTS
TCL: Running for 1500000 steps
ETITLE: TS BOND ANGLE DIHED IMPRP ELECT VDW BOUNDARY MISC KINETIC TOTAL TEMP POTENTIAL TOTALAVG TEMPAVG PRESSURE GPRESSURE VOLUME PRESSAVG GPRESSAVG
ENERGY: 0 1.5535 2.4806 1.5511 0.0000 -10612.9121 1457.5759 0.0000 0.0000 1663.3063 -7486.4448 286.7468 -9149.7511 -7486.4448 286.7468 377.2935 463.7672 29505.6673 377.2935 463.7672
ENERGY: 300000 0.9342 5.1492 1.8886 0.0000 -10442.8470 1269.7782 0.0000 0.0000 1753.2527 -7411.8441 302.2531 -9165.0968 -7415.7332 296.7880 -1124.0111 -1033.0391 29737.2381 -175.3147 -114.8245
ENERGY: 600000 2.0860 2.6613 1.7034 0.0000 -10644.3672 1441.2090 0.0000 0.0000 1795.6540 -7401.0536 309.5629 -9196.7076 -7411.7339 300.8932 -46.3810 20.1225 29763.1971 -77.3072 -17.1362
ENERGY: 900000 4.7997 2.5155 1.6143 0.0000 -10746.2346 1532.1692 0.0000 0.0000 1727.9839 -7477.1520 297.8969 -9205.1359 -7404.5075 301.0334 508.8361 579.7617 30107.8481 44.6687 103.8519
ENERGY: 1200000 3.2586 2.1214 1.7813 0.0000 -10513.7936 1366.6241 0.0000 0.0000 1754.1561 -7385.8519 302.4089 -9140.0081 -7404.1278 301.5279 -312.2394 -289.0024 29873.9841 100.3322 153.2315
ENERGY: 1500000 3.1479 1.3353 1.7306 0.0000 -10505.8939 1419.3972 0.0000 0.0000 1760.4066 -7319.8764 303.4864 -9080.2830 -7397.4347 302.2388 -46.5601 15.9513 30038.6073 40.2110 98.3055
TCL: Running FEP window   9: Lambda1 0.39999999999999997 Lambda2 0.44999999999999996 [dLambda 0.04999999999999999]
TCL: Setting parameter firsttimestep to 0
TCL: Setting parameter alchLambda to 0.39999999999999997
Info: NONBONDED TABLE R-SQUARED SPACING: 0.0625
Info: NONBONDED TABLE SIZE: 705 POINTS
TCL: Setting parameter alchLambda2 to 0.44999999999999996
Info: NONBONDED TABLE R-SQUARED SPACING: 0.0625
Info: NONBONDED TABLE SIZE: 705 POINTS
TCL: Running for 1500000 steps
ETITLE: TS BOND ANGLE DIHED IMPRP ELECT VDW BOUNDARY MISC KINETIC TOTAL TEMP POTENTIAL TOTALAVG TEMPAVG PRESSURE GPRESSURE VOLUME PRESSAVG GPRESSAVG
ENERGY: 0 3.1479 1.3353 1.7306 0.0000 -10505.8931 1419.4659 0.0000 0.0000 1759.5162 -7320.6972 303.3329 -9080.2134 -7320.6972 303.3329 -61.1360 20.7598 30038.6073 -61.1360 20.7598
ENERGY: 300000 1.1485 2.0817 1.5327 0.0000 -10548.1097 1431.4869 0.0000 0.0000 1746.0633 -7365.7966 301.0137 -9111.8599 -7357.5147 303.0382 209.8527 221.1091 30090.9564 100.0521 161.6015
ENERGY: 600000 1.3420 4.2280 1.6779 0.0000 -10537.2367 1397.7745 0.0000 0.0000 1662.6634 -7469.5508 286.6359 -9132.2142 -7373.7283 299.9698 -200.9952 -135.3237 29959.9826 49.3637 111.7308
ENERGY: 900000 2.1477 1.9845 1.6071 0.0000 -10593.7762 1361.4998 0.0000 0.0000 1726.4178 -7500.1193 297.6269 -9226.5371 -7395.1913 299.2189 -1101.3896 -1033.3740 30334.9707 -83.5186 -13.2263
ENERGY: 1200000 1.5409 2.5502 1.7049 0.0000 -10637.5063 1468.9164 0.0000 0.0000 1690.7358 -7472.0580 291.4755 -9162.7939 -7410.6069 298.3340 243.8992 279.8314 29906.1853 -149.5272 -76.9295
ENERGY: 1500000 2.6361 2.2936 2.1175 0.0000 -10540.8195 1483.9319 0.0000 0.0000 1715.0102 -7334.8301 295.6603 -9049.8404 -7415.3173 297.9135 680.4977 789.6540 29966.4955 -104.7524 -29.0797
TCL: Running FEP window  10: Lambda1 0.44999999999999996 Lambda2 0.49999999999999994 [dLambda 0.04999999999999999]
TCL: Setting parameter firsttimestep to 0
TCL: Setting parameter alchLambda to 0.44999999999999996
Info: NONBONDED TABLE R-SQUARED SPACING: 0.0625
Info: NONBONDED TABLE SIZE: 705 POINTS
TCL: Setting parameter alchLambda2 to 0.49999999999999994
Info: NONBONDED TABLE R-SQUARED SPACING: 0.0625
Info: NONBONDED TABLE SIZE: 705 POINTS
TCL: Running for 1500000 steps
ETITLE: TS BOND ANGLE DIHED IMPRP ELECT VDW BOUNDARY MISC KINETIC TOTAL TEMP POTENTIAL TOTALAVG TEMPAVG PRESSURE GPRESSURE VOLUME PRESSAVG GPRESSAVG
ENERGY: 0 2.6361 2.2936 2.1175 0.0000 -10540.8196 1483.7533 0.0000 0.0000 1714.1602 -7335.8589 295.5138 -9050.0190 -7335.8589 295.5138 720.8499 794.0331 29966.4955 720.8499 794.0331
ENERGY: 300000 4.5227 1.2172 1.8315 0.0000 -10470.4642 1352.6670 0.0000 0.0000 1774.3111 -7335.9146 305.8835 -9110.2258 -7361.8415 303.0722 -387.0242 -303.7259 29669.3811 -14.5675 37.4793
ENERGY: 600000 1.6500 2.2776 1.6451 0.0000 -10497.9560 1417.4983 0.0000 0.0000 1742.7932 -7332.0917 300.4500 -9074.8849 -7348.7576 302.7927 17.4869 66.0143 30267.9269 88.8970 139.8285
ENERGY: 900000 2.7495 5.6149 1.6577 0.0000 -10530.8823 1452.0131 0.0000 0.0000 1754.2899 -7314.5573 302.4319 -9068.8472 -7350.0548 303.1286 152.6756 180.4236 30303.8249 79.7054 128.5229
ENERGY: 1200000 1.6413 3.7299 1.7724 0.0000 -10512.4573 1434.2967 0.0000 0.0000 1771.3974 -7299.6197 305.3812 -9071.0171 -7353.8644 303.3762 479.9345 493.1631 29752.8542 72.5622 118.6920
ENERGY: 1500000 4.9290 2.7706 1.6329 0.0000 -10488.5256 1319.9849 0.0000 0.0000 1748.0111 -7411.1971 301.3495 -9159.2082 -7355.2205 302.8257 -889.4237 -856.9667 30123.9242 -49.8996 4.3106
TCL: Running FEP window  11: Lambda1 0.49999999999999994 Lambda2 0.5499999999999999 [dLambda 0.04999999999999999]
TCL: Setting parameter firsttimestep to 0
TCL: Setting parameter alchLambda to 0.49999999999999994
Info: NONBONDED TABLE R-SQUARED SPACING: 0.0625
Info: NONBONDED TABLE SIZE: 705 POINTS
TCL: Setting parameter alchLambda2 to 0.5499999999999999
Info: NONBONDED TABLE R-SQUARED SPACING: 0.0625
Info: NONBONDED TABLE SIZE: 705 POINTS
TCL: Running for 1500000 steps
ETITLE: TS BOND ANGLE DIHED IMPRP ELECT VDW BOUNDARY MISC KINETIC TOTAL TEMP POTENTIAL TOTALAVG TEMPAVG PRESSURE GPRESSURE VOLUME PRESSAVG GPRESSAVG
ENERGY: 0 4.9290 2.7706 1.6329 0.0000 -10488.5252 1320.4037 0.0000 0.0000 1747.1782 -7411.6108 301.2059 -9158.7890 -7411.6108 301.2059 -938.2741 -852.0062 30123.9242 -938.2741 -852.0062
ENERGY: 300000 1.6102 1.5206 1.6796 0.0000 -10498.7621 1393.7038 0.0000 0.0000 1758.5600 -7341.6879 303.1681 -9100.2479 -7396.4747 298.6315 -268.5192 -219.3055 30417.6724 -402.6072 -341.6727
ENERGY: 600000 3.3325 3.6168 1.5219 0.0000 -10588.8924 1412.6505 0.0000 0.0000 1731.9071 -7435.8635 298.5732 -9167.7707 -7394.0458 301.1673 -228.9325 -151.6915 30104.0503 -204.5081 -141.3052
ENERGY: 900000 2.0657 4.2020 1.7965 0.0000 -10628.6565 1456.0972 0.0000 0.0000 1756.7653 -7407.7297 302.8587 -9164.4950 -7392.2737 301.8664 399.1385 492.9142 29642.4709 -5.6818 62.0255
ENERGY: 1200000 2.2135 3.5047 1.6744 0.0000 -10587.6305 1369.2816 0.0000 0.0000 1738.6346 -7472.3217 299.7330 -9210.9563 -7398.0732 301.9097 -618.2434 -570.9747 29698.7038 -96.7145 -37.2260
ENERGY: 1500000 4.0579 2.0362 1.7622 0.0000 -10493.7170 1394.2991 0.0000 0.0000 1744.2515 -7347.3101 300.7014 -9091.5616 -7396.9512 301.8633 -486.3807 -375.2684 30253.0056 -178.2404 -117.8967
TCL: Running FEP window  12: Lambda1 0.5499999999999999 Lambda2 0.6    [dLambda 0.050000000000000044]
TCL: Setting parameter firsttimestep to 0
TCL: Setting parameter alchLambda to 0.5499999999999999
Info: NONBONDED TABLE R-SQUARED SPACING: 0.0625
Info: NONBONDED TABLE SIZE: 705 POINTS
TCL: Setting parameter alchLambda2 to 0.6
Info: NONBONDED TABLE R-SQUARED SPACING: 0.0625
Info: NONBONDED TABLE SIZE: 705 POINTS
TCL: Running for 1500000 steps
ETITLE: TS BOND ANGLE DIHED IMPRP ELECT VDW BOUNDARY MISC KINETIC TOTAL TEMP POTENTIAL TOTALAVG TEMPAVG PRESSURE GPRESSURE VOLUME PRESSAVG GPRESSAVG
ENERGY: 0 4.0579 2.0362 1.7622 0.0000 -10493.6581 1395.8094 0.0000 0.0000 1743.3732 -7346.6193 300.5500 -9089.9925 -7346.6193 300.5500 -448.5654 -360.5307 30253.0056 -448.5654 -360.5307
ENERGY: 300000 1.4773 2.5444 1.6538 0.0000 -10415.6324 1330.9671 0.0000 0.0000 1819.1061 -7259.8837 313.6060 -9078.9898 -7346.7177 304.5751 -513.8919 -450.9880 30203.2685 -583.5442 -493.6324
ENERGY: 600000 1.1101 2.9158 1.7846 0.0000 -10670.8726 1507.1066 0.0000 0.0000 1778.2521 -7379.7034 306.5629 -9157.9555 -7358.5824 303.4802 905.0382 970.0303 29563.3268 -365.6673 -294.3518
ENERGY: 900000 1.1850 3.7290 1.7434 0.0000 -10612.3115 1451.3832 0.0000 0.0000 1729.1518 -7425.1190 298.0982 -9154.2708 -7378.8918 301.5316 32.3015 231.4840 30166.5728 -386.4624 -295.0344
ENERGY: 1200000 2.3841 3.7177 1.7843 0.0000 -10506.7778 1415.5874 0.0000 0.0000 1808.7856 -7274.5185 311.8268 -9083.3042 -7367.2383 302.0635 -78.5132 25.3909 30567.6306 -326.2559 -233.3360
ENERGY: 1500000 3.3695 5.3301 1.7437 0.0000 -10494.7288 1372.5541 0.0000 0.0000 1745.4252 -7366.3062 300.9037 -9111.7314 -7369.5064 301.8503 -140.4208 -47.5868 29895.3447 -201.1278 -113.9817
TCL: Running FEP window  13: Lambda1 0.6    Lambda2 0.65   [dLambda 0.050000000000000044]
TCL: Setting parameter firsttimestep to 0
TCL: Setting parameter alchLambda to 0.6
Info: NONBONDED TABLE R-SQUARED SPACING: 0.0625
Info: NONBONDED TABLE SIZE: 705 POINTS
TCL: Setting parameter alchLambda2 to 0.65
Info: NONBONDED TABLE R-SQUARED SPACING: 0.0625
Info: NONBONDED TABLE SIZE: 705 POINTS
TCL: Running for 1500000 steps
ETITLE: TS BOND ANGLE DIHED IMPRP ELECT VDW BOUNDARY MISC KINETIC TOTAL TEMP POTENTIAL TOTALAVG TEMPAVG PRESSURE GPRESSURE VOLUME PRESSAVG GPRESSAVG
ENERGY: 0 3.3695 5.3301 1.7437 0.0000 -10494.7214 1372.2841 0.0000 0.0000 1744.5737 -7367.4203 300.7569 -9111.9940 -7367.4203 300.7569 -136.1074 -45.0994 29895.3447 -136.1074 -45.0994
ENERGY: 300000 0.4221 1.6467 1.7328 0.0000 -10452.3881 1312.4855 0.0000 0.0000 1740.2263 -7395.8747 300.0074 -9136.1010 -7400.3886 296.1057 -898.7924 -858.5969 30232.8173 -511.8432 -433.9518
ENERGY: 600000 2.1616 6.1554 1.8843 0.0000 -10559.1809 1368.4245 0.0000 0.0000 1744.2407 -7436.3145 300.6995 -9180.5551 -7409.9332 299.7068 -545.2453 -433.2577 29925.7571 -325.4084 -252.2611
ENERGY: 900000 4.4754 3.2343 1.6775 0.0000 -10526.9049 1443.4495 0.0000 0.0000 1779.3753 -7294.6930 306.7565 -9074.0683 -7404.3672 299.0129 355.9627 477.4810 29722.0680 -331.8528 -254.2985
ENERGY: 1200000 1.5583 3.8746 1.8749 0.0000 -10406.0442 1313.1106 0.0000 0.0000 1781.0322 -7304.5935 307.0422 -9085.6257 -7394.2904 300.4842 -777.6597 -686.6907 30331.7860 -426.6408 -352.9121
ENERGY: 1500000 2.1927 2.6037 1.7525 0.0000 -10612.9439 1429.5730 0.0000 0.0000 1711.7355 -7465.0864 295.0957 -9176.8219 -7399.5090 299.9065 -381.0178 -267.4059 30388.1416 -310.2462 -236.8922
TCL: Running FEP window  14: Lambda1 0.65   Lambda2 0.7000000000000001 [dLambda 0.050000000000000044]
TCL: Setting parameter firsttimestep to 0
TCL: Setting parameter alchLambda to 0.65
Info: NONBONDED TABLE R-SQUARED SPACING: 0.0625
Info: NONBONDED TABLE SIZE: 705 POINTS
TCL: Setting parameter alchLambda2 to 0.7000000000000001
Info: NONBONDED TABLE R-SQUARED SPACING: 0.0625
Info: NONBONDED TABLE SIZE: 705 POINTS
TCL: Running for 1500000 steps
ETITLE: TS BOND ANGLE DIHED IMPRP ELECT VDW BOUNDARY MISC KINETIC TOTAL TEMP POTENTIAL TOTALAVG TEMPAVG PRESSURE GPRESSURE VOLUME PRESSAVG GPRESSAVG
ENERGY: 0 2.1927 2.6037 1.7525 0.0000 -10612.7910 1429.1174 0.0000 0.0000 1710.8524 -7466.2722 294.9435 -9177.1246 -7466.2722 294.9435 -363.5046 -264.2741 30388.1416 -363.5046 -264.2741
ENERGY: 300000 1.8775 4.8452 1.5765 0.0000 -10602.4118 1389.7149 0.0000 0.0000 1713.2323 -7491.1655 295.3538 -9204.3978 -7434.9146 295.1036 -310.5451 -246.9007 29781.9020 20.0225 97.6934
ENERGY: 600000 3.7687 2.8005 1.6658 0.0000 -10521.2340 1453.6755 0.0000 0.0000 1713.8586 -7345.4649 295.4618 -9059.3235 -7411.6265 295.9617 427.6689 509.9122 30129.3390 23.5021 114.1880
ENERGY: 900000 2.8341 4.9630 1.4522 0.0000 -10519.5513 1425.3224 0.0000 0.0000 1768.0126 -7316.9670 304.7977 -9084.9795 -7410.4581 297.6211 170.8896 219.6808 30087.7496 116.4733 200.6735
ENERGY: 1200000 3.1444 4.4844 1.6256 0.0000 -10685.2744 1520.3346 0.0000 0.0000 1733.8099 -7421.8755 298.9013 -9155.6854 -7413.4087 298.3942 604.7607 748.8980 29885.0219 123.6071 214.4433
ENERGY: 1500000 0.7628 2.6524 1.7825 0.0000 -10650.7032 1490.1297 0.0000 0.0000 1751.7817 -7403.5941 301.9995 -9155.3758 -7411.2976 299.4366 535.9599 685.8541 29791.3965 131.7283 228.8957
TCL: Running FEP window  15: Lambda1 0.7000000000000001 Lambda2 0.7500000000000001 [dLambda 0.050000000000000044]
TCL: Setting parameter firsttimestep to 0
TCL: Setting parameter alchLambda to 0.7000000000000001
Info: NONBONDED TABLE R-SQUARED SPACING: 0.0625
Info: NONBONDED TABLE SIZE: 705 POINTS
TCL: Setting parameter alchLambda2 to 0.7500000000000001
Info: NONBONDED TABLE R-SQUARED SPACING: 0.0625
Info: NONBONDED TABLE SIZE: 705 POINTS
TCL: Running for 1500000 steps
ETITLE: TS BOND ANGLE DIHED IMPRP ELECT VDW BOUNDARY MISC KINETIC TOTAL TEMP POTENTIAL TOTALAVG TEMPAVG PRESSURE GPRESSURE VOLUME PRESSAVG GPRESSAVG
ENERGY: 0 0.7628 2.6524 1.7825 0.0000 -10650.7313 1490.2078 0.0000 0.0000 1750.9389 -7404.3870 301.8542 -9155.3258 -7404.3870 301.8542 603.5956 691.2844 29791.3965 603.5956 691.2844
ENERGY: 300000 2.4102 2.0896 1.6739 0.0000 -10592.4632 1412.4033 0.0000 0.0000 1728.9051 -7444.9811 298.0557 -9173.8862 -7403.6771 301.4217 -149.6766 -114.3583 30089.9609 154.7486 226.0071
ENERGY: 600000 3.3404 3.5840 1.7961 0.0000 -10555.9652 1428.2530 0.0000 0.0000 1752.6179 -7366.3738 302.1437 -9118.9917 -7373.6502 303.3792 -23.7323 81.7196 30423.5876 74.5680 138.5977
ENERGY: 900000 3.7105 4.4406 1.8122 0.0000 -10655.4522 1436.5276 0.0000 0.0000 1709.3839 -7499.5775 294.6903 -9208.9613 -7390.1431 301.7299 -184.9480 -84.2802 29981.9224 -6.6478 53.4466
ENERGY: 1200000 1.6694 0.7939 1.6674 0.0000 -10599.7899 1454.9901 0.0000 0.0000 1687.5770 -7453.0921 290.9309 -9140.6690 -7388.9772 301.1828 95.3135 155.5341 30118.1952 -78.2788 -26.4750
ENERGY: 1500000 2.0815 2.6779 1.8183 0.0000 -10339.2717 1344.1911 0.0000 0.0000 1789.4595 -7199.0434 308.4950 -8988.5029 -7383.7099 301.3375 -56.6629 87.3449 29835.3532 -83.6323 -24.2658
TCL: Running FEP window  16: Lambda1 0.7500000000000001 Lambda2 0.8000000000000002 [dLambda 0.050000000000000044]
TCL: Setting parameter firsttimestep to 0
TCL: Setting parameter alchLambda to 0.7500000000000001
Info: NONBONDED TABLE R-SQUARED SPACING: 0.0625
Info: NONBONDED TABLE SIZE: 705 POINTS
TCL: Setting parameter alchLambda2 to 0.8000000000000002
Info: NONBONDED TABLE R-SQUARED SPACING: 0.0625
Info: NONBONDED TABLE SIZE: 705 POINTS
TCL: Running for 1500000 steps
ETITLE: TS BOND ANGLE DIHED IMPRP ELECT VDW BOUNDARY MISC KINETIC TOTAL TEMP POTENTIAL TOTALAVG TEMPAVG PRESSURE GPRESSURE VOLUME PRESSAVG GPRESSAVG
ENERGY: 0 2.0815 2.6779 1.8183 0.0000 -10339.3913 1344.2205 0.0000 0.0000 1788.6058 -7199.9873 308.3478 -8988.5931 -7199.9873 308.3478 8.6163 92.7866 29835.3532 8.6163 92.7866
ENERGY: 300000 1.9638 2.5822 1.5580 0.0000 -10480.8654 1318.5788 0.0000 0.0000 1716.2358 -7439.9467 295.8716 -9156.1825 -7348.6661 301.8332 -1094.3598 -980.2251 30487.3512 -343.0325 -266.2601
ENERGY: 600000 0.8019 5.0974 4.0150 0.0000 -10556.1542 1398.0199 0.0000 0.0000 1805.7978 -7342.4221 311.3117 -9148.2199 -7360.5494 303.1483 -0.5384 125.4916 29669.5522 -155.1337 -69.9462
ENERGY: 900000 1.7785 2.3513 1.6345 0.0000 -10458.7296 1359.4255 0.0000 0.0000 1765.6329 -7327.9070 304.3874 -9093.5399 -7363.0726 303.5913 -585.1521 -514.2154 30469.2379 -159.9776 -88.8157
ENERGY: 1200000 2.9037 6.6425 1.7174 0.0000 -10538.7233 1393.3300 0.0000 0.0000 1667.8692 -7466.2605 287.5334 -9134.1298 -7381.8755 301.7788 -333.5616 -249.3574 29894.9551 -73.0817 -2.1211
ENERGY: 1500000 3.3045 2.5595 1.5232 0.0000 -10666.2184 1427.4249 0.0000 0.0000 1733.3041 -7498.1021 298.8141 -9231.4063 -7385.5160 301.7511 -67.9971 -30.4367 29602.5658 -5.3115 66.0742
TCL: Running FEP window  17: Lambda1 0.8000000000000002 Lambda2 0.8500000000000002 [dLambda 0.050000000000000044]
TCL: Setting parameter firsttimestep to 0
TCL: Setting parameter alchLambda to 0.8000000000000002
Info: NONBONDED TABLE R-SQUARED SPACING: 0.0625
Info: NONBONDED TABLE SIZE: 705 POINTS
TCL: Setting parameter alchLambda2 to 0.8500000000000002
Info: NONBONDED TABLE R-SQUARED SPACING: 0.0625
Info: NONBONDED TABLE SIZE: 705 POINTS
TCL: Running for 1500000 steps
ETITLE: TS BOND ANGLE DIHED IMPRP ELECT VDW BOUNDARY MISC KINETIC TOTAL TEMP POTENTIAL TOTALAVG TEMPAVG PRESSURE GPRESSURE VOLUME PRESSAVG GPRESSAVG
ENERGY: 0 3.3045 2.5595 1.5232 0.0000 -10666.2718 1426.9392 0.0000 0.0000 1732.4497 -7499.4956 298.6668 -9231.9454 -7499.4956 298.6668 -100.6849 -27.4535 29602.5658 -100.6849 -27.4535
ENERGY: 300000 2.0623 2.2694 1.6394 0.0000 -10719.0043 1507.2612 0.0000 0.0000 1701.9750 -7503.7970 293.4131 -9205.7720 -7439.0655 301.2638 496.4745 512.3144 30032.4644 285.9316 340.5386
ENERGY: 600000 1.5848 1.0252 1.8642 0.0000 -10493.1201 1410.0532 0.0000 0.0000 1743.5442 -7335.0484 300.5794 -9078.5927 -7405.0102 300.9427 44.0083 104.9313 30383.3261 219.6750 278.2743
ENERGY: 900000 4.1560 2.9988 1.6992 0.0000 -10496.3147 1419.8919 0.0000 0.0000 1756.6289 -7310.9400 302.8352 -9067.5689 -7394.1810 301.1905 -144.9345 -120.5883 30781.1182 92.6243 154.4785
ENERGY: 1200000 3.1624 1.7847 1.7147 0.0000 -10518.5341 1400.6655 0.0000 0.0000 1746.3832 -7364.8236 301.0689 -9111.2067 -7382.3245 302.3547 -169.6055 -140.7192 30089.8558 43.8784 101.6591
ENERGY: 1500000 2.5248 3.1740 1.6095 0.0000 -10611.0426 1447.3638 0.0000 0.0000 1720.9252 -7435.4453 296.6800 -9156.3705 -7386.0492 302.3953 95.8198 215.6843 30128.0617 53.9399 120.6481
TCL: Running FEP window  18: Lambda1 0.8500000000000002 Lambda2 0.9000000000000002 [dLambda 0.050000000000000044]
TCL: Setting parameter firsttimestep to 0
TCL: Setting parameter alchLambda to 0.8500000000000002
Info: NONBONDED TABLE R-SQUARED SPACING: 0.0625
Info: NONBONDED TABLE SIZE: 705 POINTS
TCL: Setting parameter alchLambda2 to 0.9000000000000002
Info: NONBONDED TABLE R-SQUARED SPACING: 0.0625
Info: NONBONDED TABLE SIZE: 705 POINTS
TCL: Running for 1500000 steps
ETITLE: TS BOND ANGLE DIHED IMPRP ELECT VDW BOUNDARY MISC KINETIC TOTAL TEMP POTENTIAL TOTALAVG TEMPAVG PRESSURE GPRESSURE VOLUME PRESSAVG GPRESSAVG
ENERGY: 0 2.5248 3.1740 1.6095 0.0000 -10611.1217 1447.1155 0.0000 0.0000 1720.0879 -7436.6101 296.5357 -9156.6980 -7436.6101 296.5357 137.6038 222.7516 30128.0617 137.6038 222.7516
ENERGY: 300000 1.0104 3.7706 1.7144 0.0000 -10648.3053 1475.8077 0.0000 0.0000 1706.0520 -7459.9501 294.1159 -9166.0021 -7352.5294 298.9879 186.1268 254.8540 30393.7045 -99.2217 -6.1090
ENERGY: 600000 1.9385 6.2078 1.6919 0.0000 -10510.4243 1365.5935 0.0000 0.0000 1757.1546 -7377.8380 302.9258 -9134.9926 -7370.4883 299.6077 -507.3357 -415.7886 30230.2811 -18.2175 68.4592
ENERGY: 900000 1.7775 2.5065 1.5991 0.0000 -10596.6352 1418.8129 0.0000 0.0000 1761.6560 -7410.2833 303.7018 -9171.9393 -7370.7057 300.2846 -203.9210 -95.3318 29976.9836 -182.9455 -94.1547
ENERGY: 1200000 3.3803 2.4180 1.7685 0.0000 -10512.6863 1423.5138 0.0000 0.0000 1794.3666 -7287.2391 309.3410 -9081.6057 -7368.2183 301.1075 159.3222 215.3637 30260.5492 -148.9468 -66.8265
ENERGY: 1500000 1.5563 2.2778 1.6306 0.0000 -10630.9779 1442.9386 0.0000 0.0000 1715.1018 -7467.4728 295.6761 -9182.5746 -7376.5725 300.2062 7.6398 88.2589 30087.8497 -197.3071 -123.7126
TCL: Running FEP window  19: Lambda1 0.9000000000000002 Lambda2 0.9500000000000003 [dLambda 0.050000000000000044]
TCL: Setting parameter firsttimestep to 0
TCL: Setting parameter alchLambda to 0.9000000000000002
Info: NONBONDED TABLE R-SQUARED SPACING: 0.0625
Info: NONBONDED TABLE SIZE: 705 POINTS
TCL: Setting parameter alchLambda2 to 0.9500000000000003
Info: NONBONDED TABLE R-SQUARED SPACING: 0.0625
Info: NONBONDED TABLE SIZE: 705 POINTS
TCL: Running for 1500000 steps
ETITLE: TS BOND ANGLE DIHED IMPRP ELECT VDW BOUNDARY MISC KINETIC TOTAL TEMP POTENTIAL TOTALAVG TEMPAVG PRESSURE GPRESSURE VOLUME PRESSAVG GPRESSAVG
ENERGY: 0 1.5563 2.2778 1.6306 0.0000 -10630.9897 1442.7958 0.0000 0.0000 1714.2105 -7468.5187 295.5224 -9182.7292 -7468.5187 295.5224 7.2330 93.5961 30087.8497 7.2330 93.5961
ENERGY: 300000 2.4878 1.1251 1.5162 0.0000 -10566.7413 1428.1487 0.0000 0.0000 1775.6368 -7357.8268 306.1120 -9133.4635 -7386.3480 304.7814 -95.8012 -59.8449 30749.9393 94.1812 159.1802
ENERGY: 600000 3.6069 3.7503 1.7491 0.0000 -10483.0475 1370.6942 0.0000 0.0000 1716.6774 -7386.5696 295.9477 -9103.2471 -7377.2067 305.0957 -370.2199 -234.1983 30175.8113 57.6241 143.3931
ENERGY: 900000 1.3956 2.5211 1.5550 0.0000 -10428.8287 1348.2902 0.0000 0.0000 1712.1291 -7362.9376 295.1636 -9075.0667 -7377.0916 303.2574 -383.9377 -214.7845 30027.8184 41.6786 140.5835
ENERGY: 1200000 3.3045 3.8015 1.7002 0.0000 -10554.7499 1383.6761 0.0000 0.0000 1731.6269 -7430.6407 298.5249 -9162.2677 -7388.2008 302.7615 -672.7131 -676.1191 30520.4164 -20.9822 65.8298
ENERGY: 1500000 0.4978 3.8486 1.7809 0.0000 -10418.8413 1312.8269 0.0000 0.0000 1736.4250 -7363.4620 299.3521 -9099.8870 -7395.1304 301.9009 -736.4467 -748.8827 30484.5527 -109.7184 -34.2984
TCL: Running FEP window  20: Lambda1 0.9500000000000003 Lambda2 1.0    [dLambda 0.04999999999999971]
TCL: Setting parameter firsttimestep to 0
TCL: Setting parameter alchLambda to 0.9500000000000003
Info: NONBONDED TABLE R-SQUARED SPACING: 0.0625
Info: NONBONDED TABLE SIZE: 705 POINTS
TCL: Setting parameter alchLambda2 to 1.0
Info: NONBONDED TABLE R-SQUARED SPACING: 0.0625
Info: NONBONDED TABLE SIZE: 705 POINTS
TCL: Running for 1500000 steps
ETITLE: TS BOND ANGLE DIHED IMPRP ELECT VDW BOUNDARY MISC KINETIC TOTAL TEMP POTENTIAL TOTALAVG TEMPAVG PRESSURE GPRESSURE VOLUME PRESSAVG GPRESSAVG
ENERGY: 0 0.4978 3.8486 1.7809 0.0000 -10418.8499 1313.2119 0.0000 0.0000 1735.5317 -7363.9789 299.1981 -9099.5106 -7363.9789 299.1981 -816.8875 -732.9243 30484.5527 -816.8875 -732.9243
ENERGY: 300000 2.6044 1.4231 1.7607 0.0000 -10613.3626 1502.6819 0.0000 0.0000 1755.1759 -7349.7165 302.5847 -9104.8924 -7364.1906 301.0373 903.2866 932.6444 30064.0103 -161.1569 -94.4693
ENERGY: 600000 0.3841 2.5586 1.5751 0.0000 -10631.4726 1420.2982 0.0000 0.0000 1730.7252 -7475.9314 298.3695 -9206.6566 -7397.2531 300.0771 -138.2437 -131.5284 29998.9778 -109.6286 -43.3560
ENERGY: 900000 1.2152 3.5554 1.7254 0.0000 -10556.0885 1428.2880 0.0000 0.0000 1746.1471 -7375.1574 301.0282 -9121.3044 -7396.8104 300.7491 -29.7638 73.0226 30372.2904 -182.8628 -113.0566
ENERGY: 1200000 1.7116 2.2717 1.6287 0.0000 -10511.5655 1430.4768 0.0000 0.0000 1738.4021 -7337.0746 299.6929 -9075.4767 -7383.9364 301.1472 102.7309 178.8143 30527.0099 -217.4745 -142.9670
ENERGY: 1500000 0.6146 2.8952 1.6100 0.0000 -10385.6241 1335.5542 0.0000 0.0000 1780.2813 -7264.6688 306.9128 -9044.9501 -7388.9564 300.4465 -482.3493 -366.9516 30493.2818 -109.9932 -35.9058
TCL: Exiting due to exit command.
