Info: SIMULATION PARAMETERS:
Info: TIMESTEP               2
Info: NUMBER OF STEPS        0
Info: STEPS PER CYCLE        10
Info: PERIODIC CELL BASIS 1  31.5767 0 0
Info: PERIODIC CELL BASIS 2  0 30.9295 0
Info: PERIODIC CELL BASIS 3  0 0 31.2601
Info: PERIODIC CELL CENTER   0 0 0
Info: WRAPPING WATERS AROUND PERIODIC BOUNDARIES ON OUTPUT.
Info: WRAPPING ALL CLUSTERS AROUND PERIODIC BOUNDARIES ON OUTPUT.
Info: FIRST LDB TIMESTEP     50
Info: LAST LDB TIMESTEP     -1
Info: HOM BACKGROUND SCALING 1
Info: PME BACKGROUND SCALING 1
Info: MIN ATOMS PER PATCH    40
Info: EMPTY PATCH LOAD       40 ATOMS
Info: VELOCITY FILE          mobley_9979854_equil.vel
Info: CENTER OF MASS MOVING INITIALLY? NO
Info: DIELECTRIC             1
Info: EXCLUDE                SCALED ONE-FOUR
Info: 1-4 ELECTROSTATICS SCALED BY 0.833333
Info: MODIFIED 1-4 VDW PARAMETERS WILL BE USED
Info: DCD FILENAME           mobley_9979854_prod.dcd
Info: DCD FREQUENCY          100000
Info: DCD FIRST STEP         100000
Info: DCD FILE WILL CONTAIN UNIT CELL DATA
Info: XST FILENAME           mobley_9979854_prod.xst
Info: XST FREQUENCY          100000
Info: NO VELOCITY DCD OUTPUT
Info: NO FORCE DCD OUTPUT
Info: OUTPUT FILENAME        mobley_9979854_prod
Info: BINARY OUTPUT FILES WILL BE USED
Info: RESTART FILENAME       mobley_9979854_prod.restart
Info: RESTART FREQUENCY      100000
Info: BINARY RESTART FILES WILL BE USED
Info: CUTOFF                 9
Info: PAIRLIST DISTANCE      11
Info: PAIRLIST SHRINK RATE   0.01
Info: PAIRLIST GROW RATE     0.01
Info: PAIRLIST TRIGGER       0.3
Info: PAIRLISTS PER CYCLE    2
Info: PAIRLISTS ENABLED
Info: MARGIN                 2
Info: HYDROGEN GROUP CUTOFF  2.5
Info: PATCH DIMENSION        15.5
Info: ENERGY OUTPUT STEPS    100000
Info: ENERGY EVALUATION STEPS    100000
Info: OUTPUT ENERGY PRECISION 4
Info: CROSSTERM ENERGY INCLUDED IN DIHEDRAL
Info: TIMING OUTPUT STEPS    1000000
Info: PRESSURE OUTPUT STEPS  100000
Info: ALCHEMICAL FEP ON
Info: FEP CURRENT LAMBDA VALUE     1
Info: FEP COMPARISON LAMBDA VALUE  0.95
Info: FEP INTRA-ALCHEMICAL NON-BONDED INTERACTIONS WILL BE RETAINED
Info: FEP INTRA-ALCHEMICAL BONDED INTERACTIONS WILL BE RETAINED
Info: FEP VDW SHIFTING COEFFICIENT 5
Info: FEP ELEC. ACTIVE FOR ANNIHILATED PARTICLES BETWEEN LAMBDA = 0 AND LAMBDA = 0.5
Info: FEP ELEC. ACTIVE FOR EXNIHILATED PARTICLES BETWEEN LAMBDA = 0.5 AND LAMBDA = 1
Info: FEP VDW ACTIVE FOR ANNIHILATED PARTICLES BETWEEN LAMBDA = 0 AND LAMBDA = 1
Info: FEP VDW ACTIVE FOR EXNIHILATED PARTICLES BETWEEN LAMBDA = 0 AND LAMBDA = 1
Info: FEP BOND ACTIVE FOR ANNIHILATED PARTICLES BETWEEN LAMBDA = 1 AND LAMBDA = 1
Info: FEP BOND ACTIVE FOR EXNIHILATED PARTICLES BETWEEN LAMBDA = 0 AND LAMBDA = 0
Info: LANGEVIN DYNAMICS ACTIVE
Info: LANGEVIN TEMPERATURE   300
Info: LANGEVIN USING BBK INTEGRATOR
Info: LANGEVIN DAMPING COEFFICIENT IS 1 INVERSE PS
Info: LANGEVIN DYNAMICS APPLIED TO HYDROGENS
Info: LANGEVIN PISTON PRESSURE CONTROL ACTIVE
Info:        TARGET PRESSURE IS 1.01325 BAR
Info:     OSCILLATION PERIOD IS 50 FS
Info:             DECAY TIME IS 25 FS
Info:     PISTON TEMPERATURE IS 300 K
Info:       PRESSURE CONTROL IS GROUP-BASED
Info:    INITIAL STRAIN RATE IS 0.000334578 0.000334578 0.000334578
Info:       CELL FLUCTUATION IS ISOTROPIC
Info: PARTICLE MESH EWALD (PME) ACTIVE
Info: PME TOLERANCE               1e-06
Info: PME EWALD COEFFICIENT       0.348832
Info: PME INTERPOLATION ORDER     4
Info: PME GRID DIMENSIONS         32 32 32
Info: PME MAXIMUM GRID SPACING    1
Info: PME CALCULATION WILL BE PERFORMED ON GPU
Info: FULL ELECTROSTATIC EVALUATION FREQUENCY      2
Info: USING VERLET I (r-RESPA) MTS SCHEME.
Info: C1 SPLITTING OF LONG RANGE ELECTROSTATICS
Info: PLACING ATOMS IN PATCHES BY HYDROGEN GROUPS
Info: RIGID BONDS TO HYDROGEN : ALL
Info:         ERROR TOLERANCE : 1e-08
Info:          MAX ITERATIONS : 100
Info: RIGID WATER USING SETTLE ALGORITHM
Info: RANDOM NUMBER SEED     1743558892
Info: USE HYDROGEN BONDS?    NO
Info: Using AMBER format force field!
Info: AMBER PARM FILE        mobley_9979854.prmtop
Info: COORDINATE PDB         mobley_9979854.pdb
Info: Exclusions will be read from PARM file!
Info: SCNB (VDW SCALING)     2
Info: USING ARITHMETIC MEAN TO COMBINE L-J SIGMA PARAMETERS
Info: BINARY COORDINATES     mobley_9979854_equil.coor
Info: SUMMARY OF PARAMETERS:
Info: 8 BONDS
Info: 9 ANGLES
Info:   9 HARMONIC
Info:   0 COSINE-BASED
Info: 6 DIHEDRAL
Info: 0 IMPROPER
Info: 0 CROSSTERM
Info: 0 VDW
Info: 28 VDW_PAIRS
Info: 0 NBTHOLE_PAIRS
Info: To read alchdata from file: mobley_9979854.pdb
Info: To read alchflag data from column: 5
Info: STRUCTURE SUMMARY:
Info: 2985 ATOMS
Info: 2984 BONDS
Info: 19 ANGLES
Info: 29 DIHEDRALS
Info: 0 IMPROPERS
Info: 0 CROSSTERMS
Info: 3024 EXCLUSIONS
Info: 2978 RIGID BONDS
Info: ALCH: 0 ATOMS TO DISAPPEAR IN FINAL STATE
Info: ALCH: 12 ATOMS TO APPEAR IN FINAL STATE
Info: 5977 DEGREES OF FREEDOM
Info: 998 HYDROGEN GROUPS
Info: 4 ATOMS IN LARGEST HYDROGEN GROUP
Info: 998 MIGRATION GROUPS
Info: 4 ATOMS IN LARGEST MIGRATION GROUP
Info: TOTAL MASS = 17967.9 amu
Info: TOTAL CHARGE = 0.000199988 e
Info: MASS DENSITY = 0.977296 g/cm^3
Info: ATOM DENSITY = 0.0977717 atoms/A^3
Info: ADDED 0 IMPLICIT EXCLUSIONS
Info: NONBONDED TABLE R-SQUARED SPACING: 0.0625
Info: NONBONDED TABLE SIZE: 705 POINTS
Info: REMOVING COM VELOCITY -0.048125 -0.00590233 -0.0188649
Info: Use 3D box decompostion in PME FFT.
Info: Updated CUDA force table with 4096 elements.
Info: Updated CUDA LJ table with 7 x 7 elements.
Info: Found 15 unique exclusion lists needing 28 bytes
TCL: Running for 1500000 steps
ETITLE: TS BOND ANGLE DIHED IMPRP ELECT VDW BOUNDARY MISC KINETIC TOTAL TEMP POTENTIAL TOTALAVG TEMPAVG PRESSURE GPRESSURE VOLUME PRESSAVG GPRESSAVG
ENERGY: 0 1.1703 4.5846 2.4394 0.0000 -10863.0432 1503.2812 0.0000 0.0000 1762.1366 -7589.4311 296.7199 -9351.5676 -7589.4311 296.7199 534.6312 606.3068 30530.3017 534.6312 606.3068
ENERGY: 300000 1.4202 5.5314 2.7456 0.0000 -10782.7829 1422.5256 0.0000 0.0000 1793.9812 -7556.5789 302.0821 -9350.5602 -7585.4981 299.7527 -576.6050 -463.9320 31148.3887 365.8440 440.2440
ENERGY: 600000 1.1105 2.7445 1.9242 0.0000 -10884.3531 1478.9761 0.0000 0.0000 1784.8596 -7614.7382 300.5462 -9399.5978 -7584.7899 299.0016 -181.1070 -115.0688 31086.4940 10.6253 97.2446
ENERGY: 900000 1.9950 5.4137 2.6833 0.0000 -10753.3994 1429.2515 0.0000 0.0000 1794.5414 -7519.5145 302.1764 -9314.0559 -7575.0994 298.4330 -208.4021 -196.8032 31104.3567 -34.9402 36.3355
ENERGY: 1200000 3.8179 4.0984 2.6190 0.0000 -10709.8361 1376.5865 0.0000 0.0000 1758.3286 -7564.3856 296.0787 -9322.7142 -7569.4817 299.0169 -578.7752 -592.1534 30703.1982 -46.0223 18.5615
ENERGY: 1500000 3.0333 2.3770 1.7721 0.0000 -10885.3925 1497.6691 0.0000 0.0000 1792.1580 -7588.3831 301.7751 -9380.5410 -7561.6577 299.4331 365.7415 427.9484 30416.7903 -58.4157 8.7044
TCL: Running FEP window   2: Lambda1 0.95   Lambda2 0.8999999999999999 [dLambda -0.050000000000000044]
TCL: Setting parameter firsttimestep to 0
TCL: Setting parameter alchLambda to 0.95
Info: NONBONDED TABLE R-SQUARED SPACING: 0.0625
Info: NONBONDED TABLE SIZE: 705 POINTS
TCL: Setting parameter alchLambda2 to 0.8999999999999999
Info: NONBONDED TABLE R-SQUARED SPACING: 0.0625
Info: NONBONDED TABLE SIZE: 705 POINTS
TCL: Running for 1500000 steps
ETITLE: TS BOND ANGLE DIHED IMPRP ELECT VDW BOUNDARY MISC KINETIC TOTAL TEMP POTENTIAL TOTALAVG TEMPAVG PRESSURE GPRESSURE VOLUME PRESSAVG GPRESSAVG
ENERGY: 0 3.0333 2.3770 1.7721 0.0000 -10884.5014 1496.8809 0.0000 0.0000 1791.2903 -7589.1479 301.6290 -9380.4382 -7589.1479 301.6290 321.5554 407.4387 30416.7903 321.5554 407.4387
ENERGY: 300000 1.2525 8.9989 2.8005 0.0000 -10898.2059 1538.5180 0.0000 0.0000 1756.1998 -7590.4362 295.7202 -9346.6360 -7585.4352 296.5011 611.9100 657.5441 30495.7700 34.3122 86.6721
ENERGY: 600000 2.3265 5.7236 2.5162 0.0000 -10928.3645 1533.0452 0.0000 0.0000 1792.5583 -7592.1947 301.8425 -9384.7530 -7569.0009 298.1778 691.3043 791.4045 30178.6351 358.9715 417.2445
ENERGY: 900000 2.7752 2.7074 3.5355 0.0000 -10755.7181 1422.9201 0.0000 0.0000 1763.2599 -7560.5200 296.9091 -9323.7799 -7574.5173 297.7545 -257.5610 -121.0757 30637.5549 282.3558 354.8575
ENERGY: 1200000 1.7767 5.2546 2.3519 0.0000 -10897.8540 1564.2501 0.0000 0.0000 1808.2971 -7515.9237 304.4927 -9324.2208 -7573.9377 298.6318 856.7703 810.1838 30860.7631 227.1874 284.0206
ENERGY: 1500000 2.3479 5.1518 2.3693 0.0000 -10794.9407 1477.7941 0.0000 0.0000 1694.3150 -7612.9626 285.2997 -9307.2776 -7566.2201 297.9485 142.8977 258.5447 30734.8920 248.9632 307.6085
TCL: Running FEP window   3: Lambda1 0.8999999999999999 Lambda2 0.8499999999999999 [dLambda -0.050000000000000044]
TCL: Setting parameter firsttimestep to 0
TCL: Setting parameter alchLambda to 0.8999999999999999
Info: NONBONDED TABLE R-SQUARED SPACING: 0.0625
Info: NONBONDED TABLE SIZE: 705 POINTS
TCL: Setting parameter alchLambda2 to 0.8499999999999999
Info: NONBONDED TABLE R-SQUARED SPACING: 0.0625
Info: NONBONDED TABLE SIZE: 705 POINTS
TCL: Running for 1500000 steps
ETITLE: TS BOND ANGLE DIHED IMPRP ELECT VDW BOUNDARY MISC KINETIC TOTAL TEMP POTENTIAL TOTALAVG TEMPAVG PRESSURE GPRESSURE VOLUME PRESSAVG GPRESSAVG
ENERGY: 0 2.3479 5.1518 2.3693 0.0000 -10792.8916 1477.2016 0.0000 0.0000 1693.4528 -7612.3681 285.1545 -9305.8209 -7612.3681 285.1545 157.3342 246.5121 30734.8920 157.3342 246.5121
ENERGY: 300000 0.7127 3.1880 2.3857 0.0000 -10819.4845 1478.7318 0.0000 0.0000 1751.3403 -7583.1260 294.9020 -9334.4663 -7591.2055 294.7270 13.4373 48.1649 30921.1743 123.0623 173.0491
ENERGY: 600000 2.3598 3.5143 3.3110 0.0000 -10811.0973 1504.4741 0.0000 0.0000 1797.4988 -7499.9393 302.6744 -9297.4381 -7547.8876 300.0404 328.0631 360.5905 31035.0294 127.9840 171.6666
ENERGY: 900000 2.1411 3.9532 1.8870 0.0000 -10746.3152 1410.0054 0.0000 0.0000 1746.2604 -7582.0682 294.0466 -9328.3286 -7543.7353 298.9621 -173.3312 -140.2721 30378.2368 23.2449 61.6527
ENERGY: 1200000 1.2507 8.0421 3.6246 0.0000 -10772.0377 1341.0313 0.0000 0.0000 1775.2382 -7642.8507 298.9260 -9418.0889 -7545.2508 299.8740 -912.5965 -818.0105 30465.4643 -7.9502 33.3708
ENERGY: 1500000 0.1656 4.5154 3.2528 0.0000 -10948.6402 1561.9712 0.0000 0.0000 1827.4908 -7551.2444 307.7247 -9378.7351 -7549.9221 300.1047 829.5095 916.3207 30459.2190 76.9008 124.5776
TCL: Running FEP window   4: Lambda1 0.8499999999999999 Lambda2 0.7999999999999998 [dLambda -0.050000000000000044]
TCL: Setting parameter firsttimestep to 0
TCL: Setting parameter alchLambda to 0.8499999999999999
Info: NONBONDED TABLE R-SQUARED SPACING: 0.0625
Info: NONBONDED TABLE SIZE: 705 POINTS
TCL: Setting parameter alchLambda2 to 0.7999999999999998
Info: NONBONDED TABLE R-SQUARED SPACING: 0.0625
Info: NONBONDED TABLE SIZE: 705 POINTS
TCL: Running for 1500000 steps
ETITLE: TS BOND ANGLE DIHED IMPRP ELECT VDW BOUNDARY MISC KINETIC TOTAL TEMP POTENTIAL TOTALAVG TEMPAVG PRESSURE GPRESSURE VOLUME PRESSAVG GPRESSAVG
ENERGY: 0 0.1656 4.5154 3.2528 0.0000 -10946.8404 1561.7295 0.0000 0.0000 1826.6037 -7550.5734 307.5753 -9377.1771 -7550.5734 307.5753 817.3866 910.7063 30459.2190 817.3866 910.7063
ENERGY: 300000 0.2056 3.8537 2.1943 0.0000 -10684.4609 1416.7558 0.0000 0.0000 1764.4260 -7497.0255 297.1054 -9261.4515 -7507.0106 305.4626 -234.1799 -144.6986 30984.5238 3.5289 66.9956
ENERGY: 600000 2.7271 6.1233 1.7942 0.0000 -10877.0985 1489.2098 0.0000 0.0000 1784.4052 -7592.8389 300.4696 -9377.2440 -7545.1025 302.4914 110.0121 216.6736 30564.6619 -100.1386 -26.7676
ENERGY: 900000 1.0937 7.6295 4.0461 0.0000 -10732.1559 1378.6291 0.0000 0.0000 1761.3523 -7579.4053 296.5878 -9340.7575 -7548.3317 301.0293 -676.9194 -662.4838 30875.2003 -253.3037 -191.3744
ENERGY: 1200000 2.6562 4.0078 2.8100 0.0000 -10825.1051 1496.1615 0.0000 0.0000 1751.0090 -7568.4606 294.8462 -9319.4696 -7542.8136 301.2881 287.2741 341.4428 30748.5443 -172.3809 -115.6508
ENERGY: 1500000 1.1784 4.5682 2.5945 0.0000 -10776.5577 1451.9718 0.0000 0.0000 1753.9980 -7562.2469 295.3495 -9316.2449 -7554.9332 300.8861 -195.3924 -218.7684 31249.9564 -169.6525 -117.8519
TCL: Running FEP window   5: Lambda1 0.7999999999999998 Lambda2 0.7499999999999998 [dLambda -0.050000000000000044]
TCL: Setting parameter firsttimestep to 0
TCL: Setting parameter alchLambda to 0.7999999999999998
Info: NONBONDED TABLE R-SQUARED SPACING: 0.0625
Info: NONBONDED TABLE SIZE: 705 POINTS
TCL: Setting parameter alchLambda2 to 0.7499999999999998
Info: NONBONDED TABLE R-SQUARED SPACING: 0.0625
Info: NONBONDED TABLE SIZE: 705 POINTS
TCL: Running for 1500000 steps
ETITLE: TS BOND ANGLE DIHED IMPRP ELECT VDW BOUNDARY MISC KINETIC TOTAL TEMP POTENTIAL TOTALAVG TEMPAVG PRESSURE GPRESSURE VOLUME PRESSAVG GPRESSAVG
ENERGY: 0 1.1784 4.5682 2.5945 0.0000 -10774.8910 1451.4593 0.0000 0.0000 1753.0858 -7562.0048 295.1959 -9315.0906 -7562.0048 295.1959 -295.9206 -227.2562 31249.9564 -295.9206 -227.2562
ENERGY: 300000 4.0965 3.4388 2.1061 0.0000 -10761.8263 1453.9059 0.0000 0.0000 1754.6976 -7543.5813 295.4673 -9298.2789 -7568.9173 296.8306 80.1332 142.3508 30625.8744 -33.8781 37.2544
ENERGY: 600000 2.3040 6.5287 2.7306 0.0000 -10559.5936 1317.1071 0.0000 0.0000 1811.8607 -7419.0625 305.0928 -9230.9232 -7550.3540 297.9178 -1114.7666 -955.7238 31097.9432 -337.2036 -252.2979
ENERGY: 900000 1.5805 5.8277 2.6407 0.0000 -10925.5701 1533.7536 0.0000 0.0000 1742.5747 -7639.1929 293.4260 -9381.7676 -7550.9945 297.9416 477.5785 472.3437 30773.5841 -324.7125 -249.8689
ENERGY: 1200000 2.1788 5.6826 3.0180 0.0000 -10823.4592 1515.4583 0.0000 0.0000 1787.7724 -7509.3492 301.0366 -9297.1216 -7549.2352 299.0332 673.9041 700.5604 30548.1534 -113.5647 -45.4161
ENERGY: 1500000 3.1615 2.8926 2.4934 0.0000 -10828.2555 1487.1657 0.0000 0.0000 1813.2382 -7519.3040 305.3247 -9332.5422 -7547.0050 299.2331 33.2073 126.2424 30864.4322 -186.1648 -115.8992
TCL: Running FEP window   6: Lambda1 0.7499999999999998 Lambda2 0.6999999999999997 [dLambda -0.050000000000000044]
TCL: Setting parameter firsttimestep to 0
TCL: Setting parameter alchLambda to 0.7499999999999998
Info: NONBONDED TABLE R-SQUARED SPACING: 0.0625
Info: NONBONDED TABLE SIZE: 705 POINTS
TCL: Setting parameter alchLambda2 to 0.6999999999999997
Info: NONBONDED TABLE R-SQUARED SPACING: 0.0625
Info: NONBONDED TABLE SIZE: 705 POINTS
TCL: Running for 1500000 steps
ETITLE: TS BOND ANGLE DIHED IMPRP ELECT VDW BOUNDARY MISC KINETIC TOTAL TEMP POTENTIAL TOTALAVG TEMPAVG PRESSURE GPRESSURE VOLUME PRESSAVG GPRESSAVG
ENERGY: 0 3.1615 2.8926 2.4934 0.0000 -10826.0960 1486.5403 0.0000 0.0000 1812.3399 -7518.6683 305.1735 -9331.0082 -7518.6683 305.1735 43.9452 116.4832 30864.4322 43.9452 116.4832
ENERGY: 300000 1.0373 3.7964 2.9736 0.0000 -10834.3134 1401.2770 0.0000 0.0000 1759.9579 -7665.2712 296.3530 -9425.2290 -7578.5570 298.6950 -672.4525 -574.3341 30760.3043 -563.0503 -488.9973
ENERGY: 600000 4.3207 2.9923 2.1333 0.0000 -10691.2651 1396.2022 0.0000 0.0000 1785.3645 -7500.2520 300.6312 -9285.6165 -7560.6845 301.7708 -404.1607 -384.2629 31057.3648 -360.1284 -310.1234
ENERGY: 900000 1.2961 4.5262 2.1000 0.0000 -10833.8656 1442.0892 0.0000 0.0000 1844.5903 -7539.2639 310.6040 -9383.8541 -7557.4088 302.8081 -263.3817 -190.4827 30644.4355 -359.3673 -302.1780
ENERGY: 1200000 2.5777 6.9033 4.7312 0.0000 -10793.3038 1476.3587 0.0000 0.0000 1802.9608 -7499.7721 303.5942 -9302.7329 -7543.2349 303.5014 216.3267 230.2143 30622.5282 -274.3167 -217.8098
ENERGY: 1500000 2.7801 4.1120 1.7332 0.0000 -10689.2492 1419.3365 0.0000 0.0000 1826.8011 -7434.4863 307.6085 -9261.2874 -7540.4968 302.8840 -219.1965 -166.2094 31209.4968 -214.1824 -164.4097
TCL: Running FEP window   7: Lambda1 0.6999999999999997 Lambda2 0.6499999999999997 [dLambda -0.050000000000000044]
TCL: Setting parameter firsttimestep to 0
TCL: Setting parameter alchLambda to 0.6999999999999997
Info: NONBONDED TABLE R-SQUARED SPACING: 0.0625
Info: NONBONDED TABLE SIZE: 705 POINTS
TCL: Setting parameter alchLambda2 to 0.6499999999999997
Info: NONBONDED TABLE R-SQUARED SPACING: 0.0625
Info: NONBONDED TABLE SIZE: 705 POINTS
TCL: Running for 1500000 steps
ETITLE: TS BOND ANGLE DIHED IMPRP ELECT VDW BOUNDARY MISC KINETIC TOTAL TEMP POTENTIAL TOTALAVG TEMPAVG PRESSURE GPRESSURE VOLUME PRESSAVG GPRESSAVG
ENERGY: 0 2.7801 4.1120 1.7332 0.0000 -10687.0557 1417.7494 0.0000 0.0000 1825.9387 -7434.7422 307.4633 -9260.6810 -7434.7422 307.4633 -252.7416 -177.4523 31209.4968 -252.7416 -177.4523
ENERGY: 300000 3.1434 3.9270 3.7953 0.0000 -10671.5533 1383.8533 0.0000 0.0000 1750.6363 -7526.1980 294.7834 -9276.8343 -7544.4925 298.5969 -622.9970 -498.6569 31129.2428 -316.5516 -246.6534
ENERGY: 600000 0.7790 4.0524 4.0604 0.0000 -10881.1034 1517.5843 0.0000 0.0000 1803.8456 -7550.7816 303.7432 -9354.6273 -7556.0583 299.3643 526.8349 580.7396 30473.5831 -110.9735 -43.6610
ENERGY: 900000 1.5303 3.8625 2.5951 0.0000 -10767.0332 1426.8590 0.0000 0.0000 1757.4458 -7574.7406 295.9300 -9332.1863 -7546.7964 299.6557 -386.8365 -276.8527 30738.9774 -187.4699 -115.1535
ENERGY: 1200000 0.5663 3.7878 3.4115 0.0000 -10798.1433 1473.8820 0.0000 0.0000 1770.8259 -7545.6697 298.1831 -9316.4957 -7550.7035 299.1141 44.9860 81.3693 31088.8391 -149.3548 -76.7390
ENERGY: 1500000 0.7110 6.0265 2.1388 0.0000 -10657.8261 1399.5934 0.0000 0.0000 1759.8090 -7489.5474 296.3280 -9249.3564 -7549.2996 299.0955 -434.3621 -391.0851 31300.5501 -127.2722 -57.8519
TCL: Running FEP window   8: Lambda1 0.6499999999999997 Lambda2 0.5999999999999996 [dLambda -0.050000000000000044]
TCL: Setting parameter firsttimestep to 0
TCL: Setting parameter alchLambda to 0.6499999999999997
Info: NONBONDED TABLE R-SQUARED SPACING: 0.0625
Info: NONBONDED TABLE SIZE: 705 POINTS
TCL: Setting parameter alchLambda2 to 0.5999999999999996
Info: NONBONDED TABLE R-SQUARED SPACING: 0.0625
Info: NONBONDED TABLE SIZE: 705 POINTS
TCL: Running for 1500000 steps
ETITLE: TS BOND ANGLE DIHED IMPRP ELECT VDW BOUNDARY MISC KINETIC TOTAL TEMP POTENTIAL TOTALAVG TEMPAVG PRESSURE GPRESSURE VOLUME PRESSAVG GPRESSAVG
ENERGY: 0 0.7110 6.0265 2.1388 0.0000 -10657.5435 1400.1304 0.0000 0.0000 1758.9156 -7489.6212 296.1775 -9248.5368 -7489.6212 296.1775 -469.6055 -390.9759 31300.5501 -469.6055 -390.9759
ENERGY: 300000 2.2900 8.2029 2.8186 0.0000 -10824.9852 1429.8074 0.0000 0.0000 1741.7936 -7640.0728 293.2944 -9381.8664 -7552.9544 296.9604 -412.0068 -316.0235 30398.8344 -324.3480 -241.8577
ENERGY: 600000 1.8286 4.6228 2.1957 0.0000 -10794.3452 1444.3988 0.0000 0.0000 1762.8172 -7578.4820 296.8345 -9341.2993 -7550.5043 299.1739 20.3875 77.2284 30331.4899 -93.3328 -19.3839
ENERGY: 900000 1.7616 4.7530 2.1934 0.0000 -10766.3435 1435.3536 0.0000 0.0000 1809.0902 -7513.1918 304.6263 -9322.2820 -7551.0544 298.9794 -331.0549 -307.9644 31075.5363 -43.9763 27.9934
ENERGY: 1200000 1.9549 6.8822 2.3041 0.0000 -10851.6621 1500.2704 0.0000 0.0000 1792.2202 -7548.0303 301.7856 -9340.2506 -7558.6082 299.8917 418.7270 511.1291 30422.8044 -4.5660 61.1621
ENERGY: 1500000 4.4057 4.9430 1.9907 0.0000 -10646.7297 1396.5179 0.0000 0.0000 1774.1865 -7464.6859 298.7490 -9238.8724 -7543.9189 299.8467 -478.4543 -409.4755 31365.7713 -20.3460 46.0417
TCL: Running FEP window   9: Lambda1 0.5999999999999996 Lambda2 0.5499999999999996 [dLambda -0.050000000000000044]
TCL: Setting parameter firsttimestep to 0
TCL: Setting parameter alchLambda to 0.5999999999999996
Info: NONBONDED TABLE R-SQUARED SPACING: 0.0625
Info: NONBONDED TABLE SIZE: 705 POINTS
TCL: Setting parameter alchLambda2 to 0.5499999999999996
Info: NONBONDED TABLE R-SQUARED SPACING: 0.0625
Info: NONBONDED TABLE SIZE: 705 POINTS
TCL: Running for 1500000 steps
ETITLE: TS BOND ANGLE DIHED IMPRP ELECT VDW BOUNDARY MISC KINETIC TOTAL TEMP POTENTIAL TOTALAVG TEMPAVG PRESSURE GPRESSURE VOLUME PRESSAVG GPRESSAVG
ENERGY: 0 4.4057 4.9430 1.9907 0.0000 -10646.4312 1396.9269 0.0000 0.0000 1773.2459 -7464.9191 298.5906 -9238.1650 -7464.9191 298.5906 -491.8708 -410.9228 31365.7713 -491.8708 -410.9228
ENERGY: 300000 0.7224 4.4658 1.8544 0.0000 -11081.3434 1642.7955 0.0000 0.0000 1797.3047 -7634.2006 302.6418 -9431.5053 -7503.3721 301.4172 1045.8077 1127.0174 30942.7536 -76.1161 -5.7812
ENERGY: 600000 2.3389 4.4230 2.9139 0.0000 -10860.2553 1518.1019 0.0000 0.0000 1793.3927 -7539.0848 301.9830 -9332.4775 -7522.8389 299.6434 359.1206 462.7197 30930.7993 42.5276 123.4525
ENERGY: 900000 2.7331 6.4521 2.3570 0.0000 -10891.7232 1483.1804 0.0000 0.0000 1849.1475 -7547.8531 311.3714 -9397.0006 -7551.0915 299.7475 -83.5160 -15.3099 30802.1234 -1.7735 79.8723
ENERGY: 1200000 2.0739 5.9156 2.7923 0.0000 -10781.1475 1477.0701 0.0000 0.0000 1758.5419 -7534.7536 296.1146 -9293.2956 -7548.8305 299.5477 345.2101 404.0170 30584.7993 85.7261 167.6523
ENERGY: 1500000 5.9967 6.4315 3.1795 0.0000 -10696.5238 1446.9217 0.0000 0.0000 1838.5090 -7395.4853 309.5800 -9233.9943 -7535.9768 300.3397 16.4685 76.8559 30873.3632 14.6513 90.6052
TCL: Running FEP window  10: Lambda1 0.5499999999999996 Lambda2 0.4999999999999996 [dLambda -0.04999999999999999]
TCL: Setting parameter firsttimestep to 0
TCL: Setting parameter alchLambda to 0.5499999999999996
Info: NONBONDED TABLE R-SQUARED SPACING: 0.0625
Info: NONBONDED TABLE SIZE: 705 POINTS
TCL: Setting parameter alchLambda2 to 0.4999999999999996
Info: NONBONDED TABLE R-SQUARED SPACING: 0.0625
Info: NONBONDED TABLE SIZE: 705 POINTS
TCL: Running for 1500000 steps
ETITLE: TS BOND ANGLE DIHED IMPRP ELECT VDW BOUNDARY MISC KINETIC TOTAL TEMP POTENTIAL TOTALAVG TEMPAVG PRESSURE GPRESSURE VOLUME PRESSAVG GPRESSAVG
ENERGY: 0 5.9967 6.4315 3.1795 0.0000 -10696.0896 1446.7285 0.0000 0.0000 1837.6096 -7396.1438 309.4286 -9233.7534 -7396.1438 309.4286 -14.5234 66.6744 30873.3632 -14.5234 66.6744
ENERGY: 300000 1.3617 5.5538 2.5541 0.0000 -10806.7074 1448.9020 0.0000 0.0000 1781.0903 -7567.2456 299.9115 -9348.3358 -7448.9410 306.7434 -110.1589 -83.0148 30658.5974 -200.2129 -127.3350
ENERGY: 600000 4.4821 4.7037 2.5271 0.0000 -10842.4207 1504.4952 0.0000 0.0000 1819.6602 -7506.5524 306.4061 -9326.2127 -7465.4970 304.9879 239.9030 274.3273 30653.9918 -194.5003 -120.1301
ENERGY: 900000 1.0160 10.1143 2.9071 0.0000 -10717.4286 1409.1136 0.0000 0.0000 1777.6374 -7516.6402 299.3300 -9294.2775 -7491.9874 303.1989 -365.0123 -328.4395 30961.4788 -304.3290 -237.8236
ENERGY: 1200000 2.4659 5.6384 2.4432 0.0000 -10838.3734 1515.7040 0.0000 0.0000 1763.1630 -7548.9589 296.8927 -9312.1219 -7508.1060 300.8894 551.4003 680.2979 30529.7555 -105.6976 -34.1698
ENERGY: 1500000 1.1439 6.2875 3.2379 0.0000 -10820.7352 1477.4129 0.0000 0.0000 1781.3547 -7551.2983 299.9560 -9332.6530 -7506.9305 301.0914 267.9285 355.0224 30428.4784 -52.1580 20.7359
TCL: Running FEP window  11: Lambda1 0.4999999999999996 Lambda2 0.4499999999999996 [dLambda -0.04999999999999999]
TCL: Setting parameter firsttimestep to 0
TCL: Setting parameter alchLambda to 0.4999999999999996
Info: NONBONDED TABLE R-SQUARED SPACING: 0.0625
Info: NONBONDED TABLE SIZE: 705 POINTS
TCL: Setting parameter alchLambda2 to 0.4499999999999996
Info: NONBONDED TABLE R-SQUARED SPACING: 0.0625
Info: NONBONDED TABLE SIZE: 705 POINTS
TCL: Running for 1500000 steps
ETITLE: TS BOND ANGLE DIHED IMPRP ELECT VDW BOUNDARY MISC KINETIC TOTAL TEMP POTENTIAL TOTALAVG TEMPAVG PRESSURE GPRESSURE VOLUME PRESSAVG GPRESSAVG
ENERGY: 0 1.1439 6.2875 3.2379 0.0000 -10820.6298 1477.5286 0.0000 0.0000 1780.4555 -7551.9763 299.8046 -9332.4319 -7551.9763 299.8046 252.1322 352.2186 30428.4784 252.1322 352.2186
ENERGY: 300000 2.6760 5.2884 2.2349 0.0000 -10654.0874 1371.1465 0.0000 0.0000 1760.7440 -7511.9976 296.4854 -9272.7416 -7534.7980 298.4719 -515.6571 -467.1376 30732.6905 73.1442 139.5518
ENERGY: 600000 0.7405 5.3994 2.5767 0.0000 -10803.3495 1455.4818 0.0000 0.0000 1798.7725 -7540.3786 302.8889 -9339.1511 -7546.8776 299.0370 -255.8337 -168.7442 31125.3155 -195.9694 -118.5666
ENERGY: 900000 2.5321 3.5325 2.2607 0.0000 -10744.6040 1447.6845 0.0000 0.0000 1779.7786 -7508.8155 299.6906 -9288.5942 -7550.5428 298.8358 138.7427 139.2725 30502.3367 -233.8202 -170.3861
ENERGY: 1200000 1.3676 5.2485 2.6175 0.0000 -10787.3894 1473.7838 0.0000 0.0000 1833.3571 -7471.0149 308.7125 -9304.3720 -7550.7009 299.0963 225.3512 249.0590 31044.8718 -203.9581 -140.9977
ENERGY: 1500000 2.8386 4.5837 2.3378 0.0000 -10868.4393 1459.5269 0.0000 0.0000 1766.7491 -7632.4032 297.4966 -9399.1522 -7558.0379 298.4705 -508.4590 -438.6151 30862.4853 -210.5259 -151.3971
TCL: Running FEP window  12: Lambda1 0.4499999999999996 Lambda2 0.39999999999999963 [dLambda -0.04999999999999999]
TCL: Setting parameter firsttimestep to 0
TCL: Setting parameter alchLambda to 0.4499999999999996
Info: NONBONDED TABLE R-SQUARED SPACING: 0.0625
Info: NONBONDED TABLE SIZE: 705 POINTS
TCL: Setting parameter alchLambda2 to 0.39999999999999963
Info: NONBONDED TABLE R-SQUARED SPACING: 0.0625
Info: NONBONDED TABLE SIZE: 705 POINTS
TCL: Running for 1500000 steps
ETITLE: TS BOND ANGLE DIHED IMPRP ELECT VDW BOUNDARY MISC KINETIC TOTAL TEMP POTENTIAL TOTALAVG TEMPAVG PRESSURE GPRESSURE VOLUME PRESSAVG GPRESSAVG
ENERGY: 0 2.8386 4.5837 2.3378 0.0000 -10868.4400 1459.8607 0.0000 0.0000 1765.8454 -7632.9737 297.3444 -9398.8191 -7632.9737 297.3444 -532.2551 -440.1274 30862.4853 -532.2551 -440.1274
ENERGY: 300000 2.8847 4.9425 2.0265 0.0000 -10891.3100 1502.1657 0.0000 0.0000 1800.5229 -7578.7676 303.1837 -9379.2905 -7534.3690 302.4029 79.3167 100.1522 30817.3430 47.3715 85.8864
ENERGY: 600000 1.6739 4.4486 1.8363 0.0000 -10778.3982 1478.3986 0.0000 0.0000 1753.6256 -7538.4151 295.2868 -9292.0408 -7529.2491 301.8789 329.9610 490.1217 30192.0977 92.3526 153.8572
ENERGY: 900000 3.7792 6.3657 2.6988 0.0000 -10680.9337 1386.9002 0.0000 0.0000 1795.4222 -7485.7676 302.3248 -9281.1898 -7532.5182 301.2137 -417.0652 -380.4139 30585.8598 -6.8143 52.5387
ENERGY: 1200000 1.3951 4.8538 2.0538 0.0000 -10636.6090 1360.2670 0.0000 0.0000 1735.9447 -7532.0946 292.3096 -9268.0393 -7537.0892 299.3782 -750.2908 -729.5192 31049.8727 -19.1147 32.2106
ENERGY: 1500000 0.8245 7.9496 2.0422 0.0000 -10676.4366 1373.1623 0.0000 0.0000 1707.8541 -7584.6038 287.5795 -9292.4579 -7541.1384 299.2513 -593.5666 -613.5993 30816.1643 -88.3571 -40.8071
TCL: Running FEP window  13: Lambda1 0.39999999999999963 Lambda2 0.34999999999999964 [dLambda -0.04999999999999999]
TCL: Setting parameter firsttimestep to 0
TCL: Setting parameter alchLambda to 0.39999999999999963
Info: NONBONDED TABLE R-SQUARED SPACING: 0.0625
Info: NONBONDED TABLE SIZE: 705 POINTS
TCL: Setting parameter alchLambda2 to 0.34999999999999964
Info: NONBONDED TABLE R-SQUARED SPACING: 0.0625
Info: NONBONDED TABLE SIZE: 705 POINTS
TCL: Running for 1500000 steps
ETITLE: TS BOND ANGLE DIHED IMPRP ELECT VDW BOUNDARY MISC KINETIC TOTAL TEMP POTENTIAL TOTALAVG TEMPAVG PRESSURE GPRESSURE VOLUME PRESSAVG GPRESSAVG
ENERGY: 0 0.8245 7.9496 2.0422 0.0000 -10676.4373 1373.4209 0.0000 0.0000 1706.9313 -7585.2688 287.4241 -9292.2000 -7585.2688 287.4241 -686.1980 -613.2237 30816.1643 -686.1980 -613.2237
ENERGY: 300000 1.5863 7.0008 2.3676 0.0000 -10771.4388 1386.2262 0.0000 0.0000 1725.7466 -7648.5113 290.5923 -9374.2579 -7598.1981 292.8302 -678.1788 -585.4462 30848.0683 -441.5365 -357.4421
ENERGY: 600000 1.2851 6.4471 3.2037 0.0000 -10710.7819 1389.5580 0.0000 0.0000 1790.4121 -7519.8761 301.4811 -9310.2882 -7564.2527 294.9931 -459.3426 -426.1021 30630.4949 -437.1942 -359.9162
ENERGY: 900000 1.5155 5.4422 2.3987 0.0000 -10772.9199 1466.4918 0.0000 0.0000 1725.9853 -7571.0865 290.6325 -9297.0718 -7567.5404 296.3366 77.1850 101.9154 30851.1356 -337.5004 -282.3527
ENERGY: 1200000 2.6291 5.5984 2.5365 0.0000 -10985.8671 1587.6359 0.0000 0.0000 1759.5523 -7627.9148 296.2848 -9387.4671 -7575.7042 295.9615 1004.4345 1058.2314 30139.1095 -132.7198 -78.3584
ENERGY: 1500000 0.2810 3.4972 2.5482 0.0000 -10942.1847 1594.8807 0.0000 0.0000 1776.9627 -7564.0150 299.2164 -9340.9777 -7580.3802 297.2456 1168.7625 1266.8958 30313.7976 -13.8023 49.6966
TCL: Running FEP window  14: Lambda1 0.34999999999999964 Lambda2 0.29999999999999966 [dLambda -0.04999999999999999]
TCL: Setting parameter firsttimestep to 0
TCL: Setting parameter alchLambda to 0.34999999999999964
Info: NONBONDED TABLE R-SQUARED SPACING: 0.0625
Info: NONBONDED TABLE SIZE: 705 POINTS
TCL: Setting parameter alchLambda2 to 0.29999999999999966
Info: NONBONDED TABLE R-SQUARED SPACING: 0.0625
Info: NONBONDED TABLE SIZE: 705 POINTS
TCL: Running for 1500000 steps
ETITLE: TS BOND ANGLE DIHED IMPRP ELECT VDW BOUNDARY MISC KINETIC TOTAL TEMP POTENTIAL TOTALAVG TEMPAVG PRESSURE GPRESSURE VOLUME PRESSAVG GPRESSAVG
ENERGY: 0 0.2810 3.4972 2.5482 0.0000 -10942.1853 1594.7372 0.0000 0.0000 1776.0632 -7565.0586 299.0650 -9341.1219 -7565.0586 299.0650 1166.9935 1262.1251 30313.7976 1166.9935 1262.1251
ENERGY: 300000 2.6064 6.4596 2.3621 0.0000 -10787.2234 1465.5260 0.0000 0.0000 1749.6357 -7560.6336 294.6149 -9310.2693 -7566.9486 297.3175 334.9970 444.2719 30391.8167 91.9272 178.5605
ENERGY: 600000 2.9433 4.1294 1.7676 0.0000 -10779.4159 1448.5126 0.0000 0.0000 1748.0974 -7573.9656 294.3559 -9322.0630 -7563.4620 297.4228 -284.2654 -229.4280 30858.3017 33.6751 100.4084
ENERGY: 900000 1.8146 8.2311 2.1503 0.0000 -10824.9275 1425.7041 0.0000 0.0000 1831.6541 -7555.3733 308.4257 -9387.0274 -7560.5673 298.5614 -341.7407 -348.5656 30682.2872 -90.0998 -35.9928
ENERGY: 1200000 1.4730 9.1415 2.0644 0.0000 -10847.3206 1465.7920 0.0000 0.0000 1799.9977 -7568.8520 303.0952 -9368.8497 -7556.4377 298.6842 -260.2374 -168.7289 30773.6782 -124.7372 -68.3324
ENERGY: 1500000 5.8542 4.9735 3.0068 0.0000 -10853.1531 1493.6914 0.0000 0.0000 1782.4116 -7563.2157 300.1339 -9345.6272 -7553.1833 299.1195 475.3622 510.8301 30286.0171 -79.1707 -14.4335
TCL: Running FEP window  15: Lambda1 0.29999999999999966 Lambda2 0.24999999999999967 [dLambda -0.04999999999999999]
TCL: Setting parameter firsttimestep to 0
TCL: Setting parameter alchLambda to 0.29999999999999966
Info: NONBONDED TABLE R-SQUARED SPACING: 0.0625
Info: NONBONDED TABLE SIZE: 705 POINTS
TCL: Setting parameter alchLambda2 to 0.24999999999999967
Info: NONBONDED TABLE R-SQUARED SPACING: 0.0625
Info: NONBONDED TABLE SIZE: 705 POINTS
TCL: Running for 1500000 steps
ETITLE: TS BOND ANGLE DIHED IMPRP ELECT VDW BOUNDARY MISC KINETIC TOTAL TEMP POTENTIAL TOTALAVG TEMPAVG PRESSURE GPRESSURE VOLUME PRESSAVG GPRESSAVG
ENERGY: 0 5.8542 4.9735 3.0068 0.0000 -10853.1531 1493.8603 0.0000 0.0000 1781.4913 -7563.9670 299.9790 -9345.4583 -7563.9670 299.9790 418.0430 509.8309 30286.0171 418.0430 509.8309
ENERGY: 300000 1.0986 4.9153 2.1429 0.0000 -10647.0375 1345.4483 0.0000 0.0000 1841.2571 -7452.1753 310.0427 -9293.4324 -7547.8112 300.4799 -737.2448 -618.8777 30518.1164 -83.8656 -7.4243
ENERGY: 600000 1.1729 2.5162 1.9407 0.0000 -10747.7358 1434.2400 0.0000 0.0000 1779.2493 -7528.6166 299.6015 -9307.8659 -7545.2168 299.9905 -320.5001 -219.0203 31011.3500 -25.4328 68.0769
ENERGY: 900000 1.6197 6.3473 3.0678 0.0000 -10558.6586 1298.1198 0.0000 0.0000 1853.9840 -7395.5200 312.1858 -9249.5039 -7520.3523 300.9086 -1361.3297 -1323.1240 31792.5404 -229.9388 -148.0665
ENERGY: 1200000 3.8424 3.8148 2.9005 0.0000 -10805.9711 1424.5502 0.0000 0.0000 1769.7044 -7601.1588 297.9942 -9370.8632 -7544.3143 300.4363 -505.7553 -450.8226 30834.5566 -191.6357 -119.0485
ENERGY: 1500000 2.0393 4.2243 1.9595 0.0000 -10795.6173 1472.7182 0.0000 0.0000 1797.3396 -7517.3365 302.6476 -9314.6761 -7547.8803 300.2405 52.2759 71.0515 30861.6845 -100.6733 -32.7728
TCL: Running FEP window  16: Lambda1 0.24999999999999967 Lambda2 0.19999999999999968 [dLambda -0.04999999999999999]
TCL: Setting parameter firsttimestep to 0
TCL: Setting parameter alchLambda to 0.24999999999999967
Info: NONBONDED TABLE R-SQUARED SPACING: 0.0625
Info: NONBONDED TABLE SIZE: 705 POINTS
TCL: Setting parameter alchLambda2 to 0.19999999999999968
Info: NONBONDED TABLE R-SQUARED SPACING: 0.0625
Info: NONBONDED TABLE SIZE: 705 POINTS
TCL: Running for 1500000 steps
ETITLE: TS BOND ANGLE DIHED IMPRP ELECT VDW BOUNDARY MISC KINETIC TOTAL TEMP POTENTIAL TOTALAVG TEMPAVG PRESSURE GPRESSURE VOLUME PRESSAVG GPRESSAVG
ENERGY: 0 2.0393 4.2243 1.9595 0.0000 -10795.6176 1472.8504 0.0000 0.0000 1796.4802 -7518.0639 302.5029 -9314.5441 -7518.0639 302.5029 -26.8312 66.6058 30861.6845 -26.8312 66.6058
ENERGY: 300000 1.5672 6.1335 2.2953 0.0000 -10783.4896 1435.3277 0.0000 0.0000 1782.6086 -7555.5573 300.1671 -9338.1659 -7552.1141 299.6126 -342.0969 -304.6863 30954.4318 52.1384 119.6206
ENERGY: 600000 0.7643 2.6928 2.3563 0.0000 -10790.8218 1436.4296 0.0000 0.0000 1729.8667 -7618.7120 291.2861 -9348.5788 -7561.3432 297.3530 -549.5861 -503.9897 31098.2417 -105.3573 -39.3946
ENERGY: 900000 2.9326 5.3680 2.2264 0.0000 -10810.9370 1476.2562 0.0000 0.0000 1784.8323 -7539.3214 300.5416 -9324.1537 -7552.5932 298.1547 210.8491 264.2284 30688.9691 -128.9251 -67.9171
ENERGY: 1200000 3.7874 2.8199 2.9729 0.0000 -10856.6868 1473.8913 0.0000 0.0000 1826.7433 -7546.4719 307.5988 -9373.2152 -7546.8165 299.3635 -19.7977 25.6862 30612.2402 -111.1765 -57.0629
ENERGY: 1500000 0.8889 3.3610 3.3301 0.0000 -10608.4725 1417.7802 0.0000 0.0000 1803.3108 -7379.8014 303.6531 -9183.1122 -7529.0262 300.9040 213.6942 286.5241 30479.4457 -1.6035 52.5058
TCL: Running FEP window  17: Lambda1 0.19999999999999968 Lambda2 0.1499999999999997 [dLambda -0.04999999999999999]
TCL: Setting parameter firsttimestep to 0
TCL: Setting parameter alchLambda to 0.19999999999999968
Info: NONBONDED TABLE R-SQUARED SPACING: 0.0625
Info: NONBONDED TABLE SIZE: 705 POINTS
TCL: Setting parameter alchLambda2 to 0.1499999999999997
Info: NONBONDED TABLE R-SQUARED SPACING: 0.0625
Info: NONBONDED TABLE SIZE: 705 POINTS
TCL: Running for 1500000 steps
ETITLE: TS BOND ANGLE DIHED IMPRP ELECT VDW BOUNDARY MISC KINETIC TOTAL TEMP POTENTIAL TOTALAVG TEMPAVG PRESSURE GPRESSURE VOLUME PRESSAVG GPRESSAVG
ENERGY: 0 0.8889 3.3610 3.3301 0.0000 -10608.4735 1417.3863 0.0000 0.0000 1802.4444 -7381.0627 303.5072 -9183.5071 -7381.0627 303.5072 188.6169 280.8315 30479.4457 188.6169 280.8315
ENERGY: 300000 2.3760 3.7800 2.3819 0.0000 -10671.1854 1366.7779 0.0000 0.0000 1752.7394 -7543.1302 295.1376 -9295.8696 -7472.9367 299.4626 -916.8319 -803.8336 31017.8424 -360.6144 -279.4846
ENERGY: 600000 4.8026 6.4546 2.1659 0.0000 -10823.7556 1522.3843 0.0000 0.0000 1841.0947 -7446.8535 310.0154 -9287.9482 -7475.1136 300.3720 587.4595 676.7745 30711.6968 -142.3203 -73.6176
ENERGY: 900000 2.7599 6.4675 1.8267 0.0000 -10750.0136 1438.5253 0.0000 0.0000 1753.2918 -7547.1425 295.2306 -9300.4342 -7488.1028 301.9221 -339.6585 -329.0240 30952.4538 -9.1233 54.6310
ENERGY: 1200000 2.2303 3.6151 2.3355 0.0000 -10732.0671 1411.6536 0.0000 0.0000 1781.2331 -7530.9993 299.9355 -9312.2325 -7495.2370 301.9936 -143.7230 -21.1355 30306.2363 -41.6855 29.2651
ENERGY: 1500000 3.7097 6.0154 2.2598 0.0000 -10680.3275 1389.2210 0.0000 0.0000 1768.1304 -7510.9911 297.7292 -9279.1215 -7506.2232 301.6463 -517.3261 -454.2878 30815.0515 -12.5012 58.5291
TCL: Running FEP window  18: Lambda1 0.1499999999999997 Lambda2 0.09999999999999969 [dLambda -0.05 ]
TCL: Setting parameter firsttimestep to 0
TCL: Setting parameter alchLambda to 0.1499999999999997
Info: NONBONDED TABLE R-SQUARED SPACING: 0.0625
Info: NONBONDED TABLE SIZE: 705 POINTS
TCL: Setting parameter alchLambda2 to 0.09999999999999969
Info: NONBONDED TABLE R-SQUARED SPACING: 0.0625
Info: NONBONDED TABLE SIZE: 705 POINTS
TCL: Running for 1500000 steps
ETITLE: TS BOND ANGLE DIHED IMPRP ELECT VDW BOUNDARY MISC KINETIC TOTAL TEMP POTENTIAL TOTALAVG TEMPAVG PRESSURE GPRESSURE VOLUME PRESSAVG GPRESSAVG
ENERGY: 0 3.7097 6.0154 2.2598 0.0000 -10680.3276 1389.3955 0.0000 0.0000 1767.1795 -7511.7678 297.5691 -9278.9472 -7511.7678 297.5691 -537.9982 -457.1505 30815.0515 -537.9982 -457.1505
ENERGY: 300000 3.4456 6.8773 2.4022 0.0000 -10699.3630 1337.5632 0.0000 0.0000 1806.9241 -7542.1504 304.2615 -9349.0746 -7520.7187 303.7093 -1004.3242 -948.9279 30504.6884 -591.2783 -512.7365
ENERGY: 600000 1.7049 5.7019 3.3667 0.0000 -10783.8153 1440.4173 0.0000 0.0000 1831.9727 -7500.6518 308.4794 -9332.6245 -7531.4563 302.7092 -111.3564 21.9698 30447.6181 -361.4368 -270.3424
ENERGY: 900000 2.2146 3.3163 2.3855 0.0000 -10915.8435 1465.6105 0.0000 0.0000 1806.0067 -7636.3099 304.1071 -9442.3166 -7527.9435 302.9344 -232.9533 -196.9174 30305.7150 -297.1175 -214.3458
ENERGY: 1200000 2.0071 5.1006 2.0680 0.0000 -10937.3007 1542.7020 0.0000 0.0000 1803.8742 -7581.5487 303.7480 -9385.4229 -7534.8658 303.6291 409.3398 512.0531 30440.8064 -175.5088 -100.1147
ENERGY: 1500000 1.2790 3.9927 4.0244 0.0000 -10804.4230 1475.1523 0.0000 0.0000 1796.6097 -7523.3649 302.5247 -9319.9746 -7528.8034 303.4384 265.6313 339.4867 30290.0088 -126.4234 -58.2989
TCL: Running FEP window  19: Lambda1 0.09999999999999969 Lambda2 0.049999999999999684 [dLambda -0.05 ]
TCL: Setting parameter firsttimestep to 0
TCL: Setting parameter alchLambda to 0.09999999999999969
Info: NONBONDED TABLE R-SQUARED SPACING: 0.0625
Info: NONBONDED TABLE SIZE: 705 POINTS
TCL: Setting parameter alchLambda2 to 0.049999999999999684
Info: NONBONDED TABLE R-SQUARED SPACING: 0.0625
Info: NONBONDED TABLE SIZE: 705 POINTS
TCL: Running for 1500000 steps
ETITLE: TS BOND ANGLE DIHED IMPRP ELECT VDW BOUNDARY MISC KINETIC TOTAL TEMP POTENTIAL TOTALAVG TEMPAVG PRESSURE GPRESSURE VOLUME PRESSAVG GPRESSAVG
ENERGY: 0 1.2790 3.9927 4.0244 0.0000 -10804.4234 1473.9862 0.0000 0.0000 1795.7444 -7525.3967 302.3790 -9321.1411 -7525.3967 302.3790 260.2558 334.1138 30290.0088 260.2558 334.1138
ENERGY: 300000 4.8331 7.4762 2.4220 0.0000 -10753.7734 1391.8660 0.0000 0.0000 1781.8721 -7565.3040 300.0431 -9347.1761 -7527.4137 301.2768 -827.9040 -728.2899 30703.6432 -328.1471 -251.7176
ENERGY: 600000 4.3518 2.9318 2.4954 0.0000 -10779.8310 1479.1809 0.0000 0.0000 1782.6309 -7508.2402 300.1709 -9290.8711 -7541.4511 302.5507 298.5005 281.2670 30727.2550 -38.2494 16.0800
ENERGY: 900000 1.8104 7.7396 2.5997 0.0000 -10910.9678 1493.0254 0.0000 0.0000 1754.8988 -7650.8940 295.5012 -9405.7928 -7541.8533 302.6133 16.0909 55.8226 30425.2812 -48.1188 4.7289
ENERGY: 1200000 2.9432 3.8750 2.4131 0.0000 -10768.0120 1489.4579 0.0000 0.0000 1742.7889 -7526.5338 293.4620 -9269.3228 -7536.2452 302.0395 95.9300 211.5668 30978.8319 1.4420 62.0509
ENERGY: 1500000 1.5511 5.6849 3.9249 0.0000 -10691.9135 1489.0822 0.0000 0.0000 1725.9736 -7465.6968 290.6306 -9191.6705 -7524.1831 301.0724 848.2519 842.1670 30412.3128 63.7156 127.6532
TCL: Running FEP window  20: Lambda1 0.049999999999999684 Lambda2 0.0    [dLambda -0.049999999999999684]
TCL: Setting parameter firsttimestep to 0
TCL: Setting parameter alchLambda to 0.049999999999999684
Info: NONBONDED TABLE R-SQUARED SPACING: 0.0625
Info: NONBONDED TABLE SIZE: 705 POINTS
TCL: Setting parameter alchLambda2 to 0.0
Info: NONBONDED TABLE R-SQUARED SPACING: 0.0625
Info: NONBONDED TABLE SIZE: 705 POINTS
TCL: Running for 1500000 steps
ETITLE: TS BOND ANGLE DIHED IMPRP ELECT VDW BOUNDARY MISC KINETIC TOTAL TEMP POTENTIAL TOTALAVG TEMPAVG PRESSURE GPRESSURE VOLUME PRESSAVG GPRESSAVG
ENERGY: 0 1.5511 5.6849 3.9249 0.0000 -10691.9116 1487.6137 0.0000 0.0000 1725.0602 -7468.0768 290.4768 -9193.1371 -7468.0768 290.4768 765.3246 837.8381 30412.3128 765.3246 837.8381
ENERGY: 300000 1.4490 8.5510 1.9031 0.0000 -10797.8895 1436.6767 0.0000 0.0000 1790.0412 -7559.2685 301.4187 -9349.3097 -7490.3306 299.7356 0.1357 124.3508 30282.7363 -67.3332 9.3478
ENERGY: 600000 3.9320 5.4353 2.6067 0.0000 -10740.1409 1448.9329 0.0000 0.0000 1765.7984 -7513.4355 297.3365 -9279.2339 -7502.3378 300.3216 86.5054 170.3976 30459.5476 -80.6738 -9.3584
ENERGY: 900000 4.0479 6.6102 3.8237 0.0000 -10859.2401 1519.1433 0.0000 0.0000 1771.2749 -7554.3399 298.2587 -9325.6148 -7520.9684 298.1212 260.2946 329.5977 30731.9077 -18.6579 55.9332
ENERGY: 1200000 3.8384 4.9087 1.9354 0.0000 -10573.0784 1376.6402 0.0000 0.0000 1779.1434 -7406.6123 299.5836 -9185.7557 -7516.9184 298.2667 -443.9406 -376.7114 31066.1013 -78.9203 -5.0681
ENERGY: 1500000 2.8017 6.4419 2.8102 0.0000 -10824.6024 1451.3429 0.0000 0.0000 1774.8365 -7586.3690 298.8584 -9361.2056 -7520.8914 298.7469 -181.7840 -104.5276 30681.8993 -177.8032 -106.3962
TCL: Exiting due to exit command.
