Info: SIMULATION PARAMETERS:
Info: TIMESTEP               2
Info: NUMBER OF STEPS        0
Info: STEPS PER CYCLE        10
Info: PERIODIC CELL BASIS 1  31.863 0 0
Info: PERIODIC CELL BASIS 2  0 31.0989 0
Info: PERIODIC CELL BASIS 3  0 0 30.6791
Info: PERIODIC CELL CENTER   0 0 0
Info: WRAPPING WATERS AROUND PERIODIC BOUNDARIES ON OUTPUT.
Info: WRAPPING ALL CLUSTERS AROUND PERIODIC BOUNDARIES ON OUTPUT.
Info: FIRST LDB TIMESTEP     50
Info: LAST LDB TIMESTEP     -1
Info: HOM BACKGROUND SCALING 1
Info: PME BACKGROUND SCALING 1
Info: MIN ATOMS PER PATCH    40
Info: EMPTY PATCH LOAD       40 ATOMS
Info: VELOCITY FILE          mobley_7261305_equil.vel
Info: CENTER OF MASS MOVING INITIALLY? NO
Info: DIELECTRIC             1
Info: EXCLUDE                SCALED ONE-FOUR
Info: 1-4 ELECTROSTATICS SCALED BY 0.833333
Info: MODIFIED 1-4 VDW PARAMETERS WILL BE USED
Info: DCD FILENAME           mobley_7261305_prod.dcd
Info: DCD FREQUENCY          100000
Info: DCD FIRST STEP         100000
Info: DCD FILE WILL CONTAIN UNIT CELL DATA
Info: XST FILENAME           mobley_7261305_prod.xst
Info: XST FREQUENCY          100000
Info: NO VELOCITY DCD OUTPUT
Info: NO FORCE DCD OUTPUT
Info: OUTPUT FILENAME        mobley_7261305_prod
Info: BINARY OUTPUT FILES WILL BE USED
Info: RESTART FILENAME       mobley_7261305_prod.restart
Info: RESTART FREQUENCY      100000
Info: BINARY RESTART FILES WILL BE USED
Info: CUTOFF                 9
Info: PAIRLIST DISTANCE      11
Info: PAIRLIST SHRINK RATE   0.01
Info: PAIRLIST GROW RATE     0.01
Info: PAIRLIST TRIGGER       0.3
Info: PAIRLISTS PER CYCLE    2
Info: PAIRLISTS ENABLED
Info: MARGIN                 2
Info: HYDROGEN GROUP CUTOFF  2.5
Info: PATCH DIMENSION        15.5
Info: ENERGY OUTPUT STEPS    100000
Info: ENERGY EVALUATION STEPS    100000
Info: OUTPUT ENERGY PRECISION 4
Info: CROSSTERM ENERGY INCLUDED IN DIHEDRAL
Info: TIMING OUTPUT STEPS    1000000
Info: PRESSURE OUTPUT STEPS  100000
Info: ALCHEMICAL FEP ON
Info: FEP CURRENT LAMBDA VALUE     1
Info: FEP COMPARISON LAMBDA VALUE  0.95
Info: FEP INTRA-ALCHEMICAL NON-BONDED INTERACTIONS WILL BE RETAINED
Info: FEP INTRA-ALCHEMICAL BONDED INTERACTIONS WILL BE RETAINED
Info: FEP VDW SHIFTING COEFFICIENT 5
Info: FEP ELEC. ACTIVE FOR ANNIHILATED PARTICLES BETWEEN LAMBDA = 0 AND LAMBDA = 0.5
Info: FEP ELEC. ACTIVE FOR EXNIHILATED PARTICLES BETWEEN LAMBDA = 0.5 AND LAMBDA = 1
Info: FEP VDW ACTIVE FOR ANNIHILATED PARTICLES BETWEEN LAMBDA = 0 AND LAMBDA = 1
Info: FEP VDW ACTIVE FOR EXNIHILATED PARTICLES BETWEEN LAMBDA = 0 AND LAMBDA = 1
Info: FEP BOND ACTIVE FOR ANNIHILATED PARTICLES BETWEEN LAMBDA = 1 AND LAMBDA = 1
Info: FEP BOND ACTIVE FOR EXNIHILATED PARTICLES BETWEEN LAMBDA = 0 AND LAMBDA = 0
Info: LANGEVIN DYNAMICS ACTIVE
Info: LANGEVIN TEMPERATURE   300
Info: LANGEVIN USING BBK INTEGRATOR
Info: LANGEVIN DAMPING COEFFICIENT IS 1 INVERSE PS
Info: LANGEVIN DYNAMICS APPLIED TO HYDROGENS
Info: LANGEVIN PISTON PRESSURE CONTROL ACTIVE
Info:        TARGET PRESSURE IS 1.01325 BAR
Info:     OSCILLATION PERIOD IS 50 FS
Info:             DECAY TIME IS 25 FS
Info:     PISTON TEMPERATURE IS 300 K
Info:       PRESSURE CONTROL IS GROUP-BASED
Info:    INITIAL STRAIN RATE IS 0.000672806 0.000672806 0.000672806
Info:       CELL FLUCTUATION IS ISOTROPIC
Info: PARTICLE MESH EWALD (PME) ACTIVE
Info: PME TOLERANCE               1e-06
Info: PME EWALD COEFFICIENT       0.348832
Info: PME INTERPOLATION ORDER     4
Info: PME GRID DIMENSIONS         32 32 32
Info: PME MAXIMUM GRID SPACING    1
Info: PME CALCULATION WILL BE PERFORMED ON GPU
Info: FULL ELECTROSTATIC EVALUATION FREQUENCY      2
Info: USING VERLET I (r-RESPA) MTS SCHEME.
Info: C1 SPLITTING OF LONG RANGE ELECTROSTATICS
Info: PLACING ATOMS IN PATCHES BY HYDROGEN GROUPS
Info: RIGID BONDS TO HYDROGEN : ALL
Info:         ERROR TOLERANCE : 1e-08
Info:          MAX ITERATIONS : 100
Info: RIGID WATER USING SETTLE ALGORITHM
Info: RANDOM NUMBER SEED     1743489103
Info: USE HYDROGEN BONDS?    NO
Info: Using AMBER format force field!
Info: AMBER PARM FILE        mobley_7261305.prmtop
Info: COORDINATE PDB         mobley_7261305.pdb
Info: Exclusions will be read from PARM file!
Info: SCNB (VDW SCALING)     2
Info: USING ARITHMETIC MEAN TO COMBINE L-J SIGMA PARAMETERS
Info: BINARY COORDINATES     mobley_7261305_equil.coor
Info: SUMMARY OF PARAMETERS:
Info: 4 BONDS
Info: 2 ANGLES
Info:   2 HARMONIC
Info:   0 COSINE-BASED
Info: 1 DIHEDRAL
Info: 0 IMPROPER
Info: 0 CROSSTERM
Info: 0 VDW
Info: 10 VDW_PAIRS
Info: 0 NBTHOLE_PAIRS
Info: To read alchdata from file: mobley_7261305.pdb
Info: To read alchflag data from column: 5
Info: STRUCTURE SUMMARY:
Info: 2970 ATOMS
Info: 2969 BONDS
Info: 6 ANGLES
Info: 4 DIHEDRALS
Info: 0 IMPROPERS
Info: 0 CROSSTERMS
Info: 2979 EXCLUSIONS
Info: 2968 RIGID BONDS
Info: ALCH: 0 ATOMS TO DISAPPEAR IN FINAL STATE
Info: ALCH: 6 ATOMS TO APPEAR IN FINAL STATE
Info: 5942 DEGREES OF FREEDOM
Info: 990 HYDROGEN GROUPS
Info: 3 ATOMS IN LARGEST HYDROGEN GROUP
Info: 990 MIGRATION GROUPS
Info: 3 ATOMS IN LARGEST MIGRATION GROUP
Info: TOTAL MASS = 17831.9 amu
Info: TOTAL CHARGE = -0.000200033 e
Info: MASS DENSITY = 0.974048 g/cm^3
Info: ATOM DENSITY = 0.097697 atoms/A^3
Info: ADDED 0 IMPLICIT EXCLUSIONS
Info: NONBONDED TABLE R-SQUARED SPACING: 0.0625
Info: NONBONDED TABLE SIZE: 705 POINTS
Info: REDUCING NUMBER OF PATCHES TO IMPROVE LOAD BALANCE
Info: REMOVING COM VELOCITY 0.112775 0.15316 0.167573
Info: Use 3D box decompostion in PME FFT.
Info: Updated CUDA force table with 4096 elements.
Info: Updated CUDA LJ table with 4 x 4 elements.
Info: Found 9 unique exclusion lists needing 12 bytes
TCL: Running for 1500000 steps
ETITLE: TS BOND ANGLE DIHED IMPRP ELECT VDW BOUNDARY MISC KINETIC TOTAL TEMP POTENTIAL TOTALAVG TEMPAVG PRESSURE GPRESSURE VOLUME PRESSAVG GPRESSAVG
ENERGY: 0 2.5299 1.1394 7.9022 0.0000 -10866.8127 1570.2665 0.0000 0.0000 1767.1224 -7517.8524 299.3122 -9284.9747 -7517.8524 299.3122 891.0230 979.0187 30400.1220 891.0230 979.0187
ENERGY: 300000 0.0200 4.2618 6.4373 0.0000 -10783.5386 1435.0838 0.0000 0.0000 1764.2137 -7573.5219 298.8195 -9337.7356 -7499.8553 300.3422 -421.2226 -323.7433 30776.0800 -367.9817 -266.4593
ENERGY: 600000 1.4310 5.0653 6.2619 0.0000 -10491.3168 1328.8291 0.0000 0.0000 1784.7192 -7365.0103 302.2927 -9149.7295 -7476.0213 300.7304 -702.2381 -621.3649 30821.3521 -358.6904 -274.5995
ENERGY: 900000 0.1385 8.1310 3.6579 0.0000 -10684.7714 1461.2042 0.0000 0.0000 1758.1567 -7453.4831 297.7936 -9211.6398 -7483.2451 300.2922 397.7051 502.7996 30685.2899 -70.7447 10.6448
ENERGY: 1200000 0.4781 3.2393 6.0993 0.0000 -10996.8060 1641.6139 0.0000 0.0000 1741.1966 -7604.1788 294.9209 -9345.3753 -7497.6456 299.4548 1693.6681 1768.0154 29971.5778 109.0439 182.0217
ENERGY: 1500000 0.9756 3.8295 8.3871 0.0000 -10648.9853 1334.9398 0.0000 0.0000 1835.9139 -7464.9394 310.9640 -9300.8533 -7505.4743 300.1865 -991.1281 -968.7094 30997.2091 56.3504 124.2887
TCL: Running FEP window   2: Lambda1 0.95   Lambda2 0.8999999999999999 [dLambda -0.050000000000000044]
TCL: Setting parameter firsttimestep to 0
TCL: Setting parameter alchLambda to 0.95
Info: NONBONDED TABLE R-SQUARED SPACING: 0.0625
Info: NONBONDED TABLE SIZE: 705 POINTS
TCL: Setting parameter alchLambda2 to 0.8999999999999999
Info: NONBONDED TABLE R-SQUARED SPACING: 0.0625
Info: NONBONDED TABLE SIZE: 705 POINTS
TCL: Running for 1500000 steps
ETITLE: TS BOND ANGLE DIHED IMPRP ELECT VDW BOUNDARY MISC KINETIC TOTAL TEMP POTENTIAL TOTALAVG TEMPAVG PRESSURE GPRESSURE VOLUME PRESSAVG GPRESSAVG
ENERGY: 0 0.9756 3.8295 8.3871 0.0000 -10645.8317 1333.5617 0.0000 0.0000 1835.0146 -7464.0632 310.8116 -9299.0778 -7464.0632 310.8116 -1050.5375 -981.5366 30997.2091 -1050.5375 -981.5366
ENERGY: 300000 0.2271 4.4823 9.0157 0.0000 -10840.2558 1465.3884 0.0000 0.0000 1794.2612 -7566.8811 303.9089 -9361.1422 -7520.5704 303.8873 -320.6541 -217.7619 30996.9554 -67.9292 20.8250
ENERGY: 600000 0.0129 2.8533 6.9123 0.0000 -10797.7497 1487.1891 0.0000 0.0000 1800.2867 -7500.4954 304.9295 -9300.7821 -7508.1105 303.5254 456.4387 506.3532 30045.9335 149.9257 224.3563
ENERGY: 900000 0.1512 5.3118 5.4895 0.0000 -10768.7852 1460.4011 0.0000 0.0000 1843.5922 -7453.8394 312.2645 -9297.4316 -7525.5670 302.6706 135.1134 241.3621 30296.6733 -21.8036 40.1378
ENERGY: 1200000 1.1749 4.0918 7.2268 0.0000 -10889.0976 1554.8921 0.0000 0.0000 1743.6245 -7578.0875 295.3321 -9321.7121 -7541.0589 301.5233 909.0763 956.0233 30004.1883 63.9554 126.7833
ENERGY: 1500000 0.7396 2.0278 6.3104 0.0000 -10694.2263 1435.3055 0.0000 0.0000 1725.7573 -7524.0857 292.3058 -9249.8431 -7535.5848 301.2902 -164.1778 -136.9011 31061.1848 -12.0915 51.2998
TCL: Running FEP window   3: Lambda1 0.8999999999999999 Lambda2 0.8499999999999999 [dLambda -0.050000000000000044]
TCL: Setting parameter firsttimestep to 0
TCL: Setting parameter alchLambda to 0.8999999999999999
Info: NONBONDED TABLE R-SQUARED SPACING: 0.0625
Info: NONBONDED TABLE SIZE: 705 POINTS
TCL: Setting parameter alchLambda2 to 0.8499999999999999
Info: NONBONDED TABLE R-SQUARED SPACING: 0.0625
Info: NONBONDED TABLE SIZE: 705 POINTS
TCL: Running for 1500000 steps
ETITLE: TS BOND ANGLE DIHED IMPRP ELECT VDW BOUNDARY MISC KINETIC TOTAL TEMP POTENTIAL TOTALAVG TEMPAVG PRESSURE GPRESSURE VOLUME PRESSAVG GPRESSAVG
ENERGY: 0 0.7396 2.0278 6.3104 0.0000 -10691.4391 1433.7076 0.0000 0.0000 1724.8368 -7523.8170 292.1499 -9248.6538 -7523.8170 292.1499 -232.7054 -151.1368 31061.1848 -232.7054 -151.1368
ENERGY: 300000 0.4996 2.0770 6.8947 0.0000 -10745.1342 1441.3909 0.0000 0.0000 1754.2903 -7539.9817 297.1387 -9294.2720 -7512.0958 297.7729 -186.4319 -151.9135 30753.9976 -291.8996 -243.1957
ENERGY: 600000 1.9137 4.3303 7.0394 0.0000 -10883.8952 1487.0883 0.0000 0.0000 1771.5071 -7612.0165 300.0548 -9383.5236 -7514.7894 299.2705 356.1392 426.3291 29841.8282 -71.5350 -10.8898
ENERGY: 900000 0.0992 3.5063 6.7245 0.0000 -10716.7165 1405.2246 0.0000 0.0000 1777.2533 -7523.9086 301.0281 -9301.1619 -7516.7140 299.1621 -246.4915 -246.4624 30257.9988 -51.5421 -5.6083
ENERGY: 1200000 0.0119 3.1025 6.7433 0.0000 -10896.4946 1554.8298 0.0000 0.0000 1759.6227 -7572.1844 298.0419 -9331.8071 -7533.0408 298.5574 656.1117 693.1353 30676.7342 -22.8054 29.7186
ENERGY: 1500000 0.7900 4.1961 6.8855 0.0000 -10759.8299 1465.1045 0.0000 0.0000 1747.1027 -7535.7512 295.9213 -9282.8538 -7533.5966 297.7001 156.0803 222.4358 30025.7867 -72.5596 -10.9268
TCL: Running FEP window   4: Lambda1 0.8499999999999999 Lambda2 0.7999999999999998 [dLambda -0.050000000000000044]
TCL: Setting parameter firsttimestep to 0
TCL: Setting parameter alchLambda to 0.8499999999999999
Info: NONBONDED TABLE R-SQUARED SPACING: 0.0625
Info: NONBONDED TABLE SIZE: 705 POINTS
TCL: Setting parameter alchLambda2 to 0.7999999999999998
Info: NONBONDED TABLE R-SQUARED SPACING: 0.0625
Info: NONBONDED TABLE SIZE: 705 POINTS
TCL: Running for 1500000 steps
ETITLE: TS BOND ANGLE DIHED IMPRP ELECT VDW BOUNDARY MISC KINETIC TOTAL TEMP POTENTIAL TOTALAVG TEMPAVG PRESSURE GPRESSURE VOLUME PRESSAVG GPRESSAVG
ENERGY: 0 0.7900 4.1961 6.8855 0.0000 -10759.0485 1464.7834 0.0000 0.0000 1746.2330 -7536.1605 295.7740 -9282.3936 -7536.1605 295.7740 123.2143 218.6912 30025.7867 123.2143 218.6912
ENERGY: 300000 0.6725 2.1555 7.4303 0.0000 -10642.9894 1344.7795 0.0000 0.0000 1769.2972 -7518.6543 299.6805 -9287.9515 -7521.2834 298.4474 -1173.4127 -1120.4883 31125.1181 -395.8280 -330.7996
ENERGY: 600000 1.0432 3.5686 6.6981 0.0000 -10751.6444 1381.5067 0.0000 0.0000 1783.3909 -7575.4368 302.0677 -9358.8277 -7531.1585 298.7823 -758.9505 -650.7816 30326.2748 -563.2683 -490.6182
ENERGY: 900000 0.0479 4.8816 6.1368 0.0000 -10802.1649 1496.9776 0.0000 0.0000 1793.1038 -7501.0173 303.7129 -9294.1211 -7525.3786 299.3228 183.4810 295.2363 30723.0144 -314.8722 -241.0164
ENERGY: 1200000 0.0408 3.4688 6.7968 0.0000 -10731.6064 1448.3652 0.0000 0.0000 1778.7132 -7494.2216 301.2754 -9272.9348 -7517.1249 299.4140 36.9611 44.0495 30553.8695 -192.1710 -130.6680
ENERGY: 1500000 0.0078 6.6954 6.9878 0.0000 -10807.2783 1460.6928 0.0000 0.0000 1753.3042 -7579.5902 296.9717 -9332.8944 -7526.3691 298.8855 29.3204 105.3585 30377.1386 -167.3927 -105.4534
TCL: Running FEP window   5: Lambda1 0.7999999999999998 Lambda2 0.7499999999999998 [dLambda -0.050000000000000044]
TCL: Setting parameter firsttimestep to 0
TCL: Setting parameter alchLambda to 0.7999999999999998
Info: NONBONDED TABLE R-SQUARED SPACING: 0.0625
Info: NONBONDED TABLE SIZE: 705 POINTS
TCL: Setting parameter alchLambda2 to 0.7499999999999998
Info: NONBONDED TABLE R-SQUARED SPACING: 0.0625
Info: NONBONDED TABLE SIZE: 705 POINTS
TCL: Running for 1500000 steps
ETITLE: TS BOND ANGLE DIHED IMPRP ELECT VDW BOUNDARY MISC KINETIC TOTAL TEMP POTENTIAL TOTALAVG TEMPAVG PRESSURE GPRESSURE VOLUME PRESSAVG GPRESSAVG
ENERGY: 0 0.0078 6.6954 6.9878 0.0000 -10806.0567 1460.5876 0.0000 0.0000 1752.4355 -7579.3426 296.8245 -9331.7781 -7579.3426 296.8245 39.9213 104.6037 30377.1386 39.9213 104.6037
ENERGY: 300000 0.4178 5.2789 7.0458 0.0000 -10670.6529 1418.7821 0.0000 0.0000 1824.9506 -7414.1777 309.1070 -9239.1282 -7523.9059 300.3830 -321.5859 -222.3880 30906.3715 74.4467 156.3678
ENERGY: 600000 0.0009 2.7476 6.4355 0.0000 -10782.8725 1492.6587 0.0000 0.0000 1748.8558 -7532.1740 296.2182 -9281.0297 -7525.6264 300.0149 308.1899 350.2115 30481.9835 276.3698 347.7315
ENERGY: 900000 0.0160 6.9418 3.8612 0.0000 -10766.9001 1433.0213 0.0000 0.0000 1807.4916 -7515.5681 306.1498 -9323.0597 -7517.0094 300.1506 5.8940 92.3573 30312.8296 117.8305 188.6869
ENERGY: 1200000 0.2539 5.2996 5.5405 0.0000 -10767.6741 1438.1103 0.0000 0.0000 1767.5017 -7550.9682 299.3764 -9318.4699 -7518.6597 299.8842 -9.5876 25.4609 30122.0090 117.3653 180.9706
ENERGY: 1500000 0.5529 2.6172 6.6853 0.0000 -10570.9597 1363.0758 0.0000 0.0000 1791.2201 -7406.8084 303.3938 -9198.0285 -7516.7539 299.7292 -477.6287 -449.3468 30647.1517 139.3043 201.3682
TCL: Running FEP window   6: Lambda1 0.7499999999999998 Lambda2 0.6999999999999997 [dLambda -0.050000000000000044]
TCL: Setting parameter firsttimestep to 0
TCL: Setting parameter alchLambda to 0.7499999999999998
Info: NONBONDED TABLE R-SQUARED SPACING: 0.0625
Info: NONBONDED TABLE SIZE: 705 POINTS
TCL: Setting parameter alchLambda2 to 0.6999999999999997
Info: NONBONDED TABLE R-SQUARED SPACING: 0.0625
Info: NONBONDED TABLE SIZE: 705 POINTS
TCL: Running for 1500000 steps
ETITLE: TS BOND ANGLE DIHED IMPRP ELECT VDW BOUNDARY MISC KINETIC TOTAL TEMP POTENTIAL TOTALAVG TEMPAVG PRESSURE GPRESSURE VOLUME PRESSAVG GPRESSAVG
ENERGY: 0 0.5529 2.6172 6.6853 0.0000 -10568.7360 1361.1857 0.0000 0.0000 1790.3166 -7407.3784 303.2408 -9197.6950 -7407.3784 303.2408 -557.4737 -466.9727 30647.1517 -557.4737 -466.9727
ENERGY: 300000 0.1403 4.6271 5.2965 0.0000 -10882.1500 1544.3514 0.0000 0.0000 1764.1053 -7563.6294 298.8011 -9327.7347 -7472.2312 300.6502 881.1247 938.2103 29849.6141 188.6792 253.4510
ENERGY: 600000 0.0310 4.0877 5.5461 0.0000 -10613.0885 1396.4650 0.0000 0.0000 1765.0166 -7441.9422 298.9555 -9206.9587 -7473.0537 301.1593 -411.3098 -359.9463 30865.5808 19.8138 88.5407
ENERGY: 900000 0.6507 4.1264 6.8642 0.0000 -10746.4508 1419.9119 0.0000 0.0000 1816.3358 -7498.5617 307.6479 -9314.8976 -7490.4047 301.3610 -230.5775 -176.6938 30410.0795 -5.9134 60.1956
ENERGY: 1200000 0.4102 2.3791 7.6222 0.0000 -10790.4268 1491.0891 0.0000 0.0000 1759.6914 -7529.2348 298.0535 -9288.9262 -7505.6167 300.8067 481.4486 577.3599 30333.2071 67.8793 130.4624
ENERGY: 1500000 1.3896 7.3038 5.0037 0.0000 -10653.6873 1401.9407 0.0000 0.0000 1749.1115 -7488.9381 296.2615 -9238.0495 -7508.6375 300.4680 -425.3600 -349.1324 30335.5934 69.5001 133.2898
TCL: Running FEP window   7: Lambda1 0.6999999999999997 Lambda2 0.6499999999999997 [dLambda -0.050000000000000044]
TCL: Setting parameter firsttimestep to 0
TCL: Setting parameter alchLambda to 0.6999999999999997
Info: NONBONDED TABLE R-SQUARED SPACING: 0.0625
Info: NONBONDED TABLE SIZE: 705 POINTS
TCL: Setting parameter alchLambda2 to 0.6499999999999997
Info: NONBONDED TABLE R-SQUARED SPACING: 0.0625
Info: NONBONDED TABLE SIZE: 705 POINTS
TCL: Running for 1500000 steps
ETITLE: TS BOND ANGLE DIHED IMPRP ELECT VDW BOUNDARY MISC KINETIC TOTAL TEMP POTENTIAL TOTALAVG TEMPAVG PRESSURE GPRESSURE VOLUME PRESSAVG GPRESSAVG
ENERGY: 0 1.3896 7.3038 5.0037 0.0000 -10652.1265 1401.4514 0.0000 0.0000 1748.2615 -7488.7166 296.1175 -9236.9781 -7488.7166 296.1175 -435.5237 -351.2383 30335.5934 -435.5237 -351.2383
ENERGY: 300000 0.4276 5.1310 4.8107 0.0000 -10811.1688 1484.7101 0.0000 0.0000 1808.2623 -7507.8270 306.2804 -9316.0894 -7500.1302 301.7553 302.3587 348.3025 30594.5109 -235.5023 -130.8506
ENERGY: 600000 0.5685 6.8596 5.8915 0.0000 -10847.5916 1555.4427 0.0000 0.0000 1809.7749 -7469.0545 306.5366 -9278.8294 -7494.9247 302.6507 713.9157 812.1633 30637.6349 -135.3406 -47.7086
ENERGY: 900000 0.1348 5.3832 4.9353 0.0000 -10846.8714 1520.6923 0.0000 0.0000 1720.3304 -7595.3954 291.3866 -9315.7258 -7500.4878 301.9768 317.5465 310.0622 30748.1004 -32.3117 41.9627
ENERGY: 1200000 0.1809 5.5724 6.5463 0.0000 -10708.7082 1448.2583 0.0000 0.0000 1763.4492 -7484.7010 298.6900 -9248.1502 -7510.2393 301.5537 53.4487 149.2136 30537.3212 67.6803 128.1422
ENERGY: 1500000 0.0447 3.4971 5.9348 0.0000 -10804.3884 1457.8741 0.0000 0.0000 1768.8551 -7568.1825 299.6056 -9337.0376 -7512.4655 301.6956 -176.8801 -36.9180 30535.9656 -8.0534 60.3656
TCL: Running FEP window   8: Lambda1 0.6499999999999997 Lambda2 0.5999999999999996 [dLambda -0.050000000000000044]
TCL: Setting parameter firsttimestep to 0
TCL: Setting parameter alchLambda to 0.6499999999999997
Info: NONBONDED TABLE R-SQUARED SPACING: 0.0625
Info: NONBONDED TABLE SIZE: 705 POINTS
TCL: Setting parameter alchLambda2 to 0.5999999999999996
Info: NONBONDED TABLE R-SQUARED SPACING: 0.0625
Info: NONBONDED TABLE SIZE: 705 POINTS
TCL: Running for 1500000 steps
ETITLE: TS BOND ANGLE DIHED IMPRP ELECT VDW BOUNDARY MISC KINETIC TOTAL TEMP POTENTIAL TOTALAVG TEMPAVG PRESSURE GPRESSURE VOLUME PRESSAVG GPRESSAVG
ENERGY: 0 0.0447 3.4971 5.9348 0.0000 -10803.9805 1458.1112 0.0000 0.0000 1767.9776 -7568.4151 299.4570 -9336.3927 -7568.4151 299.4570 -108.3398 -36.8499 30535.9656 -108.3398 -36.8499
ENERGY: 300000 0.0037 3.1639 6.2995 0.0000 -10682.6825 1348.7657 0.0000 0.0000 1795.0712 -7529.3784 304.0461 -9324.4496 -7547.6374 300.3778 -919.2966 -854.3124 30485.7737 -267.0273 -216.3000
ENERGY: 600000 0.0026 3.9724 7.4133 0.0000 -10750.8063 1428.7620 0.0000 0.0000 1764.6785 -7545.9775 298.8982 -9310.6560 -7535.2776 300.2785 -74.7985 16.1653 30274.5405 -272.2770 -210.0797
ENERGY: 900000 0.0040 2.4726 8.5903 0.0000 -10777.0646 1467.4697 0.0000 0.0000 1760.9597 -7537.5684 298.2683 -9298.5281 -7528.5846 301.9080 23.7377 58.3603 30514.4943 -260.1737 -204.3336
ENERGY: 1200000 0.0868 2.7023 8.2076 0.0000 -10643.5017 1395.5597 0.0000 0.0000 1733.3987 -7503.5467 293.6001 -9236.9454 -7524.3028 300.8368 -228.5801 -173.1529 30372.1765 -332.6804 -274.9186
ENERGY: 1500000 0.0843 2.9281 8.2402 0.0000 -10621.0494 1328.5255 0.0000 0.0000 1813.7592 -7467.5122 307.2114 -9281.2714 -7522.3331 301.2635 -813.3363 -789.6556 30381.0758 -360.7150 -304.3621
TCL: Running FEP window   9: Lambda1 0.5999999999999996 Lambda2 0.5499999999999996 [dLambda -0.050000000000000044]
TCL: Setting parameter firsttimestep to 0
TCL: Setting parameter alchLambda to 0.5999999999999996
Info: NONBONDED TABLE R-SQUARED SPACING: 0.0625
Info: NONBONDED TABLE SIZE: 705 POINTS
TCL: Setting parameter alchLambda2 to 0.5499999999999996
Info: NONBONDED TABLE R-SQUARED SPACING: 0.0625
Info: NONBONDED TABLE SIZE: 705 POINTS
TCL: Running for 1500000 steps
ETITLE: TS BOND ANGLE DIHED IMPRP ELECT VDW BOUNDARY MISC KINETIC TOTAL TEMP POTENTIAL TOTALAVG TEMPAVG PRESSURE GPRESSURE VOLUME PRESSAVG GPRESSAVG
ENERGY: 0 0.0843 2.9281 8.2402 0.0000 -10620.7474 1328.5634 0.0000 0.0000 1812.9140 -7468.0175 307.0683 -9280.9315 -7468.0175 307.0683 -869.2944 -788.9144 30381.0758 -869.2944 -788.9144
ENERGY: 300000 0.7906 2.8808 6.1939 0.0000 -10855.7981 1475.0779 0.0000 0.0000 1751.8005 -7619.0544 296.7170 -9370.8549 -7522.2326 300.4306 -40.3279 -18.3240 30457.9575 -546.6527 -468.5163
ENERGY: 600000 0.0678 6.3696 4.8212 0.0000 -10745.2033 1434.3935 0.0000 0.0000 1727.0493 -7572.5019 292.5247 -9299.5512 -7528.2012 299.1288 -299.0164 -191.9103 30693.8604 -273.8457 -196.3108
ENERGY: 900000 3.6851 1.0687 7.3702 0.0000 -10739.3153 1432.8616 0.0000 0.0000 1802.7951 -7491.5347 305.3543 -9294.3298 -7515.6789 300.4542 -566.9651 -514.4765 31077.1451 -282.8730 -214.9603
ENERGY: 1200000 0.3849 7.1534 5.1454 0.0000 -10836.1652 1507.7943 0.0000 0.0000 1872.7445 -7442.9427 317.2023 -9315.6873 -7507.9586 301.5440 838.2536 879.9536 29877.6829 -159.7277 -94.4931
ENERGY: 1500000 1.9200 4.7155 6.1036 0.0000 -10561.5970 1282.0633 0.0000 0.0000 1786.0280 -7480.7666 302.5144 -9266.7946 -7506.7595 301.3001 -1579.0179 -1553.2156 31088.2203 -224.5674 -164.7955
TCL: Running FEP window  10: Lambda1 0.5499999999999996 Lambda2 0.4999999999999996 [dLambda -0.04999999999999999]
TCL: Setting parameter firsttimestep to 0
TCL: Setting parameter alchLambda to 0.5499999999999996
Info: NONBONDED TABLE R-SQUARED SPACING: 0.0625
Info: NONBONDED TABLE SIZE: 705 POINTS
TCL: Setting parameter alchLambda2 to 0.4999999999999996
Info: NONBONDED TABLE R-SQUARED SPACING: 0.0625
Info: NONBONDED TABLE SIZE: 705 POINTS
TCL: Running for 1500000 steps
ETITLE: TS BOND ANGLE DIHED IMPRP ELECT VDW BOUNDARY MISC KINETIC TOTAL TEMP POTENTIAL TOTALAVG TEMPAVG PRESSURE GPRESSURE VOLUME PRESSAVG GPRESSAVG
ENERGY: 0 1.9200 4.7155 6.1036 0.0000 -10561.0809 1281.8124 0.0000 0.0000 1785.1951 -7481.3342 302.3733 -9266.5293 -7481.3342 302.3733 -1638.1065 -1559.3945 31088.2203 -1638.1065 -1559.3945
ENERGY: 300000 0.3676 6.0956 5.4335 0.0000 -10861.9206 1553.3384 0.0000 0.0000 1742.1823 -7554.5032 295.0879 -9296.6855 -7524.9927 299.1316 1084.8601 1107.9995 29720.7043 -203.3296 -135.2233
ENERGY: 600000 1.6591 7.6789 3.8904 0.0000 -10531.0172 1349.1445 0.0000 0.0000 1783.2543 -7385.3901 302.0446 -9168.6444 -7514.9752 298.3263 -750.8679 -685.7296 31004.8712 -299.5034 -231.7994
ENERGY: 900000 0.0402 2.4077 8.4368 0.0000 -10838.4365 1521.1970 0.0000 0.0000 1743.0292 -7563.3257 295.2313 -9306.3548 -7509.5962 298.1400 786.9115 822.5343 29982.1278 -143.6095 -76.2243
ENERGY: 1200000 0.5843 3.4202 6.5849 0.0000 -10891.1872 1540.1056 0.0000 0.0000 1784.6080 -7555.8842 302.2738 -9340.4922 -7513.1290 298.6434 508.8282 597.1695 30308.2644 -124.9987 -55.0765
ENERGY: 1500000 0.0901 6.2962 4.9644 0.0000 -10862.4675 1511.5211 0.0000 0.0000 1802.9902 -7536.6056 305.3874 -9339.5958 -7510.9286 299.0001 406.6375 492.8191 30245.6400 -135.5330 -65.0765
TCL: Running FEP window  11: Lambda1 0.4999999999999996 Lambda2 0.4499999999999996 [dLambda -0.04999999999999999]
TCL: Setting parameter firsttimestep to 0
TCL: Setting parameter alchLambda to 0.4999999999999996
Info: NONBONDED TABLE R-SQUARED SPACING: 0.0625
Info: NONBONDED TABLE SIZE: 705 POINTS
TCL: Setting parameter alchLambda2 to 0.4499999999999996
Info: NONBONDED TABLE R-SQUARED SPACING: 0.0625
Info: NONBONDED TABLE SIZE: 705 POINTS
TCL: Running for 1500000 steps
ETITLE: TS BOND ANGLE DIHED IMPRP ELECT VDW BOUNDARY MISC KINETIC TOTAL TEMP POTENTIAL TOTALAVG TEMPAVG PRESSURE GPRESSURE VOLUME PRESSAVG GPRESSAVG
ENERGY: 0 0.0901 6.2962 4.9644 0.0000 -10861.8152 1511.6891 0.0000 0.0000 1802.0699 -7536.7056 305.2315 -9338.7754 -7536.7056 305.2315 406.4925 492.8001 30245.6400 406.4925 492.8001
ENERGY: 300000 0.0466 7.6994 4.9472 0.0000 -10663.9962 1413.6254 0.0000 0.0000 1751.8378 -7485.8398 296.7233 -9237.6776 -7516.6147 301.4543 -298.1169 -258.9785 30853.9665 214.6689 287.1514
ENERGY: 600000 0.1025 2.4761 6.0978 0.0000 -10741.8154 1424.1869 0.0000 0.0000 1818.0923 -7490.8597 307.9454 -9308.9520 -7514.7729 302.3389 -90.4164 -83.6893 30334.3407 183.0069 237.7965
ENERGY: 900000 0.1364 12.6890 0.6464 0.0000 -10648.0413 1411.4896 0.0000 0.0000 1764.5094 -7458.5705 298.8696 -9223.0800 -7521.7436 301.6268 10.1377 43.3337 30482.7239 155.9527 216.1255
ENERGY: 1200000 0.0787 4.4595 6.9814 0.0000 -10787.0798 1417.3346 0.0000 0.0000 1713.2453 -7644.9804 290.1865 -9358.2256 -7538.8828 299.7649 -646.8299 -542.2013 30643.1478 2.9749 69.2833
ENERGY: 1500000 0.9489 7.1677 6.7236 0.0000 -10761.5344 1445.3722 0.0000 0.0000 1758.6895 -7542.6324 297.8838 -9301.3220 -7527.7378 299.6125 -161.9372 -123.0963 30600.8570 -99.1063 -37.3760
TCL: Running FEP window  12: Lambda1 0.4499999999999996 Lambda2 0.39999999999999963 [dLambda -0.04999999999999999]
TCL: Setting parameter firsttimestep to 0
TCL: Setting parameter alchLambda to 0.4499999999999996
Info: NONBONDED TABLE R-SQUARED SPACING: 0.0625
Info: NONBONDED TABLE SIZE: 705 POINTS
TCL: Setting parameter alchLambda2 to 0.39999999999999963
Info: NONBONDED TABLE R-SQUARED SPACING: 0.0625
Info: NONBONDED TABLE SIZE: 705 POINTS
TCL: Running for 1500000 steps
ETITLE: TS BOND ANGLE DIHED IMPRP ELECT VDW BOUNDARY MISC KINETIC TOTAL TEMP POTENTIAL TOTALAVG TEMPAVG PRESSURE GPRESSURE VOLUME PRESSAVG GPRESSAVG
ENERGY: 0 0.9489 7.1677 6.7236 0.0000 -10761.5342 1444.6884 0.0000 0.0000 1757.8378 -7544.1678 297.7396 -9302.0056 -7544.1678 297.7396 -218.6784 -132.8851 30600.8570 -218.6784 -132.8851
ENERGY: 300000 0.3290 5.6133 4.6912 0.0000 -10663.9272 1421.6332 0.0000 0.0000 1692.3919 -7539.2687 286.6544 -9231.6605 -7528.5899 295.9688 -368.9865 -316.8520 30899.7314 -232.8544 -163.6817
ENERGY: 600000 4.3113 1.8156 8.2084 0.0000 -10646.0490 1366.4869 0.0000 0.0000 1788.4572 -7476.7696 302.9258 -9265.2268 -7512.7259 297.0689 -571.9477 -543.4633 30294.4673 -339.8002 -280.3208
ENERGY: 900000 0.2897 9.9667 3.7622 0.0000 -10737.6997 1451.5815 0.0000 0.0000 1768.5854 -7503.5141 299.5600 -9272.0995 -7522.4868 297.9807 -248.3995 -162.0868 30996.9457 -313.0038 -260.6226
ENERGY: 1200000 0.0812 1.8775 8.0075 0.0000 -10789.8016 1493.0769 0.0000 0.0000 1760.2853 -7526.4732 298.1541 -9286.7585 -7516.6449 297.7996 198.2777 313.4401 30756.1070 -252.1904 -192.5854
ENERGY: 1500000 0.0359 3.5849 10.2441 0.0000 -10651.6647 1327.7098 0.0000 0.0000 1759.2229 -7550.8672 297.9742 -9310.0901 -7517.5296 297.6139 -1123.4126 -1083.6137 30620.9031 -269.2492 -212.2004
TCL: Running FEP window  13: Lambda1 0.39999999999999963 Lambda2 0.34999999999999964 [dLambda -0.04999999999999999]
TCL: Setting parameter firsttimestep to 0
TCL: Setting parameter alchLambda to 0.39999999999999963
Info: NONBONDED TABLE R-SQUARED SPACING: 0.0625
Info: NONBONDED TABLE SIZE: 705 POINTS
TCL: Setting parameter alchLambda2 to 0.34999999999999964
Info: NONBONDED TABLE R-SQUARED SPACING: 0.0625
Info: NONBONDED TABLE SIZE: 705 POINTS
TCL: Running for 1500000 steps
ETITLE: TS BOND ANGLE DIHED IMPRP ELECT VDW BOUNDARY MISC KINETIC TOTAL TEMP POTENTIAL TOTALAVG TEMPAVG PRESSURE GPRESSURE VOLUME PRESSAVG GPRESSAVG
ENERGY: 0 0.0359 3.5849 10.2441 0.0000 -10651.6647 1327.7874 0.0000 0.0000 1758.3816 -7551.6309 297.8317 -9310.0125 -7551.6309 297.8317 -1175.9985 -1082.5017 30620.9031 -1175.9985 -1082.5017
ENERGY: 300000 0.0645 3.2085 5.5376 0.0000 -10797.7946 1492.3907 0.0000 0.0000 1776.6962 -7519.8971 300.9338 -9296.5933 -7514.4804 302.2674 45.8171 110.3724 30806.0600 -167.3949 -80.3495
ENERGY: 600000 0.2738 2.8725 5.9467 0.0000 -10673.9940 1422.3572 0.0000 0.0000 1768.7158 -7473.8280 299.5821 -9242.5438 -7493.6646 300.3977 -59.8560 -16.8997 30438.8566 -231.4615 -159.9162
ENERGY: 900000 0.2615 6.5115 4.1285 0.0000 -10887.5258 1570.0741 0.0000 0.0000 1730.8624 -7575.6877 293.1705 -9306.5501 -7508.2408 300.8982 619.8657 795.9059 30587.4986 -105.3562 -29.2805
ENERGY: 1200000 1.3554 1.6871 6.9868 0.0000 -10621.7358 1355.0887 0.0000 0.0000 1755.1021 -7501.5158 297.2762 -9256.6179 -7509.8213 300.8264 -904.8642 -914.5620 31125.8698 -151.6363 -87.2630
ENERGY: 1500000 0.3154 1.2806 7.3610 0.0000 -10669.3532 1405.3973 0.0000 0.0000 1805.6640 -7449.3349 305.8403 -9254.9989 -7511.6609 300.8080 -343.1555 -294.6729 30869.3373 -81.4905 -20.2505
TCL: Running FEP window  14: Lambda1 0.34999999999999964 Lambda2 0.29999999999999966 [dLambda -0.04999999999999999]
TCL: Setting parameter firsttimestep to 0
TCL: Setting parameter alchLambda to 0.34999999999999964
Info: NONBONDED TABLE R-SQUARED SPACING: 0.0625
Info: NONBONDED TABLE SIZE: 705 POINTS
TCL: Setting parameter alchLambda2 to 0.29999999999999966
Info: NONBONDED TABLE R-SQUARED SPACING: 0.0625
Info: NONBONDED TABLE SIZE: 705 POINTS
TCL: Running for 1500000 steps
ETITLE: TS BOND ANGLE DIHED IMPRP ELECT VDW BOUNDARY MISC KINETIC TOTAL TEMP POTENTIAL TOTALAVG TEMPAVG PRESSURE GPRESSURE VOLUME PRESSAVG GPRESSAVG
ENERGY: 0 0.3154 1.2806 7.3610 0.0000 -10669.3528 1405.3908 0.0000 0.0000 1804.7602 -7450.2448 305.6872 -9255.0050 -7450.2448 305.6872 -365.6641 -297.8916 30869.3373 -365.6641 -297.8916
ENERGY: 300000 0.1171 3.6456 6.0987 0.0000 -10826.1670 1440.8888 0.0000 0.0000 1750.6412 -7624.7754 296.5206 -9375.4166 -7551.1607 299.2025 -442.7490 -371.3092 30611.2702 -570.9106 -522.5092
ENERGY: 600000 0.3797 4.9360 6.6382 0.0000 -10763.4089 1438.0565 0.0000 0.0000 1789.0218 -7524.3766 303.0215 -9313.3985 -7539.8756 298.9236 -293.2636 -256.4779 30706.4571 -391.9458 -339.5946
ENERGY: 900000 0.0042 1.4973 6.4031 0.0000 -10808.6666 1484.5723 0.0000 0.0000 1815.4474 -7500.7423 307.4974 -9316.1897 -7514.9768 301.7745 231.8860 282.0896 30518.4372 -225.5143 -169.9508
ENERGY: 1200000 0.9603 3.0092 6.8936 0.0000 -10839.6295 1497.9414 0.0000 0.0000 1789.8746 -7540.9503 303.1659 -9330.8249 -7506.3607 302.7858 240.4823 319.2598 30452.5879 -169.4537 -102.7327
ENERGY: 1500000 0.0359 4.7616 6.7761 0.0000 -10771.0346 1438.7512 0.0000 0.0000 1758.6152 -7562.0946 297.8712 -9320.7098 -7508.7461 302.3373 -147.3616 -78.1298 30282.5871 -193.0097 -127.1819
TCL: Running FEP window  15: Lambda1 0.29999999999999966 Lambda2 0.24999999999999967 [dLambda -0.04999999999999999]
TCL: Setting parameter firsttimestep to 0
TCL: Setting parameter alchLambda to 0.29999999999999966
Info: NONBONDED TABLE R-SQUARED SPACING: 0.0625
Info: NONBONDED TABLE SIZE: 705 POINTS
TCL: Setting parameter alchLambda2 to 0.24999999999999967
Info: NONBONDED TABLE R-SQUARED SPACING: 0.0625
Info: NONBONDED TABLE SIZE: 705 POINTS
TCL: Running for 1500000 steps
ETITLE: TS BOND ANGLE DIHED IMPRP ELECT VDW BOUNDARY MISC KINETIC TOTAL TEMP POTENTIAL TOTALAVG TEMPAVG PRESSURE GPRESSURE VOLUME PRESSAVG GPRESSAVG
ENERGY: 0 0.0359 4.7616 6.7761 0.0000 -10771.0358 1438.6289 0.0000 0.0000 1757.7375 -7563.0958 297.7226 -9320.8333 -7563.0958 297.7226 -161.6840 -81.0301 30282.5871 -161.6840 -81.0301
ENERGY: 300000 0.1155 5.1459 7.4275 0.0000 -10651.9032 1437.8481 0.0000 0.0000 1752.6032 -7448.7630 296.8529 -9201.3662 -7507.5586 296.7733 126.6397 202.5871 30540.4729 -189.1633 -125.6023
ENERGY: 600000 0.2710 8.1684 4.6579 0.0000 -10769.3718 1471.4762 0.0000 0.0000 1789.7679 -7495.0304 303.1478 -9284.7983 -7506.8590 297.2680 138.9791 213.0304 30536.1186 -151.1335 -81.8434
ENERGY: 900000 0.0754 3.6665 6.5064 0.0000 -10655.2704 1405.9161 0.0000 0.0000 1793.6817 -7445.4241 303.8107 -9239.1058 -7501.9027 298.6784 -353.4137 -256.4979 30754.8147 -14.9619 60.7336
ENERGY: 1200000 1.4795 5.3352 5.5250 0.0000 -10798.5597 1469.6956 0.0000 0.0000 1791.5414 -7524.9830 303.4482 -9316.5244 -7513.7632 299.4946 277.7951 371.0827 30044.5186 50.6708 130.6741
ENERGY: 1500000 0.8271 7.4272 3.5445 0.0000 -10728.3961 1395.6795 0.0000 0.0000 1776.6644 -7544.2534 300.9284 -9320.9178 -7514.2024 300.0551 -503.1935 -477.8701 30659.3524 -28.1647 47.3661
TCL: Running FEP window  16: Lambda1 0.24999999999999967 Lambda2 0.19999999999999968 [dLambda -0.04999999999999999]
TCL: Setting parameter firsttimestep to 0
TCL: Setting parameter alchLambda to 0.24999999999999967
Info: NONBONDED TABLE R-SQUARED SPACING: 0.0625
Info: NONBONDED TABLE SIZE: 705 POINTS
TCL: Setting parameter alchLambda2 to 0.19999999999999968
Info: NONBONDED TABLE R-SQUARED SPACING: 0.0625
Info: NONBONDED TABLE SIZE: 705 POINTS
TCL: Running for 1500000 steps
ETITLE: TS BOND ANGLE DIHED IMPRP ELECT VDW BOUNDARY MISC KINETIC TOTAL TEMP POTENTIAL TOTALAVG TEMPAVG PRESSURE GPRESSURE VOLUME PRESSAVG GPRESSAVG
ENERGY: 0 0.8271 7.4272 3.5445 0.0000 -10728.3971 1395.2037 0.0000 0.0000 1775.7623 -7545.6323 300.7756 -9321.3946 -7545.6323 300.7756 -555.9671 -480.1501 30659.3524 -555.9671 -480.1501
ENERGY: 300000 0.1144 4.3015 4.7167 0.0000 -10750.1899 1415.6706 0.0000 0.0000 1827.7478 -7497.6389 309.5808 -9325.3867 -7508.8068 303.7962 -390.0630 -310.7698 30504.6151 -201.4893 -147.4462
ENERGY: 600000 0.2308 2.7295 5.7624 0.0000 -10679.1582 1408.6874 0.0000 0.0000 1836.3697 -7425.3784 311.0411 -9261.7481 -7511.0280 301.8627 -413.7115 -349.2600 30676.3690 -361.3305 -306.1067
ENERGY: 900000 0.1504 3.6616 5.8417 0.0000 -10639.4581 1366.6999 0.0000 0.0000 1746.0311 -7517.0734 295.7397 -9263.1045 -7517.6590 300.2193 -826.3435 -748.5216 30973.9170 -268.0491 -214.1001
ENERGY: 1200000 0.3711 7.3709 3.8448 0.0000 -10746.1213 1442.6422 0.0000 0.0000 1801.6490 -7490.2433 305.1602 -9291.8923 -7510.3014 300.7659 -260.4333 -127.1675 30700.4433 -259.5114 -195.6440
ENERGY: 1500000 0.9292 5.0489 4.7675 0.0000 -10749.2967 1484.8591 0.0000 0.0000 1746.6773 -7507.0147 295.8492 -9253.6920 -7493.5866 300.8306 115.6211 165.5034 30721.5054 -214.3903 -154.6442
TCL: Running FEP window  17: Lambda1 0.19999999999999968 Lambda2 0.1499999999999997 [dLambda -0.04999999999999999]
TCL: Setting parameter firsttimestep to 0
TCL: Setting parameter alchLambda to 0.19999999999999968
Info: NONBONDED TABLE R-SQUARED SPACING: 0.0625
Info: NONBONDED TABLE SIZE: 705 POINTS
TCL: Setting parameter alchLambda2 to 0.1499999999999997
Info: NONBONDED TABLE R-SQUARED SPACING: 0.0625
Info: NONBONDED TABLE SIZE: 705 POINTS
TCL: Running for 1500000 steps
ETITLE: TS BOND ANGLE DIHED IMPRP ELECT VDW BOUNDARY MISC KINETIC TOTAL TEMP POTENTIAL TOTALAVG TEMPAVG PRESSURE GPRESSURE VOLUME PRESSAVG GPRESSAVG
ENERGY: 0 0.9292 5.0489 4.7675 0.0000 -10749.2968 1484.9937 0.0000 0.0000 1745.8168 -7507.7407 295.7035 -9253.5576 -7507.7407 295.7035 90.7060 161.7535 30721.5054 90.7060 161.7535
ENERGY: 300000 1.5870 5.1035 4.6015 0.0000 -10839.0500 1567.8827 0.0000 0.0000 1776.1527 -7483.7226 300.8417 -9259.8753 -7502.4129 300.2269 845.6773 920.5905 30464.1039 314.1359 396.1870
ENERGY: 600000 0.5877 6.7260 4.4494 0.0000 -10645.8386 1459.9594 0.0000 0.0000 1750.2105 -7423.9057 296.4477 -9174.1162 -7500.8217 299.5074 368.1585 436.8815 30744.1397 243.9611 318.0116
ENERGY: 900000 1.3589 3.3217 6.1349 0.0000 -10695.8442 1382.7957 0.0000 0.0000 1739.9952 -7562.2378 294.7174 -9302.2330 -7498.8128 299.2533 -639.6082 -607.4337 30439.0645 9.0738 73.7054
ENERGY: 1200000 1.0619 6.8911 4.5290 0.0000 -10682.4733 1367.5513 0.0000 0.0000 1781.0505 -7521.3895 301.6713 -9302.4400 -7505.1551 299.2954 -756.6845 -706.8035 30461.5671 -20.7720 47.8935
ENERGY: 1500000 0.2810 1.6890 6.6985 0.0000 -10617.7202 1361.3141 0.0000 0.0000 1743.4272 -7504.3104 295.2987 -9247.7375 -7508.0591 299.7222 -801.2672 -707.5988 30896.9616 -60.4313 3.4990
TCL: Running FEP window  18: Lambda1 0.1499999999999997 Lambda2 0.09999999999999969 [dLambda -0.05 ]
TCL: Setting parameter firsttimestep to 0
TCL: Setting parameter alchLambda to 0.1499999999999997
Info: NONBONDED TABLE R-SQUARED SPACING: 0.0625
Info: NONBONDED TABLE SIZE: 705 POINTS
TCL: Setting parameter alchLambda2 to 0.09999999999999969
Info: NONBONDED TABLE R-SQUARED SPACING: 0.0625
Info: NONBONDED TABLE SIZE: 705 POINTS
TCL: Running for 1500000 steps
ETITLE: TS BOND ANGLE DIHED IMPRP ELECT VDW BOUNDARY MISC KINETIC TOTAL TEMP POTENTIAL TOTALAVG TEMPAVG PRESSURE GPRESSURE VOLUME PRESSAVG GPRESSAVG
ENERGY: 0 0.2810 1.6890 6.6985 0.0000 -10617.7215 1361.4306 0.0000 0.0000 1742.5604 -7505.0619 295.1519 -9247.6223 -7505.0619 295.1519 -793.3066 -709.0283 30896.9616 -793.3066 -709.0283
ENERGY: 300000 4.5573 8.7857 5.4836 0.0000 -10653.3334 1387.4432 0.0000 0.0000 1797.0580 -7450.0057 304.3826 -9247.0637 -7517.9155 299.9108 -461.5549 -399.3885 30476.0338 -171.5356 -133.2993
ENERGY: 600000 0.0091 4.0627 7.0292 0.0000 -10673.0966 1389.6661 0.0000 0.0000 1745.8234 -7526.5061 295.7046 -9272.3295 -7522.6853 299.0263 -567.2644 -534.3161 30829.1752 -293.1178 -236.1824
ENERGY: 900000 0.0896 4.5812 5.6006 0.0000 -10865.6144 1482.9841 0.0000 0.0000 1787.7301 -7584.6287 302.8027 -9372.3589 -7529.0574 299.3066 167.9270 216.5412 30092.3345 -199.3840 -140.1681
ENERGY: 1200000 2.2339 6.3953 5.0085 0.0000 -10795.5211 1448.3037 0.0000 0.0000 1797.7418 -7535.8379 304.4984 -9333.5796 -7526.8203 299.8678 -155.5575 -78.2462 30469.2761 -133.6275 -71.0601
ENERGY: 1500000 0.3400 2.1413 8.2767 0.0000 -10623.2697 1391.9353 0.0000 0.0000 1816.0268 -7404.5496 307.5955 -9220.5764 -7521.0218 300.6912 -210.6754 -141.6223 30507.3665 -148.1055 -91.9131
TCL: Running FEP window  19: Lambda1 0.09999999999999969 Lambda2 0.049999999999999684 [dLambda -0.05 ]
TCL: Setting parameter firsttimestep to 0
TCL: Setting parameter alchLambda to 0.09999999999999969
Info: NONBONDED TABLE R-SQUARED SPACING: 0.0625
Info: NONBONDED TABLE SIZE: 705 POINTS
TCL: Setting parameter alchLambda2 to 0.049999999999999684
Info: NONBONDED TABLE R-SQUARED SPACING: 0.0625
Info: NONBONDED TABLE SIZE: 705 POINTS
TCL: Running for 1500000 steps
ETITLE: TS BOND ANGLE DIHED IMPRP ELECT VDW BOUNDARY MISC KINETIC TOTAL TEMP POTENTIAL TOTALAVG TEMPAVG PRESSURE GPRESSURE VOLUME PRESSAVG GPRESSAVG
ENERGY: 0 0.3400 2.1413 8.2767 0.0000 -10623.2709 1391.8984 0.0000 0.0000 1815.1661 -7405.4484 307.4497 -9220.6145 -7405.4484 307.4497 -219.3481 -142.2536 30507.3665 -219.3481 -142.2536
ENERGY: 300000 0.9004 6.9840 5.4302 0.0000 -10733.2092 1442.8932 0.0000 0.0000 1782.5723 -7494.4291 301.9290 -9277.0014 -7510.1042 300.9941 160.5400 191.9360 30027.0513 -256.2827 -190.7272
ENERGY: 600000 0.3101 4.3800 6.6867 0.0000 -10738.0168 1385.6997 0.0000 0.0000 1741.4937 -7599.4466 294.9712 -9340.9403 -7524.8429 300.1965 -772.5652 -641.1560 30467.1957 -459.7466 -373.7813
ENERGY: 900000 0.0005 2.2499 9.1733 0.0000 -10879.2082 1505.4195 0.0000 0.0000 1794.8108 -7567.5542 304.0020 -9362.3650 -7527.5483 299.8549 377.5263 496.7265 29987.0410 -271.2960 -194.8954
ENERGY: 1200000 0.0432 4.8573 4.5825 0.0000 -10725.1204 1471.8860 0.0000 0.0000 1800.4563 -7443.2951 304.9582 -9243.7514 -7517.8089 300.5726 580.8755 652.1569 30067.6079 -161.1013 -85.5389
ENERGY: 1500000 0.2813 3.5014 5.5573 0.0000 -10904.8932 1523.0268 0.0000 0.0000 1758.5663 -7613.9601 297.8629 -9372.5264 -7525.6043 300.1142 152.1877 235.9013 30488.0287 -149.0437 -69.6927
TCL: Running FEP window  20: Lambda1 0.049999999999999684 Lambda2 0.0    [dLambda -0.049999999999999684]
TCL: Setting parameter firsttimestep to 0
TCL: Setting parameter alchLambda to 0.049999999999999684
Info: NONBONDED TABLE R-SQUARED SPACING: 0.0625
Info: NONBONDED TABLE SIZE: 705 POINTS
TCL: Setting parameter alchLambda2 to 0.0
Info: NONBONDED TABLE R-SQUARED SPACING: 0.0625
Info: NONBONDED TABLE SIZE: 705 POINTS
TCL: Running for 1500000 steps
ETITLE: TS BOND ANGLE DIHED IMPRP ELECT VDW BOUNDARY MISC KINETIC TOTAL TEMP POTENTIAL TOTALAVG TEMPAVG PRESSURE GPRESSURE VOLUME PRESSAVG GPRESSAVG
ENERGY: 0 0.2813 3.5014 5.5573 0.0000 -10904.8932 1523.1355 0.0000 0.0000 1757.6814 -7614.7363 297.7131 -9372.4177 -7614.7363 297.7131 149.0920 237.4522 30488.0287 149.0920 237.4522
ENERGY: 300000 0.2628 3.3460 5.2378 0.0000 -10746.7065 1399.5126 0.0000 0.0000 1753.8632 -7584.4840 297.0663 -9338.3472 -7582.4332 300.4646 -565.0277 -535.3577 30325.0701 120.2263 202.0535
ENERGY: 600000 0.0745 4.5003 6.5017 0.0000 -10693.9949 1448.7081 0.0000 0.0000 1750.1241 -7484.0863 296.4330 -9234.2104 -7545.5917 299.8775 -336.1142 -279.4633 31200.4804 163.5752 246.1331
ENERGY: 900000 1.1251 2.0477 7.1515 0.0000 -10736.5314 1430.3863 0.0000 0.0000 1722.0695 -7573.7514 291.6812 -9295.8209 -7539.0028 299.6787 -323.1611 -214.5058 30370.5723 45.1510 129.5869
ENERGY: 1200000 0.5364 2.4816 10.7405 0.0000 -10710.7647 1369.9350 0.0000 0.0000 1779.9650 -7547.1061 301.4874 -9327.0711 -7528.9731 299.6154 -814.3374 -741.1245 30365.0063 -25.3290 57.0512
ENERGY: 1500000 0.0047 7.2612 5.3554 0.0000 -10786.7006 1421.5812 0.0000 0.0000 1729.9317 -7622.5664 293.0129 -9352.4981 -7526.1795 300.0272 -783.5366 -712.4679 31077.0956 -82.3827 0.8783
TCL: Exiting due to exit command.
