Info: SIMULATION PARAMETERS:
Info: TIMESTEP               2
Info: NUMBER OF STEPS        0
Info: STEPS PER CYCLE        10
Info: PERIODIC CELL BASIS 1  32.0238 0 0
Info: PERIODIC CELL BASIS 2  0 30.2399 0
Info: PERIODIC CELL BASIS 3  0 0 31.5313
Info: PERIODIC CELL CENTER   0 0 0
Info: WRAPPING WATERS AROUND PERIODIC BOUNDARIES ON OUTPUT.
Info: WRAPPING ALL CLUSTERS AROUND PERIODIC BOUNDARIES ON OUTPUT.
Info: FIRST LDB TIMESTEP     50
Info: LAST LDB TIMESTEP     -1
Info: HOM BACKGROUND SCALING 1
Info: PME BACKGROUND SCALING 1
Info: MIN ATOMS PER PATCH    40
Info: EMPTY PATCH LOAD       40 ATOMS
Info: VELOCITY FILE          mobley_4465023_equil.vel
Info: CENTER OF MASS MOVING INITIALLY? NO
Info: DIELECTRIC             1
Info: EXCLUDE                SCALED ONE-FOUR
Info: 1-4 ELECTROSTATICS SCALED BY 0.833333
Info: MODIFIED 1-4 VDW PARAMETERS WILL BE USED
Info: DCD FILENAME           mobley_4465023_prod.dcd
Info: DCD FREQUENCY          100000
Info: DCD FIRST STEP         100000
Info: DCD FILE WILL CONTAIN UNIT CELL DATA
Info: XST FILENAME           mobley_4465023_prod.xst
Info: XST FREQUENCY          100000
Info: NO VELOCITY DCD OUTPUT
Info: NO FORCE DCD OUTPUT
Info: OUTPUT FILENAME        mobley_4465023_prod
Info: BINARY OUTPUT FILES WILL BE USED
Info: RESTART FILENAME       mobley_4465023_prod.restart
Info: RESTART FREQUENCY      100000
Info: BINARY RESTART FILES WILL BE USED
Info: CUTOFF                 9
Info: PAIRLIST DISTANCE      11
Info: PAIRLIST SHRINK RATE   0.01
Info: PAIRLIST GROW RATE     0.01
Info: PAIRLIST TRIGGER       0.3
Info: PAIRLISTS PER CYCLE    2
Info: PAIRLISTS ENABLED
Info: MARGIN                 2
Info: HYDROGEN GROUP CUTOFF  2.5
Info: PATCH DIMENSION        15.5
Info: ENERGY OUTPUT STEPS    100000
Info: ENERGY EVALUATION STEPS    100000
Info: OUTPUT ENERGY PRECISION 4
Info: CROSSTERM ENERGY INCLUDED IN DIHEDRAL
Info: TIMING OUTPUT STEPS    1000000
Info: PRESSURE OUTPUT STEPS  100000
Info: ALCHEMICAL FEP ON
Info: FEP CURRENT LAMBDA VALUE     1
Info: FEP COMPARISON LAMBDA VALUE  0.95
Info: FEP INTRA-ALCHEMICAL NON-BONDED INTERACTIONS WILL BE RETAINED
Info: FEP INTRA-ALCHEMICAL BONDED INTERACTIONS WILL BE RETAINED
Info: FEP VDW SHIFTING COEFFICIENT 5
Info: FEP ELEC. ACTIVE FOR ANNIHILATED PARTICLES BETWEEN LAMBDA = 0 AND LAMBDA = 0.5
Info: FEP ELEC. ACTIVE FOR EXNIHILATED PARTICLES BETWEEN LAMBDA = 0.5 AND LAMBDA = 1
Info: FEP VDW ACTIVE FOR ANNIHILATED PARTICLES BETWEEN LAMBDA = 0 AND LAMBDA = 1
Info: FEP VDW ACTIVE FOR EXNIHILATED PARTICLES BETWEEN LAMBDA = 0 AND LAMBDA = 1
Info: FEP BOND ACTIVE FOR ANNIHILATED PARTICLES BETWEEN LAMBDA = 1 AND LAMBDA = 1
Info: FEP BOND ACTIVE FOR EXNIHILATED PARTICLES BETWEEN LAMBDA = 0 AND LAMBDA = 0
Info: LANGEVIN DYNAMICS ACTIVE
Info: LANGEVIN TEMPERATURE   300
Info: LANGEVIN USING BBK INTEGRATOR
Info: LANGEVIN DAMPING COEFFICIENT IS 1 INVERSE PS
Info: LANGEVIN DYNAMICS APPLIED TO HYDROGENS
Info: LANGEVIN PISTON PRESSURE CONTROL ACTIVE
Info:        TARGET PRESSURE IS 1.01325 BAR
Info:     OSCILLATION PERIOD IS 50 FS
Info:             DECAY TIME IS 25 FS
Info:     PISTON TEMPERATURE IS 300 K
Info:       PRESSURE CONTROL IS GROUP-BASED
Info:    INITIAL STRAIN RATE IS 0.000355055 0.000355055 0.000355055
Info:       CELL FLUCTUATION IS ISOTROPIC
Info: PARTICLE MESH EWALD (PME) ACTIVE
Info: PME TOLERANCE               1e-06
Info: PME EWALD COEFFICIENT       0.348832
Info: PME INTERPOLATION ORDER     4
Info: PME GRID DIMENSIONS         36 32 32
Info: PME MAXIMUM GRID SPACING    1
Info: PME CALCULATION WILL BE PERFORMED ON GPU
Info: FULL ELECTROSTATIC EVALUATION FREQUENCY      2
Info: USING VERLET I (r-RESPA) MTS SCHEME.
Info: C1 SPLITTING OF LONG RANGE ELECTROSTATICS
Info: PLACING ATOMS IN PATCHES BY HYDROGEN GROUPS
Info: RIGID BONDS TO HYDROGEN : ALL
Info:         ERROR TOLERANCE : 1e-08
Info:          MAX ITERATIONS : 100
Info: RIGID WATER USING SETTLE ALGORITHM
Info: RANDOM NUMBER SEED     1743484363
Info: USE HYDROGEN BONDS?    NO
Info: Using AMBER format force field!
Info: AMBER PARM FILE        mobley_4465023.prmtop
Info: COORDINATE PDB         mobley_4465023.pdb
Info: Exclusions will be read from PARM file!
Info: SCNB (VDW SCALING)     2
Info: USING ARITHMETIC MEAN TO COMBINE L-J SIGMA PARAMETERS
Info: BINARY COORDINATES     mobley_4465023_equil.coor
Info: SUMMARY OF PARAMETERS:
Info: 5 BONDS
Info: 3 ANGLES
Info:   3 HARMONIC
Info:   0 COSINE-BASED
Info: 2 DIHEDRAL
Info: 0 IMPROPER
Info: 0 CROSSTERM
Info: 0 VDW
Info: 15 VDW_PAIRS
Info: 0 NBTHOLE_PAIRS
Info: To read alchdata from file: mobley_4465023.pdb
Info: To read alchflag data from column: 5
Info: STRUCTURE SUMMARY:
Info: 2916 ATOMS
Info: 2915 BONDS
Info: 6 ANGLES
Info: 6 DIHEDRALS
Info: 0 IMPROPERS
Info: 0 CROSSTERMS
Info: 2925 EXCLUSIONS
Info: 2912 RIGID BONDS
Info: ALCH: 0 ATOMS TO DISAPPEAR IN FINAL STATE
Info: ALCH: 6 ATOMS TO APPEAR IN FINAL STATE
Info: 5836 DEGREES OF FREEDOM
Info: 974 HYDROGEN GROUPS
Info: 3 ATOMS IN LARGEST HYDROGEN GROUP
Info: 974 MIGRATION GROUPS
Info: 3 ATOMS IN LARGEST MIGRATION GROUP
Info: TOTAL MASS = 17572.5 amu
Info: TOTAL CHARGE = -1.49012e-08 e
Info: MASS DENSITY = 0.955644 g/cm^3
Info: ATOM DENSITY = 0.0954975 atoms/A^3
Info: ADDED 0 IMPLICIT EXCLUSIONS
Info: NONBONDED TABLE R-SQUARED SPACING: 0.0625
Info: NONBONDED TABLE SIZE: 705 POINTS
Info: REMOVING COM VELOCITY 0.057648 0.0289524 0.0253015
Info: Use 3D box decompostion in PME FFT.
Info: Updated CUDA force table with 4096 elements.
Info: Updated CUDA LJ table with 5 x 5 elements.
Info: Found 9 unique exclusion lists needing 12 bytes
TCL: Running for 1500000 steps
ETITLE: TS BOND ANGLE DIHED IMPRP ELECT VDW BOUNDARY MISC KINETIC TOTAL TEMP POTENTIAL TOTALAVG TEMPAVG PRESSURE GPRESSURE VOLUME PRESSAVG GPRESSAVG
ENERGY: 0 0.7400 3.3592 1.5535 0.0000 -10432.5791 1334.9843 0.0000 0.0000 1691.7151 -7400.2270 291.7443 -9091.9421 -7400.2270 291.7443 -555.1861 -472.0715 30534.8304 -555.1861 -472.0715
ENERGY: 300000 0.6607 1.1284 1.0266 0.0000 -10548.3195 1373.2495 0.0000 0.0000 1698.7658 -7473.4886 292.9602 -9172.2544 -7449.1521 296.5600 -415.1492 -355.5862 30248.7871 -348.7494 -286.1708
ENERGY: 600000 1.0844 1.0610 3.0568 0.0000 -10550.0656 1434.0466 0.0000 0.0000 1710.9758 -7399.8411 295.0659 -9110.8168 -7429.6630 298.7431 34.1961 111.8343 30570.6915 -192.6821 -117.2730
ENERGY: 900000 2.7277 1.9643 1.2199 0.0000 -10694.8779 1513.4980 0.0000 0.0000 1740.9780 -7434.4899 300.2399 -9175.4680 -7439.8976 298.2757 630.6252 636.6053 30302.3502 -61.8511 2.4826
ENERGY: 1200000 2.8666 0.6471 0.6367 0.0000 -10446.2747 1375.4746 0.0000 0.0000 1739.7769 -7326.8728 300.0327 -9066.6497 -7420.9500 298.6297 -395.7389 -385.1352 30408.9057 -87.0641 -29.5252
ENERGY: 1500000 0.8360 1.3947 0.5710 0.0000 -10549.7364 1375.3129 0.0000 0.0000 1709.0814 -7462.5404 294.7392 -9171.6218 -7433.6486 297.5909 -364.3180 -316.8516 30123.6198 -117.6367 -61.8701
TCL: Running FEP window   2: Lambda1 0.95   Lambda2 0.8999999999999999 [dLambda -0.050000000000000044]
TCL: Setting parameter firsttimestep to 0
TCL: Setting parameter alchLambda to 0.95
Info: NONBONDED TABLE R-SQUARED SPACING: 0.0625
Info: NONBONDED TABLE SIZE: 705 POINTS
TCL: Setting parameter alchLambda2 to 0.8999999999999999
Info: NONBONDED TABLE R-SQUARED SPACING: 0.0625
Info: NONBONDED TABLE SIZE: 705 POINTS
TCL: Running for 1500000 steps
ETITLE: TS BOND ANGLE DIHED IMPRP ELECT VDW BOUNDARY MISC KINETIC TOTAL TEMP POTENTIAL TOTALAVG TEMPAVG PRESSURE GPRESSURE VOLUME PRESSAVG GPRESSAVG
ENERGY: 0 0.8360 1.3947 0.5710 0.0000 -10549.7077 1375.4029 0.0000 0.0000 1708.2601 -7463.2429 294.5975 -9171.5030 -7463.2429 294.5975 -398.4588 -324.1900 30123.6198 -398.4588 -324.1900
ENERGY: 300000 2.6446 0.0177 0.8600 0.0000 -10452.3359 1352.0473 0.0000 0.0000 1700.3860 -7396.3803 293.2396 -9096.7663 -7415.1743 297.1262 -601.6410 -583.2194 30812.8424 -80.6283 -26.9032
ENERGY: 600000 0.5227 1.3807 0.1475 0.0000 -10572.2617 1437.5693 0.0000 0.0000 1760.1582 -7372.4834 303.5476 -9132.6415 -7406.9328 298.5066 22.9540 106.0885 30365.6490 5.0190 75.7436
ENERGY: 900000 1.0241 2.9421 1.0173 0.0000 -10686.9502 1478.6805 0.0000 0.0000 1737.7972 -7465.4890 299.6913 -9203.2862 -7414.5837 299.9898 646.4534 670.1961 29569.9170 30.7157 103.0153
ENERGY: 1200000 0.9070 1.6003 0.4765 0.0000 -10682.8235 1437.0688 0.0000 0.0000 1769.9290 -7472.8419 305.2326 -9242.7709 -7408.7474 300.7181 80.1243 134.0860 29728.8805 125.0390 187.4907
ENERGY: 1500000 1.1270 0.9384 0.1686 0.0000 -10444.2692 1370.1381 0.0000 0.0000 1729.0453 -7342.8517 298.1820 -9071.8971 -7406.3610 301.5003 -210.8522 -230.2871 30364.4894 19.3577 78.9862
TCL: Running FEP window   3: Lambda1 0.8999999999999999 Lambda2 0.8499999999999999 [dLambda -0.050000000000000044]
TCL: Setting parameter firsttimestep to 0
TCL: Setting parameter alchLambda to 0.8999999999999999
Info: NONBONDED TABLE R-SQUARED SPACING: 0.0625
Info: NONBONDED TABLE SIZE: 705 POINTS
TCL: Setting parameter alchLambda2 to 0.8499999999999999
Info: NONBONDED TABLE R-SQUARED SPACING: 0.0625
Info: NONBONDED TABLE SIZE: 705 POINTS
TCL: Running for 1500000 steps
ETITLE: TS BOND ANGLE DIHED IMPRP ELECT VDW BOUNDARY MISC KINETIC TOTAL TEMP POTENTIAL TOTALAVG TEMPAVG PRESSURE GPRESSURE VOLUME PRESSAVG GPRESSAVG
ENERGY: 0 1.1270 0.9384 0.1686 0.0000 -10444.0865 1370.3037 0.0000 0.0000 1728.1941 -7343.3547 298.0352 -9071.5488 -7343.3547 298.0352 -337.3145 -234.4585 30364.4894 -337.3145 -234.4585
ENERGY: 300000 1.3427 0.9934 1.9975 0.0000 -10448.2015 1344.1204 0.0000 0.0000 1705.2260 -7394.5216 294.0743 -9099.7476 -7377.1441 299.3082 -456.0952 -398.8482 30351.1702 -11.1565 31.9638
ENERGY: 600000 1.0078 1.3324 0.2497 0.0000 -10589.9373 1383.8148 0.0000 0.0000 1720.1986 -7483.3340 296.6564 -9203.5326 -7385.8381 300.2491 -489.3485 -400.2427 30114.1286 -160.5433 -103.8386
ENERGY: 900000 2.3087 0.7238 0.2985 0.0000 -10806.3668 1489.5341 0.0000 0.0000 1762.7172 -7550.7845 303.9889 -9313.5017 -7417.5508 300.3891 223.8833 224.8167 29635.2783 -97.1456 -48.6296
ENERGY: 1200000 0.0623 2.8534 0.3942 0.0000 -10464.3826 1291.8479 0.0000 0.0000 1725.0123 -7444.2126 297.4865 -9169.2249 -7425.8344 299.8485 -1122.8906 -1087.8820 30472.7500 -174.8355 -126.8446
ENERGY: 1500000 1.2373 0.3473 0.5747 0.0000 -10701.6609 1457.4517 0.0000 0.0000 1776.3949 -7465.6550 306.3477 -9242.0499 -7430.5937 299.8775 228.1862 297.8460 29809.1431 -163.3639 -111.9601
TCL: Running FEP window   4: Lambda1 0.8499999999999999 Lambda2 0.7999999999999998 [dLambda -0.050000000000000044]
TCL: Setting parameter firsttimestep to 0
TCL: Setting parameter alchLambda to 0.8499999999999999
Info: NONBONDED TABLE R-SQUARED SPACING: 0.0625
Info: NONBONDED TABLE SIZE: 705 POINTS
TCL: Setting parameter alchLambda2 to 0.7999999999999998
Info: NONBONDED TABLE R-SQUARED SPACING: 0.0625
Info: NONBONDED TABLE SIZE: 705 POINTS
TCL: Running for 1500000 steps
ETITLE: TS BOND ANGLE DIHED IMPRP ELECT VDW BOUNDARY MISC KINETIC TOTAL TEMP POTENTIAL TOTALAVG TEMPAVG PRESSURE GPRESSURE VOLUME PRESSAVG GPRESSAVG
ENERGY: 0 1.2373 0.3473 0.5747 0.0000 -10701.1550 1457.5536 0.0000 0.0000 1775.5273 -7465.9149 306.1981 -9241.4422 -7465.9149 306.1981 214.4126 290.6463 29809.1431 214.4126 290.6463
ENERGY: 300000 2.4628 0.3268 0.1456 0.0000 -10571.5335 1343.6032 0.0000 0.0000 1764.7809 -7460.2143 304.3448 -9224.9951 -7454.1857 300.9686 -501.2396 -475.7914 29591.7652 -230.1960 -149.7175
ENERGY: 600000 1.0741 1.2059 0.7607 0.0000 -10699.4225 1520.6929 0.0000 0.0000 1762.1346 -7413.5543 303.8884 -9175.6889 -7428.0035 302.4359 1023.1106 1032.2952 29792.1273 127.4135 192.8112
ENERGY: 900000 0.7805 2.1050 0.6332 0.0000 -10509.8660 1356.4434 0.0000 0.0000 1798.0143 -7351.8896 310.0761 -9149.9039 -7435.6539 302.1698 -694.7426 -540.0705 30179.5105 -17.8143 59.3242
ENERGY: 1200000 2.0760 2.4417 1.3801 0.0000 -10654.8147 1483.1694 0.0000 0.0000 1718.2872 -7447.4602 296.3268 -9165.7474 -7440.2034 300.7409 543.7259 595.9952 29873.6376 -28.0878 40.9722
ENERGY: 1500000 0.8932 0.9047 0.7974 0.0000 -10497.7486 1382.6962 0.0000 0.0000 1778.3361 -7334.1210 306.6825 -9112.4571 -7434.7316 300.8352 -230.6365 -208.7050 30513.7053 -30.3440 29.6214
TCL: Running FEP window   5: Lambda1 0.7999999999999998 Lambda2 0.7499999999999998 [dLambda -0.050000000000000044]
TCL: Setting parameter firsttimestep to 0
TCL: Setting parameter alchLambda to 0.7999999999999998
Info: NONBONDED TABLE R-SQUARED SPACING: 0.0625
Info: NONBONDED TABLE SIZE: 705 POINTS
TCL: Setting parameter alchLambda2 to 0.7499999999999998
Info: NONBONDED TABLE R-SQUARED SPACING: 0.0625
Info: NONBONDED TABLE SIZE: 705 POINTS
TCL: Running for 1500000 steps
ETITLE: TS BOND ANGLE DIHED IMPRP ELECT VDW BOUNDARY MISC KINETIC TOTAL TEMP POTENTIAL TOTALAVG TEMPAVG PRESSURE GPRESSURE VOLUME PRESSAVG GPRESSAVG
ENERGY: 0 0.8932 0.9047 0.7974 0.0000 -10497.4153 1382.4067 0.0000 0.0000 1777.4716 -7334.9417 306.5334 -9112.4133 -7334.9417 306.5334 -305.0061 -219.3780 30513.7053 -305.0061 -219.3780
ENERGY: 300000 3.4607 0.3362 0.2836 0.0000 -10519.6073 1372.1315 0.0000 0.0000 1761.7803 -7381.6151 303.8273 -9143.3954 -7368.1733 304.6700 -519.8335 -488.6499 30434.7328 -65.0686 -26.6553
ENERGY: 600000 0.7965 2.2166 1.1955 0.0000 -10764.2720 1520.1051 0.0000 0.0000 1746.5837 -7493.3745 301.2066 -9239.9583 -7418.8383 302.4161 527.8581 622.2555 29934.5601 -48.5380 -10.7313
ENERGY: 900000 0.9521 1.3392 1.9804 0.0000 -10623.3855 1417.6551 0.0000 0.0000 1709.7776 -7491.6811 294.8592 -9201.4587 -7437.0191 301.2521 -315.7758 -211.3004 30180.5538 -23.4371 20.7086
ENERGY: 1200000 2.5263 0.2215 1.3696 0.0000 -10607.3153 1475.1648 0.0000 0.0000 1704.1768 -7423.8562 293.8933 -9128.0331 -7435.6355 300.8100 559.4932 597.7136 29942.7691 13.4383 67.7787
ENERGY: 1500000 0.7145 0.6473 0.3575 0.0000 -10416.4582 1316.8902 0.0000 0.0000 1726.4756 -7371.3731 297.7389 -9097.8487 -7429.1731 300.8321 -1073.5311 -1015.1734 30902.4612 -105.4099 -52.6089
TCL: Running FEP window   6: Lambda1 0.7499999999999998 Lambda2 0.6999999999999997 [dLambda -0.050000000000000044]
TCL: Setting parameter firsttimestep to 0
TCL: Setting parameter alchLambda to 0.7499999999999998
Info: NONBONDED TABLE R-SQUARED SPACING: 0.0625
Info: NONBONDED TABLE SIZE: 705 POINTS
TCL: Setting parameter alchLambda2 to 0.6999999999999997
Info: NONBONDED TABLE R-SQUARED SPACING: 0.0625
Info: NONBONDED TABLE SIZE: 705 POINTS
TCL: Running for 1500000 steps
ETITLE: TS BOND ANGLE DIHED IMPRP ELECT VDW BOUNDARY MISC KINETIC TOTAL TEMP POTENTIAL TOTALAVG TEMPAVG PRESSURE GPRESSURE VOLUME PRESSAVG GPRESSAVG
ENERGY: 0 0.7145 0.6473 0.3575 0.0000 -10416.1543 1316.3652 0.0000 0.0000 1725.6076 -7372.4622 297.5892 -9098.0698 -7372.4622 297.5892 -1121.4659 -1027.1837 30902.4612 -1121.4659 -1027.1837
ENERGY: 300000 0.4691 0.2760 0.3468 0.0000 -10680.9432 1468.4192 0.0000 0.0000 1734.0462 -7477.3858 299.0445 -9211.4321 -7442.3899 302.2186 284.2133 375.9638 29997.0690 -272.3486 -223.2140
ENERGY: 600000 1.0309 1.1663 0.2897 0.0000 -10605.0874 1501.7849 0.0000 0.0000 1712.4220 -7388.3936 295.3153 -9100.8156 -7426.1697 299.1184 641.1982 774.0273 30159.2368 -98.6928 -43.2437
ENERGY: 900000 0.5056 0.3436 0.8405 0.0000 -10501.8825 1383.8157 0.0000 0.0000 1754.1519 -7362.2252 302.5118 -9116.3771 -7423.0249 298.9090 -343.2067 -267.5592 30444.1095 -149.8856 -86.6071
ENERGY: 1200000 0.3042 0.6520 0.5619 0.0000 -10578.8270 1427.9165 0.0000 0.0000 1769.3031 -7380.0893 305.1247 -9149.3924 -7417.4562 299.0548 -51.9467 82.6196 30040.0593 -42.2092 25.9769
ENERGY: 1500000 0.5185 1.2513 0.2712 0.0000 -10620.8003 1451.7403 0.0000 0.0000 1698.4272 -7468.5918 292.9018 -9167.0190 -7415.5506 299.1134 298.6847 364.7635 29901.5674 -29.5444 38.3225
TCL: Running FEP window   7: Lambda1 0.6999999999999997 Lambda2 0.6499999999999997 [dLambda -0.050000000000000044]
TCL: Setting parameter firsttimestep to 0
TCL: Setting parameter alchLambda to 0.6999999999999997
Info: NONBONDED TABLE R-SQUARED SPACING: 0.0625
Info: NONBONDED TABLE SIZE: 705 POINTS
TCL: Setting parameter alchLambda2 to 0.6499999999999997
Info: NONBONDED TABLE R-SQUARED SPACING: 0.0625
Info: NONBONDED TABLE SIZE: 705 POINTS
TCL: Running for 1500000 steps
ETITLE: TS BOND ANGLE DIHED IMPRP ELECT VDW BOUNDARY MISC KINETIC TOTAL TEMP POTENTIAL TOTALAVG TEMPAVG PRESSURE GPRESSURE VOLUME PRESSAVG GPRESSAVG
ENERGY: 0 0.5185 1.2513 0.2712 0.0000 -10620.2965 1451.5653 0.0000 0.0000 1697.5745 -7469.1157 292.7547 -9166.6902 -7469.1157 292.7547 275.6701 355.9420 29901.5674 275.6701 355.9420
ENERGY: 300000 0.0444 0.3333 0.1489 0.0000 -10566.3481 1403.3691 0.0000 0.0000 1787.1975 -7375.2549 308.2107 -9162.4524 -7447.2621 298.8687 -78.8026 -17.4560 30025.1389 312.1253 355.7645
ENERGY: 600000 0.8469 0.9070 0.4743 0.0000 -10645.4449 1474.2345 0.0000 0.0000 1696.5766 -7472.4057 292.5826 -9168.9822 -7413.3365 301.1524 270.4112 341.5419 30073.6345 154.8635 224.6899
ENERGY: 900000 0.2705 0.2601 2.2524 0.0000 -10543.1280 1403.6029 0.0000 0.0000 1741.5147 -7395.2273 300.3324 -9136.7421 -7420.3667 299.4102 -163.4774 -127.4103 30413.4914 170.8094 233.7834
ENERGY: 1200000 0.9348 1.9731 0.3130 0.0000 -10330.7355 1289.6152 0.0000 0.0000 1730.2707 -7307.6287 298.3934 -9037.8994 -7412.3456 299.4186 -591.4608 -539.4549 30324.4156 6.4407 65.8968
ENERGY: 1500000 1.2055 1.3047 0.3121 0.0000 -10683.5482 1476.2881 0.0000 0.0000 1754.7097 -7449.7282 302.6080 -9204.4380 -7420.1906 299.2497 231.7580 252.4153 30338.8470 -47.0471 11.7040
TCL: Running FEP window   8: Lambda1 0.6499999999999997 Lambda2 0.5999999999999996 [dLambda -0.050000000000000044]
TCL: Setting parameter firsttimestep to 0
TCL: Setting parameter alchLambda to 0.6499999999999997
Info: NONBONDED TABLE R-SQUARED SPACING: 0.0625
Info: NONBONDED TABLE SIZE: 705 POINTS
TCL: Setting parameter alchLambda2 to 0.5999999999999996
Info: NONBONDED TABLE R-SQUARED SPACING: 0.0625
Info: NONBONDED TABLE SIZE: 705 POINTS
TCL: Running for 1500000 steps
ETITLE: TS BOND ANGLE DIHED IMPRP ELECT VDW BOUNDARY MISC KINETIC TOTAL TEMP POTENTIAL TOTALAVG TEMPAVG PRESSURE GPRESSURE VOLUME PRESSAVG GPRESSAVG
ENERGY: 0 1.2055 1.3047 0.3121 0.0000 -10683.4520 1475.8290 0.0000 0.0000 1753.7906 -7451.0102 302.4495 -9204.8008 -7451.0102 302.4495 152.0178 242.9934 30338.8470 152.0178 242.9934
ENERGY: 300000 0.4894 0.3704 1.8528 0.0000 -10611.3859 1420.4617 0.0000 0.0000 1740.8318 -7447.3798 300.2147 -9188.2116 -7437.6806 300.8787 -11.7323 73.7810 29954.8609 -17.8510 68.8235
ENERGY: 600000 0.3167 1.6956 0.6422 0.0000 -10574.3775 1408.3956 0.0000 0.0000 1685.0076 -7478.3197 290.5875 -9163.3273 -7440.8476 299.0209 -345.9621 -227.5453 30303.3962 -136.3747 -48.5250
ENERGY: 900000 1.3850 0.9942 0.5566 0.0000 -10523.6507 1432.5789 0.0000 0.0000 1763.1817 -7324.9543 304.0690 -9088.1361 -7437.7220 298.9054 96.6428 162.5557 30268.3697 -0.8725 79.5657
ENERGY: 1200000 1.0019 0.9597 0.4163 0.0000 -10767.1051 1566.2175 0.0000 0.0000 1716.1821 -7482.3276 295.9637 -9198.5097 -7439.4107 299.4239 1011.9046 1102.5278 29938.8666 97.0499 183.0838
ENERGY: 1500000 1.8261 3.2507 2.3498 0.0000 -10675.9986 1474.8710 0.0000 0.0000 1736.6379 -7457.0631 299.4914 -9193.7009 -7439.5548 299.1809 537.4781 600.7413 29558.8695 138.9541 219.4348
TCL: Running FEP window   9: Lambda1 0.5999999999999996 Lambda2 0.5499999999999996 [dLambda -0.050000000000000044]
TCL: Setting parameter firsttimestep to 0
TCL: Setting parameter alchLambda to 0.5999999999999996
Info: NONBONDED TABLE R-SQUARED SPACING: 0.0625
Info: NONBONDED TABLE SIZE: 705 POINTS
TCL: Setting parameter alchLambda2 to 0.5499999999999996
Info: NONBONDED TABLE R-SQUARED SPACING: 0.0625
Info: NONBONDED TABLE SIZE: 705 POINTS
TCL: Running for 1500000 steps
ETITLE: TS BOND ANGLE DIHED IMPRP ELECT VDW BOUNDARY MISC KINETIC TOTAL TEMP POTENTIAL TOTALAVG TEMPAVG PRESSURE GPRESSURE VOLUME PRESSAVG GPRESSAVG
ENERGY: 0 1.8261 3.2507 2.3498 0.0000 -10675.7614 1474.4834 0.0000 0.0000 1735.7446 -7458.1067 299.3374 -9193.8513 -7458.1067 299.3374 504.7721 591.1930 29558.8695 504.7721 591.1930
ENERGY: 300000 0.3384 0.3005 0.3855 0.0000 -10570.2023 1416.2402 0.0000 0.0000 1751.9308 -7401.0069 302.1287 -9152.9378 -7393.1758 301.0739 -139.3090 -104.1794 30122.1017 -69.0658 -12.1019
ENERGY: 600000 1.3233 1.9231 1.5060 0.0000 -10592.4225 1465.2045 0.0000 0.0000 1726.1845 -7396.2811 297.6887 -9122.4656 -7409.3820 299.1156 127.6940 173.8562 30730.4396 -87.4843 -38.7013
ENERGY: 900000 0.1736 1.9562 1.5238 0.0000 -10546.6565 1351.9150 0.0000 0.0000 1790.4959 -7400.5919 308.7795 -9191.0878 -7418.6094 299.3479 -432.2141 -403.3283 29682.6124 -209.0471 -164.4996
ENERGY: 1200000 0.7729 1.4954 2.0225 0.0000 -10498.1473 1354.9334 0.0000 0.0000 1747.4958 -7391.4273 301.3639 -9138.9231 -7406.9546 299.9435 -626.0463 -581.5230 30302.7364 -182.6484 -136.5930
ENERGY: 1500000 0.3685 0.2041 0.2642 0.0000 -10726.3942 1528.0438 0.0000 0.0000 1741.4921 -7456.0216 300.3285 -9197.5137 -7409.3883 300.3521 953.5485 990.9043 29701.0416 -103.1848 -51.2807
TCL: Running FEP window  10: Lambda1 0.5499999999999996 Lambda2 0.4999999999999996 [dLambda -0.04999999999999999]
TCL: Setting parameter firsttimestep to 0
TCL: Setting parameter alchLambda to 0.5499999999999996
Info: NONBONDED TABLE R-SQUARED SPACING: 0.0625
Info: NONBONDED TABLE SIZE: 705 POINTS
TCL: Setting parameter alchLambda2 to 0.4999999999999996
Info: NONBONDED TABLE R-SQUARED SPACING: 0.0625
Info: NONBONDED TABLE SIZE: 705 POINTS
TCL: Running for 1500000 steps
ETITLE: TS BOND ANGLE DIHED IMPRP ELECT VDW BOUNDARY MISC KINETIC TOTAL TEMP POTENTIAL TOTALAVG TEMPAVG PRESSURE GPRESSURE VOLUME PRESSAVG GPRESSAVG
ENERGY: 0 0.3685 0.2041 0.2642 0.0000 -10726.3856 1527.9886 0.0000 0.0000 1740.6269 -7456.9334 300.1793 -9197.5603 -7456.9334 300.1793 907.8939 984.3508 29701.0416 907.8939 984.3508
ENERGY: 300000 0.9365 0.3723 0.9574 0.0000 -10456.2136 1346.2512 0.0000 0.0000 1721.5301 -7386.1661 296.8860 -9107.6962 -7411.2929 302.6831 -685.7749 -585.1916 30520.0485 61.9171 144.4262
ENERGY: 600000 1.6788 2.8217 0.0524 0.0000 -10527.3092 1406.8550 0.0000 0.0000 1736.1996 -7379.7017 299.4158 -9115.9013 -7399.3054 302.5541 49.5898 87.7977 30060.8182 -1.3542 67.0369
ENERGY: 900000 0.4060 0.5013 0.6418 0.0000 -10659.3400 1477.0867 0.0000 0.0000 1754.2693 -7426.4350 302.5320 -9180.7043 -7408.9599 301.9390 127.0108 310.5340 30128.6467 74.8156 144.0253
ENERGY: 1200000 1.7727 4.1658 0.2687 0.0000 -10547.2045 1401.0425 0.0000 0.0000 1714.1545 -7425.8004 295.6140 -9139.9548 -7406.1842 301.0518 106.1750 108.2651 29928.3287 97.8435 156.6677
ENERGY: 1500000 2.6104 0.0223 0.2772 0.0000 -10646.9150 1487.4101 0.0000 0.0000 1746.9486 -7409.6464 301.2695 -9156.5950 -7409.3005 300.6545 236.2086 299.0361 30275.8367 96.7079 156.1249
TCL: Running FEP window  11: Lambda1 0.4999999999999996 Lambda2 0.4499999999999996 [dLambda -0.04999999999999999]
TCL: Setting parameter firsttimestep to 0
TCL: Setting parameter alchLambda to 0.4999999999999996
Info: NONBONDED TABLE R-SQUARED SPACING: 0.0625
Info: NONBONDED TABLE SIZE: 705 POINTS
TCL: Setting parameter alchLambda2 to 0.4499999999999996
Info: NONBONDED TABLE R-SQUARED SPACING: 0.0625
Info: NONBONDED TABLE SIZE: 705 POINTS
TCL: Running for 1500000 steps
ETITLE: TS BOND ANGLE DIHED IMPRP ELECT VDW BOUNDARY MISC KINETIC TOTAL TEMP POTENTIAL TOTALAVG TEMPAVG PRESSURE GPRESSURE VOLUME PRESSAVG GPRESSAVG
ENERGY: 0 2.6104 0.0223 0.2772 0.0000 -10646.7853 1487.5876 0.0000 0.0000 1746.0970 -7410.1908 301.1227 -9156.2878 -7410.1908 301.1227 229.7701 295.0613 30275.8367 229.7701 295.0613
ENERGY: 300000 0.4369 0.3825 0.5778 0.0000 -10559.1564 1388.9023 0.0000 0.0000 1720.9115 -7447.9454 296.7793 -9168.8569 -7478.0019 295.5720 -213.2187 -97.4332 29864.0245 -247.5118 -176.2101
ENERGY: 600000 0.2067 1.9642 1.7138 0.0000 -10455.7533 1404.9318 0.0000 0.0000 1710.2383 -7336.6985 294.9387 -9046.9369 -7420.5401 297.5014 281.7120 347.9914 29832.3024 -67.3447 -9.0412
ENERGY: 900000 1.9111 0.9852 0.1453 0.0000 -10576.0005 1337.7442 0.0000 0.0000 1758.7109 -7476.5038 303.2980 -9235.2147 -7433.0421 297.8063 -991.0136 -870.6498 30110.4751 -144.8890 -79.1215
ENERGY: 1200000 0.4247 1.8887 1.6238 0.0000 -10664.4689 1489.6520 0.0000 0.0000 1759.5931 -7411.2867 303.4502 -9170.8798 -7438.4209 297.7561 712.7141 820.7632 29337.7603 -76.9491 -9.5108
ENERGY: 1500000 0.1563 1.4786 1.0769 0.0000 -10615.6768 1439.1014 0.0000 0.0000 1751.9224 -7421.9412 302.1273 -9173.8635 -7435.6827 298.3768 10.2871 40.8662 30002.7824 -57.7606 8.4644
TCL: Running FEP window  12: Lambda1 0.4499999999999996 Lambda2 0.39999999999999963 [dLambda -0.04999999999999999]
TCL: Setting parameter firsttimestep to 0
TCL: Setting parameter alchLambda to 0.4499999999999996
Info: NONBONDED TABLE R-SQUARED SPACING: 0.0625
Info: NONBONDED TABLE SIZE: 705 POINTS
TCL: Setting parameter alchLambda2 to 0.39999999999999963
Info: NONBONDED TABLE R-SQUARED SPACING: 0.0625
Info: NONBONDED TABLE SIZE: 705 POINTS
TCL: Running for 1500000 steps
ETITLE: TS BOND ANGLE DIHED IMPRP ELECT VDW BOUNDARY MISC KINETIC TOTAL TEMP POTENTIAL TOTALAVG TEMPAVG PRESSURE GPRESSURE VOLUME PRESSAVG GPRESSAVG
ENERGY: 0 0.1563 1.4786 1.0769 0.0000 -10615.6773 1439.4876 0.0000 0.0000 1751.0544 -7422.4235 301.9776 -9173.4779 -7422.4235 301.9776 -46.1216 42.2340 30002.7824 -46.1216 42.2340
ENERGY: 300000 0.6501 1.1722 0.9126 0.0000 -10624.2881 1472.5972 0.0000 0.0000 1757.7205 -7391.2355 303.1272 -9148.9560 -7432.0794 298.1215 356.8372 439.9981 30156.3876 103.6130 179.1016
ENERGY: 600000 1.8054 3.7675 0.3961 0.0000 -10414.3328 1365.1009 0.0000 0.0000 1691.3791 -7351.8839 291.6863 -9043.2630 -7404.6736 298.5283 -364.6129 -276.9752 30226.2360 -111.1750 -43.6191
ENERGY: 900000 2.7227 0.5142 1.4838 0.0000 -10684.2695 1493.5571 0.0000 0.0000 1716.6287 -7469.3630 296.0407 -9185.9917 -7400.2329 298.8861 537.1067 594.6177 29945.4143 -67.4854 -11.6823
ENERGY: 1200000 1.2991 0.3825 1.3650 0.0000 -10638.5824 1417.3791 0.0000 0.0000 1726.9019 -7491.2548 297.8124 -9218.1567 -7412.8359 299.1081 -628.7922 -603.1602 30642.4640 -68.9568 -8.5531
ENERGY: 1500000 2.5153 0.4045 0.0796 0.0000 -10680.4900 1541.6277 0.0000 0.0000 1772.1808 -7363.6821 305.6209 -9135.8629 -7414.7443 299.2634 1032.7509 1133.8820 29882.5722 -29.8497 34.1791
TCL: Running FEP window  13: Lambda1 0.39999999999999963 Lambda2 0.34999999999999964 [dLambda -0.04999999999999999]
TCL: Setting parameter firsttimestep to 0
TCL: Setting parameter alchLambda to 0.39999999999999963
Info: NONBONDED TABLE R-SQUARED SPACING: 0.0625
Info: NONBONDED TABLE SIZE: 705 POINTS
TCL: Setting parameter alchLambda2 to 0.34999999999999964
Info: NONBONDED TABLE R-SQUARED SPACING: 0.0625
Info: NONBONDED TABLE SIZE: 705 POINTS
TCL: Running for 1500000 steps
ETITLE: TS BOND ANGLE DIHED IMPRP ELECT VDW BOUNDARY MISC KINETIC TOTAL TEMP POTENTIAL TOTALAVG TEMPAVG PRESSURE GPRESSURE VOLUME PRESSAVG GPRESSAVG
ENERGY: 0 2.5152 0.4045 0.0796 0.0000 -10680.4909 1541.8946 0.0000 0.0000 1771.3142 -7364.2827 305.4715 -9135.5969 -7364.2827 305.4715 1050.1310 1134.6861 29882.5722 1050.1310 1134.6861
ENERGY: 300000 0.6854 1.0703 0.3898 0.0000 -10725.7525 1511.3803 0.0000 0.0000 1741.6057 -7470.6210 300.3481 -9212.2267 -7458.4723 300.6143 615.4607 673.5809 29751.2047 275.4457 350.2739
ENERGY: 600000 2.0423 0.0280 0.0974 0.0000 -10490.3430 1389.0680 0.0000 0.0000 1705.2341 -7393.8731 294.0757 -9099.1073 -7445.4509 300.9137 93.0581 175.4588 29795.3174 192.5906 266.8993
ENERGY: 900000 0.3178 0.2870 0.0910 0.0000 -10642.4523 1440.2478 0.0000 0.0000 1756.4329 -7445.0759 302.9052 -9201.5087 -7438.7443 301.5112 -110.8188 -62.6531 30293.6135 78.1804 150.1118
ENERGY: 1200000 0.5739 1.6892 2.8431 0.0000 -10677.1841 1515.7949 0.0000 0.0000 1747.9488 -7408.3342 301.4420 -9156.2830 -7445.1212 300.8302 844.4132 918.8621 29698.6039 47.6860 120.5424
ENERGY: 1500000 1.1843 2.5524 0.9326 0.0000 -10696.0739 1460.5092 0.0000 0.0000 1728.7758 -7502.1196 298.1356 -9230.8954 -7441.8774 301.2282 -51.7347 -18.2351 30111.7763 66.8551 142.8736
TCL: Running FEP window  14: Lambda1 0.34999999999999964 Lambda2 0.29999999999999966 [dLambda -0.04999999999999999]
TCL: Setting parameter firsttimestep to 0
TCL: Setting parameter alchLambda to 0.34999999999999964
Info: NONBONDED TABLE R-SQUARED SPACING: 0.0625
Info: NONBONDED TABLE SIZE: 705 POINTS
TCL: Setting parameter alchLambda2 to 0.29999999999999966
Info: NONBONDED TABLE R-SQUARED SPACING: 0.0625
Info: NONBONDED TABLE SIZE: 705 POINTS
TCL: Running for 1500000 steps
ETITLE: TS BOND ANGLE DIHED IMPRP ELECT VDW BOUNDARY MISC KINETIC TOTAL TEMP POTENTIAL TOTALAVG TEMPAVG PRESSURE GPRESSURE VOLUME PRESSAVG GPRESSAVG
ENERGY: 0 1.1843 2.5524 0.9326 0.0000 -10696.0741 1460.6619 0.0000 0.0000 1727.9216 -7502.8213 297.9882 -9230.7429 -7502.8213 297.9882 -96.3343 -21.0641 30111.7763 -96.3343 -21.0641
ENERGY: 300000 0.7812 1.9984 1.5338 0.0000 -10739.0827 1484.4539 0.0000 0.0000 1778.2249 -7472.0905 306.6633 -9250.3155 -7482.8594 299.8992 -43.0399 83.5605 30270.8628 -389.2287 -314.2976
ENERGY: 600000 0.7683 0.7438 0.3876 0.0000 -10581.7842 1408.9666 0.0000 0.0000 1736.0353 -7434.8826 299.3875 -9170.9179 -7441.4528 300.7698 -128.1012 -86.2226 30257.1111 -241.2503 -160.8999
ENERGY: 900000 1.3489 2.0409 1.2451 0.0000 -10687.9033 1501.4718 0.0000 0.0000 1749.8523 -7431.9443 301.7703 -9181.7966 -7428.8348 301.0514 375.3789 395.5338 30279.4350 -273.6445 -197.7767
ENERGY: 1200000 1.4169 0.9978 0.2430 0.0000 -10463.9002 1310.6762 0.0000 0.0000 1766.1292 -7384.4371 304.5773 -9150.5663 -7425.9739 301.1928 -1040.0126 -923.9441 30258.2885 -338.1074 -267.5511
ENERGY: 1500000 1.7350 1.0937 0.6124 0.0000 -10500.0783 1330.9539 0.0000 0.0000 1676.7598 -7488.9235 289.1651 -9165.6833 -7429.6392 300.1207 -866.6250 -790.4462 30191.9715 -304.9873 -237.4293
TCL: Running FEP window  15: Lambda1 0.29999999999999966 Lambda2 0.24999999999999967 [dLambda -0.04999999999999999]
TCL: Setting parameter firsttimestep to 0
TCL: Setting parameter alchLambda to 0.29999999999999966
Info: NONBONDED TABLE R-SQUARED SPACING: 0.0625
Info: NONBONDED TABLE SIZE: 705 POINTS
TCL: Setting parameter alchLambda2 to 0.24999999999999967
Info: NONBONDED TABLE R-SQUARED SPACING: 0.0625
Info: NONBONDED TABLE SIZE: 705 POINTS
TCL: Running for 1500000 steps
ETITLE: TS BOND ANGLE DIHED IMPRP ELECT VDW BOUNDARY MISC KINETIC TOTAL TEMP POTENTIAL TOTALAVG TEMPAVG PRESSURE GPRESSURE VOLUME PRESSAVG GPRESSAVG
ENERGY: 0 1.7350 1.0937 0.6124 0.0000 -10500.0778 1331.0735 0.0000 0.0000 1675.8896 -7489.6736 289.0151 -9165.5632 -7489.6736 289.0151 -867.9176 -792.3257 30191.9715 -867.9176 -792.3257
ENERGY: 300000 0.5022 0.3849 0.9781 0.0000 -10535.0396 1356.5047 0.0000 0.0000 1753.4395 -7423.2301 302.3889 -9176.6696 -7444.9619 301.1331 -703.5621 -596.7048 30201.6856 -68.6282 6.5367
ENERGY: 600000 0.2904 2.4697 0.0914 0.0000 -10500.1412 1354.0641 0.0000 0.0000 1702.4055 -7440.8201 293.5879 -9143.2256 -7426.0992 301.1132 -499.3477 -431.4390 29824.4269 5.5789 66.7413
ENERGY: 900000 0.2038 0.3008 0.7418 0.0000 -10733.5819 1484.6531 0.0000 0.0000 1747.5824 -7500.1001 301.3788 -9247.6825 -7435.2665 300.5698 382.1929 447.7142 29587.4910 62.7308 123.6940
ENERGY: 1200000 2.9293 0.5026 0.7348 0.0000 -10692.2918 1509.6932 0.0000 0.0000 1707.0355 -7471.3965 294.3863 -9178.4320 -7427.4921 300.7359 454.3482 556.4591 29897.3758 -17.4664 40.8936
ENERGY: 1500000 2.2655 0.2581 0.8578 0.0000 -10563.4148 1421.4719 0.0000 0.0000 1779.6431 -7358.9185 306.9079 -9138.5616 -7419.0625 300.9377 -56.6741 66.0936 30119.2462 0.3558 66.0107
TCL: Running FEP window  16: Lambda1 0.24999999999999967 Lambda2 0.19999999999999968 [dLambda -0.04999999999999999]
TCL: Setting parameter firsttimestep to 0
TCL: Setting parameter alchLambda to 0.24999999999999967
Info: NONBONDED TABLE R-SQUARED SPACING: 0.0625
Info: NONBONDED TABLE SIZE: 705 POINTS
TCL: Setting parameter alchLambda2 to 0.19999999999999968
Info: NONBONDED TABLE R-SQUARED SPACING: 0.0625
Info: NONBONDED TABLE SIZE: 705 POINTS
TCL: Running for 1500000 steps
ETITLE: TS BOND ANGLE DIHED IMPRP ELECT VDW BOUNDARY MISC KINETIC TOTAL TEMP POTENTIAL TOTALAVG TEMPAVG PRESSURE GPRESSURE VOLUME PRESSAVG GPRESSAVG
ENERGY: 0 2.2655 0.2581 0.8578 0.0000 -10563.4138 1421.5579 0.0000 0.0000 1778.7844 -7359.6901 306.7598 -9138.4745 -7359.6901 306.7598 -26.9051 65.4448 30119.2462 -26.9051 65.4448
ENERGY: 300000 1.6548 2.3427 0.3567 0.0000 -10623.7571 1433.0932 0.0000 0.0000 1738.3292 -7447.9805 299.7831 -9186.3097 -7415.2559 301.8709 -246.7556 -151.8297 30091.5835 -81.0748 -11.9325
ENERGY: 600000 0.9771 1.7944 0.5280 0.0000 -10580.7723 1408.3565 0.0000 0.0000 1736.0624 -7433.0539 299.3922 -9169.1163 -7405.3084 301.5814 -141.7682 -139.8630 30348.5272 -28.1818 21.7539
ENERGY: 900000 0.6796 1.3084 0.3041 0.0000 -10622.2536 1444.3260 0.0000 0.0000 1686.4599 -7489.1756 290.8380 -9175.6354 -7419.3439 299.4986 318.6599 343.7518 29538.0462 -134.5464 -73.1852
ENERGY: 1200000 0.7988 1.0811 0.7756 0.0000 -10687.2727 1493.1259 0.0000 0.0000 1686.4606 -7505.0307 290.8381 -9191.4913 -7409.2241 299.2713 649.2828 799.3722 29349.8463 -39.2657 29.4372
ENERGY: 1500000 2.1008 1.7959 1.5099 0.0000 -10589.2288 1452.3461 0.0000 0.0000 1718.3098 -7413.1664 296.3306 -9131.4761 -7409.9936 299.5501 496.2482 497.1961 29767.9094 -39.2716 30.9676
TCL: Running FEP window  17: Lambda1 0.19999999999999968 Lambda2 0.1499999999999997 [dLambda -0.04999999999999999]
TCL: Setting parameter firsttimestep to 0
TCL: Setting parameter alchLambda to 0.19999999999999968
Info: NONBONDED TABLE R-SQUARED SPACING: 0.0625
Info: NONBONDED TABLE SIZE: 705 POINTS
TCL: Setting parameter alchLambda2 to 0.1499999999999997
Info: NONBONDED TABLE R-SQUARED SPACING: 0.0625
Info: NONBONDED TABLE SIZE: 705 POINTS
TCL: Running for 1500000 steps
ETITLE: TS BOND ANGLE DIHED IMPRP ELECT VDW BOUNDARY MISC KINETIC TOTAL TEMP POTENTIAL TOTALAVG TEMPAVG PRESSURE GPRESSURE VOLUME PRESSAVG GPRESSAVG
ENERGY: 0 2.1008 1.7959 1.5099 0.0000 -10589.2288 1451.1630 0.0000 0.0000 1717.4065 -7415.2527 296.1749 -9132.6592 -7415.2527 296.1749 409.9819 488.0722 29767.9094 409.9819 488.0722
ENERGY: 300000 0.6702 1.9337 1.5885 0.0000 -10473.4151 1374.8692 0.0000 0.0000 1747.0864 -7347.2672 301.2933 -9094.3536 -7373.5373 299.7004 -612.5355 -557.8557 30757.8547 -65.6331 -18.1909
ENERGY: 600000 2.9527 0.9588 1.9544 0.0000 -10660.3587 1507.8156 0.0000 0.0000 1756.2169 -7390.4602 302.8679 -9146.6771 -7386.2423 301.1880 321.8220 418.7554 30068.2335 -108.6941 -48.0846
ENERGY: 900000 1.2754 2.7662 0.3584 0.0000 -10624.3460 1473.9687 0.0000 0.0000 1698.5537 -7447.4236 292.9236 -9145.9773 -7406.2516 299.9534 369.8492 510.5446 29771.4344 -183.7761 -104.8877
ENERGY: 1200000 1.4219 2.7506 0.6324 0.0000 -10557.9603 1456.3296 0.0000 0.0000 1736.7174 -7360.1084 299.5051 -9096.8258 -7405.1089 299.2873 -116.3212 -62.2688 30640.7372 -198.2599 -120.3654
ENERGY: 1500000 0.3641 1.9913 0.9839 0.0000 -10481.0061 1363.8739 0.0000 0.0000 1712.9653 -7400.8277 295.4090 -9113.7930 -7411.2205 298.4691 -512.9054 -472.8574 30118.2664 -229.8806 -154.6118
TCL: Running FEP window  18: Lambda1 0.1499999999999997 Lambda2 0.09999999999999969 [dLambda -0.05 ]
TCL: Setting parameter firsttimestep to 0
TCL: Setting parameter alchLambda to 0.1499999999999997
Info: NONBONDED TABLE R-SQUARED SPACING: 0.0625
Info: NONBONDED TABLE SIZE: 705 POINTS
TCL: Setting parameter alchLambda2 to 0.09999999999999969
Info: NONBONDED TABLE R-SQUARED SPACING: 0.0625
Info: NONBONDED TABLE SIZE: 705 POINTS
TCL: Running for 1500000 steps
ETITLE: TS BOND ANGLE DIHED IMPRP ELECT VDW BOUNDARY MISC KINETIC TOTAL TEMP POTENTIAL TOTALAVG TEMPAVG PRESSURE GPRESSURE VOLUME PRESSAVG GPRESSAVG
ENERGY: 0 0.3641 1.9913 0.9839 0.0000 -10481.0044 1363.7364 0.0000 0.0000 1712.1121 -7401.8167 295.2618 -9113.9288 -7401.8167 295.2618 -556.3891 -475.2463 30118.2664 -556.3891 -475.2463
ENERGY: 300000 1.4126 2.8008 1.7861 0.0000 -10597.3559 1399.3089 0.0000 0.0000 1734.3772 -7457.6703 299.1015 -9192.0475 -7422.0450 297.8833 -428.3143 -288.9871 30161.9348 -602.6510 -509.6133
ENERGY: 600000 2.9315 1.1464 0.4335 0.0000 -10650.9371 1471.0585 0.0000 0.0000 1712.1777 -7463.1896 295.2731 -9175.3672 -7424.5095 300.2365 -67.7257 49.3547 30114.8702 -415.6655 -330.7832
ENERGY: 900000 0.4084 2.1025 0.2594 0.0000 -10553.7930 1443.1243 0.0000 0.0000 1738.9923 -7368.9061 299.8974 -9107.8984 -7411.1358 300.4677 462.2070 497.0220 29701.2323 -200.6819 -123.3191
ENERGY: 1200000 1.0429 0.8561 2.7131 0.0000 -10591.9395 1453.3175 0.0000 0.0000 1735.2109 -7398.7990 299.2453 -9134.0099 -7418.0377 300.4134 327.8513 307.1141 29933.8083 -210.0769 -145.0879
ENERGY: 1500000 0.5651 1.1322 2.5545 0.0000 -10677.7085 1467.7797 0.0000 0.0000 1714.0781 -7491.5990 295.6009 -9205.6771 -7416.5754 300.6357 127.2736 161.7304 29936.0383 -169.1296 -108.8473
TCL: Running FEP window  19: Lambda1 0.09999999999999969 Lambda2 0.049999999999999684 [dLambda -0.05 ]
TCL: Setting parameter firsttimestep to 0
TCL: Setting parameter alchLambda to 0.09999999999999969
Info: NONBONDED TABLE R-SQUARED SPACING: 0.0625
Info: NONBONDED TABLE SIZE: 705 POINTS
TCL: Setting parameter alchLambda2 to 0.049999999999999684
Info: NONBONDED TABLE R-SQUARED SPACING: 0.0625
Info: NONBONDED TABLE SIZE: 705 POINTS
TCL: Running for 1500000 steps
ETITLE: TS BOND ANGLE DIHED IMPRP ELECT VDW BOUNDARY MISC KINETIC TOTAL TEMP POTENTIAL TOTALAVG TEMPAVG PRESSURE GPRESSURE VOLUME PRESSAVG GPRESSAVG
ENERGY: 0 0.5651 1.1322 2.5545 0.0000 -10677.7086 1467.5741 0.0000 0.0000 1713.2125 -7492.6702 295.4516 -9205.8827 -7492.6702 295.4516 81.8310 158.8035 29936.0383 81.8310 158.8035
ENERGY: 300000 1.1786 2.2612 1.4189 0.0000 -10664.2649 1431.8782 0.0000 0.0000 1715.2075 -7512.3207 295.7956 -9227.5281 -7450.2200 299.8119 -143.7200 -61.2244 29556.6950 -13.1347 54.1384
ENERGY: 600000 0.2842 0.1463 0.6042 0.0000 -10726.8384 1582.0429 0.0000 0.0000 1751.1959 -7392.5651 302.0020 -9143.7609 -7430.7436 302.1716 1236.5610 1269.3079 30032.2784 256.1289 329.4542
ENERGY: 900000 1.3004 0.2166 0.3999 0.0000 -10695.0594 1505.3619 0.0000 0.0000 1689.3954 -7498.3853 291.3442 -9187.7807 -7445.3994 299.7978 683.3678 796.7079 29489.1371 313.8831 389.4729
ENERGY: 1200000 0.2752 0.2772 0.0526 0.0000 -10538.5549 1398.3998 0.0000 0.0000 1728.6608 -7410.8892 298.1157 -9139.5500 -7439.5737 299.4771 -282.9527 -198.3858 30030.8429 227.9943 299.1910
ENERGY: 1500000 1.2849 2.5033 0.5462 0.0000 -10780.3948 1458.6379 0.0000 0.0000 1784.7260 -7532.6965 307.7844 -9317.4225 -7446.2399 299.8020 373.7473 444.6091 29127.9574 199.9285 268.0443
TCL: Running FEP window  20: Lambda1 0.049999999999999684 Lambda2 0.0    [dLambda -0.049999999999999684]
TCL: Setting parameter firsttimestep to 0
TCL: Setting parameter alchLambda to 0.049999999999999684
Info: NONBONDED TABLE R-SQUARED SPACING: 0.0625
Info: NONBONDED TABLE SIZE: 705 POINTS
TCL: Setting parameter alchLambda2 to 0.0
Info: NONBONDED TABLE R-SQUARED SPACING: 0.0625
Info: NONBONDED TABLE SIZE: 705 POINTS
TCL: Running for 1500000 steps
ETITLE: TS BOND ANGLE DIHED IMPRP ELECT VDW BOUNDARY MISC KINETIC TOTAL TEMP POTENTIAL TOTALAVG TEMPAVG PRESSURE GPRESSURE VOLUME PRESSAVG GPRESSAVG
ENERGY: 0 1.2849 2.5033 0.5462 0.0000 -10780.3962 1457.8681 0.0000 0.0000 1783.8332 -7534.3605 307.6305 -9318.1937 -7534.3605 307.6305 347.8660 441.0743 29127.9574 347.8660 441.0743
ENERGY: 300000 0.4845 1.9874 0.0052 0.0000 -10420.3359 1296.7821 0.0000 0.0000 1698.4869 -7422.5898 292.9121 -9121.0767 -7458.0245 301.3760 -928.2623 -823.9937 30116.8934 -166.0047 -81.7526
ENERGY: 600000 0.0722 0.3431 1.1817 0.0000 -10582.5408 1478.4632 0.0000 0.0000 1760.1796 -7342.3011 303.5513 -9102.4806 -7442.0564 300.3491 662.9009 699.5214 29888.5981 -109.1912 -43.7334
ENERGY: 900000 0.4175 0.4447 0.7358 0.0000 -10675.7569 1470.9606 0.0000 0.0000 1743.3141 -7459.8843 300.6428 -9203.1984 -7433.0217 300.3626 162.0803 284.4543 29888.2009 -88.4705 -17.7977
ENERGY: 1200000 0.7230 1.8014 0.3431 0.0000 -10547.3074 1379.5221 0.0000 0.0000 1725.5547 -7439.3632 297.5801 -9164.9179 -7430.5838 299.9570 -275.2065 -188.7146 29692.1146 -80.9910 -14.2250
ENERGY: 1500000 2.4772 1.4421 0.3755 0.0000 -10718.0748 1519.1651 0.0000 0.0000 1774.8268 -7419.7881 306.0773 -9194.6148 -7425.4646 300.2342 575.9605 654.1986 30021.4130 -52.9705 17.9324
TCL: Exiting due to exit command.
