Info: SIMULATION PARAMETERS:
Info: TIMESTEP               2
Info: NUMBER OF STEPS        0
Info: STEPS PER CYCLE        10
Info: PERIODIC CELL BASIS 1  31.5082 0 0
Info: PERIODIC CELL BASIS 2  0 32.0007 0
Info: PERIODIC CELL BASIS 3  0 0 30.2624
Info: PERIODIC CELL CENTER   0 0 0
Info: WRAPPING WATERS AROUND PERIODIC BOUNDARIES ON OUTPUT.
Info: WRAPPING ALL CLUSTERS AROUND PERIODIC BOUNDARIES ON OUTPUT.
Info: FIRST LDB TIMESTEP     50
Info: LAST LDB TIMESTEP     -1
Info: HOM BACKGROUND SCALING 1
Info: PME BACKGROUND SCALING 1
Info: MIN ATOMS PER PATCH    40
Info: EMPTY PATCH LOAD       40 ATOMS
Info: VELOCITY FILE          mobley_5732611_equil.vel
Info: CENTER OF MASS MOVING INITIALLY? NO
Info: DIELECTRIC             1
Info: EXCLUDE                SCALED ONE-FOUR
Info: 1-4 ELECTROSTATICS SCALED BY 0.833333
Info: MODIFIED 1-4 VDW PARAMETERS WILL BE USED
Info: DCD FILENAME           mobley_5732611_prod.dcd
Info: DCD FREQUENCY          100000
Info: DCD FIRST STEP         100000
Info: DCD FILE WILL CONTAIN UNIT CELL DATA
Info: XST FILENAME           mobley_5732611_prod.xst
Info: XST FREQUENCY          100000
Info: NO VELOCITY DCD OUTPUT
Info: NO FORCE DCD OUTPUT
Info: OUTPUT FILENAME        mobley_5732611_prod
Info: BINARY OUTPUT FILES WILL BE USED
Info: RESTART FILENAME       mobley_5732611_prod.restart
Info: RESTART FREQUENCY      100000
Info: BINARY RESTART FILES WILL BE USED
Info: CUTOFF                 9
Info: PAIRLIST DISTANCE      11
Info: PAIRLIST SHRINK RATE   0.01
Info: PAIRLIST GROW RATE     0.01
Info: PAIRLIST TRIGGER       0.3
Info: PAIRLISTS PER CYCLE    2
Info: PAIRLISTS ENABLED
Info: MARGIN                 2
Info: HYDROGEN GROUP CUTOFF  2.5
Info: PATCH DIMENSION        15.5
Info: ENERGY OUTPUT STEPS    100000
Info: ENERGY EVALUATION STEPS    100000
Info: OUTPUT ENERGY PRECISION 4
Info: CROSSTERM ENERGY INCLUDED IN DIHEDRAL
Info: TIMING OUTPUT STEPS    1000000
Info: PRESSURE OUTPUT STEPS  100000
Info: ALCHEMICAL FEP ON
Info: FEP CURRENT LAMBDA VALUE     0
Info: FEP COMPARISON LAMBDA VALUE  0.05
Info: FEP INTRA-ALCHEMICAL NON-BONDED INTERACTIONS WILL BE RETAINED
Info: FEP INTRA-ALCHEMICAL BONDED INTERACTIONS WILL BE RETAINED
Info: FEP VDW SHIFTING COEFFICIENT 5
Info: FEP ELEC. ACTIVE FOR ANNIHILATED PARTICLES BETWEEN LAMBDA = 0 AND LAMBDA = 0.5
Info: FEP ELEC. ACTIVE FOR EXNIHILATED PARTICLES BETWEEN LAMBDA = 0.5 AND LAMBDA = 1
Info: FEP VDW ACTIVE FOR ANNIHILATED PARTICLES BETWEEN LAMBDA = 0 AND LAMBDA = 1
Info: FEP VDW ACTIVE FOR EXNIHILATED PARTICLES BETWEEN LAMBDA = 0 AND LAMBDA = 1
Info: FEP BOND ACTIVE FOR ANNIHILATED PARTICLES BETWEEN LAMBDA = 1 AND LAMBDA = 1
Info: FEP BOND ACTIVE FOR EXNIHILATED PARTICLES BETWEEN LAMBDA = 0 AND LAMBDA = 0
Info: LANGEVIN DYNAMICS ACTIVE
Info: LANGEVIN TEMPERATURE   300
Info: LANGEVIN USING BBK INTEGRATOR
Info: LANGEVIN DAMPING COEFFICIENT IS 1 INVERSE PS
Info: LANGEVIN DYNAMICS APPLIED TO HYDROGENS
Info: LANGEVIN PISTON PRESSURE CONTROL ACTIVE
Info:        TARGET PRESSURE IS 1.01325 BAR
Info:     OSCILLATION PERIOD IS 50 FS
Info:             DECAY TIME IS 25 FS
Info:     PISTON TEMPERATURE IS 300 K
Info:       PRESSURE CONTROL IS GROUP-BASED
Info:    INITIAL STRAIN RATE IS 4.17875e-06 4.17875e-06 4.17875e-06
Info:       CELL FLUCTUATION IS ISOTROPIC
Info: PARTICLE MESH EWALD (PME) ACTIVE
Info: PME TOLERANCE               1e-06
Info: PME EWALD COEFFICIENT       0.348832
Info: PME INTERPOLATION ORDER     4
Info: PME GRID DIMENSIONS         32 36 32
Info: PME MAXIMUM GRID SPACING    1
Info: PME CALCULATION WILL BE PERFORMED ON GPU
Info: FULL ELECTROSTATIC EVALUATION FREQUENCY      2
Info: USING VERLET I (r-RESPA) MTS SCHEME.
Info: C1 SPLITTING OF LONG RANGE ELECTROSTATICS
Info: PLACING ATOMS IN PATCHES BY HYDROGEN GROUPS
Info: RIGID BONDS TO HYDROGEN : ALL
Info:         ERROR TOLERANCE : 1e-08
Info:          MAX ITERATIONS : 100
Info: RIGID WATER USING SETTLE ALGORITHM
Info: RANDOM NUMBER SEED     1743534576
Info: USE HYDROGEN BONDS?    NO
Info: Using AMBER format force field!
Info: AMBER PARM FILE        mobley_5732611.prmtop
Info: COORDINATE PDB         mobley_5732611.pdb
Info: Exclusions will be read from PARM file!
Info: SCNB (VDW SCALING)     2
Info: USING ARITHMETIC MEAN TO COMBINE L-J SIGMA PARAMETERS
Info: BINARY COORDINATES     mobley_5732611_equil.coor
Info: SUMMARY OF PARAMETERS:
Info: 11 BONDS
Info: 14 ANGLES
Info:   14 HARMONIC
Info:   0 COSINE-BASED
Info: 5 DIHEDRAL
Info: 0 IMPROPER
Info: 0 CROSSTERM
Info: 0 VDW
Info: 45 VDW_PAIRS
Info: 0 NBTHOLE_PAIRS
Info: To read alchdata from file: mobley_5732611.pdb
Info: To read alchflag data from column: 5
Info: STRUCTURE SUMMARY:
Info: 2928 ATOMS
Info: 2928 BONDS
Info: 19 ANGLES
Info: 26 DIHEDRALS
Info: 0 IMPROPERS
Info: 0 CROSSTERMS
Info: 2964 EXCLUSIONS
Info: 2922 RIGID BONDS
Info: ALCH: 0 ATOMS TO DISAPPEAR IN FINAL STATE
Info: ALCH: 12 ATOMS TO APPEAR IN FINAL STATE
Info: 5862 DEGREES OF FREEDOM
Info: 978 HYDROGEN GROUPS
Info: 4 ATOMS IN LARGEST HYDROGEN GROUP
Info: 978 MIGRATION GROUPS
Info: 4 ATOMS IN LARGEST MIGRATION GROUP
Info: TOTAL MASS = 17593.7 amu
Info: TOTAL CHARGE = -0.000100072 e
Info: MASS DENSITY = 0.957481 g/cm^3
Info: ATOM DENSITY = 0.095959 atoms/A^3
Info: ADDED 0 IMPLICIT EXCLUSIONS
Info: NONBONDED TABLE R-SQUARED SPACING: 0.0625
Info: NONBONDED TABLE SIZE: 705 POINTS
Info: REDUCING NUMBER OF PATCHES TO IMPROVE LOAD BALANCE
Info: REMOVING COM VELOCITY 0.118653 -0.0374343 0.0078979
Info: Use 3D box decompostion in PME FFT.
Info: Updated CUDA force table with 4096 elements.
Info: Updated CUDA LJ table with 9 x 9 elements.
Info: Found 13 unique exclusion lists needing 24 bytes
TCL: Running for 1500000 steps
ETITLE: TS BOND ANGLE DIHED IMPRP ELECT VDW BOUNDARY MISC KINETIC TOTAL TEMP POTENTIAL TOTALAVG TEMPAVG PRESSURE GPRESSURE VOLUME PRESSAVG GPRESSAVG
ENERGY: 0 1.9464 2.3820 7.1030 0.0000 -10670.2543 1424.3837 0.0000 0.0000 1736.5403 -7497.8988 298.1463 -9234.4392 -7497.8988 298.1463 -374.6506 -318.9902 30513.0177 -374.6506 -318.9902
ENERGY: 300000 0.8766 4.2307 0.5579 0.0000 -10586.0012 1389.0956 0.0000 0.0000 1732.9627 -7458.2776 297.5321 -9191.2403 -7454.6974 297.7308 -438.0445 -332.9396 30251.4646 -281.5196 -213.6753
ENERGY: 600000 2.6873 3.7311 1.0000 0.0000 -10622.3284 1419.0697 0.0000 0.0000 1786.2298 -7409.6104 306.6775 -9195.8402 -7451.3231 300.3789 -91.4091 -80.1201 30206.2166 -215.4585 -165.3711
ENERGY: 900000 0.3208 5.8054 0.5840 0.0000 -10589.6774 1400.7842 0.0000 0.0000 1760.7574 -7421.4255 302.3041 -9182.1829 -7454.9699 300.1844 -286.3775 -269.3915 30168.4245 -176.8804 -121.6620
ENERGY: 1200000 3.4469 7.3794 0.6167 0.0000 -10572.5044 1345.3953 0.0000 0.0000 1782.8997 -7432.7664 306.1057 -9215.6660 -7450.1516 301.0440 -1013.4438 -924.3307 30450.7993 -260.5303 -200.0852
ENERGY: 1500000 1.6881 3.0308 1.9064 0.0000 -10392.5701 1322.5172 0.0000 0.0000 1794.9742 -7268.4534 308.1788 -9063.4276 -7443.4978 301.4998 -560.2433 -518.5207 30544.4172 -242.2991 -182.9542
TCL: Running FEP window   2: Lambda1 0.05   Lambda2 0.1    [dLambda 0.05  ]
TCL: Setting parameter firsttimestep to 0
TCL: Setting parameter alchLambda to 0.05
Info: NONBONDED TABLE R-SQUARED SPACING: 0.0625
Info: NONBONDED TABLE SIZE: 705 POINTS
TCL: Setting parameter alchLambda2 to 0.1
Info: NONBONDED TABLE R-SQUARED SPACING: 0.0625
Info: NONBONDED TABLE SIZE: 705 POINTS
TCL: Running for 1500000 steps
ETITLE: TS BOND ANGLE DIHED IMPRP ELECT VDW BOUNDARY MISC KINETIC TOTAL TEMP POTENTIAL TOTALAVG TEMPAVG PRESSURE GPRESSURE VOLUME PRESSAVG GPRESSAVG
ENERGY: 0 1.6881 3.0308 1.9064 0.0000 -10392.5706 1325.1079 0.0000 0.0000 1794.0613 -7266.7762 308.0221 -9060.8374 -7266.7762 308.0221 -595.8047 -513.2689 30544.4172 -595.8047 -513.2689
ENERGY: 300000 1.4195 5.8451 0.9780 0.0000 -10653.4511 1461.7206 0.0000 0.0000 1756.8945 -7426.5936 301.6409 -9183.4880 -7417.9900 301.9258 211.3567 253.4889 30091.9018 -109.7568 -42.8906
ENERGY: 600000 1.9254 6.0311 3.4889 0.0000 -10538.0331 1362.4931 0.0000 0.0000 1751.6253 -7412.4692 300.7362 -9164.0945 -7446.2209 299.6666 -693.0901 -639.0825 30565.7108 30.6092 100.6482
ENERGY: 900000 1.5243 5.4266 3.3425 0.0000 -10639.9078 1406.2664 0.0000 0.0000 1753.0519 -7470.2962 300.9812 -9223.3480 -7447.3293 299.0578 -426.6093 -324.3656 30124.2840 -26.8148 42.2844
ENERGY: 1200000 2.2058 4.7010 2.7232 0.0000 -10479.5612 1285.0982 0.0000 0.0000 1729.6147 -7455.2183 296.9572 -9184.8330 -7436.3431 298.7347 -1235.1006 -1142.0783 30343.8447 -183.8324 -113.1855
ENERGY: 1500000 1.6027 7.0857 2.1343 0.0000 -10384.2730 1293.4440 0.0000 0.0000 1747.1549 -7332.8514 299.9687 -9080.0063 -7429.6655 298.6607 -692.6538 -674.3894 30110.5726 -228.8388 -162.2243
TCL: Running FEP window   3: Lambda1 0.1    Lambda2 0.15000000000000002 [dLambda 0.05000000000000002]
TCL: Setting parameter firsttimestep to 0
TCL: Setting parameter alchLambda to 0.1
Info: NONBONDED TABLE R-SQUARED SPACING: 0.0625
Info: NONBONDED TABLE SIZE: 705 POINTS
TCL: Setting parameter alchLambda2 to 0.15000000000000002
Info: NONBONDED TABLE R-SQUARED SPACING: 0.0625
Info: NONBONDED TABLE SIZE: 705 POINTS
TCL: Running for 1500000 steps
ETITLE: TS BOND ANGLE DIHED IMPRP ELECT VDW BOUNDARY MISC KINETIC TOTAL TEMP POTENTIAL TOTALAVG TEMPAVG PRESSURE GPRESSURE VOLUME PRESSAVG GPRESSAVG
ENERGY: 0 1.6027 7.0857 2.1343 0.0000 -10384.2732 1293.1805 0.0000 0.0000 1746.2863 -7333.9837 299.8196 -9080.2700 -7333.9837 299.8196 -747.4342 -677.1211 30110.5726 -747.4342 -677.1211
ENERGY: 300000 0.4928 4.1010 1.7935 0.0000 -10578.0858 1376.7170 0.0000 0.0000 1743.3076 -7451.6738 299.3082 -9194.9814 -7414.2261 300.9762 -432.9495 -397.1987 30099.5753 -97.6758 -40.8897
ENERGY: 600000 1.5950 5.5097 2.0602 0.0000 -10598.2708 1387.0781 0.0000 0.0000 1803.0613 -7398.9665 309.5673 -9202.0278 -7418.9863 301.8827 -336.2044 -281.1245 29908.1816 -110.5826 -43.7454
ENERGY: 900000 5.2813 6.9542 1.3229 0.0000 -10712.1223 1535.1184 0.0000 0.0000 1696.6899 -7466.7555 291.3044 -9163.4454 -7434.6176 300.4839 811.9411 912.4548 30193.7382 -17.0830 56.2131
ENERGY: 1200000 1.1547 4.2779 1.5022 0.0000 -10568.3015 1444.6296 0.0000 0.0000 1791.0817 -7325.6553 307.5105 -9116.7370 -7426.9045 300.9446 469.8571 436.9197 30319.2867 -57.3633 7.4321
ENERGY: 1500000 1.7011 3.0374 0.8913 0.0000 -10610.6693 1415.8305 0.0000 0.0000 1712.5487 -7476.6603 294.0272 -9189.2089 -7429.8885 301.0418 -372.5700 -320.4408 30769.2015 -119.2434 -55.0316
TCL: Running FEP window   4: Lambda1 0.15000000000000002 Lambda2 0.2    [dLambda 0.04999999999999999]
TCL: Setting parameter firsttimestep to 0
TCL: Setting parameter alchLambda to 0.15000000000000002
Info: NONBONDED TABLE R-SQUARED SPACING: 0.0625
Info: NONBONDED TABLE SIZE: 705 POINTS
TCL: Setting parameter alchLambda2 to 0.2
Info: NONBONDED TABLE R-SQUARED SPACING: 0.0625
Info: NONBONDED TABLE SIZE: 705 POINTS
TCL: Running for 1500000 steps
ETITLE: TS BOND ANGLE DIHED IMPRP ELECT VDW BOUNDARY MISC KINETIC TOTAL TEMP POTENTIAL TOTALAVG TEMPAVG PRESSURE GPRESSURE VOLUME PRESSAVG GPRESSAVG
ENERGY: 0 1.7011 3.0374 0.8913 0.0000 -10610.6690 1416.0088 0.0000 0.0000 1711.6631 -7477.3671 293.8751 -9189.0302 -7477.3671 293.8751 -394.4507 -317.2226 30769.2015 -394.4507 -317.2226
ENERGY: 300000 1.0045 5.3132 1.4121 0.0000 -10587.3654 1389.7319 0.0000 0.0000 1752.7673 -7437.1364 300.9323 -9189.9038 -7444.6051 298.7028 -439.6877 -388.1130 30224.0243 -259.4978 -193.0813
ENERGY: 600000 0.4010 5.2493 1.7147 0.0000 -10635.4084 1443.1249 0.0000 0.0000 1729.0800 -7455.8385 296.8655 -9184.9185 -7464.4089 298.3310 -149.7710 -96.7719 30343.3973 -210.7440 -135.0448
ENERGY: 900000 1.5583 4.8574 3.7226 0.0000 -10477.8977 1382.0414 0.0000 0.0000 1727.4676 -7358.2504 296.5886 -9085.7180 -7455.0959 298.1731 -196.4190 -148.8654 30490.2887 -122.6337 -64.3552
ENERGY: 1200000 1.7011 4.3867 1.2505 0.0000 -10624.1771 1440.2720 0.0000 0.0000 1696.1748 -7480.3920 291.2160 -9176.5668 -7458.1511 297.2734 368.0066 358.2403 29650.1312 -175.2894 -130.2377
ENERGY: 1500000 0.3644 4.3261 0.3393 0.0000 -10503.2433 1347.2182 0.0000 0.0000 1719.2583 -7431.7370 295.1792 -9150.9953 -7454.5540 298.0485 -631.0648 -616.3481 30263.7867 -180.5632 -138.3578
TCL: Running FEP window   5: Lambda1 0.2    Lambda2 0.25   [dLambda 0.04999999999999999]
TCL: Setting parameter firsttimestep to 0
TCL: Setting parameter alchLambda to 0.2
Info: NONBONDED TABLE R-SQUARED SPACING: 0.0625
Info: NONBONDED TABLE SIZE: 705 POINTS
TCL: Setting parameter alchLambda2 to 0.25
Info: NONBONDED TABLE R-SQUARED SPACING: 0.0625
Info: NONBONDED TABLE SIZE: 705 POINTS
TCL: Running for 1500000 steps
ETITLE: TS BOND ANGLE DIHED IMPRP ELECT VDW BOUNDARY MISC KINETIC TOTAL TEMP POTENTIAL TOTALAVG TEMPAVG PRESSURE GPRESSURE VOLUME PRESSAVG GPRESSAVG
ENERGY: 0 0.3644 4.3261 0.3393 0.0000 -10503.2442 1347.3415 0.0000 0.0000 1718.4046 -7432.4684 295.0326 -9150.8729 -7432.4684 295.0326 -698.0257 -614.9174 30263.7867 -698.0257 -614.9174
ENERGY: 300000 3.1722 3.7117 2.5243 0.0000 -10659.0116 1431.4011 0.0000 0.0000 1743.9488 -7474.2536 299.4183 -9218.2024 -7430.2594 301.3773 -16.5598 50.2014 29978.8812 -424.8881 -357.3266
ENERGY: 600000 3.0814 3.1646 1.0620 0.0000 -10719.8848 1493.3165 0.0000 0.0000 1748.3604 -7470.8999 300.1757 -9219.2602 -7443.5465 301.7644 856.9712 942.9504 29390.3690 -73.9522 -11.8623
ENERGY: 900000 1.8044 4.6488 1.7114 0.0000 -10601.0007 1412.1477 0.0000 0.0000 1739.6021 -7441.0863 298.6720 -9180.6884 -7444.0999 301.2071 -109.3175 24.9864 29796.9373 -87.0932 -12.1694
ENERGY: 1200000 1.0016 4.2324 1.1530 0.0000 -10601.3035 1447.1040 0.0000 0.0000 1717.5292 -7430.2833 294.8823 -9147.8125 -7452.8791 299.9221 614.7863 587.5994 29752.0280 -67.7257 -3.4377
ENERGY: 1500000 2.9708 2.7282 3.0904 0.0000 -10666.3272 1430.3083 0.0000 0.0000 1765.9966 -7461.2329 303.2037 -9227.2295 -7441.2122 301.1054 69.3075 217.7211 29589.7248 -30.5975 30.2830
TCL: Running FEP window   6: Lambda1 0.25   Lambda2 0.3    [dLambda 0.04999999999999999]
TCL: Setting parameter firsttimestep to 0
TCL: Setting parameter alchLambda to 0.25
Info: NONBONDED TABLE R-SQUARED SPACING: 0.0625
Info: NONBONDED TABLE SIZE: 705 POINTS
TCL: Setting parameter alchLambda2 to 0.3
Info: NONBONDED TABLE R-SQUARED SPACING: 0.0625
Info: NONBONDED TABLE SIZE: 705 POINTS
TCL: Running for 1500000 steps
ETITLE: TS BOND ANGLE DIHED IMPRP ELECT VDW BOUNDARY MISC KINETIC TOTAL TEMP POTENTIAL TOTALAVG TEMPAVG PRESSURE GPRESSURE VOLUME PRESSAVG GPRESSAVG
ENERGY: 0 2.9709 2.7282 3.0904 0.0000 -10666.3258 1431.0333 0.0000 0.0000 1765.1448 -7461.3583 303.0574 -9226.5031 -7461.3583 303.0574 137.0887 223.6200 29589.7248 137.0887 223.6200
ENERGY: 300000 1.0903 3.1515 2.2169 0.0000 -10575.3436 1365.2210 0.0000 0.0000 1766.7533 -7436.9106 303.3336 -9203.6639 -7479.3624 302.7264 -688.1381 -625.3369 30188.2748 -128.1651 -75.0918
ENERGY: 600000 2.2375 3.3428 1.6101 0.0000 -10567.1916 1393.6491 0.0000 0.0000 1759.7198 -7406.6323 302.1260 -9166.3520 -7446.6570 302.6274 -103.2827 7.2912 29817.8551 -260.6239 -190.5154
ENERGY: 900000 1.2591 5.7402 2.3279 0.0000 -10781.0696 1534.9063 0.0000 0.0000 1751.2892 -7485.5469 300.6785 -9236.8361 -7464.9459 301.2712 723.5327 726.1521 29859.3696 -15.4839 35.5704
ENERGY: 1200000 1.8102 5.0716 1.0060 0.0000 -10706.9564 1475.6401 0.0000 0.0000 1722.8733 -7500.5552 295.7998 -9223.4285 -7476.4200 300.0960 256.9640 385.4993 29914.5489 -13.4461 49.0546
ENERGY: 1500000 1.8040 2.3685 1.5525 0.0000 -10600.1480 1358.0722 0.0000 0.0000 1767.0745 -7469.2763 303.3887 -9236.3508 -7480.5850 300.1700 -680.9044 -582.9703 30092.2914 -97.9778 -35.7452
TCL: Running FEP window   7: Lambda1 0.3    Lambda2 0.35   [dLambda 0.04999999999999999]
TCL: Setting parameter firsttimestep to 0
TCL: Setting parameter alchLambda to 0.3
Info: NONBONDED TABLE R-SQUARED SPACING: 0.0625
Info: NONBONDED TABLE SIZE: 705 POINTS
TCL: Setting parameter alchLambda2 to 0.35
Info: NONBONDED TABLE R-SQUARED SPACING: 0.0625
Info: NONBONDED TABLE SIZE: 705 POINTS
TCL: Running for 1500000 steps
ETITLE: TS BOND ANGLE DIHED IMPRP ELECT VDW BOUNDARY MISC KINETIC TOTAL TEMP POTENTIAL TOTALAVG TEMPAVG PRESSURE GPRESSURE VOLUME PRESSAVG GPRESSAVG
ENERGY: 0 1.8040 2.3685 1.5525 0.0000 -10600.1482 1357.6265 0.0000 0.0000 1766.2239 -7470.5728 303.2427 -9236.7968 -7470.5728 303.2427 -662.4683 -582.6393 30092.2914 -662.4683 -582.6393
ENERGY: 300000 1.2053 3.5855 0.3797 0.0000 -10592.5705 1397.9061 0.0000 0.0000 1773.2892 -7416.2047 304.4557 -9189.4939 -7456.3037 300.3747 -416.1343 -437.4006 30530.7525 146.7106 184.1180
ENERGY: 600000 1.0357 3.8851 2.3841 0.0000 -10737.6801 1535.6888 0.0000 0.0000 1708.0403 -7486.6460 293.2532 -9194.6864 -7458.3968 300.0045 863.4640 870.2749 30174.1062 -173.5219 -137.9737
ENERGY: 900000 0.5775 6.3656 1.5121 0.0000 -10708.3801 1487.7225 0.0000 0.0000 1803.4840 -7408.7184 309.6399 -9212.2024 -7462.3747 301.2339 414.0884 519.3880 30125.0241 -82.9512 -31.2950
ENERGY: 1200000 0.6534 5.8445 0.8992 0.0000 -10529.5455 1384.9374 0.0000 0.0000 1731.4607 -7405.7502 297.2742 -9137.2109 -7454.6364 301.1384 9.9180 98.1797 30039.1335 -89.3952 -29.2435
ENERGY: 1500000 3.3401 4.3194 1.5835 0.0000 -10509.2743 1339.5733 0.0000 0.0000 1739.2375 -7421.2205 298.6094 -9160.4580 -7444.6717 301.7269 -660.9731 -656.6707 30005.8925 -94.3987 -40.9797
TCL: Running FEP window   8: Lambda1 0.35   Lambda2 0.39999999999999997 [dLambda 0.04999999999999999]
TCL: Setting parameter firsttimestep to 0
TCL: Setting parameter alchLambda to 0.35
Info: NONBONDED TABLE R-SQUARED SPACING: 0.0625
Info: NONBONDED TABLE SIZE: 705 POINTS
TCL: Setting parameter alchLambda2 to 0.39999999999999997
Info: NONBONDED TABLE R-SQUARED SPACING: 0.0625
Info: NONBONDED TABLE SIZE: 705 POINTS
TCL: Running for 1500000 steps
ETITLE: TS BOND ANGLE DIHED IMPRP ELECT VDW BOUNDARY MISC KINETIC TOTAL TEMP POTENTIAL TOTALAVG TEMPAVG PRESSURE GPRESSURE VOLUME PRESSAVG GPRESSAVG
ENERGY: 0 3.3401 4.3194 1.5835 0.0000 -10509.2735 1339.1618 0.0000 0.0000 1738.3466 -7422.5221 298.4564 -9160.8687 -7422.5221 298.4564 -724.6937 -653.7330 30005.8925 -724.6937 -653.7330
ENERGY: 300000 0.1831 9.4940 0.9477 0.0000 -10572.8603 1334.7425 0.0000 0.0000 1715.2355 -7512.2575 294.4885 -9227.4930 -7466.4605 297.6625 -986.0042 -844.3909 30115.0230 -265.2149 -193.0694
ENERGY: 600000 1.7650 3.1258 1.9819 0.0000 -10690.4992 1434.4868 0.0000 0.0000 1719.7829 -7529.3568 295.2692 -9249.1397 -7483.3533 296.0366 -195.6644 -95.6417 30204.9845 -323.4248 -250.1216
ENERGY: 900000 0.6613 3.4399 0.9247 0.0000 -10700.2014 1435.0001 0.0000 0.0000 1750.1928 -7509.9827 300.4903 -9260.1755 -7471.2745 297.2233 -85.2284 -5.8405 29764.9244 -204.3137 -144.4170
ENERGY: 1200000 1.2401 7.6696 4.3571 0.0000 -10640.6858 1469.6012 0.0000 0.0000 1761.8851 -7395.9326 302.4977 -9157.8177 -7457.3484 298.4334 559.6610 579.4929 30064.4469 -103.7405 -48.5725
ENERGY: 1500000 2.9956 5.3723 3.1759 0.0000 -10754.8996 1497.2401 0.0000 0.0000 1677.7390 -7568.3768 288.0507 -9246.1158 -7458.6877 298.4571 -120.2227 -68.4905 30528.4186 -135.0872 -85.0709
TCL: Running FEP window   9: Lambda1 0.39999999999999997 Lambda2 0.44999999999999996 [dLambda 0.04999999999999999]
TCL: Setting parameter firsttimestep to 0
TCL: Setting parameter alchLambda to 0.39999999999999997
Info: NONBONDED TABLE R-SQUARED SPACING: 0.0625
Info: NONBONDED TABLE SIZE: 705 POINTS
TCL: Setting parameter alchLambda2 to 0.44999999999999996
Info: NONBONDED TABLE R-SQUARED SPACING: 0.0625
Info: NONBONDED TABLE SIZE: 705 POINTS
TCL: Running for 1500000 steps
ETITLE: TS BOND ANGLE DIHED IMPRP ELECT VDW BOUNDARY MISC KINETIC TOTAL TEMP POTENTIAL TOTALAVG TEMPAVG PRESSURE GPRESSURE VOLUME PRESSAVG GPRESSAVG
ENERGY: 0 2.9956 5.3723 3.1759 0.0000 -10754.9014 1496.9469 0.0000 0.0000 1676.8722 -7569.5386 287.9019 -9246.4107 -7569.5386 287.9019 -146.0717 -68.2924 30528.4186 -146.0717 -68.2924
ENERGY: 300000 0.9405 6.5526 2.8206 0.0000 -10822.3313 1493.8048 0.0000 0.0000 1798.7820 -7519.4308 308.8326 -9318.2128 -7484.0319 301.6095 458.9306 493.1367 29592.9807 302.8920 364.9352
ENERGY: 600000 1.7161 4.1785 3.5247 0.0000 -10651.1590 1403.4934 0.0000 0.0000 1679.2074 -7559.0389 288.3028 -9238.2462 -7480.8251 299.1750 -421.4473 -337.3692 29959.9331 -15.2869 54.7058
ENERGY: 900000 1.8754 7.3610 0.5852 0.0000 -10625.4826 1439.1817 0.0000 0.0000 1744.2143 -7432.2650 299.4639 -9176.4793 -7466.1997 299.9253 247.1951 288.6498 30035.7056 -10.2779 65.7984
ENERGY: 1200000 0.3552 3.3870 2.3041 0.0000 -10630.3300 1399.1682 0.0000 0.0000 1787.0457 -7438.0699 306.8176 -9225.1156 -7461.4148 300.4049 -278.9564 -277.4066 30173.9915 26.4163 97.3467
ENERGY: 1500000 1.0622 5.5740 0.5949 0.0000 -10693.6218 1519.7939 0.0000 0.0000 1743.4412 -7423.1555 299.3311 -9166.5967 -7455.0064 300.1786 806.0519 883.1462 29944.3011 130.8691 202.4249
TCL: Running FEP window  10: Lambda1 0.44999999999999996 Lambda2 0.49999999999999994 [dLambda 0.04999999999999999]
TCL: Setting parameter firsttimestep to 0
TCL: Setting parameter alchLambda to 0.44999999999999996
Info: NONBONDED TABLE R-SQUARED SPACING: 0.0625
Info: NONBONDED TABLE SIZE: 705 POINTS
TCL: Setting parameter alchLambda2 to 0.49999999999999994
Info: NONBONDED TABLE R-SQUARED SPACING: 0.0625
Info: NONBONDED TABLE SIZE: 705 POINTS
TCL: Running for 1500000 steps
ETITLE: TS BOND ANGLE DIHED IMPRP ELECT VDW BOUNDARY MISC KINETIC TOTAL TEMP POTENTIAL TOTALAVG TEMPAVG PRESSURE GPRESSURE VOLUME PRESSAVG GPRESSAVG
ENERGY: 0 1.0622 5.5740 0.5949 0.0000 -10693.6215 1520.3193 0.0000 0.0000 1742.5603 -7423.5108 299.1799 -9166.0711 -7423.5108 299.1799 811.5770 890.6838 29944.3011 811.5770 890.6838
ENERGY: 300000 4.1980 4.0052 2.1485 0.0000 -10599.9473 1379.3553 0.0000 0.0000 1734.8213 -7475.4190 297.8512 -9210.2403 -7438.0835 298.9523 -566.8129 -467.6937 30009.9337 54.6342 138.8652
ENERGY: 600000 0.6005 6.0540 5.0135 0.0000 -10568.7678 1369.8390 0.0000 0.0000 1666.3278 -7520.9330 286.0915 -9187.2608 -7442.4029 296.4332 -489.1286 -444.5173 30227.0144 25.0414 84.5488
ENERGY: 900000 2.7054 4.4056 0.5105 0.0000 -10632.2275 1437.3722 0.0000 0.0000 1753.2491 -7433.9848 301.0150 -9187.2339 -7445.2273 296.5975 -297.8209 -244.8268 30483.0966 -81.7176 -13.5074
ENERGY: 1200000 0.8141 3.0330 1.2461 0.0000 -10569.5325 1410.2446 0.0000 0.0000 1745.6712 -7408.5236 299.7140 -9154.1947 -7440.1366 297.4640 -331.9014 -208.2810 30553.2549 -171.7252 -95.4452
ENERGY: 1500000 4.2640 6.7196 1.7960 0.0000 -10634.8466 1405.0555 0.0000 0.0000 1683.3770 -7533.6345 289.0187 -9217.0115 -7445.3256 297.5901 -353.5651 -278.6465 30011.4047 -183.2502 -107.7930
TCL: Running FEP window  11: Lambda1 0.49999999999999994 Lambda2 0.5499999999999999 [dLambda 0.04999999999999999]
TCL: Setting parameter firsttimestep to 0
TCL: Setting parameter alchLambda to 0.49999999999999994
Info: NONBONDED TABLE R-SQUARED SPACING: 0.0625
Info: NONBONDED TABLE SIZE: 705 POINTS
TCL: Setting parameter alchLambda2 to 0.5499999999999999
Info: NONBONDED TABLE R-SQUARED SPACING: 0.0625
Info: NONBONDED TABLE SIZE: 705 POINTS
TCL: Running for 1500000 steps
ETITLE: TS BOND ANGLE DIHED IMPRP ELECT VDW BOUNDARY MISC KINETIC TOTAL TEMP POTENTIAL TOTALAVG TEMPAVG PRESSURE GPRESSURE VOLUME PRESSAVG GPRESSAVG
ENERGY: 0 4.2640 6.7196 1.7960 0.0000 -10634.8462 1405.0572 0.0000 0.0000 1682.4955 -7534.5139 288.8674 -9217.0094 -7534.5139 288.8674 -352.4142 -275.3026 30011.4047 -352.4142 -275.3026
ENERGY: 300000 1.4669 5.3586 0.4958 0.0000 -10682.1639 1412.6237 0.0000 0.0000 1802.2966 -7459.9223 309.4360 -9262.2190 -7478.6466 300.9437 -294.2363 -148.2846 29760.2877 -229.0661 -148.1301
ENERGY: 600000 1.9841 3.8035 1.6776 0.0000 -10612.0139 1401.0036 0.0000 0.0000 1690.2869 -7513.2583 290.2051 -9203.5452 -7466.1609 300.0466 -381.9631 -347.8148 30013.5485 -47.5789 21.7877
ENERGY: 900000 1.3956 4.2583 0.7104 0.0000 -10577.2554 1432.2767 0.0000 0.0000 1785.2673 -7353.3471 306.5122 -9138.6143 -7441.7704 301.5121 131.6408 180.2827 29896.2510 154.2788 214.7417
ENERGY: 1200000 2.5906 3.3896 1.5171 0.0000 -10723.9705 1518.5986 0.0000 0.0000 1720.7117 -7477.1630 295.4287 -9197.8746 -7439.8800 300.6449 740.9783 856.1790 29979.7580 153.8608 227.3484
ENERGY: 1500000 0.8611 5.8402 3.2888 0.0000 -10539.1163 1376.9427 0.0000 0.0000 1748.3224 -7403.8612 300.1692 -9152.1835 -7447.6007 299.9182 -365.0832 -273.6300 30419.4848 35.7634 105.5934
TCL: Running FEP window  12: Lambda1 0.5499999999999999 Lambda2 0.6    [dLambda 0.050000000000000044]
TCL: Setting parameter firsttimestep to 0
TCL: Setting parameter alchLambda to 0.5499999999999999
Info: NONBONDED TABLE R-SQUARED SPACING: 0.0625
Info: NONBONDED TABLE SIZE: 705 POINTS
TCL: Setting parameter alchLambda2 to 0.6
Info: NONBONDED TABLE R-SQUARED SPACING: 0.0625
Info: NONBONDED TABLE SIZE: 705 POINTS
TCL: Running for 1500000 steps
ETITLE: TS BOND ANGLE DIHED IMPRP ELECT VDW BOUNDARY MISC KINETIC TOTAL TEMP POTENTIAL TOTALAVG TEMPAVG PRESSURE GPRESSURE VOLUME PRESSAVG GPRESSAVG
ENERGY: 0 0.8611 5.8402 3.2888 0.0000 -10538.9122 1376.4851 0.0000 0.0000 1747.4440 -7404.9931 300.0184 -9152.4370 -7404.9931 300.0184 -355.7827 -270.0226 30419.4848 -355.7827 -270.0226
ENERGY: 300000 0.6355 5.0014 1.8248 0.0000 -10522.4256 1398.5008 0.0000 0.0000 1704.7317 -7411.7314 292.6851 -9116.4631 -7431.8796 297.6960 -113.6425 -24.8413 30161.0458 33.4776 96.8565
ENERGY: 600000 2.2777 5.2830 0.7727 0.0000 -10674.5158 1474.1612 0.0000 0.0000 1750.4365 -7441.5847 300.5321 -9192.0212 -7441.7905 299.8441 556.8766 653.8489 30070.1227 185.6805 250.8692
ENERGY: 900000 1.4950 4.4311 0.7340 0.0000 -10726.0943 1462.2920 0.0000 0.0000 1689.2235 -7567.9188 290.0225 -9257.1423 -7445.2523 300.0960 56.8261 205.5313 29842.6028 198.6232 274.4254
ENERGY: 1200000 0.7625 3.8480 0.9747 0.0000 -10657.6811 1409.6588 0.0000 0.0000 1745.9021 -7496.5350 299.7536 -9242.4371 -7442.5731 299.5666 -123.6468 -24.9754 30022.1198 97.3114 176.6455
ENERGY: 1500000 2.1235 3.2434 1.0862 0.0000 -10531.9378 1371.4306 0.0000 0.0000 1690.9642 -7463.0898 290.3214 -9154.0541 -7440.3700 299.7363 -353.7483 -334.1469 30115.7919 56.9690 131.4277
TCL: Running FEP window  13: Lambda1 0.6    Lambda2 0.65   [dLambda 0.050000000000000044]
TCL: Setting parameter firsttimestep to 0
TCL: Setting parameter alchLambda to 0.6
Info: NONBONDED TABLE R-SQUARED SPACING: 0.0625
Info: NONBONDED TABLE SIZE: 705 POINTS
TCL: Setting parameter alchLambda2 to 0.65
Info: NONBONDED TABLE R-SQUARED SPACING: 0.0625
Info: NONBONDED TABLE SIZE: 705 POINTS
TCL: Running for 1500000 steps
ETITLE: TS BOND ANGLE DIHED IMPRP ELECT VDW BOUNDARY MISC KINETIC TOTAL TEMP POTENTIAL TOTALAVG TEMPAVG PRESSURE GPRESSURE VOLUME PRESSAVG GPRESSAVG
ENERGY: 0 2.1235 3.2434 1.0862 0.0000 -10532.1602 1372.6438 0.0000 0.0000 1690.0606 -7463.0027 290.1662 -9153.0633 -7463.0027 290.1662 -388.2156 -317.5829 30115.7919 -388.2156 -317.5829
ENERGY: 300000 0.6474 3.4636 0.9560 0.0000 -10598.5484 1385.2699 0.0000 0.0000 1777.9309 -7430.2807 305.2526 -9208.2116 -7423.3809 301.9686 -381.1648 -308.8074 30135.5720 29.0502 111.5051
ENERGY: 600000 1.3148 3.9958 2.2090 0.0000 -10477.8268 1306.6142 0.0000 0.0000 1775.5952 -7388.0979 304.8516 -9163.6930 -7424.3320 300.4839 -963.2626 -941.5398 30521.2221 123.6941 186.1998
ENERGY: 900000 0.4390 4.6834 1.2485 0.0000 -10696.4452 1481.1726 0.0000 0.0000 1734.2898 -7474.6119 297.7599 -9208.9016 -7425.9572 300.7241 460.9237 558.1197 29889.3902 89.1511 148.9076
ENERGY: 1200000 0.4058 5.4090 1.9814 0.0000 -10711.1235 1456.6347 0.0000 0.0000 1770.1405 -7476.5521 303.9151 -9246.6926 -7442.3796 299.7431 -56.3313 14.0211 30248.9398 -84.2362 -22.5329
ENERGY: 1500000 2.7316 4.8875 0.7742 0.0000 -10657.1846 1485.1713 0.0000 0.0000 1743.9971 -7419.6229 299.4266 -9163.6200 -7440.8045 299.3738 482.8402 540.9004 30086.4733 -53.7904 8.6249
TCL: Running FEP window  14: Lambda1 0.65   Lambda2 0.7000000000000001 [dLambda 0.050000000000000044]
TCL: Setting parameter firsttimestep to 0
TCL: Setting parameter alchLambda to 0.65
Info: NONBONDED TABLE R-SQUARED SPACING: 0.0625
Info: NONBONDED TABLE SIZE: 705 POINTS
TCL: Setting parameter alchLambda2 to 0.7000000000000001
Info: NONBONDED TABLE R-SQUARED SPACING: 0.0625
Info: NONBONDED TABLE SIZE: 705 POINTS
TCL: Running for 1500000 steps
ETITLE: TS BOND ANGLE DIHED IMPRP ELECT VDW BOUNDARY MISC KINETIC TOTAL TEMP POTENTIAL TOTALAVG TEMPAVG PRESSURE GPRESSURE VOLUME PRESSAVG GPRESSAVG
ENERGY: 0 2.7316 4.8875 0.7742 0.0000 -10658.1068 1485.3244 0.0000 0.0000 1743.1297 -7421.2594 299.2776 -9164.3892 -7421.2594 299.2776 450.8699 548.8694 30086.4733 450.8699 548.8694
ENERGY: 300000 2.9713 3.9242 2.1175 0.0000 -10665.4060 1424.3307 0.0000 0.0000 1740.8826 -7491.1797 298.8918 -9232.0624 -7462.9512 294.7975 -557.7952 -477.4731 30493.6540 -245.1139 -176.9189
ENERGY: 600000 2.2776 5.7622 1.6332 0.0000 -10482.3050 1287.0215 0.0000 0.0000 1696.9595 -7488.6510 291.3507 -9185.6105 -7462.1950 296.2996 -1082.7611 -1029.0619 30149.7442 -173.1694 -118.7060
ENERGY: 900000 2.3072 4.8508 1.3862 0.0000 -10553.6162 1405.3277 0.0000 0.0000 1735.0102 -7404.7341 297.8836 -9139.7444 -7456.8502 296.9951 -141.9405 -89.1134 30224.1846 -112.1066 -63.1609
ENERGY: 1200000 1.4206 6.8392 1.6195 0.0000 -10531.4728 1416.3314 0.0000 0.0000 1744.4712 -7360.7909 299.5080 -9105.2620 -7450.4180 297.4664 104.4589 129.9471 30416.8021 -134.5164 -75.3652
ENERGY: 1500000 1.2691 3.3314 2.3886 0.0000 -10618.8633 1385.8557 0.0000 0.0000 1765.8913 -7460.1271 303.1856 -9226.0184 -7451.0557 298.2213 -527.4139 -470.9560 30474.4471 -159.0962 -101.9107
TCL: Running FEP window  15: Lambda1 0.7000000000000001 Lambda2 0.7500000000000001 [dLambda 0.050000000000000044]
TCL: Setting parameter firsttimestep to 0
TCL: Setting parameter alchLambda to 0.7000000000000001
Info: NONBONDED TABLE R-SQUARED SPACING: 0.0625
Info: NONBONDED TABLE SIZE: 705 POINTS
TCL: Setting parameter alchLambda2 to 0.7500000000000001
Info: NONBONDED TABLE R-SQUARED SPACING: 0.0625
Info: NONBONDED TABLE SIZE: 705 POINTS
TCL: Running for 1500000 steps
ETITLE: TS BOND ANGLE DIHED IMPRP ELECT VDW BOUNDARY MISC KINETIC TOTAL TEMP POTENTIAL TOTALAVG TEMPAVG PRESSURE GPRESSURE VOLUME PRESSAVG GPRESSAVG
ENERGY: 0 1.2691 3.3314 2.3886 0.0000 -10620.0319 1386.4015 0.0000 0.0000 1765.0571 -7461.5842 303.0424 -9226.6413 -7461.5842 303.0424 -543.4525 -461.5512 30474.4471 -543.4525 -461.5512
ENERGY: 300000 1.7565 5.8480 1.4065 0.0000 -10742.7069 1480.2583 0.0000 0.0000 1752.1086 -7501.3289 300.8192 -9253.4376 -7437.4232 306.9865 634.6477 690.6384 29259.5263 -250.6648 -195.0067
ENERGY: 600000 2.3027 8.1744 2.1102 0.0000 -10735.5871 1454.4424 0.0000 0.0000 1765.9408 -7502.6165 303.1941 -9268.5574 -7449.7866 306.0585 -23.8694 23.1212 30119.1873 -192.4491 -140.3723
ENERGY: 900000 0.5432 4.1598 1.9437 0.0000 -10609.2090 1436.7003 0.0000 0.0000 1733.7983 -7432.0637 297.6755 -9165.8620 -7452.7874 303.6011 -20.5641 60.8221 30466.0150 -213.6086 -158.7195
ENERGY: 1200000 0.1263 2.8245 0.9267 0.0000 -10810.6153 1519.7038 0.0000 0.0000 1656.4894 -7630.5447 284.4024 -9287.0341 -7458.7104 301.8414 272.0883 338.5017 30032.1580 -134.1656 -72.6352
ENERGY: 1500000 2.7011 5.1682 2.0211 0.0000 -10753.7709 1521.4529 0.0000 0.0000 1731.5380 -7490.8896 297.2875 -9222.4276 -7451.0931 301.7492 748.7488 809.3803 30280.4603 -79.9116 -21.6919
TCL: Running FEP window  16: Lambda1 0.7500000000000001 Lambda2 0.8000000000000002 [dLambda 0.050000000000000044]
TCL: Setting parameter firsttimestep to 0
TCL: Setting parameter alchLambda to 0.7500000000000001
Info: NONBONDED TABLE R-SQUARED SPACING: 0.0625
Info: NONBONDED TABLE SIZE: 705 POINTS
TCL: Setting parameter alchLambda2 to 0.8000000000000002
Info: NONBONDED TABLE R-SQUARED SPACING: 0.0625
Info: NONBONDED TABLE SIZE: 705 POINTS
TCL: Running for 1500000 steps
ETITLE: TS BOND ANGLE DIHED IMPRP ELECT VDW BOUNDARY MISC KINETIC TOTAL TEMP POTENTIAL TOTALAVG TEMPAVG PRESSURE GPRESSURE VOLUME PRESSAVG GPRESSAVG
ENERGY: 0 2.7011 5.1682 2.0211 0.0000 -10755.7938 1523.5082 0.0000 0.0000 1730.6767 -7491.7184 297.1396 -9222.3951 -7491.7184 297.1396 751.1324 832.9222 30280.4603 751.1324 832.9222
ENERGY: 300000 0.7139 5.1380 2.1709 0.0000 -10568.1134 1381.8851 0.0000 0.0000 1777.7879 -7400.4176 305.2281 -9178.2055 -7455.0400 300.3547 -100.9127 -21.2359 29937.2014 340.1978 391.7919
ENERGY: 600000 0.2374 3.8376 1.0528 0.0000 -10717.9073 1475.8341 0.0000 0.0000 1710.9452 -7526.0003 293.7519 -9236.9455 -7488.2709 297.4203 376.1970 384.4389 29876.3810 145.9444 195.7181
ENERGY: 900000 0.7870 3.7238 1.4950 0.0000 -10650.1029 1378.8133 0.0000 0.0000 1699.8488 -7565.4350 291.8468 -9265.2838 -7493.3107 297.8836 -545.0755 -451.3968 29952.1996 136.3247 198.3446
ENERGY: 1200000 2.4655 3.5007 1.4530 0.0000 -10632.5293 1427.5187 0.0000 0.0000 1755.1068 -7442.4846 301.3340 -9197.5914 -7483.9824 298.4774 84.5822 185.5069 30281.4416 96.8866 163.8146
ENERGY: 1500000 1.1088 10.2026 2.7411 0.0000 -10652.0837 1482.2147 0.0000 0.0000 1754.3683 -7401.4481 301.2072 -9155.8165 -7475.8431 299.0056 628.6872 696.8995 29741.8789 162.7740 229.8179
TCL: Running FEP window  17: Lambda1 0.8000000000000002 Lambda2 0.8500000000000002 [dLambda 0.050000000000000044]
TCL: Setting parameter firsttimestep to 0
TCL: Setting parameter alchLambda to 0.8000000000000002
Info: NONBONDED TABLE R-SQUARED SPACING: 0.0625
Info: NONBONDED TABLE SIZE: 705 POINTS
TCL: Setting parameter alchLambda2 to 0.8500000000000002
Info: NONBONDED TABLE R-SQUARED SPACING: 0.0625
Info: NONBONDED TABLE SIZE: 705 POINTS
TCL: Running for 1500000 steps
ETITLE: TS BOND ANGLE DIHED IMPRP ELECT VDW BOUNDARY MISC KINETIC TOTAL TEMP POTENTIAL TOTALAVG TEMPAVG PRESSURE GPRESSURE VOLUME PRESSAVG GPRESSAVG
ENERGY: 0 1.1088 10.2026 2.7411 0.0000 -10653.4296 1482.1605 0.0000 0.0000 1753.5105 -7403.7061 301.0599 -9157.2166 -7403.7061 301.0599 614.4799 702.1291 29741.8789 614.4799 702.1291
ENERGY: 300000 3.6233 5.7897 0.1916 0.0000 -10619.5503 1406.6091 0.0000 0.0000 1776.7289 -7426.6078 305.0463 -9203.3367 -7412.5534 301.8716 -84.0427 -27.8182 30251.7833 223.5744 289.7544
ENERGY: 600000 0.5633 4.5294 1.5845 0.0000 -10454.3936 1335.0956 0.0000 0.0000 1726.3912 -7386.2296 296.4038 -9112.6208 -7416.3074 301.1906 -383.0544 -345.0034 30182.7151 -17.3655 51.5772
ENERGY: 900000 1.2032 6.7419 2.1854 0.0000 -10680.0428 1460.6108 0.0000 0.0000 1724.3967 -7484.9049 296.0614 -9209.3016 -7430.7813 300.5310 623.1760 666.8216 29837.2612 -61.9692 -1.6955
ENERGY: 1200000 1.0571 3.2192 2.8420 0.0000 -10788.4783 1502.3686 0.0000 0.0000 1719.5358 -7559.4556 295.2268 -9278.9914 -7450.2227 300.0482 440.5170 487.0863 29881.7778 16.9246 77.9412
ENERGY: 1500000 2.6068 5.5025 1.7465 0.0000 -10639.4762 1447.3317 0.0000 0.0000 1804.0358 -7378.2528 309.7346 -9182.2886 -7447.0599 300.4026 159.1569 231.6802 30351.2887 18.8842 84.7571
TCL: Running FEP window  18: Lambda1 0.8500000000000002 Lambda2 0.9000000000000002 [dLambda 0.050000000000000044]
TCL: Setting parameter firsttimestep to 0
TCL: Setting parameter alchLambda to 0.8500000000000002
Info: NONBONDED TABLE R-SQUARED SPACING: 0.0625
Info: NONBONDED TABLE SIZE: 705 POINTS
TCL: Setting parameter alchLambda2 to 0.9000000000000002
Info: NONBONDED TABLE R-SQUARED SPACING: 0.0625
Info: NONBONDED TABLE SIZE: 705 POINTS
TCL: Running for 1500000 steps
ETITLE: TS BOND ANGLE DIHED IMPRP ELECT VDW BOUNDARY MISC KINETIC TOTAL TEMP POTENTIAL TOTALAVG TEMPAVG PRESSURE GPRESSURE VOLUME PRESSAVG GPRESSAVG
ENERGY: 0 2.6068 5.5025 1.7465 0.0000 -10640.7803 1447.4142 0.0000 0.0000 1803.1787 -7380.3315 309.5874 -9183.5102 -7380.3315 309.5874 151.2064 238.3137 30351.2887 151.2064 238.3137
ENERGY: 300000 2.9283 4.3816 0.6891 0.0000 -10711.3260 1487.2888 0.0000 0.0000 1771.2337 -7444.8046 304.1028 -9216.0382 -7410.4053 305.0519 584.1529 680.2307 29693.5329 190.8498 260.5301
ENERGY: 600000 1.0878 4.3519 2.1058 0.0000 -10457.6079 1341.8955 0.0000 0.0000 1770.8215 -7337.3455 304.0320 -9108.1669 -7407.5394 304.1696 -558.5116 -566.2173 30671.2208 -29.9725 34.2747
ENERGY: 900000 2.2699 3.5466 1.6229 0.0000 -10614.1758 1444.5262 0.0000 0.0000 1743.9101 -7418.3000 299.4116 -9162.2101 -7419.9923 302.1755 173.4156 253.0802 30260.6094 -103.5376 -33.8143
ENERGY: 1200000 1.1329 7.4779 0.8748 0.0000 -10701.4526 1436.0981 0.0000 0.0000 1787.4634 -7468.4054 306.8893 -9255.8688 -7426.8317 301.4070 -39.2582 44.1279 29898.0006 -27.4261 42.5768
ENERGY: 1500000 0.1529 5.4240 1.4097 0.0000 -10597.5278 1393.8743 0.0000 0.0000 1741.5224 -7455.1445 299.0017 -9196.6669 -7426.7144 301.7315 -182.8889 -112.9453 29974.3862 -80.7062 -12.1663
TCL: Running FEP window  19: Lambda1 0.9000000000000002 Lambda2 0.9500000000000003 [dLambda 0.050000000000000044]
TCL: Setting parameter firsttimestep to 0
TCL: Setting parameter alchLambda to 0.9000000000000002
Info: NONBONDED TABLE R-SQUARED SPACING: 0.0625
Info: NONBONDED TABLE SIZE: 705 POINTS
TCL: Setting parameter alchLambda2 to 0.9500000000000003
Info: NONBONDED TABLE R-SQUARED SPACING: 0.0625
Info: NONBONDED TABLE SIZE: 705 POINTS
TCL: Running for 1500000 steps
ETITLE: TS BOND ANGLE DIHED IMPRP ELECT VDW BOUNDARY MISC KINETIC TOTAL TEMP POTENTIAL TOTALAVG TEMPAVG PRESSURE GPRESSURE VOLUME PRESSAVG GPRESSAVG
ENERGY: 0 0.1529 5.4240 1.4097 0.0000 -10599.5546 1394.4103 0.0000 0.0000 1740.6788 -7457.4789 298.8569 -9198.1578 -7457.4789 298.8569 -180.9892 -98.1569 29974.3862 -180.9892 -98.1569
ENERGY: 300000 1.1835 7.3887 1.2690 0.0000 -10635.5521 1412.9143 0.0000 0.0000 1768.2266 -7444.5700 303.5865 -9212.7966 -7467.8005 299.9600 -82.5835 -40.5848 29825.8787 162.9619 214.8286
ENERGY: 600000 1.6140 6.5294 1.6856 0.0000 -10730.2739 1475.0776 0.0000 0.0000 1742.5160 -7502.8513 299.1723 -9245.3674 -7458.3634 301.9031 98.6497 213.9588 30276.5184 149.5818 212.6953
ENERGY: 900000 1.1652 4.1257 1.0880 0.0000 -10641.0668 1404.2860 0.0000 0.0000 1760.8653 -7469.5367 302.3227 -9230.4019 -7442.7415 301.8695 -41.1307 95.5771 29868.3161 69.9826 138.4454
ENERGY: 1200000 1.0218 3.8727 0.7883 0.0000 -10560.0237 1376.1558 0.0000 0.0000 1714.6421 -7463.5430 294.3866 -9178.1851 -7456.2949 300.9938 -575.0162 -513.3757 30556.4024 -115.0404 -51.6504
ENERGY: 1500000 0.2456 2.8648 0.9348 0.0000 -10640.2213 1405.7666 0.0000 0.0000 1631.9297 -7598.4797 280.1857 -9230.4095 -7463.4420 300.2322 -426.5176 -360.0557 30163.3418 -90.0056 -23.4370
TCL: Running FEP window  20: Lambda1 0.9500000000000003 Lambda2 1.0    [dLambda 0.04999999999999971]
TCL: Setting parameter firsttimestep to 0
TCL: Setting parameter alchLambda to 0.9500000000000003
Info: NONBONDED TABLE R-SQUARED SPACING: 0.0625
Info: NONBONDED TABLE SIZE: 705 POINTS
TCL: Setting parameter alchLambda2 to 1.0
Info: NONBONDED TABLE R-SQUARED SPACING: 0.0625
Info: NONBONDED TABLE SIZE: 705 POINTS
TCL: Running for 1500000 steps
ETITLE: TS BOND ANGLE DIHED IMPRP ELECT VDW BOUNDARY MISC KINETIC TOTAL TEMP POTENTIAL TOTALAVG TEMPAVG PRESSURE GPRESSURE VOLUME PRESSAVG GPRESSAVG
ENERGY: 0 0.2456 2.8648 0.9348 0.0000 -10642.3669 1406.1724 0.0000 0.0000 1631.0668 -7601.0824 280.0376 -9232.1492 -7601.0824 280.0376 -446.5816 -349.8019 30163.3418 -446.5816 -349.8019
ENERGY: 300000 1.6459 2.9234 0.7143 0.0000 -10553.5885 1381.7579 0.0000 0.0000 1750.1471 -7416.3999 300.4825 -9166.5470 -7474.0957 297.0054 -378.2718 -389.6113 30716.5763 -209.6949 -165.1344
ENERGY: 600000 2.3297 3.7838 1.6725 0.0000 -10665.2551 1428.5836 0.0000 0.0000 1747.0510 -7481.8346 299.9509 -9228.8856 -7468.4405 298.9553 -253.4319 -172.1415 30475.8690 -160.9601 -113.9494
ENERGY: 900000 1.3158 4.7414 1.1445 0.0000 -10569.8603 1411.4463 0.0000 0.0000 1705.6403 -7445.5720 292.8411 -9151.2123 -7468.1765 298.5437 13.5453 109.6508 30171.1134 -102.2004 -45.4725
ENERGY: 1200000 2.2467 5.1740 3.1089 0.0000 -10717.4210 1482.8539 0.0000 0.0000 1691.6493 -7532.3882 290.4390 -9224.0375 -7475.0489 297.7139 169.7663 231.5873 30347.1371 -124.7080 -66.6795
ENERGY: 1500000 0.4622 4.2558 3.0286 0.0000 -10630.0637 1403.5538 0.0000 0.0000 1698.8998 -7519.8634 291.6838 -9218.7633 -7476.5876 296.8820 -139.2451 -181.4481 30013.5711 -93.2324 -45.5609
TCL: Exiting due to exit command.
