Info: SIMULATION PARAMETERS:
Info: TIMESTEP               2
Info: NUMBER OF STEPS        0
Info: STEPS PER CYCLE        10
Info: PERIODIC CELL BASIS 1  31.2987 0 0
Info: PERIODIC CELL BASIS 2  0 31.2019 0
Info: PERIODIC CELL BASIS 3  0 0 30.2435
Info: PERIODIC CELL CENTER   0 0 0
Info: WRAPPING WATERS AROUND PERIODIC BOUNDARIES ON OUTPUT.
Info: WRAPPING ALL CLUSTERS AROUND PERIODIC BOUNDARIES ON OUTPUT.
Info: FIRST LDB TIMESTEP     50
Info: LAST LDB TIMESTEP     -1
Info: HOM BACKGROUND SCALING 1
Info: PME BACKGROUND SCALING 1
Info: MIN ATOMS PER PATCH    40
Info: EMPTY PATCH LOAD       40 ATOMS
Info: VELOCITY FILE          mobley_8118832_equil.vel
Info: CENTER OF MASS MOVING INITIALLY? NO
Info: DIELECTRIC             1
Info: EXCLUDE                SCALED ONE-FOUR
Info: 1-4 ELECTROSTATICS SCALED BY 0.833333
Info: MODIFIED 1-4 VDW PARAMETERS WILL BE USED
Info: DCD FILENAME           mobley_8118832_prod.dcd
Info: DCD FREQUENCY          100000
Info: DCD FIRST STEP         100000
Info: DCD FILE WILL CONTAIN UNIT CELL DATA
Info: XST FILENAME           mobley_8118832_prod.xst
Info: XST FREQUENCY          100000
Info: NO VELOCITY DCD OUTPUT
Info: NO FORCE DCD OUTPUT
Info: OUTPUT FILENAME        mobley_8118832_prod
Info: BINARY OUTPUT FILES WILL BE USED
Info: RESTART FILENAME       mobley_8118832_prod.restart
Info: RESTART FREQUENCY      100000
Info: BINARY RESTART FILES WILL BE USED
Info: CUTOFF                 9
Info: PAIRLIST DISTANCE      11
Info: PAIRLIST SHRINK RATE   0.01
Info: PAIRLIST GROW RATE     0.01
Info: PAIRLIST TRIGGER       0.3
Info: PAIRLISTS PER CYCLE    2
Info: PAIRLISTS ENABLED
Info: MARGIN                 2
Info: HYDROGEN GROUP CUTOFF  2.5
Info: PATCH DIMENSION        15.5
Info: ENERGY OUTPUT STEPS    100000
Info: ENERGY EVALUATION STEPS    100000
Info: OUTPUT ENERGY PRECISION 4
Info: CROSSTERM ENERGY INCLUDED IN DIHEDRAL
Info: TIMING OUTPUT STEPS    1000000
Info: PRESSURE OUTPUT STEPS  100000
Info: ALCHEMICAL FEP ON
Info: FEP CURRENT LAMBDA VALUE     1
Info: FEP COMPARISON LAMBDA VALUE  0.95
Info: FEP INTRA-ALCHEMICAL NON-BONDED INTERACTIONS WILL BE RETAINED
Info: FEP INTRA-ALCHEMICAL BONDED INTERACTIONS WILL BE RETAINED
Info: FEP VDW SHIFTING COEFFICIENT 5
Info: FEP ELEC. ACTIVE FOR ANNIHILATED PARTICLES BETWEEN LAMBDA = 0 AND LAMBDA = 0.5
Info: FEP ELEC. ACTIVE FOR EXNIHILATED PARTICLES BETWEEN LAMBDA = 0.5 AND LAMBDA = 1
Info: FEP VDW ACTIVE FOR ANNIHILATED PARTICLES BETWEEN LAMBDA = 0 AND LAMBDA = 1
Info: FEP VDW ACTIVE FOR EXNIHILATED PARTICLES BETWEEN LAMBDA = 0 AND LAMBDA = 1
Info: FEP BOND ACTIVE FOR ANNIHILATED PARTICLES BETWEEN LAMBDA = 1 AND LAMBDA = 1
Info: FEP BOND ACTIVE FOR EXNIHILATED PARTICLES BETWEEN LAMBDA = 0 AND LAMBDA = 0
Info: LANGEVIN DYNAMICS ACTIVE
Info: LANGEVIN TEMPERATURE   300
Info: LANGEVIN USING BBK INTEGRATOR
Info: LANGEVIN DAMPING COEFFICIENT IS 1 INVERSE PS
Info: LANGEVIN DYNAMICS APPLIED TO HYDROGENS
Info: LANGEVIN PISTON PRESSURE CONTROL ACTIVE
Info:        TARGET PRESSURE IS 1.01325 BAR
Info:     OSCILLATION PERIOD IS 50 FS
Info:             DECAY TIME IS 25 FS
Info:     PISTON TEMPERATURE IS 300 K
Info:       PRESSURE CONTROL IS GROUP-BASED
Info:    INITIAL STRAIN RATE IS -0.000108554 -0.000108554 -0.000108554
Info:       CELL FLUCTUATION IS ISOTROPIC
Info: PARTICLE MESH EWALD (PME) ACTIVE
Info: PME TOLERANCE               1e-06
Info: PME EWALD COEFFICIENT       0.348832
Info: PME INTERPOLATION ORDER     4
Info: PME GRID DIMENSIONS         32 32 32
Info: PME MAXIMUM GRID SPACING    1
Info: PME CALCULATION WILL BE PERFORMED ON GPU
Info: FULL ELECTROSTATIC EVALUATION FREQUENCY      2
Info: USING VERLET I (r-RESPA) MTS SCHEME.
Info: C1 SPLITTING OF LONG RANGE ELECTROSTATICS
Info: PLACING ATOMS IN PATCHES BY HYDROGEN GROUPS
Info: RIGID BONDS TO HYDROGEN : ALL
Info:         ERROR TOLERANCE : 1e-08
Info:          MAX ITERATIONS : 100
Info: RIGID WATER USING SETTLE ALGORITHM
Info: RANDOM NUMBER SEED     1743679201
Info: USE HYDROGEN BONDS?    NO
Info: Using AMBER format force field!
Info: AMBER PARM FILE        mobley_8118832.prmtop
Info: COORDINATE PDB         mobley_8118832.pdb
Info: Exclusions will be read from PARM file!
Info: SCNB (VDW SCALING)     2
Info: USING ARITHMETIC MEAN TO COMBINE L-J SIGMA PARAMETERS
Info: BINARY COORDINATES     mobley_8118832_equil.coor
Info: SUMMARY OF PARAMETERS:
Info: 8 BONDS
Info: 9 ANGLES
Info:   9 HARMONIC
Info:   0 COSINE-BASED
Info: 4 DIHEDRAL
Info: 0 IMPROPER
Info: 0 CROSSTERM
Info: 0 VDW
Info: 28 VDW_PAIRS
Info: 0 NBTHOLE_PAIRS
Info: To read alchdata from file: mobley_8118832.pdb
Info: To read alchflag data from column: 5
Info: STRUCTURE SUMMARY:
Info: 2902 ATOMS
Info: 2901 BONDS
Info: 13 ANGLES
Info: 15 DIHEDRALS
Info: 0 IMPROPERS
Info: 0 CROSSTERMS
Info: 2927 EXCLUSIONS
Info: 2898 RIGID BONDS
Info: ALCH: 0 ATOMS TO DISAPPEAR IN FINAL STATE
Info: ALCH: 10 ATOMS TO APPEAR IN FINAL STATE
Info: 5808 DEGREES OF FREEDOM
Info: 968 HYDROGEN GROUPS
Info: 3 ATOMS IN LARGEST HYDROGEN GROUP
Info: 968 MIGRATION GROUPS
Info: 3 ATOMS IN LARGEST MIGRATION GROUP
Info: TOTAL MASS = 17425.5 amu
Info: TOTAL CHARGE = -0.000200007 e
Info: MASS DENSITY = 0.979723 g/cm^3
Info: ATOM DENSITY = 0.0982553 atoms/A^3
Info: ADDED 0 IMPLICIT EXCLUSIONS
Info: NONBONDED TABLE R-SQUARED SPACING: 0.0625
Info: NONBONDED TABLE SIZE: 705 POINTS
Info: REDUCING NUMBER OF PATCHES TO IMPROVE LOAD BALANCE
Info: REMOVING COM VELOCITY 0.201846 -0.036452 0.0702211
Info: Use 3D box decompostion in PME FFT.
Info: Updated CUDA force table with 4096 elements.
Info: Updated CUDA LJ table with 7 x 7 elements.
Info: Found 13 unique exclusion lists needing 20 bytes
TCL: Running for 1500000 steps
ETITLE: TS BOND ANGLE DIHED IMPRP ELECT VDW BOUNDARY MISC KINETIC TOTAL TEMP POTENTIAL TOTALAVG TEMPAVG PRESSURE GPRESSURE VOLUME PRESSAVG GPRESSAVG
ENERGY: 0 0.9782 6.1640 0.5971 0.0000 -10546.5118 1419.3718 0.0000 0.0000 1791.3726 -7328.0281 310.4200 -9119.4007 -7328.0281 310.4200 139.3172 248.1462 29535.2905 139.3172 248.1462
ENERGY: 300000 4.1035 2.1440 2.6759 0.0000 -10545.9808 1342.6529 0.0000 0.0000 1732.6841 -7461.7204 300.2501 -9194.4045 -7381.4697 301.4235 -934.5450 -916.5458 29959.4893 -144.4921 -124.0193
ENERGY: 600000 0.2650 1.5560 1.2555 0.0000 -10526.9693 1406.9942 0.0000 0.0000 1701.0536 -7415.8448 294.7690 -9116.8985 -7384.4242 300.7247 -148.3020 -69.5224 29961.2592 -148.3373 -101.5317
ENERGY: 900000 0.7295 5.4208 0.5530 0.0000 -10653.0835 1498.7249 0.0000 0.0000 1705.6329 -7442.0224 295.5625 -9147.6552 -7399.7577 298.9565 615.0591 677.6181 29740.7036 -76.0302 -21.9070
ENERGY: 1200000 1.0610 3.7650 0.9728 0.0000 -10472.3163 1372.6910 0.0000 0.0000 1722.2466 -7371.5800 298.4414 -9093.8265 -7382.3369 299.4179 -534.3657 -384.1588 29856.9245 -115.3590 -53.9215
ENERGY: 1500000 0.5241 3.6522 2.1216 0.0000 -10615.3396 1458.9132 0.0000 0.0000 1737.6379 -7412.4906 301.1085 -9150.1285 -7378.5528 300.2506 209.1628 272.0132 29814.8974 -163.6364 -93.0494
TCL: Running FEP window   2: Lambda1 0.95   Lambda2 0.8999999999999999 [dLambda -0.050000000000000044]
TCL: Setting parameter firsttimestep to 0
TCL: Setting parameter alchLambda to 0.95
Info: NONBONDED TABLE R-SQUARED SPACING: 0.0625
Info: NONBONDED TABLE SIZE: 705 POINTS
TCL: Setting parameter alchLambda2 to 0.8999999999999999
Info: NONBONDED TABLE R-SQUARED SPACING: 0.0625
Info: NONBONDED TABLE SIZE: 705 POINTS
TCL: Running for 1500000 steps
ETITLE: TS BOND ANGLE DIHED IMPRP ELECT VDW BOUNDARY MISC KINETIC TOTAL TEMP POTENTIAL TOTALAVG TEMPAVG PRESSURE GPRESSURE VOLUME PRESSAVG GPRESSAVG
ENERGY: 0 0.5241 3.6522 2.1216 0.0000 -10613.8962 1457.5959 0.0000 0.0000 1736.7370 -7413.2653 300.9524 -9150.0023 -7413.2653 300.9524 171.4201 250.5265 29814.8974 171.4201 250.5265
ENERGY: 300000 1.0429 4.2610 1.8728 0.0000 -10504.5965 1433.3797 0.0000 0.0000 1711.4036 -7352.6365 296.5625 -9064.0401 -7358.5494 302.2861 126.1354 149.3197 30140.7887 -101.5206 -24.7407
ENERGY: 600000 0.4457 2.1748 2.5004 0.0000 -10519.6881 1415.0567 0.0000 0.0000 1714.8942 -7384.6163 297.1674 -9099.5105 -7371.2187 300.3923 155.1462 198.6647 30043.1145 -132.3162 -48.4076
ENERGY: 900000 0.1842 2.7531 0.6548 0.0000 -10441.3172 1363.2800 0.0000 0.0000 1776.7809 -7297.6642 307.8915 -9074.4451 -7361.5994 302.1303 -361.8844 -289.8263 30218.8528 -111.3465 -35.1130
ENERGY: 1200000 0.6064 2.2724 0.6791 0.0000 -10555.4309 1428.8369 0.0000 0.0000 1773.3387 -7349.6974 307.2950 -9123.0361 -7360.6000 302.1203 40.2988 108.5991 30149.9993 -79.4145 -12.9063
ENERGY: 1500000 0.5883 5.6859 1.0148 0.0000 -10503.0098 1436.3856 0.0000 0.0000 1731.2937 -7328.0416 300.0092 -9059.3353 -7364.4689 301.8992 -28.5998 100.5748 30435.7620 -27.4075 44.8215
TCL: Running FEP window   3: Lambda1 0.8999999999999999 Lambda2 0.8499999999999999 [dLambda -0.050000000000000044]
TCL: Setting parameter firsttimestep to 0
TCL: Setting parameter alchLambda to 0.8999999999999999
Info: NONBONDED TABLE R-SQUARED SPACING: 0.0625
Info: NONBONDED TABLE SIZE: 705 POINTS
TCL: Setting parameter alchLambda2 to 0.8499999999999999
Info: NONBONDED TABLE R-SQUARED SPACING: 0.0625
Info: NONBONDED TABLE SIZE: 705 POINTS
TCL: Running for 1500000 steps
ETITLE: TS BOND ANGLE DIHED IMPRP ELECT VDW BOUNDARY MISC KINETIC TOTAL TEMP POTENTIAL TOTALAVG TEMPAVG PRESSURE GPRESSURE VOLUME PRESSAVG GPRESSAVG
ENERGY: 0 0.5883 5.6859 1.0148 0.0000 -10501.4251 1435.0727 0.0000 0.0000 1730.4449 -7328.6185 299.8621 -9059.0634 -7328.6185 299.8621 -9.7638 81.4141 30435.7620 -9.7638 81.4141
ENERGY: 300000 1.5265 3.9365 0.3330 0.0000 -10438.3822 1363.2117 0.0000 0.0000 1685.9181 -7383.4564 292.1462 -9069.3746 -7384.0399 298.9081 -155.7590 -74.2038 29348.9803 285.4931 359.1461
ENERGY: 600000 3.0127 2.7340 1.9893 0.0000 -10558.7739 1406.3567 0.0000 0.0000 1757.0593 -7387.6219 304.4740 -9144.6812 -7386.2903 299.7996 -88.4400 -6.3484 30125.4331 21.9222 86.7391
ENERGY: 900000 0.4105 2.0554 2.0380 0.0000 -10565.9050 1439.7989 0.0000 0.0000 1744.0608 -7377.5413 302.2215 -9121.6022 -7387.0214 299.1761 140.8215 190.1712 30087.2358 -34.6567 30.7457
ENERGY: 1200000 0.9619 2.1345 1.0860 0.0000 -10731.4510 1548.1511 0.0000 0.0000 1738.6080 -7440.5096 301.2766 -9179.1175 -7385.0925 299.4872 898.1020 918.3326 29763.5254 65.8052 122.9189
ENERGY: 1500000 0.3009 2.5954 0.3927 0.0000 -10775.7123 1589.1608 0.0000 0.0000 1688.1330 -7495.1295 292.5300 -9183.2625 -7396.8462 299.4737 1555.9781 1605.8880 28887.9517 137.7824 195.1626
TCL: Running FEP window   4: Lambda1 0.8499999999999999 Lambda2 0.7999999999999998 [dLambda -0.050000000000000044]
TCL: Setting parameter firsttimestep to 0
TCL: Setting parameter alchLambda to 0.8499999999999999
Info: NONBONDED TABLE R-SQUARED SPACING: 0.0625
Info: NONBONDED TABLE SIZE: 705 POINTS
TCL: Setting parameter alchLambda2 to 0.7999999999999998
Info: NONBONDED TABLE R-SQUARED SPACING: 0.0625
Info: NONBONDED TABLE SIZE: 705 POINTS
TCL: Running for 1500000 steps
ETITLE: TS BOND ANGLE DIHED IMPRP ELECT VDW BOUNDARY MISC KINETIC TOTAL TEMP POTENTIAL TOTALAVG TEMPAVG PRESSURE GPRESSURE VOLUME PRESSAVG GPRESSAVG
ENERGY: 0 0.3009 2.5954 0.3927 0.0000 -10773.8441 1588.2691 0.0000 0.0000 1687.2365 -7495.0495 292.3747 -9182.2860 -7495.0495 292.3747 1513.1098 1592.2031 28887.9517 1513.1098 1592.2031
ENERGY: 300000 0.2833 4.7265 1.4624 0.0000 -10498.1926 1359.9655 0.0000 0.0000 1757.3998 -7374.3551 304.5330 -9131.7549 -7408.2551 301.2919 -475.5416 -347.2346 29645.1358 79.1341 163.2794
ENERGY: 600000 0.5826 4.0835 2.1893 0.0000 -10632.1290 1484.5470 0.0000 0.0000 1772.6604 -7368.0662 307.1774 -9140.7267 -7391.3595 302.1222 383.5982 399.7379 30030.9423 179.5460 242.7499
ENERGY: 900000 0.0914 3.8195 0.3193 0.0000 -10535.3299 1419.0245 0.0000 0.0000 1754.4072 -7357.6679 304.0144 -9112.0751 -7384.3278 301.9987 -93.0807 1.5516 30121.7591 71.8976 140.2026
ENERGY: 1200000 1.0092 5.1503 1.4474 0.0000 -10559.6856 1418.0544 0.0000 0.0000 1699.5146 -7434.5097 294.5023 -9134.0244 -7376.1690 301.9105 -65.6289 15.8502 29675.7926 10.8271 85.5048
ENERGY: 1500000 1.4224 4.2329 0.6225 0.0000 -10669.8951 1453.5303 0.0000 0.0000 1706.9602 -7503.1270 295.7925 -9210.0872 -7381.8330 301.9181 -49.0003 39.1033 29720.4632 45.5492 121.2263
TCL: Running FEP window   5: Lambda1 0.7999999999999998 Lambda2 0.7499999999999998 [dLambda -0.050000000000000044]
TCL: Setting parameter firsttimestep to 0
TCL: Setting parameter alchLambda to 0.7999999999999998
Info: NONBONDED TABLE R-SQUARED SPACING: 0.0625
Info: NONBONDED TABLE SIZE: 705 POINTS
TCL: Setting parameter alchLambda2 to 0.7499999999999998
Info: NONBONDED TABLE R-SQUARED SPACING: 0.0625
Info: NONBONDED TABLE SIZE: 705 POINTS
TCL: Running for 1500000 steps
ETITLE: TS BOND ANGLE DIHED IMPRP ELECT VDW BOUNDARY MISC KINETIC TOTAL TEMP POTENTIAL TOTALAVG TEMPAVG PRESSURE GPRESSURE VOLUME PRESSAVG GPRESSAVG
ENERGY: 0 1.4224 4.2329 0.6225 0.0000 -10668.0976 1452.7125 0.0000 0.0000 1706.1219 -7502.9855 295.6472 -9209.1075 -7502.9855 295.6472 -53.3019 28.7335 29720.4632 -53.3019 28.7335
ENERGY: 300000 0.5584 2.0966 1.2565 0.0000 -10605.4307 1444.6786 0.0000 0.0000 1743.5260 -7413.3147 302.1288 -9156.8407 -7414.7263 299.3517 39.4366 153.1707 29678.9030 -351.9510 -260.6551
ENERGY: 600000 1.6791 2.9794 1.5928 0.0000 -10570.9619 1340.5036 0.0000 0.0000 1741.0908 -7483.1162 301.7069 -9224.2070 -7416.0238 299.5012 -1047.6400 -967.8265 30048.9144 -304.3903 -223.5462
ENERGY: 900000 0.1881 3.0892 1.9937 0.0000 -10574.6460 1428.9856 0.0000 0.0000 1706.8892 -7433.5001 295.7802 -9140.3893 -7414.9607 298.4296 -61.3828 51.7310 30019.9094 -319.2731 -229.4822
ENERGY: 1200000 0.7305 3.1872 0.4554 0.0000 -10465.7869 1409.4500 0.0000 0.0000 1706.5183 -7345.4456 295.7159 -9051.9638 -7402.8818 299.0283 -82.5828 -36.5584 30041.6924 -309.8134 -235.8832
ENERGY: 1500000 0.9745 2.0040 2.4440 0.0000 -10584.8747 1484.0106 0.0000 0.0000 1712.1218 -7383.3196 296.6870 -9095.4415 -7403.3344 298.5436 738.6643 765.5778 29636.7771 -161.2230 -93.3719
TCL: Running FEP window   6: Lambda1 0.7499999999999998 Lambda2 0.6999999999999997 [dLambda -0.050000000000000044]
TCL: Setting parameter firsttimestep to 0
TCL: Setting parameter alchLambda to 0.7499999999999998
Info: NONBONDED TABLE R-SQUARED SPACING: 0.0625
Info: NONBONDED TABLE SIZE: 705 POINTS
TCL: Setting parameter alchLambda2 to 0.6999999999999997
Info: NONBONDED TABLE R-SQUARED SPACING: 0.0625
Info: NONBONDED TABLE SIZE: 705 POINTS
TCL: Running for 1500000 steps
ETITLE: TS BOND ANGLE DIHED IMPRP ELECT VDW BOUNDARY MISC KINETIC TOTAL TEMP POTENTIAL TOTALAVG TEMPAVG PRESSURE GPRESSURE VOLUME PRESSAVG GPRESSAVG
ENERGY: 0 0.9745 2.0040 2.4440 0.0000 -10583.5662 1483.6453 0.0000 0.0000 1711.2417 -7383.2566 296.5344 -9094.4983 -7383.2566 296.5344 690.0363 760.6478 29636.7771 690.0363 760.6478
ENERGY: 300000 1.4758 1.9911 1.9382 0.0000 -10389.8480 1347.3017 0.0000 0.0000 1752.7908 -7284.3504 303.7343 -9037.1412 -7347.1869 301.0226 -617.3766 -536.7682 30613.0501 -17.5983 48.8270
ENERGY: 600000 0.7140 1.0372 0.3178 0.0000 -10553.6797 1445.0131 0.0000 0.0000 1700.6657 -7405.9321 294.7018 -9106.5977 -7363.2195 300.8669 473.4573 546.7814 29429.3325 -38.9195 25.3627
ENERGY: 900000 0.2052 5.2190 1.5480 0.0000 -10341.1323 1275.8080 0.0000 0.0000 1719.1342 -7339.2178 297.9021 -9058.3520 -7369.0588 300.0192 -1137.6744 -1125.9888 30301.8764 -63.0701 -8.8097
ENERGY: 1200000 3.8894 1.4585 2.0250 0.0000 -10395.8127 1307.3268 0.0000 0.0000 1705.8489 -7375.2639 295.5999 -9081.1128 -7376.7376 299.7415 -894.8067 -799.9853 29765.0973 -181.8230 -124.0546
ENERGY: 1500000 0.4784 2.5397 0.3039 0.0000 -10456.1161 1409.3081 0.0000 0.0000 1748.1511 -7295.3350 302.9303 -9043.4861 -7366.2501 300.1546 4.3226 54.6252 30315.2937 -115.4366 -63.2550
TCL: Running FEP window   7: Lambda1 0.6999999999999997 Lambda2 0.6499999999999997 [dLambda -0.050000000000000044]
TCL: Setting parameter firsttimestep to 0
TCL: Setting parameter alchLambda to 0.6999999999999997
Info: NONBONDED TABLE R-SQUARED SPACING: 0.0625
Info: NONBONDED TABLE SIZE: 705 POINTS
TCL: Setting parameter alchLambda2 to 0.6499999999999997
Info: NONBONDED TABLE R-SQUARED SPACING: 0.0625
Info: NONBONDED TABLE SIZE: 705 POINTS
TCL: Running for 1500000 steps
ETITLE: TS BOND ANGLE DIHED IMPRP ELECT VDW BOUNDARY MISC KINETIC TOTAL TEMP POTENTIAL TOTALAVG TEMPAVG PRESSURE GPRESSURE VOLUME PRESSAVG GPRESSAVG
ENERGY: 0 0.4784 2.5397 0.3039 0.0000 -10454.7460 1409.1494 0.0000 0.0000 1747.2749 -7294.9997 302.7785 -9042.2746 -7294.9997 302.7785 -34.1473 52.1160 30315.2937 -34.1473 52.1160
ENERGY: 300000 0.7561 5.0701 1.3490 0.0000 -10682.3906 1501.3190 0.0000 0.0000 1696.1145 -7477.7820 293.9131 -9173.8965 -7395.7571 298.5305 388.3537 505.1131 29689.7297 109.7874 193.8063
ENERGY: 600000 0.2697 3.9678 0.4313 0.0000 -10432.8153 1388.5210 0.0000 0.0000 1716.0160 -7323.6094 297.3618 -9039.6255 -7378.7874 297.5018 103.7696 166.8005 29769.8168 197.7888 272.7834
ENERGY: 900000 0.5630 4.6930 0.7397 0.0000 -10572.5278 1478.0342 0.0000 0.0000 1722.1305 -7366.3676 298.4213 -9088.4980 -7370.1805 298.2403 293.5833 474.8149 29927.5375 198.9034 287.8770
ENERGY: 1200000 0.4785 2.9045 0.8212 0.0000 -10497.0480 1425.7971 0.0000 0.0000 1686.7321 -7380.3146 292.2873 -9067.0467 -7361.3565 297.8830 211.0010 222.8912 29797.1804 49.7931 136.7498
ENERGY: 1500000 0.5563 4.7786 1.4315 0.0000 -10690.3429 1464.3508 0.0000 0.0000 1793.8910 -7425.3347 310.8564 -9219.2257 -7365.8203 299.0604 481.0564 533.7322 29094.8743 143.2164 221.3546
TCL: Running FEP window   8: Lambda1 0.6499999999999997 Lambda2 0.5999999999999996 [dLambda -0.050000000000000044]
TCL: Setting parameter firsttimestep to 0
TCL: Setting parameter alchLambda to 0.6499999999999997
Info: NONBONDED TABLE R-SQUARED SPACING: 0.0625
Info: NONBONDED TABLE SIZE: 705 POINTS
TCL: Setting parameter alchLambda2 to 0.5999999999999996
Info: NONBONDED TABLE R-SQUARED SPACING: 0.0625
Info: NONBONDED TABLE SIZE: 705 POINTS
TCL: Running for 1500000 steps
ETITLE: TS BOND ANGLE DIHED IMPRP ELECT VDW BOUNDARY MISC KINETIC TOTAL TEMP POTENTIAL TOTALAVG TEMPAVG PRESSURE GPRESSURE VOLUME PRESSAVG GPRESSAVG
ENERGY: 0 0.5563 4.7786 1.4315 0.0000 -10689.4553 1464.2686 0.0000 0.0000 1793.0845 -7425.3358 310.7167 -9218.4203 -7425.3358 310.7167 431.2411 528.7597 29094.8743 431.2411 528.7597
ENERGY: 300000 2.7648 1.4489 0.4993 0.0000 -10503.0801 1411.0897 0.0000 0.0000 1723.5403 -7363.7371 298.6656 -9087.2774 -7372.6775 307.6966 -195.5217 -112.2926 30192.3594 -249.7065 -146.2624
ENERGY: 600000 1.5276 3.2815 0.5190 0.0000 -10391.4370 1409.7951 0.0000 0.0000 1733.9818 -7242.3320 300.4750 -8976.3138 -7353.6492 305.8017 188.9533 269.3421 30320.2637 -147.9009 -68.9487
ENERGY: 900000 0.6876 2.7426 0.4469 0.0000 -10491.8258 1425.7173 0.0000 0.0000 1777.1710 -7285.0603 307.9591 -9062.2313 -7357.5095 304.3365 149.0854 276.7133 29836.4458 -62.2812 11.1756
ENERGY: 1200000 0.3798 2.0080 1.9322 0.0000 -10587.0506 1395.7759 0.0000 0.0000 1744.6464 -7442.3082 302.3230 -9186.9546 -7356.8567 304.0373 -490.4962 -422.4164 29922.0999 -123.1005 -49.4805
ENERGY: 1500000 1.5832 4.2003 1.9888 0.0000 -10458.6810 1423.0763 0.0000 0.0000 1743.9487 -7283.8837 302.2021 -9027.8323 -7354.9800 302.2992 210.7037 231.3419 30274.4781 8.6937 77.5715
TCL: Running FEP window   9: Lambda1 0.5999999999999996 Lambda2 0.5499999999999996 [dLambda -0.050000000000000044]
TCL: Setting parameter firsttimestep to 0
TCL: Setting parameter alchLambda to 0.5999999999999996
Info: NONBONDED TABLE R-SQUARED SPACING: 0.0625
Info: NONBONDED TABLE SIZE: 705 POINTS
TCL: Setting parameter alchLambda2 to 0.5499999999999996
Info: NONBONDED TABLE R-SQUARED SPACING: 0.0625
Info: NONBONDED TABLE SIZE: 705 POINTS
TCL: Running for 1500000 steps
ETITLE: TS BOND ANGLE DIHED IMPRP ELECT VDW BOUNDARY MISC KINETIC TOTAL TEMP POTENTIAL TOTALAVG TEMPAVG PRESSURE GPRESSURE VOLUME PRESSAVG GPRESSAVG
ENERGY: 0 1.5832 4.2003 1.9888 0.0000 -10458.2156 1423.0420 0.0000 0.0000 1743.0349 -7284.3663 302.0438 -9027.4012 -7284.3663 302.0438 156.7345 228.3216 30274.4781 156.7345 228.3216
ENERGY: 300000 0.5327 2.1035 0.7430 0.0000 -10564.1688 1448.0977 0.0000 0.0000 1722.3665 -7390.3254 298.4622 -9112.6918 -7338.9308 303.7063 -9.4720 69.4889 30145.1077 133.6932 206.3460
ENERGY: 600000 1.1073 2.9282 0.9526 0.0000 -10551.2038 1394.4242 0.0000 0.0000 1733.3559 -7418.4356 300.3665 -9151.7915 -7347.4669 303.2277 -342.9440 -254.1203 29726.6835 211.5269 275.2312
ENERGY: 900000 0.9715 1.8077 2.3005 0.0000 -10353.1830 1315.8270 0.0000 0.0000 1727.8914 -7304.3848 299.4196 -9032.2762 -7339.5461 302.2095 -695.7807 -632.9104 30200.2331 -10.8882 48.5983
ENERGY: 1200000 1.7593 1.3156 0.9715 0.0000 -10286.1786 1318.5175 0.0000 0.0000 1733.9790 -7229.6358 300.4745 -8963.6148 -7340.3890 301.3769 -734.2983 -631.5033 30294.1193 -98.5551 -33.7334
ENERGY: 1500000 0.3313 4.7869 1.2557 0.0000 -10511.3321 1391.9357 0.0000 0.0000 1706.7680 -7406.2544 295.7592 -9113.0224 -7346.2056 301.0780 -223.8169 -147.9204 29764.9660 -98.9699 -38.1522
TCL: Running FEP window  10: Lambda1 0.5499999999999996 Lambda2 0.4999999999999996 [dLambda -0.04999999999999999]
TCL: Setting parameter firsttimestep to 0
TCL: Setting parameter alchLambda to 0.5499999999999996
Info: NONBONDED TABLE R-SQUARED SPACING: 0.0625
Info: NONBONDED TABLE SIZE: 705 POINTS
TCL: Setting parameter alchLambda2 to 0.4999999999999996
Info: NONBONDED TABLE R-SQUARED SPACING: 0.0625
Info: NONBONDED TABLE SIZE: 705 POINTS
TCL: Running for 1500000 steps
ETITLE: TS BOND ANGLE DIHED IMPRP ELECT VDW BOUNDARY MISC KINETIC TOTAL TEMP POTENTIAL TOTALAVG TEMPAVG PRESSURE GPRESSURE VOLUME PRESSAVG GPRESSAVG
ENERGY: 0 0.3313 4.7869 1.2557 0.0000 -10510.1911 1391.5436 0.0000 0.0000 1705.9486 -7406.3249 295.6172 -9112.2735 -7406.3249 295.6172 -251.8509 -152.9422 29764.9660 -251.8509 -152.9422
ENERGY: 300000 2.0835 4.7200 0.5930 0.0000 -10523.2610 1381.7956 0.0000 0.0000 1723.6190 -7410.4499 298.6792 -9134.0689 -7403.7789 298.8454 -95.8188 -30.8947 29242.1216 -212.6596 -131.9818
ENERGY: 600000 1.5887 2.3932 0.4262 0.0000 -10449.5794 1375.0410 0.0000 0.0000 1722.0900 -7348.0403 298.4143 -9070.1303 -7388.2615 299.6823 -550.7180 -507.6000 30424.4088 -86.6988 -18.1867
ENERGY: 900000 1.6207 4.3086 2.1311 0.0000 -10545.5109 1425.7619 0.0000 0.0000 1792.5665 -7319.1221 310.6269 -9111.6886 -7366.0733 301.0829 157.3720 305.3682 29740.7894 3.3827 81.9747
ENERGY: 1200000 1.9237 3.4554 1.3526 0.0000 -10400.9706 1282.4088 0.0000 0.0000 1735.2644 -7376.5657 300.6972 -9111.8301 -7362.3956 300.3511 -1172.9429 -1113.9408 30003.6611 -88.0393 -15.7224
ENERGY: 1500000 2.8832 3.5880 2.1273 0.0000 -10702.0804 1488.9869 0.0000 0.0000 1748.7327 -7455.7623 303.0311 -9204.4950 -7378.9432 299.5529 487.1429 518.5039 29489.8313 -69.3345 0.3554
TCL: Running FEP window  11: Lambda1 0.4999999999999996 Lambda2 0.4499999999999996 [dLambda -0.04999999999999999]
TCL: Setting parameter firsttimestep to 0
TCL: Setting parameter alchLambda to 0.4999999999999996
Info: NONBONDED TABLE R-SQUARED SPACING: 0.0625
Info: NONBONDED TABLE SIZE: 705 POINTS
TCL: Setting parameter alchLambda2 to 0.4499999999999996
Info: NONBONDED TABLE R-SQUARED SPACING: 0.0625
Info: NONBONDED TABLE SIZE: 705 POINTS
TCL: Running for 1500000 steps
ETITLE: TS BOND ANGLE DIHED IMPRP ELECT VDW BOUNDARY MISC KINETIC TOTAL TEMP POTENTIAL TOTALAVG TEMPAVG PRESSURE GPRESSURE VOLUME PRESSAVG GPRESSAVG
ENERGY: 0 2.8832 3.5880 2.1273 0.0000 -10702.2677 1488.9084 0.0000 0.0000 1747.8724 -7456.8884 302.8820 -9204.7608 -7456.8884 302.8820 441.3071 514.1848 29489.8313 441.3071 514.1848
ENERGY: 300000 0.4464 2.8515 2.0682 0.0000 -10478.4651 1291.9190 0.0000 0.0000 1772.2831 -7408.8969 307.1121 -9181.1800 -7425.1041 302.0566 -1147.1766 -969.7926 29564.5116 -356.7840 -236.4494
ENERGY: 600000 0.1964 3.8477 2.8615 0.0000 -10512.8295 1400.1224 0.0000 0.0000 1792.4191 -7313.3824 310.6014 -9105.8015 -7387.3730 302.5757 176.8200 229.4535 29420.5854 -205.3462 -105.4370
ENERGY: 900000 2.4799 4.0923 0.2778 0.0000 -10484.7803 1362.4764 0.0000 0.0000 1765.6748 -7349.7791 305.9669 -9115.4539 -7385.7777 302.5056 -338.3679 -301.7140 29897.2901 -126.2272 -38.3912
ENERGY: 1200000 1.5145 1.5590 0.5568 0.0000 -10579.9657 1430.2523 0.0000 0.0000 1741.0221 -7405.0611 301.6950 -9146.0832 -7386.5378 301.6358 -159.2260 -141.3138 29911.1367 -177.7460 -89.0527
ENERGY: 1500000 1.5853 3.2390 0.3926 0.0000 -10477.8696 1372.1980 0.0000 0.0000 1738.1069 -7362.3478 301.1898 -9100.4547 -7385.6335 300.7303 -670.2430 -575.3334 30112.8379 -181.3225 -95.3957
TCL: Running FEP window  12: Lambda1 0.4499999999999996 Lambda2 0.39999999999999963 [dLambda -0.04999999999999999]
TCL: Setting parameter firsttimestep to 0
TCL: Setting parameter alchLambda to 0.4499999999999996
Info: NONBONDED TABLE R-SQUARED SPACING: 0.0625
Info: NONBONDED TABLE SIZE: 705 POINTS
TCL: Setting parameter alchLambda2 to 0.39999999999999963
Info: NONBONDED TABLE R-SQUARED SPACING: 0.0625
Info: NONBONDED TABLE SIZE: 705 POINTS
TCL: Running for 1500000 steps
ETITLE: TS BOND ANGLE DIHED IMPRP ELECT VDW BOUNDARY MISC KINETIC TOTAL TEMP POTENTIAL TOTALAVG TEMPAVG PRESSURE GPRESSURE VOLUME PRESSAVG GPRESSAVG
ENERGY: 0 1.5853 3.2390 0.3926 0.0000 -10477.8701 1372.4724 0.0000 0.0000 1737.2466 -7362.9341 301.0407 -9100.1808 -7362.9341 301.0407 -656.5885 -577.2476 30112.8379 -656.5885 -577.2476
ENERGY: 300000 0.2540 1.7020 0.2975 0.0000 -10507.8199 1463.1047 0.0000 0.0000 1735.8214 -7306.6403 300.7938 -9042.4617 -7348.1395 300.5969 572.3057 647.2166 29712.3226 -260.6408 -198.3690
ENERGY: 600000 1.0287 2.5501 0.3945 0.0000 -10624.4007 1467.0710 0.0000 0.0000 1760.8664 -7392.4901 305.1337 -9153.3564 -7377.2276 300.1209 438.4909 542.6270 29467.5055 -180.5694 -115.1017
ENERGY: 900000 0.9949 3.5662 1.6196 0.0000 -10552.2083 1432.2245 0.0000 0.0000 1646.5075 -7467.2956 285.3169 -9113.8031 -7390.2771 298.2865 267.6821 304.5373 29631.4563 -132.1260 -64.0643
ENERGY: 1200000 1.1191 3.8006 0.5194 0.0000 -10502.3184 1309.1981 0.0000 0.0000 1675.4664 -7512.2148 290.3351 -9187.6812 -7391.6780 298.8015 -1188.8070 -1151.4318 30079.0354 -162.1237 -99.6587
ENERGY: 1500000 0.8813 2.9596 0.9927 0.0000 -10577.0220 1465.0983 0.0000 0.0000 1726.6838 -7380.4062 299.2103 -9107.0900 -7398.7168 298.3517 618.3619 742.6940 29282.4267 -170.0474 -102.3152
TCL: Running FEP window  13: Lambda1 0.39999999999999963 Lambda2 0.34999999999999964 [dLambda -0.04999999999999999]
TCL: Setting parameter firsttimestep to 0
TCL: Setting parameter alchLambda to 0.39999999999999963
Info: NONBONDED TABLE R-SQUARED SPACING: 0.0625
Info: NONBONDED TABLE SIZE: 705 POINTS
TCL: Setting parameter alchLambda2 to 0.34999999999999964
Info: NONBONDED TABLE R-SQUARED SPACING: 0.0625
Info: NONBONDED TABLE SIZE: 705 POINTS
TCL: Running for 1500000 steps
ETITLE: TS BOND ANGLE DIHED IMPRP ELECT VDW BOUNDARY MISC KINETIC TOTAL TEMP POTENTIAL TOTALAVG TEMPAVG PRESSURE GPRESSURE VOLUME PRESSAVG GPRESSAVG
ENERGY: 0 0.8813 2.9596 0.9927 0.0000 -10577.0224 1465.3036 0.0000 0.0000 1725.7831 -7381.1021 299.0543 -9106.8851 -7381.1021 299.0543 654.8611 739.9839 29282.4267 654.8611 739.9839
ENERGY: 300000 1.1645 2.5735 1.4571 0.0000 -10582.2891 1490.7815 0.0000 0.0000 1768.7656 -7317.5470 306.5025 -9086.3126 -7313.0413 304.5830 790.7476 704.0742 29751.8659 574.2313 606.4790
ENERGY: 600000 2.0283 2.0045 1.3553 0.0000 -10650.9087 1471.6165 0.0000 0.0000 1785.0913 -7388.8128 309.3315 -9173.9041 -7345.8746 301.4885 722.6240 780.8177 29033.0527 191.2079 242.5041
ENERGY: 900000 0.6492 3.4991 0.5681 0.0000 -10511.1105 1423.0212 0.0000 0.0000 1704.5393 -7378.8336 295.3730 -9083.3729 -7363.9784 301.2338 245.0869 317.7856 29739.4473 209.7271 267.1163
ENERGY: 1200000 0.2706 1.1421 1.5303 0.0000 -10444.7718 1343.9105 0.0000 0.0000 1696.2070 -7401.7113 293.9291 -9097.9183 -7385.7143 298.5994 -663.2873 -608.1185 30321.8158 199.0662 255.8049
ENERGY: 1500000 1.0056 2.4401 3.5031 0.0000 -10534.3615 1433.3986 0.0000 0.0000 1723.6514 -7370.3627 298.6849 -9094.0141 -7379.6172 298.9491 -78.1821 24.0710 30128.2422 105.1748 164.4291
TCL: Running FEP window  14: Lambda1 0.34999999999999964 Lambda2 0.29999999999999966 [dLambda -0.04999999999999999]
TCL: Setting parameter firsttimestep to 0
TCL: Setting parameter alchLambda to 0.34999999999999964
Info: NONBONDED TABLE R-SQUARED SPACING: 0.0625
Info: NONBONDED TABLE SIZE: 705 POINTS
TCL: Setting parameter alchLambda2 to 0.29999999999999966
Info: NONBONDED TABLE R-SQUARED SPACING: 0.0625
Info: NONBONDED TABLE SIZE: 705 POINTS
TCL: Running for 1500000 steps
ETITLE: TS BOND ANGLE DIHED IMPRP ELECT VDW BOUNDARY MISC KINETIC TOTAL TEMP POTENTIAL TOTALAVG TEMPAVG PRESSURE GPRESSURE VOLUME PRESSAVG GPRESSAVG
ENERGY: 0 1.0056 2.4401 3.5031 0.0000 -10534.3619 1433.3873 0.0000 0.0000 1722.7656 -7371.2601 298.5314 -9094.0257 -7371.2601 298.5314 -81.3681 19.3991 30128.2422 -81.3681 19.3991
ENERGY: 300000 4.0405 4.8822 1.1507 0.0000 -10486.9999 1416.3627 0.0000 0.0000 1694.5370 -7366.0268 293.6397 -9060.5638 -7338.4724 302.4045 -224.7726 -181.5826 30287.0965 28.1109 93.7098
ENERGY: 600000 0.0138 2.7141 2.1455 0.0000 -10502.5936 1409.7385 0.0000 0.0000 1740.0727 -7347.9090 301.5304 -9087.9817 -7350.9735 301.9918 91.8067 187.1932 29541.6512 60.9555 127.8141
ENERGY: 900000 0.3984 4.0486 0.8946 0.0000 -10422.4161 1351.8551 0.0000 0.0000 1719.2418 -7345.9776 297.9207 -9065.2194 -7362.7191 301.1663 -562.1568 -588.9535 30378.4116 -63.4821 -6.2825
ENERGY: 1200000 1.0725 1.0717 1.9672 0.0000 -10656.0204 1504.2517 0.0000 0.0000 1733.5731 -7414.0842 300.4042 -9147.6573 -7362.3718 301.4309 614.8397 718.2830 29854.1192 0.1379 52.3373
ENERGY: 1500000 1.5269 3.6610 0.3765 0.0000 -10555.5908 1430.8023 0.0000 0.0000 1715.3440 -7403.8801 297.2453 -9119.2241 -7375.0256 300.7896 -53.1869 26.9898 29778.9763 24.2214 83.7486
TCL: Running FEP window  15: Lambda1 0.29999999999999966 Lambda2 0.24999999999999967 [dLambda -0.04999999999999999]
TCL: Setting parameter firsttimestep to 0
TCL: Setting parameter alchLambda to 0.29999999999999966
Info: NONBONDED TABLE R-SQUARED SPACING: 0.0625
Info: NONBONDED TABLE SIZE: 705 POINTS
TCL: Setting parameter alchLambda2 to 0.24999999999999967
Info: NONBONDED TABLE R-SQUARED SPACING: 0.0625
Info: NONBONDED TABLE SIZE: 705 POINTS
TCL: Running for 1500000 steps
ETITLE: TS BOND ANGLE DIHED IMPRP ELECT VDW BOUNDARY MISC KINETIC TOTAL TEMP POTENTIAL TOTALAVG TEMPAVG PRESSURE GPRESSURE VOLUME PRESSAVG GPRESSAVG
ENERGY: 0 1.5269 3.6610 0.3765 0.0000 -10555.5907 1430.6795 0.0000 0.0000 1714.4733 -7404.8735 297.0944 -9119.3469 -7404.8735 297.0944 -59.9666 25.6948 29778.9763 -59.9666 25.6948
ENERGY: 300000 1.0849 2.9969 1.3951 0.0000 -10481.9044 1417.0808 0.0000 0.0000 1713.7750 -7345.5717 296.9734 -9059.3466 -7383.6300 299.7682 170.7073 225.6120 29697.0531 132.2145 197.1367
ENERGY: 600000 2.3814 2.1906 1.1889 0.0000 -10639.3227 1506.6565 0.0000 0.0000 1786.1506 -7340.7547 309.5151 -9126.9053 -7388.9629 300.4026 671.7585 757.6625 29926.0569 85.0204 157.0360
ENERGY: 900000 0.3419 5.4856 0.5980 0.0000 -10588.9135 1478.5537 0.0000 0.0000 1816.3949 -7287.5394 314.7560 -9103.9343 -7386.0249 300.4476 559.8033 554.4640 29981.6981 80.5026 141.5501
ENERGY: 1200000 0.2645 4.5896 1.3799 0.0000 -10524.3187 1406.0990 0.0000 0.0000 1702.0586 -7409.9271 294.9431 -9111.9856 -7379.0016 300.3661 48.0557 18.4348 29614.7750 55.8023 106.9298
ENERGY: 1500000 0.8881 7.2414 2.6690 0.0000 -10525.6814 1388.9581 0.0000 0.0000 1759.1732 -7366.7517 304.8403 -9125.9249 -7373.5618 300.9954 -232.9663 -138.3725 29641.2735 9.1344 64.2545
TCL: Running FEP window  16: Lambda1 0.24999999999999967 Lambda2 0.19999999999999968 [dLambda -0.04999999999999999]
TCL: Setting parameter firsttimestep to 0
TCL: Setting parameter alchLambda to 0.24999999999999967
Info: NONBONDED TABLE R-SQUARED SPACING: 0.0625
Info: NONBONDED TABLE SIZE: 705 POINTS
TCL: Setting parameter alchLambda2 to 0.19999999999999968
Info: NONBONDED TABLE R-SQUARED SPACING: 0.0625
Info: NONBONDED TABLE SIZE: 705 POINTS
TCL: Running for 1500000 steps
ETITLE: TS BOND ANGLE DIHED IMPRP ELECT VDW BOUNDARY MISC KINETIC TOTAL TEMP POTENTIAL TOTALAVG TEMPAVG PRESSURE GPRESSURE VOLUME PRESSAVG GPRESSAVG
ENERGY: 0 0.8881 7.2414 2.6690 0.0000 -10525.6818 1389.1521 0.0000 0.0000 1758.2922 -7367.4391 304.6876 -9125.7312 -7367.4391 304.6876 -227.0869 -137.9339 29641.2735 -227.0869 -137.9339
ENERGY: 300000 2.1439 5.2278 1.1816 0.0000 -10559.1694 1457.3004 0.0000 0.0000 1678.4720 -7414.8437 290.8559 -9093.3157 -7380.3342 301.0512 290.5271 353.0974 30012.2056 -223.9341 -124.3102
ENERGY: 600000 3.3012 2.9344 0.9507 0.0000 -10630.6061 1434.4164 0.0000 0.0000 1720.0346 -7468.9687 298.0581 -9189.0034 -7397.0846 298.8961 -173.5030 -169.5090 30006.2214 -228.7385 -154.8128
ENERGY: 900000 0.8313 4.6647 1.0321 0.0000 -10440.8979 1397.1256 0.0000 0.0000 1714.4971 -7322.7471 297.0986 -9037.2442 -7374.8625 300.5607 -243.4765 -206.3730 30099.0985 -192.8489 -125.2667
ENERGY: 1200000 2.8434 2.1735 0.8122 0.0000 -10485.1256 1333.3947 0.0000 0.0000 1784.7228 -7361.1790 309.2677 -9145.9018 -7383.0539 300.4055 -1015.6864 -909.5342 29899.7995 -226.3934 -158.9906
ENERGY: 1500000 0.4594 3.7854 1.4803 0.0000 -10442.4727 1324.9792 0.0000 0.0000 1684.8473 -7426.9211 291.9606 -9111.7684 -7383.0496 299.9707 -845.5472 -735.7273 29790.6426 -197.0576 -130.0735
TCL: Running FEP window  17: Lambda1 0.19999999999999968 Lambda2 0.1499999999999997 [dLambda -0.04999999999999999]
TCL: Setting parameter firsttimestep to 0
TCL: Setting parameter alchLambda to 0.19999999999999968
Info: NONBONDED TABLE R-SQUARED SPACING: 0.0625
Info: NONBONDED TABLE SIZE: 705 POINTS
TCL: Setting parameter alchLambda2 to 0.1499999999999997
Info: NONBONDED TABLE R-SQUARED SPACING: 0.0625
Info: NONBONDED TABLE SIZE: 705 POINTS
TCL: Running for 1500000 steps
ETITLE: TS BOND ANGLE DIHED IMPRP ELECT VDW BOUNDARY MISC KINETIC TOTAL TEMP POTENTIAL TOTALAVG TEMPAVG PRESSURE GPRESSURE VOLUME PRESSAVG GPRESSAVG
ENERGY: 0 0.4594 3.7854 1.4803 0.0000 -10442.4733 1325.0049 0.0000 0.0000 1683.9944 -7427.7489 291.8129 -9111.7433 -7427.7489 291.8129 -821.3268 -735.7152 29790.6426 -821.3268 -735.7152
ENERGY: 300000 0.2129 7.5204 1.1007 0.0000 -10462.2753 1356.4621 0.0000 0.0000 1709.8799 -7387.0992 296.2984 -9096.9791 -7379.8006 294.3262 -523.8406 -429.5950 29793.0235 -499.3669 -435.3921
ENERGY: 600000 2.4111 6.0466 1.7369 0.0000 -10489.9392 1414.1701 0.0000 0.0000 1776.2646 -7289.3099 307.8020 -9065.5745 -7372.5244 298.5390 410.0322 456.1584 29369.8207 -280.3039 -209.2269
ENERGY: 900000 0.5448 2.2942 0.4981 0.0000 -10509.7693 1431.9463 0.0000 0.0000 1734.2594 -7340.2264 300.5231 -9074.4858 -7371.2012 298.2895 409.1654 459.4371 29346.3395 -39.4551 25.9473
ENERGY: 1200000 3.0560 3.2845 4.9556 0.0000 -10552.6395 1444.7703 0.0000 0.0000 1713.8875 -7382.6857 296.9929 -9096.5732 -7377.2079 298.6179 460.7974 448.7745 29265.1587 27.8658 86.3089
ENERGY: 1500000 0.8723 3.3581 1.4606 0.0000 -10668.2423 1540.0034 0.0000 0.0000 1827.1534 -7295.3945 316.6203 -9122.5479 -7370.8182 300.3688 987.0608 1012.0967 29741.0203 23.3754 82.7520
TCL: Running FEP window  18: Lambda1 0.1499999999999997 Lambda2 0.09999999999999969 [dLambda -0.05 ]
TCL: Setting parameter firsttimestep to 0
TCL: Setting parameter alchLambda to 0.1499999999999997
Info: NONBONDED TABLE R-SQUARED SPACING: 0.0625
Info: NONBONDED TABLE SIZE: 705 POINTS
TCL: Setting parameter alchLambda2 to 0.09999999999999969
Info: NONBONDED TABLE R-SQUARED SPACING: 0.0625
Info: NONBONDED TABLE SIZE: 705 POINTS
TCL: Running for 1500000 steps
ETITLE: TS BOND ANGLE DIHED IMPRP ELECT VDW BOUNDARY MISC KINETIC TOTAL TEMP POTENTIAL TOTALAVG TEMPAVG PRESSURE GPRESSURE VOLUME PRESSAVG GPRESSAVG
ENERGY: 0 0.8723 3.3581 1.4606 0.0000 -10668.2430 1539.7506 0.0000 0.0000 1826.2946 -7296.5068 316.4715 -9122.8014 -7296.5068 316.4715 930.9820 1009.1800 29741.0203 930.9820 1009.1800
ENERGY: 300000 0.2915 4.8531 2.2017 0.0000 -10504.1222 1434.5974 0.0000 0.0000 1758.4355 -7303.7428 304.7125 -9062.1784 -7354.4377 302.5754 356.4450 372.3931 29605.1547 342.1294 400.7336
ENERGY: 600000 1.9245 1.6295 1.9759 0.0000 -10337.4414 1313.1102 0.0000 0.0000 1738.7359 -7280.0655 301.2988 -9018.8014 -7350.1751 302.2062 -722.9431 -667.3723 30124.7436 67.0638 132.1552
ENERGY: 900000 1.8662 2.2434 0.3752 0.0000 -10616.0852 1515.2246 0.0000 0.0000 1731.2492 -7365.1266 300.0015 -9096.3758 -7351.7908 302.8706 829.6479 931.7405 29611.0576 300.1782 370.7220
ENERGY: 1200000 0.5132 1.4574 0.2741 0.0000 -10475.0397 1393.6042 0.0000 0.0000 1684.2991 -7394.8916 291.8657 -9079.1907 -7350.5455 301.7465 -298.5923 -171.7671 29837.6754 131.8681 212.5962
ENERGY: 1500000 0.4754 3.7334 0.6056 0.0000 -10390.7551 1346.0929 0.0000 0.0000 1789.8377 -7250.0101 310.1540 -9039.8478 -7344.0362 302.1024 -608.4482 -486.7753 30256.4403 54.5926 137.6566
TCL: Running FEP window  19: Lambda1 0.09999999999999969 Lambda2 0.049999999999999684 [dLambda -0.05 ]
TCL: Setting parameter firsttimestep to 0
TCL: Setting parameter alchLambda to 0.09999999999999969
Info: NONBONDED TABLE R-SQUARED SPACING: 0.0625
Info: NONBONDED TABLE SIZE: 705 POINTS
TCL: Setting parameter alchLambda2 to 0.049999999999999684
Info: NONBONDED TABLE R-SQUARED SPACING: 0.0625
Info: NONBONDED TABLE SIZE: 705 POINTS
TCL: Running for 1500000 steps
ETITLE: TS BOND ANGLE DIHED IMPRP ELECT VDW BOUNDARY MISC KINETIC TOTAL TEMP POTENTIAL TOTALAVG TEMPAVG PRESSURE GPRESSURE VOLUME PRESSAVG GPRESSAVG
ENERGY: 0 0.4754 3.7334 0.6056 0.0000 -10390.7539 1346.1733 0.0000 0.0000 1789.0075 -7250.7586 310.0102 -9039.7662 -7250.7586 310.0102 -564.2110 -487.5131 30256.4403 -564.2110 -487.5131
ENERGY: 300000 1.6802 1.8214 2.2130 0.0000 -10535.2815 1442.3685 0.0000 0.0000 1716.2923 -7370.9062 297.4096 -9087.1985 -7360.9557 298.4966 458.4047 495.0892 29304.1155 -171.5363 -117.0236
ENERGY: 600000 0.7844 1.9273 0.4752 0.0000 -10391.7430 1350.7411 0.0000 0.0000 1693.7775 -7344.0375 293.5081 -9037.8150 -7361.5174 298.4306 -692.6570 -623.4550 30543.4874 -436.1901 -372.0091
ENERGY: 900000 0.9844 4.9602 0.7637 0.0000 -10579.7344 1444.1871 0.0000 0.0000 1708.7739 -7420.0651 296.1068 -9128.8389 -7367.5438 299.3325 420.2800 433.6430 29556.3366 -167.3214 -109.7191
ENERGY: 1200000 1.0854 3.2920 0.8527 0.0000 -10466.3041 1434.9292 0.0000 0.0000 1774.7924 -7251.3524 307.5469 -9026.1447 -7356.3250 300.6288 295.8261 266.8136 29886.2310 -127.0365 -74.6348
ENERGY: 1500000 0.7972 3.9138 0.8728 0.0000 -10645.6649 1494.5336 0.0000 0.0000 1746.7321 -7398.8155 302.6844 -9145.5476 -7358.9986 301.0326 460.8133 520.4320 29738.0541 -114.9413 -63.9777
TCL: Running FEP window  20: Lambda1 0.049999999999999684 Lambda2 0.0    [dLambda -0.049999999999999684]
TCL: Setting parameter firsttimestep to 0
TCL: Setting parameter alchLambda to 0.049999999999999684
Info: NONBONDED TABLE R-SQUARED SPACING: 0.0625
Info: NONBONDED TABLE SIZE: 705 POINTS
TCL: Setting parameter alchLambda2 to 0.0
Info: NONBONDED TABLE R-SQUARED SPACING: 0.0625
Info: NONBONDED TABLE SIZE: 705 POINTS
TCL: Running for 1500000 steps
ETITLE: TS BOND ANGLE DIHED IMPRP ELECT VDW BOUNDARY MISC KINETIC TOTAL TEMP POTENTIAL TOTALAVG TEMPAVG PRESSURE GPRESSURE VOLUME PRESSAVG GPRESSAVG
ENERGY: 0 0.7972 3.9138 0.8728 0.0000 -10645.6635 1493.8290 0.0000 0.0000 1745.8473 -7400.4035 302.5311 -9146.2508 -7400.4035 302.5311 442.6440 516.4548 29738.0541 442.6440 516.4548
ENERGY: 300000 2.4231 3.3947 0.9754 0.0000 -10429.3733 1362.9872 0.0000 0.0000 1741.8910 -7317.7019 301.8455 -9059.5929 -7386.5117 299.9298 -598.1467 -517.6725 30587.2645 -266.1364 -197.0752
ENERGY: 600000 1.1064 3.6909 0.9278 0.0000 -10413.4066 1351.9562 0.0000 0.0000 1696.3002 -7359.4251 293.9453 -9055.7253 -7398.4958 298.3667 -450.0656 -426.6659 30055.4937 -322.0967 -257.1384
ENERGY: 900000 1.2188 2.1282 0.7921 0.0000 -10469.1279 1376.4061 0.0000 0.0000 1734.6449 -7353.9378 300.5899 -9088.5827 -7396.0276 298.3824 -381.5130 -321.5147 30011.7983 -258.7318 -194.5181
ENERGY: 1200000 1.4437 3.5072 1.3859 0.0000 -10622.3337 1519.7395 0.0000 0.0000 1744.8428 -7351.4146 302.3570 -9096.2574 -7391.3215 299.2568 966.4215 1030.8518 29401.0379 -111.4579 -50.7159
ENERGY: 1500000 1.6202 4.9666 1.2120 0.0000 -10567.7566 1472.6831 0.0000 0.0000 1685.3236 -7401.9511 292.0432 -9087.2747 -7390.4821 299.0855 640.7603 692.9714 29710.0463 -116.6609 -52.2803
TCL: Exiting due to exit command.
