Info: SIMULATION PARAMETERS:
Info: TIMESTEP               2
Info: NUMBER OF STEPS        0
Info: STEPS PER CYCLE        10
Info: PERIODIC CELL BASIS 1  30.9045 0 0
Info: PERIODIC CELL BASIS 2  0 31.2585 0
Info: PERIODIC CELL BASIS 3  0 0 31.3512
Info: PERIODIC CELL CENTER   0 0 0
Info: WRAPPING WATERS AROUND PERIODIC BOUNDARIES ON OUTPUT.
Info: WRAPPING ALL CLUSTERS AROUND PERIODIC BOUNDARIES ON OUTPUT.
Info: FIRST LDB TIMESTEP     50
Info: LAST LDB TIMESTEP     -1
Info: HOM BACKGROUND SCALING 1
Info: PME BACKGROUND SCALING 1
Info: MIN ATOMS PER PATCH    40
Info: EMPTY PATCH LOAD       40 ATOMS
Info: VELOCITY FILE          mobley_468867_equil.vel
Info: CENTER OF MASS MOVING INITIALLY? NO
Info: DIELECTRIC             1
Info: EXCLUDE                SCALED ONE-FOUR
Info: 1-4 ELECTROSTATICS SCALED BY 0.833333
Info: MODIFIED 1-4 VDW PARAMETERS WILL BE USED
Info: DCD FILENAME           mobley_468867_prod.dcd
Info: DCD FREQUENCY          100000
Info: DCD FIRST STEP         100000
Info: DCD FILE WILL CONTAIN UNIT CELL DATA
Info: XST FILENAME           mobley_468867_prod.xst
Info: XST FREQUENCY          100000
Info: NO VELOCITY DCD OUTPUT
Info: NO FORCE DCD OUTPUT
Info: OUTPUT FILENAME        mobley_468867_prod
Info: BINARY OUTPUT FILES WILL BE USED
Info: RESTART FILENAME       mobley_468867_prod.restart
Info: RESTART FREQUENCY      100000
Info: BINARY RESTART FILES WILL BE USED
Info: CUTOFF                 9
Info: PAIRLIST DISTANCE      11
Info: PAIRLIST SHRINK RATE   0.01
Info: PAIRLIST GROW RATE     0.01
Info: PAIRLIST TRIGGER       0.3
Info: PAIRLISTS PER CYCLE    2
Info: PAIRLISTS ENABLED
Info: MARGIN                 2
Info: HYDROGEN GROUP CUTOFF  2.5
Info: PATCH DIMENSION        15.5
Info: ENERGY OUTPUT STEPS    100000
Info: ENERGY EVALUATION STEPS    100000
Info: OUTPUT ENERGY PRECISION 4
Info: CROSSTERM ENERGY INCLUDED IN DIHEDRAL
Info: TIMING OUTPUT STEPS    1000000
Info: PRESSURE OUTPUT STEPS  100000
Info: ALCHEMICAL FEP ON
Info: FEP CURRENT LAMBDA VALUE     0
Info: FEP COMPARISON LAMBDA VALUE  0.05
Info: FEP INTRA-ALCHEMICAL NON-BONDED INTERACTIONS WILL BE RETAINED
Info: FEP INTRA-ALCHEMICAL BONDED INTERACTIONS WILL BE RETAINED
Info: FEP VDW SHIFTING COEFFICIENT 5
Info: FEP ELEC. ACTIVE FOR ANNIHILATED PARTICLES BETWEEN LAMBDA = 0 AND LAMBDA = 0.5
Info: FEP ELEC. ACTIVE FOR EXNIHILATED PARTICLES BETWEEN LAMBDA = 0.5 AND LAMBDA = 1
Info: FEP VDW ACTIVE FOR ANNIHILATED PARTICLES BETWEEN LAMBDA = 0 AND LAMBDA = 1
Info: FEP VDW ACTIVE FOR EXNIHILATED PARTICLES BETWEEN LAMBDA = 0 AND LAMBDA = 1
Info: FEP BOND ACTIVE FOR ANNIHILATED PARTICLES BETWEEN LAMBDA = 1 AND LAMBDA = 1
Info: FEP BOND ACTIVE FOR EXNIHILATED PARTICLES BETWEEN LAMBDA = 0 AND LAMBDA = 0
Info: LANGEVIN DYNAMICS ACTIVE
Info: LANGEVIN TEMPERATURE   300
Info: LANGEVIN USING BBK INTEGRATOR
Info: LANGEVIN DAMPING COEFFICIENT IS 1 INVERSE PS
Info: LANGEVIN DYNAMICS APPLIED TO HYDROGENS
Info: LANGEVIN PISTON PRESSURE CONTROL ACTIVE
Info:        TARGET PRESSURE IS 1.01325 BAR
Info:     OSCILLATION PERIOD IS 50 FS
Info:             DECAY TIME IS 25 FS
Info:     PISTON TEMPERATURE IS 300 K
Info:       PRESSURE CONTROL IS GROUP-BASED
Info:    INITIAL STRAIN RATE IS -0.000254417 -0.000254417 -0.000254417
Info:       CELL FLUCTUATION IS ISOTROPIC
Info: PARTICLE MESH EWALD (PME) ACTIVE
Info: PME TOLERANCE               1e-06
Info: PME EWALD COEFFICIENT       0.348832
Info: PME INTERPOLATION ORDER     4
Info: PME GRID DIMENSIONS         32 32 32
Info: PME MAXIMUM GRID SPACING    1
Info: PME CALCULATION WILL BE PERFORMED ON GPU
Info: FULL ELECTROSTATIC EVALUATION FREQUENCY      2
Info: USING VERLET I (r-RESPA) MTS SCHEME.
Info: C1 SPLITTING OF LONG RANGE ELECTROSTATICS
Info: PLACING ATOMS IN PATCHES BY HYDROGEN GROUPS
Info: RIGID BONDS TO HYDROGEN : ALL
Info:         ERROR TOLERANCE : 1e-08
Info:          MAX ITERATIONS : 100
Info: RIGID WATER USING SETTLE ALGORITHM
Info: RANDOM NUMBER SEED     1743634024
Info: USE HYDROGEN BONDS?    NO
Info: Using AMBER format force field!
Info: AMBER PARM FILE        mobley_468867.prmtop
Info: COORDINATE PDB         mobley_468867.pdb
Info: Exclusions will be read from PARM file!
Info: SCNB (VDW SCALING)     2
Info: USING ARITHMETIC MEAN TO COMBINE L-J SIGMA PARAMETERS
Info: BINARY COORDINATES     mobley_468867_equil.coor
Info: SUMMARY OF PARAMETERS:
Info: 10 BONDS
Info: 15 ANGLES
Info:   15 HARMONIC
Info:   0 COSINE-BASED
Info: 15 DIHEDRAL
Info: 0 IMPROPER
Info: 0 CROSSTERM
Info: 0 VDW
Info: 36 VDW_PAIRS
Info: 0 NBTHOLE_PAIRS
Info: To read alchdata from file: mobley_468867.pdb
Info: To read alchflag data from column: 5
Info: STRUCTURE SUMMARY:
Info: 2908 ATOMS
Info: 2910 BONDS
Info: 48 ANGLES
Info: 115 DIHEDRALS
Info: 0 IMPROPERS
Info: 0 CROSSTERMS
Info: 3027 EXCLUSIONS
Info: 2891 RIGID BONDS
Info: ALCH: 0 ATOMS TO DISAPPEAR IN FINAL STATE
Info: ALCH: 22 ATOMS TO APPEAR IN FINAL STATE
Info: 5833 DEGREES OF FREEDOM
Info: 979 HYDROGEN GROUPS
Info: 3 ATOMS IN LARGEST HYDROGEN GROUP
Info: 979 MIGRATION GROUPS
Info: 3 ATOMS IN LARGEST MIGRATION GROUP
Info: TOTAL MASS = 17704.7 amu
Info: TOTAL CHARGE = 9.99968e-05 e
Info: MASS DENSITY = 0.970739 g/cm^3
Info: ATOM DENSITY = 0.0960173 atoms/A^3
Info: ADDED 0 IMPLICIT EXCLUSIONS
Info: NONBONDED TABLE R-SQUARED SPACING: 0.0625
Info: NONBONDED TABLE SIZE: 705 POINTS
Info: REMOVING COM VELOCITY 0.00279993 0.0771688 -0.410425
Info: Use 3D box decompostion in PME FFT.
Info: Updated CUDA force table with 4096 elements.
Info: Updated CUDA LJ table with 8 x 8 elements.
Info: Found 25 unique exclusion lists needing 72 bytes
TCL: Running for 1500000 steps
ETITLE: TS BOND ANGLE DIHED IMPRP ELECT VDW BOUNDARY MISC KINETIC TOTAL TEMP POTENTIAL TOTALAVG TEMPAVG PRESSURE GPRESSURE VOLUME PRESSAVG GPRESSAVG
ENERGY: 0 7.7292 55.1146 14.2708 0.0000 -10502.4591 1421.3580 0.0000 0.0000 1755.7919 -7248.1946 302.9503 -9003.9865 -7248.1946 302.9503 -224.2075 -138.4581 30286.1948 -224.2075 -138.4581
ENERGY: 300000 4.3743 60.8107 13.3042 0.0000 -10513.3050 1410.6171 0.0000 0.0000 1715.3863 -7308.8123 295.9786 -9024.1987 -7255.6316 300.1221 -115.6458 -106.1828 29631.3889 -230.6604 -158.6626
ENERGY: 600000 4.4402 56.6879 13.0512 0.0000 -10428.3578 1419.8999 0.0000 0.0000 1737.9646 -7196.3140 299.8744 -8934.2786 -7256.8130 299.9916 511.0902 524.1348 29676.7715 3.0404 67.1883
ENERGY: 900000 9.5632 54.1107 14.1330 0.0000 -10313.5383 1304.5726 0.0000 0.0000 1710.7942 -7220.3647 295.1863 -8931.1589 -7249.4778 300.0526 -557.9556 -486.7452 29703.2238 -54.5386 13.1515
ENERGY: 1200000 5.2146 52.0672 15.4155 0.0000 -10516.1833 1406.8231 0.0000 0.0000 1787.4364 -7249.2265 308.4104 -9036.6629 -7257.0293 300.0421 -437.3535 -275.0624 29750.0109 -148.8919 -80.3299
ENERGY: 1500000 4.6312 56.2516 13.4566 0.0000 -10539.8399 1431.2604 0.0000 0.0000 1703.1443 -7331.0957 293.8664 -9034.2400 -7259.5880 299.6713 -75.2730 -10.0443 29567.0875 -123.4396 -52.0046
TCL: Running FEP window   2: Lambda1 0.05   Lambda2 0.1    [dLambda 0.05  ]
TCL: Setting parameter firsttimestep to 0
TCL: Setting parameter alchLambda to 0.05
Info: NONBONDED TABLE R-SQUARED SPACING: 0.0625
Info: NONBONDED TABLE SIZE: 705 POINTS
TCL: Setting parameter alchLambda2 to 0.1
Info: NONBONDED TABLE R-SQUARED SPACING: 0.0625
Info: NONBONDED TABLE SIZE: 705 POINTS
TCL: Running for 1500000 steps
ETITLE: TS BOND ANGLE DIHED IMPRP ELECT VDW BOUNDARY MISC KINETIC TOTAL TEMP POTENTIAL TOTALAVG TEMPAVG PRESSURE GPRESSURE VOLUME PRESSAVG GPRESSAVG
ENERGY: 0 4.6312 56.2516 13.4566 0.0000 -10539.8401 1446.4275 0.0000 0.0000 1702.2741 -7316.7990 293.7162 -9019.0731 -7316.7990 293.7162 -56.5170 17.9170 29567.0875 -56.5170 17.9170
ENERGY: 300000 6.6853 59.7376 13.0943 0.0000 -10420.1738 1346.0316 0.0000 0.0000 1735.4671 -7259.1579 299.4434 -8994.6250 -7257.3415 298.6134 -485.7896 -413.7029 29697.4979 73.5581 154.0739
ENERGY: 600000 9.7205 60.0385 14.1277 0.0000 -10403.3491 1354.8987 0.0000 0.0000 1774.7573 -7189.8064 306.2227 -8964.5636 -7256.9249 299.4709 -603.1739 -588.6500 29960.9986 102.7011 151.6971
ENERGY: 900000 8.5924 55.2743 13.9129 0.0000 -10516.9932 1377.0021 0.0000 0.0000 1735.5576 -7326.6540 299.4590 -9062.2116 -7271.0064 300.0393 -484.6421 -403.4893 29519.2501 71.8896 131.9659
ENERGY: 1200000 7.6325 55.9547 12.6734 0.0000 -10387.3548 1378.2005 0.0000 0.0000 1713.2053 -7219.6884 295.6023 -8932.8937 -7266.6426 299.8782 -214.9641 -181.0237 30065.7054 -27.8202 31.7610
ENERGY: 1500000 4.7220 56.4683 12.6252 0.0000 -10466.7594 1380.3021 0.0000 0.0000 1711.9556 -7300.6861 295.3867 -9012.6417 -7253.6381 300.0947 -545.0160 -426.7849 29929.3654 -42.8343 23.0038
TCL: Running FEP window   3: Lambda1 0.1    Lambda2 0.15000000000000002 [dLambda 0.05000000000000002]
TCL: Setting parameter firsttimestep to 0
TCL: Setting parameter alchLambda to 0.1
Info: NONBONDED TABLE R-SQUARED SPACING: 0.0625
Info: NONBONDED TABLE SIZE: 705 POINTS
TCL: Setting parameter alchLambda2 to 0.15000000000000002
Info: NONBONDED TABLE R-SQUARED SPACING: 0.0625
Info: NONBONDED TABLE SIZE: 705 POINTS
TCL: Running for 1500000 steps
ETITLE: TS BOND ANGLE DIHED IMPRP ELECT VDW BOUNDARY MISC KINETIC TOTAL TEMP POTENTIAL TOTALAVG TEMPAVG PRESSURE GPRESSURE VOLUME PRESSAVG GPRESSAVG
ENERGY: 0 4.7220 56.4683 12.6252 0.0000 -10466.7597 1381.9428 0.0000 0.0000 1711.1030 -7299.8983 295.2396 -9011.0013 -7299.8983 295.2396 -511.8697 -416.1109 29929.3654 -511.8697 -416.1109
ENERGY: 300000 6.0892 56.0216 14.5715 0.0000 -10450.3617 1358.1999 0.0000 0.0000 1737.4647 -7278.0147 299.7881 -9015.4795 -7255.2479 301.7292 -506.6109 -423.1141 29484.2775 -134.3101 -52.8028
ENERGY: 600000 3.1253 58.4108 12.7840 0.0000 -10553.2032 1408.7347 0.0000 0.0000 1760.5195 -7309.6289 303.7661 -9070.1484 -7268.2966 301.3590 48.0538 168.9465 29220.6029 -1.1204 87.2668
ENERGY: 900000 7.3901 52.6057 13.8980 0.0000 -10512.6659 1419.4032 0.0000 0.0000 1732.5935 -7286.7754 298.9476 -9019.3690 -7273.0153 300.5902 -361.5968 -215.3094 30060.6011 -1.2070 87.7871
ENERGY: 1200000 5.4127 52.7505 16.9759 0.0000 -10502.4427 1403.1639 0.0000 0.0000 1723.3899 -7300.7499 297.3596 -9024.1398 -7277.0824 300.4698 -153.0249 -84.3042 30106.0833 -35.7720 48.9807
ENERGY: 1500000 5.1167 58.3742 12.8883 0.0000 -10437.0880 1401.5950 0.0000 0.0000 1699.6911 -7259.4226 293.2705 -8959.1137 -7275.7187 300.2997 100.5344 122.2965 29435.3184 0.5166 78.1581
TCL: Running FEP window   4: Lambda1 0.15000000000000002 Lambda2 0.2    [dLambda 0.04999999999999999]
TCL: Setting parameter firsttimestep to 0
TCL: Setting parameter alchLambda to 0.15000000000000002
Info: NONBONDED TABLE R-SQUARED SPACING: 0.0625
Info: NONBONDED TABLE SIZE: 705 POINTS
TCL: Setting parameter alchLambda2 to 0.2
Info: NONBONDED TABLE R-SQUARED SPACING: 0.0625
Info: NONBONDED TABLE SIZE: 705 POINTS
TCL: Running for 1500000 steps
ETITLE: TS BOND ANGLE DIHED IMPRP ELECT VDW BOUNDARY MISC KINETIC TOTAL TEMP POTENTIAL TOTALAVG TEMPAVG PRESSURE GPRESSURE VOLUME PRESSAVG GPRESSAVG
ENERGY: 0 5.1167 58.3742 12.8883 0.0000 -10437.0865 1410.2187 0.0000 0.0000 1698.8477 -7251.6408 293.1250 -8950.4885 -7251.6408 293.1250 76.6028 163.4080 29435.3184 76.6028 163.4080
ENERGY: 300000 9.5438 53.1664 17.2910 0.0000 -10490.7542 1396.5846 0.0000 0.0000 1735.6962 -7278.4723 299.4830 -9014.1685 -7233.9406 298.6893 -630.9093 -524.7614 30494.3216 -35.2255 31.2048
ENERGY: 600000 7.1474 54.5472 12.7458 0.0000 -10558.8083 1465.3107 0.0000 0.0000 1772.3531 -7246.7041 305.8079 -9019.0572 -7240.8282 299.5693 305.5942 298.3749 30177.5394 -149.3363 -101.2582
ENERGY: 900000 4.2846 57.1873 12.8682 0.0000 -10577.6607 1459.5489 0.0000 0.0000 1765.9569 -7277.8147 304.7042 -9043.7716 -7239.6928 300.2780 427.5054 532.7364 29371.8338 109.7370 159.0698
ENERGY: 1200000 10.2273 55.1501 15.1431 0.0000 -10546.1123 1419.0963 0.0000 0.0000 1726.3876 -7320.1079 297.8768 -9046.4955 -7252.7056 299.4846 -127.6829 -87.6078 29823.4705 120.4135 169.3263
ENERGY: 1500000 8.3933 56.0665 13.3567 0.0000 -10428.5285 1386.2485 0.0000 0.0000 1749.3627 -7215.1007 301.8410 -8964.4634 -7250.1254 299.6076 -487.2030 -445.5067 30142.5284 -10.0866 37.6636
TCL: Running FEP window   5: Lambda1 0.2    Lambda2 0.25   [dLambda 0.04999999999999999]
TCL: Setting parameter firsttimestep to 0
TCL: Setting parameter alchLambda to 0.2
Info: NONBONDED TABLE R-SQUARED SPACING: 0.0625
Info: NONBONDED TABLE SIZE: 705 POINTS
TCL: Setting parameter alchLambda2 to 0.25
Info: NONBONDED TABLE R-SQUARED SPACING: 0.0625
Info: NONBONDED TABLE SIZE: 705 POINTS
TCL: Running for 1500000 steps
ETITLE: TS BOND ANGLE DIHED IMPRP ELECT VDW BOUNDARY MISC KINETIC TOTAL TEMP POTENTIAL TOTALAVG TEMPAVG PRESSURE GPRESSURE VOLUME PRESSAVG GPRESSAVG
ENERGY: 0 8.3933 56.0665 13.3567 0.0000 -10428.5289 1386.0253 0.0000 0.0000 1748.5262 -7216.1608 301.6967 -8964.6870 -7216.1608 301.6967 -514.8398 -441.9846 30142.5284 -514.8398 -441.9846
ENERGY: 300000 8.3772 56.3672 13.4755 0.0000 -10529.0205 1442.1600 0.0000 0.0000 1703.9383 -7304.7023 294.0034 -9008.6406 -7235.4749 295.5500 440.6823 520.2900 29496.0112 -87.3876 -24.9572
ENERGY: 600000 6.1580 59.9501 13.1116 0.0000 -10410.3895 1396.1885 0.0000 0.0000 1758.7970 -7176.1844 303.4688 -8934.9813 -7238.8132 297.2638 169.7702 123.7300 29882.8797 -121.0856 -74.2802
ENERGY: 900000 7.6785 57.4824 13.5867 0.0000 -10579.6099 1493.2853 0.0000 0.0000 1732.9647 -7274.6123 299.0117 -9007.5771 -7253.2665 297.1774 581.7267 592.3886 29688.1611 -97.7557 -53.4256
ENERGY: 1200000 7.9290 54.8514 14.1444 0.0000 -10498.4901 1410.2211 0.0000 0.0000 1749.0384 -7262.3058 301.7851 -9011.3441 -7251.2610 298.5559 -181.8094 -104.6535 30106.4476 -37.4872 11.7416
ENERGY: 1500000 4.6264 54.9428 14.4082 0.0000 -10434.4651 1362.9798 0.0000 0.0000 1737.3476 -7260.1602 299.7679 -8997.5077 -7250.3928 298.2894 -122.2038 -38.4971 29501.0060 -55.9405 -5.1828
TCL: Running FEP window   6: Lambda1 0.25   Lambda2 0.3    [dLambda 0.04999999999999999]
TCL: Setting parameter firsttimestep to 0
TCL: Setting parameter alchLambda to 0.25
Info: NONBONDED TABLE R-SQUARED SPACING: 0.0625
Info: NONBONDED TABLE SIZE: 705 POINTS
TCL: Setting parameter alchLambda2 to 0.3
Info: NONBONDED TABLE R-SQUARED SPACING: 0.0625
Info: NONBONDED TABLE SIZE: 705 POINTS
TCL: Running for 1500000 steps
ETITLE: TS BOND ANGLE DIHED IMPRP ELECT VDW BOUNDARY MISC KINETIC TOTAL TEMP POTENTIAL TOTALAVG TEMPAVG PRESSURE GPRESSURE VOLUME PRESSAVG GPRESSAVG
ENERGY: 0 4.6264 54.9428 14.4082 0.0000 -10434.4648 1364.6571 0.0000 0.0000 1736.4642 -7259.3660 299.6155 -8995.8302 -7259.3660 299.6155 -100.7843 -20.1545 29501.0060 -100.7843 -20.1545
ENERGY: 300000 7.6886 56.6191 13.7501 0.0000 -10440.8178 1396.9930 0.0000 0.0000 1740.2119 -7225.5550 300.2621 -8965.7669 -7256.5290 298.0072 -177.5039 -134.9402 30052.4131 138.1922 209.0342
ENERGY: 600000 8.6968 58.0692 13.6185 0.0000 -10509.1713 1395.6476 0.0000 0.0000 1728.6676 -7304.4717 298.2702 -9033.1393 -7261.5839 299.7531 -81.3419 -25.0939 29514.7123 12.3114 74.3347
ENERGY: 900000 8.6480 57.7071 13.3267 0.0000 -10483.4996 1410.6752 0.0000 0.0000 1746.7785 -7246.3641 301.3951 -8993.1426 -7269.9656 297.9698 -0.9748 34.6219 29644.8907 -82.3905 -32.5439
ENERGY: 1200000 6.8514 63.2924 11.9262 0.0000 -10418.0340 1422.4845 0.0000 0.0000 1756.8645 -7156.6150 303.1354 -8913.4795 -7272.8141 297.9575 -35.2831 41.2233 30557.4274 -94.1861 -34.6621
ENERGY: 1500000 7.4905 62.0859 12.8727 0.0000 -10519.6354 1427.7781 0.0000 0.0000 1734.4197 -7274.9885 299.2627 -9009.4082 -7266.8208 298.8085 -117.0546 -72.6568 30151.8580 -87.4221 -28.6397
TCL: Running FEP window   7: Lambda1 0.3    Lambda2 0.35   [dLambda 0.04999999999999999]
TCL: Setting parameter firsttimestep to 0
TCL: Setting parameter alchLambda to 0.3
Info: NONBONDED TABLE R-SQUARED SPACING: 0.0625
Info: NONBONDED TABLE SIZE: 705 POINTS
TCL: Setting parameter alchLambda2 to 0.35
Info: NONBONDED TABLE R-SQUARED SPACING: 0.0625
Info: NONBONDED TABLE SIZE: 705 POINTS
TCL: Running for 1500000 steps
ETITLE: TS BOND ANGLE DIHED IMPRP ELECT VDW BOUNDARY MISC KINETIC TOTAL TEMP POTENTIAL TOTALAVG TEMPAVG PRESSURE GPRESSURE VOLUME PRESSAVG GPRESSAVG
ENERGY: 0 7.4905 62.0859 12.8727 0.0000 -10519.6358 1427.7870 0.0000 0.0000 1733.6021 -7275.7975 299.1216 -9009.3996 -7275.7975 299.1216 -132.1898 -66.2129 30151.8580 -132.1898 -66.2129
ENERGY: 300000 6.7721 54.4611 13.3986 0.0000 -10530.2855 1370.1298 0.0000 0.0000 1700.6815 -7384.8423 293.4414 -9085.5238 -7286.4637 299.2712 -453.4853 -417.5942 29652.1616 172.7019 192.5358
ENERGY: 600000 4.1204 59.8117 13.6767 0.0000 -10370.2190 1346.4043 0.0000 0.0000 1720.7469 -7225.4590 296.9036 -8946.2059 -7283.5228 301.0857 -273.6115 -195.4452 29783.3549 -197.2719 -161.7362
ENERGY: 900000 5.8421 53.9643 13.6599 0.0000 -10472.3131 1405.6134 0.0000 0.0000 1694.1591 -7299.0742 292.3160 -8993.2333 -7278.0714 300.5048 -246.2207 -111.1156 30038.1233 -91.8446 -39.3722
ENERGY: 1200000 4.2725 55.2693 15.1832 0.0000 -10542.5966 1397.2929 0.0000 0.0000 1709.8096 -7360.7691 295.0164 -9070.5787 -7270.8381 300.3324 -172.0240 -100.7969 29695.6620 -192.9687 -126.9456
ENERGY: 1500000 4.2038 55.3461 15.6323 0.0000 -10445.8195 1386.8612 0.0000 0.0000 1740.4298 -7243.3463 300.2997 -8983.7760 -7267.4569 300.8645 -197.3561 -168.9214 29980.8857 -132.6810 -76.5366
TCL: Running FEP window   8: Lambda1 0.35   Lambda2 0.39999999999999997 [dLambda 0.04999999999999999]
TCL: Setting parameter firsttimestep to 0
TCL: Setting parameter alchLambda to 0.35
Info: NONBONDED TABLE R-SQUARED SPACING: 0.0625
Info: NONBONDED TABLE SIZE: 705 POINTS
TCL: Setting parameter alchLambda2 to 0.39999999999999997
Info: NONBONDED TABLE R-SQUARED SPACING: 0.0625
Info: NONBONDED TABLE SIZE: 705 POINTS
TCL: Running for 1500000 steps
ETITLE: TS BOND ANGLE DIHED IMPRP ELECT VDW BOUNDARY MISC KINETIC TOTAL TEMP POTENTIAL TOTALAVG TEMPAVG PRESSURE GPRESSURE VOLUME PRESSAVG GPRESSAVG
ENERGY: 0 4.2038 55.3461 15.6323 0.0000 -10445.8185 1386.3079 0.0000 0.0000 1739.5638 -7244.7646 300.1503 -8984.3284 -7244.7646 300.1503 -240.5761 -165.7598 29980.8857 -240.5761 -165.7598
ENERGY: 300000 12.1029 57.5404 16.5115 0.0000 -10498.9045 1433.3451 0.0000 0.0000 1746.2677 -7233.1369 301.3070 -8979.4046 -7241.2447 299.5164 92.0286 151.5208 29743.2019 -289.1383 -225.7773
ENERGY: 600000 10.7456 56.7458 15.0258 0.0000 -10502.4062 1422.5645 0.0000 0.0000 1717.8804 -7279.4440 296.4090 -8997.3244 -7257.8133 299.7144 -19.2641 69.8309 29778.1412 -87.2119 -23.9054
ENERGY: 900000 6.9662 50.4038 14.2376 0.0000 -10730.0201 1546.8803 0.0000 0.0000 1705.9004 -7405.6319 294.3419 -9111.5323 -7277.0549 299.4941 936.7801 1066.3563 29511.0808 -164.9947 -97.3844
ENERGY: 1200000 2.2962 53.6566 12.8108 0.0000 -10551.9870 1435.6874 0.0000 0.0000 1718.3888 -7329.1472 296.4967 -9047.5360 -7283.9458 299.6663 250.4551 306.1699 29760.3481 -118.0496 -54.0209
ENERGY: 1500000 10.3500 60.0258 16.4857 0.0000 -10505.8719 1397.6578 0.0000 0.0000 1679.5176 -7341.8351 289.7897 -9021.3527 -7292.1196 298.8758 -377.1659 -349.6903 30007.6835 -185.1106 -122.3066
TCL: Running FEP window   9: Lambda1 0.39999999999999997 Lambda2 0.44999999999999996 [dLambda 0.04999999999999999]
TCL: Setting parameter firsttimestep to 0
TCL: Setting parameter alchLambda to 0.39999999999999997
Info: NONBONDED TABLE R-SQUARED SPACING: 0.0625
Info: NONBONDED TABLE SIZE: 705 POINTS
TCL: Setting parameter alchLambda2 to 0.44999999999999996
Info: NONBONDED TABLE R-SQUARED SPACING: 0.0625
Info: NONBONDED TABLE SIZE: 705 POINTS
TCL: Running for 1500000 steps
ETITLE: TS BOND ANGLE DIHED IMPRP ELECT VDW BOUNDARY MISC KINETIC TOTAL TEMP POTENTIAL TOTALAVG TEMPAVG PRESSURE GPRESSURE VOLUME PRESSAVG GPRESSAVG
ENERGY: 0 10.3500 60.0258 16.4857 0.0000 -10505.8709 1397.1962 0.0000 0.0000 1678.6702 -7343.1430 289.6435 -9021.8132 -7343.1430 289.6435 -413.7509 -347.0177 30007.6835 -413.7509 -347.0177
ENERGY: 300000 3.5593 58.1008 13.8550 0.0000 -10611.1174 1487.8606 0.0000 0.0000 1691.6644 -7356.0773 291.8856 -9047.7417 -7327.3343 292.0900 148.0505 198.3434 30586.3215 -114.7892 -56.8901
ENERGY: 600000 4.7917 58.6917 12.9195 0.0000 -10462.7039 1410.8108 0.0000 0.0000 1726.2725 -7249.2177 297.8570 -8975.4902 -7292.9984 293.6783 -79.7303 14.2586 30352.7779 -210.0797 -145.4228
ENERGY: 900000 4.9885 50.5870 15.6363 0.0000 -10609.9025 1514.5995 0.0000 0.0000 1724.2058 -7299.8854 297.5004 -9024.0912 -7278.9153 294.9580 1044.9357 1145.9782 29574.8457 -2.3890 61.4732
ENERGY: 1200000 7.2727 56.1422 13.8473 0.0000 -10314.4823 1343.1217 0.0000 0.0000 1758.2740 -7135.8245 303.3786 -8894.0985 -7256.5935 296.8557 -235.1200 -148.1494 29919.7598 -37.5381 29.9664
ENERGY: 1500000 5.5774 54.0352 14.7145 0.0000 -10425.2414 1351.4179 0.0000 0.0000 1664.7674 -7334.7291 287.2447 -8999.4965 -7264.9084 296.4389 -608.8418 -594.5231 30498.3257 -55.0976 11.3246
TCL: Running FEP window  10: Lambda1 0.44999999999999996 Lambda2 0.49999999999999994 [dLambda 0.04999999999999999]
TCL: Setting parameter firsttimestep to 0
TCL: Setting parameter alchLambda to 0.44999999999999996
Info: NONBONDED TABLE R-SQUARED SPACING: 0.0625
Info: NONBONDED TABLE SIZE: 705 POINTS
TCL: Setting parameter alchLambda2 to 0.49999999999999994
Info: NONBONDED TABLE R-SQUARED SPACING: 0.0625
Info: NONBONDED TABLE SIZE: 705 POINTS
TCL: Running for 1500000 steps
ETITLE: TS BOND ANGLE DIHED IMPRP ELECT VDW BOUNDARY MISC KINETIC TOTAL TEMP POTENTIAL TOTALAVG TEMPAVG PRESSURE GPRESSURE VOLUME PRESSAVG GPRESSAVG
ENERGY: 0 5.5774 54.0352 14.7145 0.0000 -10425.2419 1350.8171 0.0000 0.0000 1663.9076 -7336.1901 287.0963 -9000.0977 -7336.1901 287.0963 -666.1654 -591.8246 30498.3257 -666.1654 -591.8246
ENERGY: 300000 9.5881 54.3545 13.5953 0.0000 -10364.0572 1381.1526 0.0000 0.0000 1788.3191 -7117.0476 308.5627 -8905.3668 -7241.2498 298.3719 -349.8324 -300.1110 30339.1685 -385.5288 -315.4094
ENERGY: 600000 9.1239 59.0990 12.7036 0.0000 -10509.0452 1464.4615 0.0000 0.0000 1709.7098 -7253.9474 294.9992 -8963.6572 -7235.3988 299.8477 548.8314 616.5863 30250.8973 -106.1644 -40.3432
ENERGY: 900000 3.1453 54.1793 16.5638 0.0000 -10524.5321 1464.8160 0.0000 0.0000 1713.7995 -7272.0282 295.7048 -8985.8277 -7246.5986 300.2452 749.0188 739.1343 29681.9282 -76.1577 -17.3676
ENERGY: 1200000 6.6419 56.2968 12.2919 0.0000 -10521.1578 1378.9413 0.0000 0.0000 1783.9285 -7283.0573 307.8051 -9066.9858 -7253.3799 300.6897 -424.4922 -377.6664 30157.0094 -143.8687 -86.5987
ENERGY: 1500000 5.5445 57.8138 14.2973 0.0000 -10507.7729 1411.0323 0.0000 0.0000 1758.5411 -7260.5441 303.4247 -9019.0852 -7256.0788 301.2070 -1.0588 157.8156 29907.4985 -50.0213 15.3187
TCL: Running FEP window  11: Lambda1 0.49999999999999994 Lambda2 0.5499999999999999 [dLambda 0.04999999999999999]
TCL: Setting parameter firsttimestep to 0
TCL: Setting parameter alchLambda to 0.49999999999999994
Info: NONBONDED TABLE R-SQUARED SPACING: 0.0625
Info: NONBONDED TABLE SIZE: 705 POINTS
TCL: Setting parameter alchLambda2 to 0.5499999999999999
Info: NONBONDED TABLE R-SQUARED SPACING: 0.0625
Info: NONBONDED TABLE SIZE: 705 POINTS
TCL: Running for 1500000 steps
ETITLE: TS BOND ANGLE DIHED IMPRP ELECT VDW BOUNDARY MISC KINETIC TOTAL TEMP POTENTIAL TOTALAVG TEMPAVG PRESSURE GPRESSURE VOLUME PRESSAVG GPRESSAVG
ENERGY: 0 5.5445 57.8138 14.2973 0.0000 -10507.7728 1411.0005 0.0000 0.0000 1757.6963 -7261.4205 303.2789 -9019.1168 -7261.4205 303.2789 99.5150 166.5397 29907.4985 99.5150 166.5397
ENERGY: 300000 5.6840 56.6719 14.9533 0.0000 -10359.2643 1293.6985 0.0000 0.0000 1714.4647 -7273.7919 295.8196 -8988.2566 -7269.9434 297.4009 -1122.7239 -1025.5059 30545.8500 -424.2307 -357.8675
ENERGY: 600000 8.4417 52.6302 12.5543 0.0000 -10355.6633 1323.5052 0.0000 0.0000 1759.3307 -7199.2012 303.5609 -8958.5319 -7268.4193 298.3668 -891.9329 -831.8436 30695.1785 -335.3265 -271.1880
ENERGY: 900000 5.0338 56.2858 12.5550 0.0000 -10480.9809 1329.3688 0.0000 0.0000 1766.2015 -7311.5359 304.7465 -9077.7374 -7276.2454 298.8638 -1101.4526 -973.6977 30181.6731 -501.6758 -436.2128
ENERGY: 1200000 9.2453 54.4155 13.7450 0.0000 -10562.5557 1414.7687 0.0000 0.0000 1767.6414 -7302.7397 304.9949 -9070.3811 -7278.1673 299.5168 -395.4586 -337.1978 30127.7392 -267.9281 -206.3476
ENERGY: 1500000 7.8606 57.0593 12.3366 0.0000 -10333.6162 1373.9756 0.0000 0.0000 1720.3890 -7161.9952 296.8418 -8882.3842 -7268.8329 299.5225 -114.0755 -77.4606 30226.0386 -230.8351 -170.4507
TCL: Running FEP window  12: Lambda1 0.5499999999999999 Lambda2 0.6    [dLambda 0.050000000000000044]
TCL: Setting parameter firsttimestep to 0
TCL: Setting parameter alchLambda to 0.5499999999999999
Info: NONBONDED TABLE R-SQUARED SPACING: 0.0625
Info: NONBONDED TABLE SIZE: 705 POINTS
TCL: Setting parameter alchLambda2 to 0.6
Info: NONBONDED TABLE R-SQUARED SPACING: 0.0625
Info: NONBONDED TABLE SIZE: 705 POINTS
TCL: Running for 1500000 steps
ETITLE: TS BOND ANGLE DIHED IMPRP ELECT VDW BOUNDARY MISC KINETIC TOTAL TEMP POTENTIAL TOTALAVG TEMPAVG PRESSURE GPRESSURE VOLUME PRESSAVG GPRESSAVG
ENERGY: 0 7.8606 57.0593 12.3366 0.0000 -10333.5450 1374.9991 0.0000 0.0000 1719.5480 -7161.7414 296.6967 -8881.2894 -7161.7414 296.6967 -134.3813 -55.5279 30226.0386 -134.3813 -55.5279
ENERGY: 300000 6.8123 53.7129 14.6798 0.0000 -10381.6513 1362.3919 0.0000 0.0000 1718.1292 -7225.9251 296.4519 -8944.0543 -7229.5731 297.5621 -414.4233 -407.5743 30447.9084 -95.2082 -49.5267
ENERGY: 600000 9.8715 60.2228 12.6925 0.0000 -10597.6325 1398.4944 0.0000 0.0000 1707.2996 -7409.0518 294.5833 -9116.3514 -7253.0904 299.4031 -185.3666 -116.9774 29855.1855 42.7288 87.7886
ENERGY: 900000 5.5258 62.6356 13.2660 0.0000 -10568.6830 1499.8144 0.0000 0.0000 1732.8864 -7254.5548 298.9982 -8987.4412 -7249.8055 300.4557 609.0030 653.6847 30066.0770 45.1647 94.1750
ENERGY: 1200000 6.4806 55.5234 12.6898 0.0000 -10481.7636 1364.1348 0.0000 0.0000 1769.3203 -7273.6147 305.2846 -9042.9351 -7245.8004 300.9501 -298.1921 -198.5146 29627.1480 69.5784 126.4626
ENERGY: 1500000 5.3804 58.7062 15.8986 0.0000 -10499.5320 1393.1999 0.0000 0.0000 1821.7357 -7204.6112 314.3285 -9026.3469 -7242.2708 301.6305 53.7024 80.0916 29809.9630 -39.4250 18.8964
TCL: Running FEP window  13: Lambda1 0.6    Lambda2 0.65   [dLambda 0.050000000000000044]
TCL: Setting parameter firsttimestep to 0
TCL: Setting parameter alchLambda to 0.6
Info: NONBONDED TABLE R-SQUARED SPACING: 0.0625
Info: NONBONDED TABLE SIZE: 705 POINTS
TCL: Setting parameter alchLambda2 to 0.65
Info: NONBONDED TABLE R-SQUARED SPACING: 0.0625
Info: NONBONDED TABLE SIZE: 705 POINTS
TCL: Running for 1500000 steps
ETITLE: TS BOND ANGLE DIHED IMPRP ELECT VDW BOUNDARY MISC KINETIC TOTAL TEMP POTENTIAL TOTALAVG TEMPAVG PRESSURE GPRESSURE VOLUME PRESSAVG GPRESSAVG
ENERGY: 0 5.3804 58.7062 15.8986 0.0000 -10499.6243 1393.6998 0.0000 0.0000 1820.8813 -7205.0580 314.1811 -9025.9394 -7205.0580 314.1811 21.4552 100.9091 29809.9630 21.4552 100.9091
ENERGY: 300000 9.5790 51.5682 16.8734 0.0000 -10417.3661 1387.0347 0.0000 0.0000 1694.8245 -7257.4863 292.4308 -8952.3108 -7230.9295 304.7948 -366.6779 -333.2720 30529.3632 -81.1804 5.1503
ENERGY: 600000 5.8756 51.7474 14.3944 0.0000 -10570.3968 1429.3329 0.0000 0.0000 1717.6860 -7351.3605 296.3754 -9069.0465 -7268.1031 302.4503 -123.9885 -67.9510 29834.6459 -300.0949 -228.3211
ENERGY: 900000 5.4079 55.7402 13.1589 0.0000 -10493.7487 1381.4575 0.0000 0.0000 1771.2648 -7266.7194 305.6201 -9037.9842 -7248.9814 303.0026 45.9930 125.1499 29652.6373 -215.8832 -137.9176
ENERGY: 1200000 7.3579 55.1502 14.0630 0.0000 -10586.1320 1453.7227 0.0000 0.0000 1749.8308 -7306.0074 301.9218 -9055.8383 -7251.9805 302.6265 328.5240 368.7821 29827.1843 -152.1368 -78.2732
ENERGY: 1500000 9.6309 55.8899 15.6610 0.0000 -10500.5868 1367.6789 0.0000 0.0000 1772.7701 -7278.9560 305.8798 -9051.7261 -7251.8257 303.5460 -515.7464 -475.8022 29953.1287 -188.9780 -110.4362
TCL: Running FEP window  14: Lambda1 0.65   Lambda2 0.7000000000000001 [dLambda 0.050000000000000044]
TCL: Setting parameter firsttimestep to 0
TCL: Setting parameter alchLambda to 0.65
Info: NONBONDED TABLE R-SQUARED SPACING: 0.0625
Info: NONBONDED TABLE SIZE: 705 POINTS
TCL: Setting parameter alchLambda2 to 0.7000000000000001
Info: NONBONDED TABLE R-SQUARED SPACING: 0.0625
Info: NONBONDED TABLE SIZE: 705 POINTS
TCL: Running for 1500000 steps
ETITLE: TS BOND ANGLE DIHED IMPRP ELECT VDW BOUNDARY MISC KINETIC TOTAL TEMP POTENTIAL TOTALAVG TEMPAVG PRESSURE GPRESSURE VOLUME PRESSAVG GPRESSAVG
ENERGY: 0 9.6309 55.8899 15.6610 0.0000 -10500.7288 1367.1795 0.0000 0.0000 1771.8976 -7280.4700 305.7293 -9052.3676 -7280.4700 305.7293 -548.0302 -468.9195 29953.1287 -548.0302 -468.9195
ENERGY: 300000 5.2678 52.3930 12.4763 0.0000 -10457.6348 1419.1164 0.0000 0.0000 1779.2416 -7189.1397 306.9964 -8968.3813 -7254.8915 303.1238 220.0991 283.0810 29790.2069 -218.5531 -143.7118
ENERGY: 600000 3.9780 56.3002 13.3859 0.0000 -10625.5341 1452.5255 0.0000 0.0000 1732.4924 -7366.8520 298.9302 -9099.3445 -7259.3036 301.2095 -4.1379 50.4341 30071.1571 -397.0047 -319.2019
ENERGY: 900000 7.4032 53.2489 14.1798 0.0000 -10516.9829 1352.8670 0.0000 0.0000 1806.8638 -7282.4202 311.7625 -9089.2840 -7258.0436 302.6435 -722.0766 -635.7958 30139.3118 -293.3253 -219.6057
ENERGY: 1200000 3.1494 54.1998 13.2361 0.0000 -10474.4209 1335.8413 0.0000 0.0000 1769.3611 -7298.6332 305.2916 -9067.9943 -7261.5901 302.4132 -616.2823 -501.0696 29799.9280 -236.8384 -165.3683
ENERGY: 1500000 8.3327 56.8182 17.6442 0.0000 -10418.7438 1322.9115 0.0000 0.0000 1696.1184 -7316.9188 292.6541 -9013.0372 -7257.3779 301.1763 -907.0520 -878.6309 30335.0066 -252.1751 -180.0222
TCL: Running FEP window  15: Lambda1 0.7000000000000001 Lambda2 0.7500000000000001 [dLambda 0.050000000000000044]
TCL: Setting parameter firsttimestep to 0
TCL: Setting parameter alchLambda to 0.7000000000000001
Info: NONBONDED TABLE R-SQUARED SPACING: 0.0625
Info: NONBONDED TABLE SIZE: 705 POINTS
TCL: Setting parameter alchLambda2 to 0.7500000000000001
Info: NONBONDED TABLE R-SQUARED SPACING: 0.0625
Info: NONBONDED TABLE SIZE: 705 POINTS
TCL: Running for 1500000 steps
ETITLE: TS BOND ANGLE DIHED IMPRP ELECT VDW BOUNDARY MISC KINETIC TOTAL TEMP POTENTIAL TOTALAVG TEMPAVG PRESSURE GPRESSURE VOLUME PRESSAVG GPRESSAVG
ENERGY: 0 8.3327 56.8182 17.6442 0.0000 -10418.8823 1322.3035 0.0000 0.0000 1695.2652 -7318.5183 292.5069 -9013.7836 -7318.5183 292.5069 -951.3751 -872.1586 30335.0066 -951.3751 -872.1586
ENERGY: 300000 6.9585 61.0404 13.8779 0.0000 -10489.0771 1365.3086 0.0000 0.0000 1771.7977 -7270.0940 305.7120 -9041.8917 -7279.5775 300.3970 -272.8587 -249.9647 29617.8707 -47.3472 -8.4632
ENERGY: 600000 6.5994 56.3582 12.5757 0.0000 -10574.0472 1424.8763 0.0000 0.0000 1746.1117 -7327.5259 301.2801 -9073.6376 -7280.9660 299.0040 -49.7883 -82.5285 30385.4254 -43.6879 -12.1655
ENERGY: 900000 9.0722 55.2023 14.1571 0.0000 -10507.7261 1408.3870 0.0000 0.0000 1703.9004 -7317.0071 293.9968 -9020.9074 -7277.7147 299.0703 286.0678 302.9879 29692.3249 -74.8555 -29.9987
ENERGY: 1200000 6.2147 57.5837 12.3038 0.0000 -10169.8643 1226.3665 0.0000 0.0000 1793.0043 -7074.3914 309.3711 -8867.3957 -7265.8588 299.3176 -1130.3629 -1023.9712 30757.8985 -109.6276 -63.9841
ENERGY: 1500000 4.4205 57.0456 13.2228 0.0000 -10486.0809 1395.4879 0.0000 0.0000 1756.5497 -7259.3544 303.0811 -9015.9040 -7269.0998 299.3533 -237.3593 -178.5011 30640.5698 -130.7815 -82.6391
TCL: Running FEP window  16: Lambda1 0.7500000000000001 Lambda2 0.8000000000000002 [dLambda 0.050000000000000044]
TCL: Setting parameter firsttimestep to 0
TCL: Setting parameter alchLambda to 0.7500000000000001
Info: NONBONDED TABLE R-SQUARED SPACING: 0.0625
Info: NONBONDED TABLE SIZE: 705 POINTS
TCL: Setting parameter alchLambda2 to 0.8000000000000002
Info: NONBONDED TABLE R-SQUARED SPACING: 0.0625
Info: NONBONDED TABLE SIZE: 705 POINTS
TCL: Running for 1500000 steps
ETITLE: TS BOND ANGLE DIHED IMPRP ELECT VDW BOUNDARY MISC KINETIC TOTAL TEMP POTENTIAL TOTALAVG TEMPAVG PRESSURE GPRESSURE VOLUME PRESSAVG GPRESSAVG
ENERGY: 0 4.4205 57.0456 13.2228 0.0000 -10486.6399 1395.5235 0.0000 0.0000 1755.7029 -7260.7246 302.9350 -9016.4275 -7260.7246 302.9350 -243.5864 -162.1456 30640.5698 -243.5864 -162.1456
ENERGY: 300000 5.7571 61.7836 12.8991 0.0000 -10575.8421 1427.1559 0.0000 0.0000 1665.5298 -7402.7165 287.3762 -9068.2463 -7306.0815 299.3751 118.7293 173.8307 29814.7817 23.6051 75.3624
ENERGY: 600000 7.7814 58.8784 12.5697 0.0000 -10516.1732 1410.7847 0.0000 0.0000 1739.4136 -7286.7454 300.1244 -9026.1590 -7315.6278 299.4573 -30.6706 82.3504 29701.2824 -66.5489 -18.8260
ENERGY: 900000 6.3272 65.8561 14.4047 0.0000 -10368.0041 1302.0187 0.0000 0.0000 1764.7470 -7214.6503 304.4955 -8979.3973 -7293.9062 301.0023 -932.1928 -855.6909 30304.6051 -169.8580 -117.5396
ENERGY: 1200000 5.3220 57.6950 13.5149 0.0000 -10393.9877 1324.8090 0.0000 0.0000 1761.0118 -7231.6350 303.8510 -8992.6468 -7287.0368 301.1121 -620.0573 -556.7192 30015.7858 -190.9459 -135.9920
ENERGY: 1500000 8.6784 60.0125 12.1098 0.0000 -10483.8705 1408.0715 0.0000 0.0000 1729.2226 -7265.7757 298.3660 -8994.9983 -7280.9627 301.3819 -126.5896 -21.0873 30171.6700 -231.0167 -172.4029
TCL: Running FEP window  17: Lambda1 0.8000000000000002 Lambda2 0.8500000000000002 [dLambda 0.050000000000000044]
TCL: Setting parameter firsttimestep to 0
TCL: Setting parameter alchLambda to 0.8000000000000002
Info: NONBONDED TABLE R-SQUARED SPACING: 0.0625
Info: NONBONDED TABLE SIZE: 705 POINTS
TCL: Setting parameter alchLambda2 to 0.8500000000000002
Info: NONBONDED TABLE R-SQUARED SPACING: 0.0625
Info: NONBONDED TABLE SIZE: 705 POINTS
TCL: Running for 1500000 steps
ETITLE: TS BOND ANGLE DIHED IMPRP ELECT VDW BOUNDARY MISC KINETIC TOTAL TEMP POTENTIAL TOTALAVG TEMPAVG PRESSURE GPRESSURE VOLUME PRESSAVG GPRESSAVG
ENERGY: 0 8.6784 60.0125 12.1098 0.0000 -10484.3752 1408.4852 0.0000 0.0000 1728.3571 -7266.7322 298.2166 -8995.0893 -7266.7322 298.2166 -87.3585 1.8888 30171.6700 -87.3585 1.8888
ENERGY: 300000 5.4475 55.3932 13.4012 0.0000 -10448.1410 1436.4124 0.0000 0.0000 1736.7377 -7200.7489 299.6627 -8937.4866 -7242.6357 300.7688 339.5469 288.8012 30457.7688 -304.4439 -270.9997
ENERGY: 600000 5.5682 55.4793 12.9138 0.0000 -10554.2270 1484.8993 0.0000 0.0000 1701.4484 -7293.9180 293.5737 -8995.3664 -7264.6169 297.5756 428.3520 494.2084 30336.3090 -68.8583 -25.1620
ENERGY: 900000 12.5046 57.7683 13.3179 0.0000 -10638.3809 1518.9511 0.0000 0.0000 1738.2558 -7297.5831 299.9246 -9035.8389 -7270.9680 297.6500 1004.9058 1046.4469 29804.5845 224.3749 269.7493
ENERGY: 1200000 5.7738 55.9160 12.0766 0.0000 -10465.7847 1412.5765 0.0000 0.0000 1743.1007 -7236.3411 300.7606 -8979.4418 -7261.3205 299.4248 -124.7907 -84.3144 30645.7655 164.2737 198.6272
ENERGY: 1500000 12.6835 53.9242 15.2329 0.0000 -10722.4183 1527.4259 0.0000 0.0000 1724.4885 -7388.6634 297.5491 -9113.1519 -7272.9060 298.9730 372.5180 449.8777 30000.9403 171.1024 214.1582
TCL: Running FEP window  18: Lambda1 0.8500000000000002 Lambda2 0.9000000000000002 [dLambda 0.050000000000000044]
TCL: Setting parameter firsttimestep to 0
TCL: Setting parameter alchLambda to 0.8500000000000002
Info: NONBONDED TABLE R-SQUARED SPACING: 0.0625
Info: NONBONDED TABLE SIZE: 705 POINTS
TCL: Setting parameter alchLambda2 to 0.9000000000000002
Info: NONBONDED TABLE R-SQUARED SPACING: 0.0625
Info: NONBONDED TABLE SIZE: 705 POINTS
TCL: Running for 1500000 steps
ETITLE: TS BOND ANGLE DIHED IMPRP ELECT VDW BOUNDARY MISC KINETIC TOTAL TEMP POTENTIAL TOTALAVG TEMPAVG PRESSURE GPRESSURE VOLUME PRESSAVG GPRESSAVG
ENERGY: 0 12.6835 53.9242 15.2329 0.0000 -10722.7519 1527.3573 0.0000 0.0000 1723.6544 -7389.8996 297.4052 -9113.5540 -7389.8996 297.4052 381.8974 465.4774 30000.9403 381.8974 465.4774
ENERGY: 300000 9.0741 60.0063 15.8788 0.0000 -10562.5012 1461.8929 0.0000 0.0000 1769.4483 -7246.2007 305.3067 -9015.6490 -7310.8521 298.1931 361.0958 408.6543 29804.0929 73.6704 121.1624
ENERGY: 600000 8.5185 56.4492 14.7112 0.0000 -10588.8265 1468.1777 0.0000 0.0000 1710.5488 -7330.4212 295.1439 -9040.9700 -7312.1387 298.9680 273.3955 327.7238 30253.3298 9.2743 62.0732
ENERGY: 900000 6.7628 61.3370 16.3230 0.0000 -10424.9854 1347.0641 0.0000 0.0000 1716.6457 -7276.8527 296.1959 -8993.4984 -7298.9032 299.3670 -570.1683 -453.8146 30224.4285 32.7192 87.6952
ENERGY: 1200000 6.8053 53.3095 12.6964 0.0000 -10534.4684 1453.7961 0.0000 0.0000 1749.8759 -7257.9852 301.9296 -9007.8611 -7287.1428 299.8033 72.8291 123.7679 30451.7036 10.2465 63.2468
ENERGY: 1500000 8.9529 53.4661 12.2420 0.0000 -10432.7969 1340.4843 0.0000 0.0000 1776.2511 -7241.4005 306.4804 -9017.6516 -7280.8159 299.9097 -699.2270 -613.1184 29810.6859 -19.9304 30.4309
TCL: Running FEP window  19: Lambda1 0.9000000000000002 Lambda2 0.9500000000000003 [dLambda 0.050000000000000044]
TCL: Setting parameter firsttimestep to 0
TCL: Setting parameter alchLambda to 0.9000000000000002
Info: NONBONDED TABLE R-SQUARED SPACING: 0.0625
Info: NONBONDED TABLE SIZE: 705 POINTS
TCL: Setting parameter alchLambda2 to 0.9500000000000003
Info: NONBONDED TABLE R-SQUARED SPACING: 0.0625
Info: NONBONDED TABLE SIZE: 705 POINTS
TCL: Running for 1500000 steps
ETITLE: TS BOND ANGLE DIHED IMPRP ELECT VDW BOUNDARY MISC KINETIC TOTAL TEMP POTENTIAL TOTALAVG TEMPAVG PRESSURE GPRESSURE VOLUME PRESSAVG GPRESSAVG
ENERGY: 0 8.9529 53.4661 12.2420 0.0000 -10433.0921 1340.1167 0.0000 0.0000 1775.3962 -7242.9182 306.3329 -9018.3143 -7242.9182 306.3329 -679.8209 -600.4272 29810.6859 -679.8209 -600.4272
ENERGY: 300000 6.9814 57.5768 14.3117 0.0000 -10577.2839 1408.5168 0.0000 0.0000 1755.3108 -7334.5864 302.8673 -9089.8972 -7286.7493 301.1308 -299.0428 -250.8821 30014.5982 -137.8152 -89.0053
ENERGY: 600000 14.3890 55.9913 13.4990 0.0000 -10479.6337 1350.5836 0.0000 0.0000 1751.5177 -7293.6531 302.2129 -9045.1708 -7262.3148 303.8035 -835.5942 -763.1383 30435.5844 -197.6115 -135.9918
ENERGY: 900000 4.8765 57.2117 13.6689 0.0000 -10559.6371 1385.1478 0.0000 0.0000 1754.0302 -7344.7021 302.6464 -9098.7323 -7281.0295 301.4846 -429.0812 -367.8934 30216.4610 -116.2872 -54.6239
ENERGY: 1200000 3.9009 52.6977 12.8991 0.0000 -10531.8489 1422.0656 0.0000 0.0000 1760.6949 -7279.5909 303.7963 -9040.2857 -7285.2457 301.2685 381.3531 495.0391 29765.2352 -1.5053 69.0046
ENERGY: 1500000 8.3623 56.3446 15.5632 0.0000 -10456.3526 1374.4797 0.0000 0.0000 1755.1144 -7246.4884 302.8334 -9001.6027 -7279.3236 301.2482 -461.8196 -319.9786 30097.3161 -70.9608 5.0097
TCL: Running FEP window  20: Lambda1 0.9500000000000003 Lambda2 1.0    [dLambda 0.04999999999999971]
TCL: Setting parameter firsttimestep to 0
TCL: Setting parameter alchLambda to 0.9500000000000003
Info: NONBONDED TABLE R-SQUARED SPACING: 0.0625
Info: NONBONDED TABLE SIZE: 705 POINTS
TCL: Setting parameter alchLambda2 to 1.0
Info: NONBONDED TABLE R-SQUARED SPACING: 0.0625
Info: NONBONDED TABLE SIZE: 705 POINTS
TCL: Running for 1500000 steps
ETITLE: TS BOND ANGLE DIHED IMPRP ELECT VDW BOUNDARY MISC KINETIC TOTAL TEMP POTENTIAL TOTALAVG TEMPAVG PRESSURE GPRESSURE VOLUME PRESSAVG GPRESSAVG
ENERGY: 0 8.3623 56.3446 15.5632 0.0000 -10456.9576 1374.7704 0.0000 0.0000 1754.2613 -7247.6558 302.6863 -9001.9171 -7247.6558 302.6863 -384.8350 -297.4288 30097.3161 -384.8350 -297.4288
ENERGY: 300000 7.2655 55.9319 13.1500 0.0000 -10555.5483 1380.2588 0.0000 0.0000 1719.2288 -7379.7132 296.6416 -9098.9421 -7294.8310 298.9273 -825.5409 -706.7102 30375.2383 -138.9114 -53.3432
ENERGY: 600000 10.2799 57.2359 14.6374 0.0000 -10653.4352 1481.7522 0.0000 0.0000 1754.9287 -7334.6011 302.8014 -9089.5298 -7299.0032 300.3956 159.1195 248.2900 30134.5608 40.2069 103.5447
ENERGY: 900000 6.1697 58.0581 16.7664 0.0000 -10252.7253 1255.8684 0.0000 0.0000 1755.2153 -7160.6475 302.8509 -8915.8628 -7271.9040 300.9528 -1193.1009 -1156.5188 30795.3105 -267.7488 -218.8713
ENERGY: 1200000 6.3151 53.4452 13.4104 0.0000 -10415.3832 1312.2928 0.0000 0.0000 1723.6776 -7306.2421 297.4092 -9029.9197 -7270.3022 299.9604 -829.8430 -803.3511 30083.7995 -309.0134 -252.7637
ENERGY: 1500000 2.6487 55.5399 13.9862 0.0000 -10569.5253 1469.6409 0.0000 0.0000 1670.9619 -7356.7477 288.3135 -9027.7096 -7281.6779 299.3154 599.2626 681.1648 30044.4365 -93.5585 -37.5282
TCL: Exiting due to exit command.
