Info: SIMULATION PARAMETERS:
Info: TIMESTEP               2
Info: NUMBER OF STEPS        0
Info: STEPS PER CYCLE        10
Info: PERIODIC CELL BASIS 1  30.7906 0 0
Info: PERIODIC CELL BASIS 2  0 29.3191 0
Info: PERIODIC CELL BASIS 3  0 0 32.96
Info: PERIODIC CELL CENTER   0 0 0
Info: WRAPPING WATERS AROUND PERIODIC BOUNDARIES ON OUTPUT.
Info: WRAPPING ALL CLUSTERS AROUND PERIODIC BOUNDARIES ON OUTPUT.
Info: FIRST LDB TIMESTEP     50
Info: LAST LDB TIMESTEP     -1
Info: HOM BACKGROUND SCALING 1
Info: PME BACKGROUND SCALING 1
Info: MIN ATOMS PER PATCH    40
Info: EMPTY PATCH LOAD       40 ATOMS
Info: VELOCITY FILE          mobley_2925352_equil.vel
Info: CENTER OF MASS MOVING INITIALLY? NO
Info: DIELECTRIC             1
Info: EXCLUDE                SCALED ONE-FOUR
Info: 1-4 ELECTROSTATICS SCALED BY 0.833333
Info: MODIFIED 1-4 VDW PARAMETERS WILL BE USED
Info: DCD FILENAME           mobley_2925352_prod.dcd
Info: DCD FREQUENCY          100000
Info: DCD FIRST STEP         100000
Info: DCD FILE WILL CONTAIN UNIT CELL DATA
Info: XST FILENAME           mobley_2925352_prod.xst
Info: XST FREQUENCY          100000
Info: NO VELOCITY DCD OUTPUT
Info: NO FORCE DCD OUTPUT
Info: OUTPUT FILENAME        mobley_2925352_prod
Info: BINARY OUTPUT FILES WILL BE USED
Info: RESTART FILENAME       mobley_2925352_prod.restart
Info: RESTART FREQUENCY      100000
Info: BINARY RESTART FILES WILL BE USED
Info: CUTOFF                 9
Info: PAIRLIST DISTANCE      11
Info: PAIRLIST SHRINK RATE   0.01
Info: PAIRLIST GROW RATE     0.01
Info: PAIRLIST TRIGGER       0.3
Info: PAIRLISTS PER CYCLE    2
Info: PAIRLISTS ENABLED
Info: MARGIN                 2
Info: HYDROGEN GROUP CUTOFF  2.5
Info: PATCH DIMENSION        15.5
Info: ENERGY OUTPUT STEPS    100000
Info: ENERGY EVALUATION STEPS    100000
Info: OUTPUT ENERGY PRECISION 4
Info: CROSSTERM ENERGY INCLUDED IN DIHEDRAL
Info: TIMING OUTPUT STEPS    1000000
Info: PRESSURE OUTPUT STEPS  100000
Info: ALCHEMICAL FEP ON
Info: FEP CURRENT LAMBDA VALUE     1
Info: FEP COMPARISON LAMBDA VALUE  0.95
Info: FEP INTRA-ALCHEMICAL NON-BONDED INTERACTIONS WILL BE RETAINED
Info: FEP INTRA-ALCHEMICAL BONDED INTERACTIONS WILL BE RETAINED
Info: FEP VDW SHIFTING COEFFICIENT 5
Info: FEP ELEC. ACTIVE FOR ANNIHILATED PARTICLES BETWEEN LAMBDA = 0 AND LAMBDA = 0.5
Info: FEP ELEC. ACTIVE FOR EXNIHILATED PARTICLES BETWEEN LAMBDA = 0.5 AND LAMBDA = 1
Info: FEP VDW ACTIVE FOR ANNIHILATED PARTICLES BETWEEN LAMBDA = 0 AND LAMBDA = 1
Info: FEP VDW ACTIVE FOR EXNIHILATED PARTICLES BETWEEN LAMBDA = 0 AND LAMBDA = 1
Info: FEP BOND ACTIVE FOR ANNIHILATED PARTICLES BETWEEN LAMBDA = 1 AND LAMBDA = 1
Info: FEP BOND ACTIVE FOR EXNIHILATED PARTICLES BETWEEN LAMBDA = 0 AND LAMBDA = 0
Info: LANGEVIN DYNAMICS ACTIVE
Info: LANGEVIN TEMPERATURE   300
Info: LANGEVIN USING BBK INTEGRATOR
Info: LANGEVIN DAMPING COEFFICIENT IS 1 INVERSE PS
Info: LANGEVIN DYNAMICS APPLIED TO HYDROGENS
Info: LANGEVIN PISTON PRESSURE CONTROL ACTIVE
Info:        TARGET PRESSURE IS 1.01325 BAR
Info:     OSCILLATION PERIOD IS 50 FS
Info:             DECAY TIME IS 25 FS
Info:     PISTON TEMPERATURE IS 300 K
Info:       PRESSURE CONTROL IS GROUP-BASED
Info:    INITIAL STRAIN RATE IS -0.000705684 -0.000705684 -0.000705684
Info:       CELL FLUCTUATION IS ISOTROPIC
Info: PARTICLE MESH EWALD (PME) ACTIVE
Info: PME TOLERANCE               1e-06
Info: PME EWALD COEFFICIENT       0.348832
Info: PME INTERPOLATION ORDER     4
Info: PME GRID DIMENSIONS         32 32 36
Info: PME MAXIMUM GRID SPACING    1
Info: PME CALCULATION WILL BE PERFORMED ON GPU
Info: FULL ELECTROSTATIC EVALUATION FREQUENCY      2
Info: USING VERLET I (r-RESPA) MTS SCHEME.
Info: C1 SPLITTING OF LONG RANGE ELECTROSTATICS
Info: PLACING ATOMS IN PATCHES BY HYDROGEN GROUPS
Info: RIGID BONDS TO HYDROGEN : ALL
Info:         ERROR TOLERANCE : 1e-08
Info:          MAX ITERATIONS : 100
Info: RIGID WATER USING SETTLE ALGORITHM
Info: RANDOM NUMBER SEED     1743595440
Info: USE HYDROGEN BONDS?    NO
Info: Using AMBER format force field!
Info: AMBER PARM FILE        mobley_2925352.prmtop
Info: COORDINATE PDB         mobley_2925352.pdb
Info: Exclusions will be read from PARM file!
Info: SCNB (VDW SCALING)     2
Info: USING ARITHMETIC MEAN TO COMBINE L-J SIGMA PARAMETERS
Info: BINARY COORDINATES     mobley_2925352_equil.coor
Info: SUMMARY OF PARAMETERS:
Info: 8 BONDS
Info: 7 ANGLES
Info:   7 HARMONIC
Info:   0 COSINE-BASED
Info: 4 DIHEDRAL
Info: 0 IMPROPER
Info: 0 CROSSTERM
Info: 0 VDW
Info: 28 VDW_PAIRS
Info: 0 NBTHOLE_PAIRS
Info: To read alchdata from file: mobley_2925352.pdb
Info: To read alchflag data from column: 5
Info: STRUCTURE SUMMARY:
Info: 2923 ATOMS
Info: 2923 BONDS
Info: 25 ANGLES
Info: 38 DIHEDRALS
Info: 0 IMPROPERS
Info: 0 CROSSTERMS
Info: 2977 EXCLUSIONS
Info: 2915 RIGID BONDS
Info: ALCH: 0 ATOMS TO DISAPPEAR IN FINAL STATE
Info: ALCH: 16 ATOMS TO APPEAR IN FINAL STATE
Info: 5854 DEGREES OF FREEDOM
Info: 977 HYDROGEN GROUPS
Info: 4 ATOMS IN LARGEST HYDROGEN GROUP
Info: 977 MIGRATION GROUPS
Info: 4 ATOMS IN LARGEST MIGRATION GROUP
Info: TOTAL MASS = 17565.6 amu
Info: TOTAL CHARGE = 0.00010002 e
Info: MASS DENSITY = 0.980317 g/cm^3
Info: ATOM DENSITY = 0.0982363 atoms/A^3
Info: ADDED 0 IMPLICIT EXCLUSIONS
Info: NONBONDED TABLE R-SQUARED SPACING: 0.0625
Info: NONBONDED TABLE SIZE: 705 POINTS
Info: REMOVING COM VELOCITY -0.0961776 0.0704615 -0.183067
Info: Use 3D box decompostion in PME FFT.
Info: Updated CUDA force table with 4096 elements.
Info: Updated CUDA LJ table with 7 x 7 elements.
Info: Found 18 unique exclusion lists needing 44 bytes
TCL: Running for 1500000 steps
ETITLE: TS BOND ANGLE DIHED IMPRP ELECT VDW BOUNDARY MISC KINETIC TOTAL TEMP POTENTIAL TOTALAVG TEMPAVG PRESSURE GPRESSURE VOLUME PRESSAVG GPRESSAVG
ENERGY: 0 2.7925 4.7514 6.1766 0.0000 -10750.1420 1477.8570 0.0000 0.0000 1681.6129 -7576.9517 289.1104 -9258.5646 -7576.9517 289.1104 246.7082 322.0516 29754.7705 246.7082 322.0516
ENERGY: 300000 3.5826 4.3915 3.4367 0.0000 -10500.4765 1367.5405 0.0000 0.0000 1698.2428 -7423.2824 291.9695 -9121.5252 -7494.9090 295.4724 -600.5511 -516.0757 30408.9514 -730.2679 -674.1920
ENERGY: 600000 3.1088 3.9421 2.4954 0.0000 -10629.0826 1438.6020 0.0000 0.0000 1740.6177 -7440.3166 299.2548 -9180.9342 -7473.2224 297.3959 178.4663 241.5177 30021.3329 -377.0052 -325.1536
ENERGY: 900000 3.6998 5.0909 4.1236 0.0000 -10626.7609 1447.6438 0.0000 0.0000 1764.9517 -7401.2512 303.4384 -9166.2029 -7451.2744 298.7054 313.9109 386.4059 29908.7197 -212.5549 -162.7757
ENERGY: 1200000 4.0535 6.7486 3.6908 0.0000 -10433.3322 1269.3715 0.0000 0.0000 1715.5861 -7433.8817 294.9512 -9149.4678 -7438.7458 298.0860 -1304.3562 -1269.0561 30210.6336 -287.5645 -235.8467
ENERGY: 1500000 0.6148 3.2794 1.5151 0.0000 -10484.4450 1332.0810 0.0000 0.0000 1754.7440 -7392.2106 301.6834 -9146.9546 -7436.7332 298.6819 -558.6046 -550.5238 30146.6900 -251.6458 -206.2784
TCL: Running FEP window   2: Lambda1 0.95   Lambda2 0.8999999999999999 [dLambda -0.050000000000000044]
TCL: Setting parameter firsttimestep to 0
TCL: Setting parameter alchLambda to 0.95
Info: NONBONDED TABLE R-SQUARED SPACING: 0.0625
Info: NONBONDED TABLE SIZE: 705 POINTS
TCL: Setting parameter alchLambda2 to 0.8999999999999999
Info: NONBONDED TABLE R-SQUARED SPACING: 0.0625
Info: NONBONDED TABLE SIZE: 705 POINTS
TCL: Running for 1500000 steps
ETITLE: TS BOND ANGLE DIHED IMPRP ELECT VDW BOUNDARY MISC KINETIC TOTAL TEMP POTENTIAL TOTALAVG TEMPAVG PRESSURE GPRESSURE VOLUME PRESSAVG GPRESSAVG
ENERGY: 0 0.6148 3.2794 1.5151 0.0000 -10482.6170 1331.4690 0.0000 0.0000 1753.9012 -7391.8375 301.5385 -9145.7387 -7391.8375 301.5385 -657.5748 -566.1942 30146.6900 -657.5748 -566.1942
ENERGY: 300000 4.2814 6.3156 3.7723 0.0000 -10540.3300 1351.3690 0.0000 0.0000 1765.1518 -7409.4399 303.4728 -9174.5917 -7410.8161 298.1339 -534.7199 -524.2862 30488.1617 -297.3102 -237.7021
ENERGY: 600000 1.4772 7.3341 2.4099 0.0000 -10523.5654 1397.9508 0.0000 0.0000 1747.7682 -7366.6252 300.4841 -9114.3934 -7419.0092 299.0464 14.9400 62.6484 30129.2993 -70.8319 -17.8311
ENERGY: 900000 2.8305 3.1227 4.7408 0.0000 -10582.1071 1361.3511 0.0000 0.0000 1762.9929 -7447.0691 303.1016 -9210.0620 -7423.9012 300.7250 -647.1086 -667.4810 30642.7692 -94.6472 -46.6504
ENERGY: 1200000 1.2812 4.1842 3.7808 0.0000 -10600.4275 1407.1081 0.0000 0.0000 1736.8609 -7447.2124 298.6089 -9184.0733 -7424.5545 300.8082 79.3630 177.6836 29900.9004 -58.3824 -3.6303
ENERGY: 1500000 3.4850 4.9219 2.8804 0.0000 -10527.1234 1390.4664 0.0000 0.0000 1759.5021 -7365.8676 302.5014 -9125.3697 -7419.1762 300.3119 28.6466 65.7519 30039.1692 -65.6710 -10.1577
TCL: Running FEP window   3: Lambda1 0.8999999999999999 Lambda2 0.8499999999999999 [dLambda -0.050000000000000044]
TCL: Setting parameter firsttimestep to 0
TCL: Setting parameter alchLambda to 0.8999999999999999
Info: NONBONDED TABLE R-SQUARED SPACING: 0.0625
Info: NONBONDED TABLE SIZE: 705 POINTS
TCL: Setting parameter alchLambda2 to 0.8499999999999999
Info: NONBONDED TABLE R-SQUARED SPACING: 0.0625
Info: NONBONDED TABLE SIZE: 705 POINTS
TCL: Running for 1500000 steps
ETITLE: TS BOND ANGLE DIHED IMPRP ELECT VDW BOUNDARY MISC KINETIC TOTAL TEMP POTENTIAL TOTALAVG TEMPAVG PRESSURE GPRESSURE VOLUME PRESSAVG GPRESSAVG
ENERGY: 0 3.4850 4.9219 2.8804 0.0000 -10525.3933 1389.3225 0.0000 0.0000 1758.6398 -7366.1436 302.3532 -9124.7835 -7366.1436 302.3532 -39.1366 49.2949 30039.1692 -39.1366 49.2949
ENERGY: 300000 3.0245 4.3030 5.3891 0.0000 -10594.5310 1490.6126 0.0000 0.0000 1779.6172 -7311.5847 305.9597 -9091.2019 -7373.1162 300.3637 896.5729 997.8217 30035.0189 177.8416 273.1582
ENERGY: 600000 2.7970 6.2264 2.3593 0.0000 -10583.2208 1370.1484 0.0000 0.0000 1719.8856 -7481.8041 295.6904 -9201.6897 -7397.4928 300.5459 -464.4834 -454.3191 29797.3577 15.7733 99.9978
ENERGY: 900000 3.1129 3.9465 5.1151 0.0000 -10591.8169 1472.0807 0.0000 0.0000 1706.6082 -7400.9535 293.4077 -9107.5617 -7395.5436 299.5370 472.9244 518.6377 30232.6318 129.3851 200.5782
ENERGY: 1200000 1.1032 4.8365 2.2056 0.0000 -10472.0024 1335.3670 0.0000 0.0000 1689.0646 -7439.4256 290.3915 -9128.4902 -7400.9186 299.3567 -492.5287 -456.5356 30094.7382 132.9866 193.7071
ENERGY: 1500000 2.4813 4.7735 1.3469 0.0000 -10465.4545 1359.3646 0.0000 0.0000 1780.1736 -7317.3146 306.0554 -9097.4882 -7401.2989 300.1898 -404.7620 -380.8020 30241.0123 64.5023 128.7275
TCL: Running FEP window   4: Lambda1 0.8499999999999999 Lambda2 0.7999999999999998 [dLambda -0.050000000000000044]
TCL: Setting parameter firsttimestep to 0
TCL: Setting parameter alchLambda to 0.8499999999999999
Info: NONBONDED TABLE R-SQUARED SPACING: 0.0625
Info: NONBONDED TABLE SIZE: 705 POINTS
TCL: Setting parameter alchLambda2 to 0.7999999999999998
Info: NONBONDED TABLE R-SQUARED SPACING: 0.0625
Info: NONBONDED TABLE SIZE: 705 POINTS
TCL: Running for 1500000 steps
ETITLE: TS BOND ANGLE DIHED IMPRP ELECT VDW BOUNDARY MISC KINETIC TOTAL TEMP POTENTIAL TOTALAVG TEMPAVG PRESSURE GPRESSURE VOLUME PRESSAVG GPRESSAVG
ENERGY: 0 2.4813 4.7735 1.3469 0.0000 -10463.5113 1358.8040 0.0000 0.0000 1779.3199 -7316.7858 305.9086 -9096.1056 -7316.7858 305.9086 -474.6505 -394.6439 30241.0123 -474.6505 -394.6439
ENERGY: 300000 3.3228 2.9438 2.1748 0.0000 -10619.8685 1356.2626 0.0000 0.0000 1760.5803 -7494.5842 302.6868 -9255.1645 -7428.2933 302.6491 -581.7370 -554.4251 29918.3030 -621.0002 -563.7788
ENERGY: 600000 4.5817 3.4878 2.2130 0.0000 -10522.0068 1364.9363 0.0000 0.0000 1771.2792 -7375.5089 304.5262 -9146.7881 -7428.5522 300.4151 -414.7499 -361.8548 30285.5047 -438.3182 -373.1206
ENERGY: 900000 1.7540 3.5815 2.4443 0.0000 -10631.4495 1417.1688 0.0000 0.0000 1777.5659 -7428.9350 305.6070 -9206.5008 -7410.9341 301.3703 -252.0349 -157.3427 30157.6282 -357.8378 -284.7175
ENERGY: 1200000 3.8297 2.0946 3.4269 0.0000 -10556.4038 1385.8768 0.0000 0.0000 1709.3675 -7451.8084 293.8821 -9161.1759 -7426.5161 300.0277 -406.7448 -311.4477 30414.2270 -443.9120 -373.1830
ENERGY: 1500000 2.1866 4.1904 8.0503 0.0000 -10622.8274 1484.2604 0.0000 0.0000 1780.0508 -7344.0890 306.0343 -9124.1398 -7419.4383 300.2031 959.2956 985.5831 29436.4379 -196.2945 -126.3016
TCL: Running FEP window   5: Lambda1 0.7999999999999998 Lambda2 0.7499999999999998 [dLambda -0.050000000000000044]
TCL: Setting parameter firsttimestep to 0
TCL: Setting parameter alchLambda to 0.7999999999999998
Info: NONBONDED TABLE R-SQUARED SPACING: 0.0625
Info: NONBONDED TABLE SIZE: 705 POINTS
TCL: Setting parameter alchLambda2 to 0.7499999999999998
Info: NONBONDED TABLE R-SQUARED SPACING: 0.0625
Info: NONBONDED TABLE SIZE: 705 POINTS
TCL: Running for 1500000 steps
ETITLE: TS BOND ANGLE DIHED IMPRP ELECT VDW BOUNDARY MISC KINETIC TOTAL TEMP POTENTIAL TOTALAVG TEMPAVG PRESSURE GPRESSURE VOLUME PRESSAVG GPRESSAVG
ENERGY: 0 2.1866 4.1904 8.0503 0.0000 -10619.9735 1483.1778 0.0000 0.0000 1779.1928 -7343.1756 305.8868 -9122.3685 -7343.1756 305.8868 883.1959 967.5655 29436.4379 883.1959 967.5655
ENERGY: 300000 0.5898 5.9405 2.4323 0.0000 -10518.0526 1336.9791 0.0000 0.0000 1760.2661 -7411.8447 302.6328 -9172.1108 -7457.7946 299.6774 -710.4620 -697.7543 30057.8362 -97.5730 -62.7543
ENERGY: 600000 3.2373 5.2782 3.6557 0.0000 -10647.9052 1472.3365 0.0000 0.0000 1775.4708 -7387.9268 305.2469 -9163.3976 -7443.8645 299.6164 693.1403 713.5134 29755.3531 -88.4941 -37.5753
ENERGY: 900000 3.9364 3.6629 1.3767 0.0000 -10748.5344 1539.1525 0.0000 0.0000 1755.2147 -7445.1912 301.7643 -9200.4059 -7444.2618 300.0867 943.3892 932.3618 30010.7366 0.3031 45.5139
ENERGY: 1200000 1.7362 2.0410 2.2368 0.0000 -10620.7490 1429.0574 0.0000 0.0000 1728.4292 -7457.2484 297.1593 -9185.6776 -7436.0454 299.8655 -78.9845 45.9540 29965.5624 -76.9078 -17.8612
ENERGY: 1500000 2.4849 4.1506 5.8680 0.0000 -10541.4059 1404.5188 0.0000 0.0000 1800.7612 -7323.6223 309.5949 -9124.3835 -7423.0545 300.7810 104.2053 227.8116 30162.6890 10.9035 79.0033
TCL: Running FEP window   6: Lambda1 0.7499999999999998 Lambda2 0.6999999999999997 [dLambda -0.050000000000000044]
TCL: Setting parameter firsttimestep to 0
TCL: Setting parameter alchLambda to 0.7499999999999998
Info: NONBONDED TABLE R-SQUARED SPACING: 0.0625
Info: NONBONDED TABLE SIZE: 705 POINTS
TCL: Setting parameter alchLambda2 to 0.6999999999999997
Info: NONBONDED TABLE R-SQUARED SPACING: 0.0625
Info: NONBONDED TABLE SIZE: 705 POINTS
TCL: Running for 1500000 steps
ETITLE: TS BOND ANGLE DIHED IMPRP ELECT VDW BOUNDARY MISC KINETIC TOTAL TEMP POTENTIAL TOTALAVG TEMPAVG PRESSURE GPRESSURE VOLUME PRESSAVG GPRESSAVG
ENERGY: 0 2.4849 4.1506 5.8680 0.0000 -10538.9256 1403.8549 0.0000 0.0000 1799.9146 -7322.6525 309.4493 -9122.5671 -7322.6525 309.4493 137.9664 218.1467 30162.6890 137.9664 218.1467
ENERGY: 300000 3.4822 4.9733 3.7402 0.0000 -10600.8376 1366.7254 0.0000 0.0000 1763.2188 -7458.6977 303.1404 -9221.9165 -7407.9034 303.2036 -669.2073 -571.3297 30106.5886 -101.6652 -34.3739
ENERGY: 600000 7.2547 3.8371 2.3502 0.0000 -10612.6775 1399.2560 0.0000 0.0000 1718.8551 -7481.1244 295.5132 -9199.9795 -7414.6515 302.5043 -282.6597 -207.7392 29920.7710 -234.5023 -168.6677
ENERGY: 900000 4.0023 4.4208 4.3193 0.0000 -10598.5269 1443.6224 0.0000 0.0000 1762.8496 -7379.3125 303.0770 -9142.1621 -7415.5200 302.1823 86.1067 131.7170 30449.3738 -209.7567 -149.7171
ENERGY: 1200000 2.2763 5.8219 1.0049 0.0000 -10576.0272 1435.7180 0.0000 0.0000 1732.2671 -7398.9390 297.8191 -9131.2060 -7416.1548 301.1114 81.1435 143.8093 30180.5389 -162.0120 -103.7234
ENERGY: 1500000 1.8983 6.1172 1.8197 0.0000 -10504.8735 1368.8211 0.0000 0.0000 1789.7953 -7336.4218 307.7096 -9126.2172 -7415.0335 301.3155 -446.0458 -341.3622 30336.2960 -211.7499 -149.8984
TCL: Running FEP window   7: Lambda1 0.6999999999999997 Lambda2 0.6499999999999997 [dLambda -0.050000000000000044]
TCL: Setting parameter firsttimestep to 0
TCL: Setting parameter alchLambda to 0.6999999999999997
Info: NONBONDED TABLE R-SQUARED SPACING: 0.0625
Info: NONBONDED TABLE SIZE: 705 POINTS
TCL: Setting parameter alchLambda2 to 0.6499999999999997
Info: NONBONDED TABLE R-SQUARED SPACING: 0.0625
Info: NONBONDED TABLE SIZE: 705 POINTS
TCL: Running for 1500000 steps
ETITLE: TS BOND ANGLE DIHED IMPRP ELECT VDW BOUNDARY MISC KINETIC TOTAL TEMP POTENTIAL TOTALAVG TEMPAVG PRESSURE GPRESSURE VOLUME PRESSAVG GPRESSAVG
ENERGY: 0 1.8984 6.1172 1.8197 0.0000 -10503.2881 1369.1242 0.0000 0.0000 1788.9231 -7335.4055 307.5596 -9124.3286 -7335.4055 307.5596 -433.5023 -338.2155 30336.2960 -433.5023 -338.2155
ENERGY: 300000 2.2571 4.3409 6.1508 0.0000 -10570.7122 1436.3591 0.0000 0.0000 1737.1709 -7384.4333 298.6622 -9121.6043 -7389.8448 302.7784 193.6682 221.2751 30260.9017 -141.6431 -84.7156
ENERGY: 600000 4.0412 7.1294 2.7443 0.0000 -10622.8792 1413.8376 0.0000 0.0000 1723.7429 -7471.3839 296.3536 -9195.1268 -7408.7565 301.5549 -374.0211 -276.8179 30185.0959 -200.2973 -140.0079
ENERGY: 900000 1.1233 5.8746 3.2137 0.0000 -10592.0626 1390.0426 0.0000 0.0000 1792.7819 -7399.0265 308.2231 -9191.8084 -7410.3684 301.0490 -274.8085 -148.4125 29969.0158 -123.7162 -47.0251
ENERGY: 1200000 0.7787 2.4042 3.0445 0.0000 -10572.2277 1408.3375 0.0000 0.0000 1752.7229 -7404.9400 301.3359 -9157.6629 -7408.9326 301.3888 -50.3915 -8.8826 30238.1241 -101.4950 -32.5101
ENERGY: 1500000 5.3541 2.0532 4.4070 0.0000 -10480.1830 1331.4184 0.0000 0.0000 1700.7330 -7436.2173 292.3976 -9136.9503 -7416.3048 300.5759 -870.0608 -836.2414 30781.8566 -119.8838 -56.4582
TCL: Running FEP window   8: Lambda1 0.6499999999999997 Lambda2 0.5999999999999996 [dLambda -0.050000000000000044]
TCL: Setting parameter firsttimestep to 0
TCL: Setting parameter alchLambda to 0.6499999999999997
Info: NONBONDED TABLE R-SQUARED SPACING: 0.0625
Info: NONBONDED TABLE SIZE: 705 POINTS
TCL: Setting parameter alchLambda2 to 0.5999999999999996
Info: NONBONDED TABLE R-SQUARED SPACING: 0.0625
Info: NONBONDED TABLE SIZE: 705 POINTS
TCL: Running for 1500000 steps
ETITLE: TS BOND ANGLE DIHED IMPRP ELECT VDW BOUNDARY MISC KINETIC TOTAL TEMP POTENTIAL TOTALAVG TEMPAVG PRESSURE GPRESSURE VOLUME PRESSAVG GPRESSAVG
ENERGY: 0 5.3541 2.0532 4.4070 0.0000 -10479.6937 1331.5309 0.0000 0.0000 1699.8334 -7436.5152 292.2429 -9136.3486 -7436.5152 292.2429 -919.4205 -842.8181 30781.8566 -919.4205 -842.8181
ENERGY: 300000 5.9582 6.9920 5.7962 0.0000 -10627.0156 1456.5427 0.0000 0.0000 1709.1220 -7442.6045 293.8399 -9151.7265 -7433.1498 295.9197 222.9606 318.3988 30371.8421 -92.8970 -51.3277
ENERGY: 600000 1.7191 3.4920 1.6288 0.0000 -10457.8769 1371.8411 0.0000 0.0000 1769.2049 -7309.9909 304.1696 -9079.1959 -7420.5875 296.9663 -144.5236 -93.1356 30069.9817 1.4813 45.3583
ENERGY: 900000 3.3189 3.4289 2.7599 0.0000 -10744.1714 1418.0906 0.0000 0.0000 1751.0164 -7565.5569 301.0425 -9316.5732 -7435.8003 297.7531 -603.8859 -495.0408 29840.0697 -51.5049 6.2625
ENERGY: 1200000 4.2121 5.8761 4.5939 0.0000 -10649.6591 1455.4860 0.0000 0.0000 1714.3590 -7465.1320 294.7402 -9179.4910 -7439.8391 296.8825 100.5737 213.3332 29799.3596 -3.3528 49.0415
ENERGY: 1500000 2.7949 5.7734 3.7554 0.0000 -10486.6446 1377.5635 0.0000 0.0000 1760.3936 -7336.3638 302.6547 -9096.7574 -7431.7766 297.8052 -348.1799 -240.9845 30223.7181 -22.1341 36.1673
TCL: Running FEP window   9: Lambda1 0.5999999999999996 Lambda2 0.5499999999999996 [dLambda -0.050000000000000044]
TCL: Setting parameter firsttimestep to 0
TCL: Setting parameter alchLambda to 0.5999999999999996
Info: NONBONDED TABLE R-SQUARED SPACING: 0.0625
Info: NONBONDED TABLE SIZE: 705 POINTS
TCL: Setting parameter alchLambda2 to 0.5499999999999996
Info: NONBONDED TABLE R-SQUARED SPACING: 0.0625
Info: NONBONDED TABLE SIZE: 705 POINTS
TCL: Running for 1500000 steps
ETITLE: TS BOND ANGLE DIHED IMPRP ELECT VDW BOUNDARY MISC KINETIC TOTAL TEMP POTENTIAL TOTALAVG TEMPAVG PRESSURE GPRESSURE VOLUME PRESSAVG GPRESSAVG
ENERGY: 0 2.7948 5.7734 3.7555 0.0000 -10485.8384 1378.0005 0.0000 0.0000 1759.5184 -7335.9959 302.5042 -9095.5143 -7335.9959 302.5042 -322.1070 -238.2228 30223.7181 -322.1070 -238.2228
ENERGY: 300000 1.7430 6.9537 2.3882 0.0000 -10661.2481 1461.4609 0.0000 0.0000 1672.1657 -7516.5366 287.4862 -9188.7023 -7447.9179 296.3177 465.9468 528.4359 29593.8093 88.0441 155.5169
ENERGY: 600000 0.2861 3.8836 6.5468 0.0000 -10634.6796 1520.3969 0.0000 0.0000 1758.0451 -7345.5211 302.2509 -9103.5662 -7409.9972 297.8898 1104.8135 1121.4651 29761.1196 268.5448 323.7563
ENERGY: 900000 1.3666 4.0236 2.1704 0.0000 -10563.3406 1404.4388 0.0000 0.0000 1749.0792 -7402.2621 300.7095 -9151.3413 -7404.2206 298.8764 -32.6102 95.5129 29797.8579 152.3620 218.4954
ENERGY: 1200000 6.0254 8.6035 2.2997 0.0000 -10510.2110 1383.6174 0.0000 0.0000 1739.3011 -7370.3639 299.0284 -9109.6650 -7397.4088 299.8793 -319.6849 -283.1063 30125.2188 131.4461 193.5036
ENERGY: 1500000 2.2379 1.8033 2.3728 0.0000 -10575.3304 1436.1294 0.0000 0.0000 1680.6197 -7452.1673 288.9396 -9132.7870 -7402.5884 299.1380 117.1213 154.0000 30044.2095 76.2425 134.0729
TCL: Running FEP window  10: Lambda1 0.5499999999999996 Lambda2 0.4999999999999996 [dLambda -0.04999999999999999]
TCL: Setting parameter firsttimestep to 0
TCL: Setting parameter alchLambda to 0.5499999999999996
Info: NONBONDED TABLE R-SQUARED SPACING: 0.0625
Info: NONBONDED TABLE SIZE: 705 POINTS
TCL: Setting parameter alchLambda2 to 0.4999999999999996
Info: NONBONDED TABLE R-SQUARED SPACING: 0.0625
Info: NONBONDED TABLE SIZE: 705 POINTS
TCL: Running for 1500000 steps
ETITLE: TS BOND ANGLE DIHED IMPRP ELECT VDW BOUNDARY MISC KINETIC TOTAL TEMP POTENTIAL TOTALAVG TEMPAVG PRESSURE GPRESSURE VOLUME PRESSAVG GPRESSAVG
ENERGY: 0 2.2379 1.8033 2.3728 0.0000 -10574.7561 1436.6215 0.0000 0.0000 1679.7588 -7451.9617 288.7916 -9131.7206 -7451.9617 288.7916 64.2489 152.4686 30044.2095 64.2489 152.4686
ENERGY: 300000 1.6213 5.4269 2.7784 0.0000 -10695.7905 1478.3943 0.0000 0.0000 1689.8696 -7517.6999 290.5299 -9207.5696 -7446.8295 295.2899 94.4034 188.8616 30232.2767 -15.8841 44.9774
ENERGY: 600000 3.4928 5.0372 3.9210 0.0000 -10478.4972 1385.9758 0.0000 0.0000 1750.5141 -7329.5564 300.9562 -9080.0705 -7434.1963 296.1503 -338.6316 -249.8164 30136.8598 -40.7017 17.3965
ENERGY: 900000 2.5823 3.2049 3.6688 0.0000 -10563.8060 1382.2686 0.0000 0.0000 1734.8705 -7437.2109 298.2667 -9172.0814 -7431.9073 297.7482 -544.0587 -458.3486 30187.8630 -208.5518 -149.1278
ENERGY: 1200000 5.1314 3.9442 3.4831 0.0000 -10524.2265 1410.4957 0.0000 0.0000 1793.7336 -7307.4386 308.3867 -9101.1722 -7415.9297 299.5889 161.6439 258.4091 30087.6004 -132.8236 -60.1732
ENERGY: 1500000 3.1310 4.1009 3.8063 0.0000 -10620.3970 1412.1339 0.0000 0.0000 1744.3827 -7452.8423 299.9020 -9197.2249 -7418.0062 299.6453 -426.6389 -335.1532 30223.1839 -223.2161 -147.2145
TCL: Running FEP window  11: Lambda1 0.4999999999999996 Lambda2 0.4499999999999996 [dLambda -0.04999999999999999]
TCL: Setting parameter firsttimestep to 0
TCL: Setting parameter alchLambda to 0.4999999999999996
Info: NONBONDED TABLE R-SQUARED SPACING: 0.0625
Info: NONBONDED TABLE SIZE: 705 POINTS
TCL: Setting parameter alchLambda2 to 0.4499999999999996
Info: NONBONDED TABLE R-SQUARED SPACING: 0.0625
Info: NONBONDED TABLE SIZE: 705 POINTS
TCL: Running for 1500000 steps
ETITLE: TS BOND ANGLE DIHED IMPRP ELECT VDW BOUNDARY MISC KINETIC TOTAL TEMP POTENTIAL TOTALAVG TEMPAVG PRESSURE GPRESSURE VOLUME PRESSAVG GPRESSAVG
ENERGY: 0 3.1310 4.1009 3.8063 0.0000 -10619.6436 1412.7004 0.0000 0.0000 1743.5364 -7452.3686 299.7565 -9195.9050 -7452.3686 299.7565 -407.7776 -332.5028 30223.1839 -407.7776 -332.5028
ENERGY: 300000 2.9787 4.4982 1.8075 0.0000 -10516.9587 1411.4331 0.0000 0.0000 1785.3255 -7310.9158 306.9411 -9096.2413 -7394.7972 304.0735 61.5705 210.8300 30091.1799 -222.7583 -138.4299
ENERGY: 600000 2.5432 3.6998 3.4748 0.0000 -10465.8447 1365.1582 0.0000 0.0000 1741.6353 -7349.3335 299.4297 -9090.9687 -7390.6326 301.9829 -545.0689 -471.2925 30639.9523 -230.6154 -151.0221
ENERGY: 900000 2.8827 4.5268 4.4413 0.0000 -10590.6010 1403.7844 0.0000 0.0000 1770.6606 -7404.3052 304.4199 -9174.9658 -7400.6155 301.7253 62.9555 64.9133 29704.5592 -158.1859 -84.9344
ENERGY: 1200000 1.8531 5.7864 4.1900 0.0000 -10595.5806 1461.1424 0.0000 0.0000 1710.6729 -7411.9358 294.1065 -9122.6087 -7406.2649 300.8229 456.9076 554.8674 29816.0115 -91.6751 -12.3626
ENERGY: 1500000 1.6149 3.9220 3.5793 0.0000 -10559.1543 1368.2536 0.0000 0.0000 1697.3892 -7484.3952 291.8227 -9181.7844 -7414.1361 300.3642 -594.3469 -518.9207 29995.0555 -100.0895 -25.7700
TCL: Running FEP window  12: Lambda1 0.4499999999999996 Lambda2 0.39999999999999963 [dLambda -0.04999999999999999]
TCL: Setting parameter firsttimestep to 0
TCL: Setting parameter alchLambda to 0.4499999999999996
Info: NONBONDED TABLE R-SQUARED SPACING: 0.0625
Info: NONBONDED TABLE SIZE: 705 POINTS
TCL: Setting parameter alchLambda2 to 0.39999999999999963
Info: NONBONDED TABLE R-SQUARED SPACING: 0.0625
Info: NONBONDED TABLE SIZE: 705 POINTS
TCL: Running for 1500000 steps
ETITLE: TS BOND ANGLE DIHED IMPRP ELECT VDW BOUNDARY MISC KINETIC TOTAL TEMP POTENTIAL TOTALAVG TEMPAVG PRESSURE GPRESSURE VOLUME PRESSAVG GPRESSAVG
ENERGY: 0 1.6149 3.9220 3.5793 0.0000 -10559.1530 1368.2148 0.0000 0.0000 1696.5110 -7485.3109 291.6717 -9181.8219 -7485.3109 291.6717 -613.8389 -527.2359 29995.0555 -613.8389 -527.2359
ENERGY: 300000 2.2101 3.2623 2.6449 0.0000 -10503.3397 1339.9841 0.0000 0.0000 1711.2590 -7443.9793 294.2073 -9155.2384 -7457.7049 293.4752 -683.5013 -675.9356 30334.0380 -680.0597 -615.6135
ENERGY: 600000 6.6164 2.7104 1.1398 0.0000 -10608.5375 1445.7615 0.0000 0.0000 1782.7315 -7369.5778 306.4951 -9152.3093 -7445.3338 296.9489 77.1941 148.3354 29769.7597 -381.2647 -316.0673
ENERGY: 900000 2.9078 6.2258 2.9503 0.0000 -10662.2792 1418.0288 0.0000 0.0000 1703.7560 -7528.4105 292.9173 -9232.1665 -7442.7452 298.3507 -415.1382 -408.4931 29997.5110 -368.6215 -314.5913
ENERGY: 1200000 2.6449 6.1622 6.4589 0.0000 -10477.0784 1378.8498 0.0000 0.0000 1755.7486 -7327.2140 301.8561 -9082.9626 -7431.3442 298.9543 142.2479 210.3340 29710.9247 -297.2248 -236.8867
ENERGY: 1500000 6.0644 3.7802 4.5016 0.0000 -10816.9916 1497.5199 0.0000 0.0000 1764.8097 -7540.3159 303.4139 -9305.1255 -7434.8199 300.0056 369.8374 397.9423 29505.4321 -277.5056 -222.1416
TCL: Running FEP window  13: Lambda1 0.39999999999999963 Lambda2 0.34999999999999964 [dLambda -0.04999999999999999]
TCL: Setting parameter firsttimestep to 0
TCL: Setting parameter alchLambda to 0.39999999999999963
Info: NONBONDED TABLE R-SQUARED SPACING: 0.0625
Info: NONBONDED TABLE SIZE: 705 POINTS
TCL: Setting parameter alchLambda2 to 0.34999999999999964
Info: NONBONDED TABLE R-SQUARED SPACING: 0.0625
Info: NONBONDED TABLE SIZE: 705 POINTS
TCL: Running for 1500000 steps
ETITLE: TS BOND ANGLE DIHED IMPRP ELECT VDW BOUNDARY MISC KINETIC TOTAL TEMP POTENTIAL TOTALAVG TEMPAVG PRESSURE GPRESSURE VOLUME PRESSAVG GPRESSAVG
ENERGY: 0 6.0644 3.7802 4.5016 0.0000 -10816.9951 1497.7539 0.0000 0.0000 1763.9322 -7540.9628 303.2631 -9304.8950 -7540.9628 303.2631 307.8552 395.5124 29505.4321 307.8552 395.5124
ENERGY: 300000 4.0603 5.0234 4.4225 0.0000 -10450.6695 1373.2337 0.0000 0.0000 1707.6345 -7356.2953 293.5841 -9063.9297 -7417.4624 300.4140 -183.2792 -146.3832 29954.6004 -111.1940 -50.9082
ENERGY: 600000 2.1199 4.7944 0.8245 0.0000 -10447.3504 1320.0662 0.0000 0.0000 1767.4982 -7352.0472 303.8762 -9119.5454 -7412.8004 301.2026 -744.5505 -726.1025 30226.6154 -273.6128 -213.9285
ENERGY: 900000 6.2746 5.4301 5.0897 0.0000 -10615.9841 1442.4291 0.0000 0.0000 1781.2569 -7375.5037 306.2416 -9156.7606 -7394.4824 302.0119 162.7543 264.3449 29770.7751 -108.9007 -52.7470
ENERGY: 1200000 1.8314 4.1059 3.3377 0.0000 -10564.8188 1418.3093 0.0000 0.0000 1734.8290 -7402.4054 298.2595 -9137.2344 -7393.0898 302.7810 -81.9221 -6.3711 30045.0373 -155.0455 -102.0135
ENERGY: 1500000 2.0974 5.4249 3.7450 0.0000 -10612.1503 1453.1957 0.0000 0.0000 1740.7442 -7406.9431 299.2765 -9147.6873 -7394.2700 302.3365 333.4707 432.9481 29876.7701 -105.4557 -41.7521
TCL: Running FEP window  14: Lambda1 0.34999999999999964 Lambda2 0.29999999999999966 [dLambda -0.04999999999999999]
TCL: Setting parameter firsttimestep to 0
TCL: Setting parameter alchLambda to 0.34999999999999964
Info: NONBONDED TABLE R-SQUARED SPACING: 0.0625
Info: NONBONDED TABLE SIZE: 705 POINTS
TCL: Setting parameter alchLambda2 to 0.29999999999999966
Info: NONBONDED TABLE R-SQUARED SPACING: 0.0625
Info: NONBONDED TABLE SIZE: 705 POINTS
TCL: Running for 1500000 steps
ETITLE: TS BOND ANGLE DIHED IMPRP ELECT VDW BOUNDARY MISC KINETIC TOTAL TEMP POTENTIAL TOTALAVG TEMPAVG PRESSURE GPRESSURE VOLUME PRESSAVG GPRESSAVG
ENERGY: 0 2.0974 5.4249 3.7450 0.0000 -10612.1516 1453.5780 0.0000 0.0000 1739.8679 -7407.4385 299.1258 -9147.3063 -7407.4385 299.1258 346.7477 430.5931 29876.7701 346.7477 430.5931
ENERGY: 300000 3.0648 5.0773 3.2018 0.0000 -10627.2184 1443.0753 0.0000 0.0000 1722.1566 -7450.6426 296.0808 -9172.7992 -7455.6707 296.7929 -25.8358 115.0376 29970.8792 226.0108 318.2985
ENERGY: 600000 1.6714 4.2152 2.8601 0.0000 -10483.7891 1341.3400 0.0000 0.0000 1716.9503 -7416.7521 295.1858 -9133.7024 -7434.9496 297.6291 -450.0442 -396.0086 29901.3663 -75.1788 12.9833
ENERGY: 900000 3.3867 7.3275 3.2973 0.0000 -10604.7611 1414.9516 0.0000 0.0000 1727.8551 -7447.9429 297.0605 -9175.7980 -7431.9609 298.2187 -236.7984 -179.1242 29934.1265 -50.0790 29.9303
ENERGY: 1200000 2.1135 6.0074 1.5608 0.0000 -10582.3658 1342.8364 0.0000 0.0000 1812.2964 -7417.5513 311.5781 -9229.8476 -7430.8797 299.4735 -936.3014 -807.5027 30447.7535 -51.4406 30.8079
ENERGY: 1500000 2.2975 3.6851 1.5693 0.0000 -10573.0492 1432.3067 0.0000 0.0000 1720.7202 -7412.4703 295.8339 -9133.1905 -7426.0000 299.7567 -165.0997 -53.5076 30463.9657 -115.7017 -27.1134
TCL: Running FEP window  15: Lambda1 0.29999999999999966 Lambda2 0.24999999999999967 [dLambda -0.04999999999999999]
TCL: Setting parameter firsttimestep to 0
TCL: Setting parameter alchLambda to 0.29999999999999966
Info: NONBONDED TABLE R-SQUARED SPACING: 0.0625
Info: NONBONDED TABLE SIZE: 705 POINTS
TCL: Setting parameter alchLambda2 to 0.24999999999999967
Info: NONBONDED TABLE R-SQUARED SPACING: 0.0625
Info: NONBONDED TABLE SIZE: 705 POINTS
TCL: Running for 1500000 steps
ETITLE: TS BOND ANGLE DIHED IMPRP ELECT VDW BOUNDARY MISC KINETIC TOTAL TEMP POTENTIAL TOTALAVG TEMPAVG PRESSURE GPRESSURE VOLUME PRESSAVG GPRESSAVG
ENERGY: 0 2.2975 3.6851 1.5693 0.0000 -10573.0488 1432.3001 0.0000 0.0000 1719.8342 -7413.3626 295.6816 -9133.1968 -7413.3626 295.6816 -137.0387 -55.6432 30463.9657 -137.0387 -55.6432
ENERGY: 300000 4.7765 4.9853 4.6964 0.0000 -10606.5146 1368.9498 0.0000 0.0000 1705.3020 -7517.8046 293.1831 -9223.1066 -7458.0135 295.5610 -758.9087 -709.7363 30141.2376 -343.1301 -278.1934
ENERGY: 600000 4.4414 6.8159 1.5108 0.0000 -10619.3847 1431.2594 0.0000 0.0000 1722.4713 -7452.8860 296.1349 -9175.3572 -7451.4952 296.5993 -404.5616 -289.4765 30162.4981 -229.8954 -168.6967
ENERGY: 900000 2.2267 5.1224 2.1605 0.0000 -10601.3648 1448.3561 0.0000 0.0000 1799.7170 -7343.7822 309.4154 -9143.4992 -7416.1989 300.6460 200.5106 238.4208 29967.6016 -80.0814 -28.7753
ENERGY: 1200000 4.6692 3.9812 2.8368 0.0000 -10610.1348 1436.3828 0.0000 0.0000 1737.7734 -7424.4914 298.7657 -9162.2648 -7415.5651 300.1501 34.8673 19.6983 30120.6373 -12.3518 38.3256
ENERGY: 1500000 2.3296 6.0915 2.8101 0.0000 -10502.0405 1431.3053 0.0000 0.0000 1789.9345 -7269.5694 307.7335 -9059.5039 -7401.3328 301.7327 312.4924 338.5226 30302.9274 35.8902 89.1094
TCL: Running FEP window  16: Lambda1 0.24999999999999967 Lambda2 0.19999999999999968 [dLambda -0.04999999999999999]
TCL: Setting parameter firsttimestep to 0
TCL: Setting parameter alchLambda to 0.24999999999999967
Info: NONBONDED TABLE R-SQUARED SPACING: 0.0625
Info: NONBONDED TABLE SIZE: 705 POINTS
TCL: Setting parameter alchLambda2 to 0.19999999999999968
Info: NONBONDED TABLE R-SQUARED SPACING: 0.0625
Info: NONBONDED TABLE SIZE: 705 POINTS
TCL: Running for 1500000 steps
ETITLE: TS BOND ANGLE DIHED IMPRP ELECT VDW BOUNDARY MISC KINETIC TOTAL TEMP POTENTIAL TOTALAVG TEMPAVG PRESSURE GPRESSURE VOLUME PRESSAVG GPRESSAVG
ENERGY: 0 2.3296 6.0915 2.8101 0.0000 -10502.0420 1431.8366 0.0000 0.0000 1789.1178 -7269.8562 307.5931 -9058.9740 -7269.8562 307.5931 265.6757 336.6885 30302.9274 265.6757 336.6885
ENERGY: 300000 2.7483 6.0643 3.7241 0.0000 -10603.7660 1429.3833 0.0000 0.0000 1732.6890 -7429.1571 297.8916 -9161.8460 -7366.6047 300.1060 31.1695 75.5573 29865.0581 206.4108 245.9036
ENERGY: 600000 2.9183 10.3409 2.4444 0.0000 -10518.1957 1339.0923 0.0000 0.0000 1784.9572 -7378.4426 306.8778 -9163.3998 -7388.9019 300.0888 -798.9422 -719.2017 30035.3235 22.6243 79.2801
ENERGY: 900000 2.6565 5.9480 3.3530 0.0000 -10668.2011 1490.4484 0.0000 0.0000 1744.6137 -7421.1815 299.9418 -9165.7952 -7381.2018 301.5319 279.5206 381.3801 30033.1123 66.6680 133.5876
ENERGY: 1200000 1.9055 4.4645 2.4292 0.0000 -10587.7021 1409.8998 0.0000 0.0000 1744.2461 -7424.7570 299.8786 -9169.0031 -7377.8048 301.9860 -328.6453 -213.4322 30063.6511 7.3561 78.1294
ENERGY: 1500000 4.5049 3.8689 2.3459 0.0000 -10462.4880 1365.7394 0.0000 0.0000 1752.8424 -7333.1867 301.3565 -9086.0290 -7377.4655 301.8645 -226.4510 -92.2155 29758.0728 107.2461 183.5987
TCL: Running FEP window  17: Lambda1 0.19999999999999968 Lambda2 0.1499999999999997 [dLambda -0.04999999999999999]
TCL: Setting parameter firsttimestep to 0
TCL: Setting parameter alchLambda to 0.19999999999999968
Info: NONBONDED TABLE R-SQUARED SPACING: 0.0625
Info: NONBONDED TABLE SIZE: 705 POINTS
TCL: Setting parameter alchLambda2 to 0.1499999999999997
Info: NONBONDED TABLE R-SQUARED SPACING: 0.0625
Info: NONBONDED TABLE SIZE: 705 POINTS
TCL: Running for 1500000 steps
ETITLE: TS BOND ANGLE DIHED IMPRP ELECT VDW BOUNDARY MISC KINETIC TOTAL TEMP POTENTIAL TOTALAVG TEMPAVG PRESSURE GPRESSURE VOLUME PRESSAVG GPRESSAVG
ENERGY: 0 4.5049 3.8689 2.3459 0.0000 -10462.4888 1366.0840 0.0000 0.0000 1752.0070 -7333.6782 301.2129 -9085.6852 -7333.6782 301.2129 -177.9929 -94.4190 29758.0728 -177.9929 -94.4190
ENERGY: 300000 3.5570 6.8803 2.7822 0.0000 -10586.3186 1373.9018 0.0000 0.0000 1783.0346 -7416.1626 306.5473 -9199.1973 -7400.8725 303.1383 -462.4900 -464.2839 29831.8630 -104.8760 -36.8862
ENERGY: 600000 3.3465 3.4035 5.6534 0.0000 -10613.2241 1462.9600 0.0000 0.0000 1757.5824 -7380.2782 302.1714 -9137.8606 -7411.4138 301.5390 304.2538 335.4212 29970.6845 -32.8372 30.6875
ENERGY: 900000 1.5393 2.7819 3.4935 0.0000 -10640.5548 1426.6315 0.0000 0.0000 1724.9106 -7481.1981 296.5543 -9206.1087 -7398.1887 302.3777 -391.0870 -321.4704 30372.6030 -48.2058 18.1560
ENERGY: 1200000 3.3843 3.1233 3.8075 0.0000 -10673.0770 1417.6951 0.0000 0.0000 1750.5560 -7494.5108 300.9634 -9245.0669 -7404.3793 301.4687 -243.3724 -209.8271 29582.9233 -100.2251 -35.9427
ENERGY: 1500000 3.0764 3.4803 3.8522 0.0000 -10533.4507 1380.4510 0.0000 0.0000 1764.1875 -7378.4033 303.3070 -9142.5908 -7401.3299 300.8808 -343.6860 -294.5347 30011.8159 -165.9695 -99.1829
TCL: Running FEP window  18: Lambda1 0.1499999999999997 Lambda2 0.09999999999999969 [dLambda -0.05 ]
TCL: Setting parameter firsttimestep to 0
TCL: Setting parameter alchLambda to 0.1499999999999997
Info: NONBONDED TABLE R-SQUARED SPACING: 0.0625
Info: NONBONDED TABLE SIZE: 705 POINTS
TCL: Setting parameter alchLambda2 to 0.09999999999999969
Info: NONBONDED TABLE R-SQUARED SPACING: 0.0625
Info: NONBONDED TABLE SIZE: 705 POINTS
TCL: Running for 1500000 steps
ETITLE: TS BOND ANGLE DIHED IMPRP ELECT VDW BOUNDARY MISC KINETIC TOTAL TEMP POTENTIAL TOTALAVG TEMPAVG PRESSURE GPRESSURE VOLUME PRESSAVG GPRESSAVG
ENERGY: 0 3.0764 3.4803 3.8522 0.0000 -10533.4505 1380.6023 0.0000 0.0000 1763.3010 -7379.1382 303.1546 -9142.4392 -7379.1382 303.1546 -371.7882 -297.0286 30011.8159 -371.7882 -297.0286
ENERGY: 300000 2.4335 3.8309 1.7217 0.0000 -10656.7128 1468.1574 0.0000 0.0000 1705.7509 -7474.8183 293.2603 -9180.5692 -7392.6581 304.1223 58.8379 143.0951 30355.2126 -193.6077 -126.0695
ENERGY: 600000 3.3270 7.2414 2.2956 0.0000 -10577.3233 1454.2334 0.0000 0.0000 1718.9871 -7391.2388 295.5359 -9110.2258 -7404.3841 301.7530 323.0058 378.6535 29720.0007 -137.6337 -87.1031
ENERGY: 900000 1.9580 4.3289 2.3153 0.0000 -10557.9996 1375.0275 0.0000 0.0000 1753.9339 -7420.4359 301.5441 -9174.3698 -7404.2964 301.6704 -604.3326 -532.5205 30409.6281 -225.3188 -162.2606
ENERGY: 1200000 3.6270 5.4997 2.2246 0.0000 -10747.9551 1478.1245 0.0000 0.0000 1762.8951 -7495.5842 303.0848 -9258.4793 -7415.7706 301.9528 340.5197 420.8062 29621.9872 -115.0570 -55.9617
ENERGY: 1500000 1.8525 5.5295 4.9259 0.0000 -10502.9691 1370.8369 0.0000 0.0000 1741.2389 -7378.5855 299.3616 -9119.8244 -7423.2859 301.1439 -584.3608 -584.2779 30328.9145 -146.0061 -89.2601
TCL: Running FEP window  19: Lambda1 0.09999999999999969 Lambda2 0.049999999999999684 [dLambda -0.05 ]
TCL: Setting parameter firsttimestep to 0
TCL: Setting parameter alchLambda to 0.09999999999999969
Info: NONBONDED TABLE R-SQUARED SPACING: 0.0625
Info: NONBONDED TABLE SIZE: 705 POINTS
TCL: Setting parameter alchLambda2 to 0.049999999999999684
Info: NONBONDED TABLE R-SQUARED SPACING: 0.0625
Info: NONBONDED TABLE SIZE: 705 POINTS
TCL: Running for 1500000 steps
ETITLE: TS BOND ANGLE DIHED IMPRP ELECT VDW BOUNDARY MISC KINETIC TOTAL TEMP POTENTIAL TOTALAVG TEMPAVG PRESSURE GPRESSURE VOLUME PRESSAVG GPRESSAVG
ENERGY: 0 1.8525 5.5295 4.9259 0.0000 -10502.9694 1370.0226 0.0000 0.0000 1740.3355 -7380.3034 299.2062 -9120.6389 -7380.3034 299.2062 -689.5775 -593.7636 30328.9145 -689.5775 -593.7636
ENERGY: 300000 5.9490 3.5965 3.8984 0.0000 -10660.0101 1536.3415 0.0000 0.0000 1751.6647 -7358.5600 301.1540 -9110.2247 -7373.9076 299.0383 799.1508 911.1844 30004.8645 -168.8506 -81.3134
ENERGY: 600000 1.0811 5.8340 1.6570 0.0000 -10516.6436 1370.7255 0.0000 0.0000 1734.5430 -7402.8031 298.2104 -9137.3460 -7394.5667 299.8338 -598.5965 -533.7039 30027.1379 -180.5215 -95.2155
ENERGY: 900000 1.2197 6.1988 3.6745 0.0000 -10588.2018 1410.1879 0.0000 0.0000 1802.4026 -7364.5183 309.8771 -9166.9209 -7397.5256 301.2999 -56.3371 -48.4241 29762.3003 -256.4725 -180.6775
ENERGY: 1200000 1.5658 3.3410 4.4426 0.0000 -10492.5456 1354.5658 0.0000 0.0000 1714.7359 -7413.8945 294.8050 -9128.6304 -7405.5673 301.2167 -231.5234 -188.3013 29547.2215 -180.1290 -108.3017
ENERGY: 1500000 4.7163 5.7415 3.1217 0.0000 -10827.4097 1572.3639 0.0000 0.0000 1735.7886 -7505.6777 298.4245 -9241.4663 -7407.5098 300.2015 702.8236 777.2763 29851.5889 -174.6814 -101.6343
TCL: Running FEP window  20: Lambda1 0.049999999999999684 Lambda2 0.0    [dLambda -0.049999999999999684]
TCL: Setting parameter firsttimestep to 0
TCL: Setting parameter alchLambda to 0.049999999999999684
Info: NONBONDED TABLE R-SQUARED SPACING: 0.0625
Info: NONBONDED TABLE SIZE: 705 POINTS
TCL: Setting parameter alchLambda2 to 0.0
Info: NONBONDED TABLE R-SQUARED SPACING: 0.0625
Info: NONBONDED TABLE SIZE: 705 POINTS
TCL: Running for 1500000 steps
ETITLE: TS BOND ANGLE DIHED IMPRP ELECT VDW BOUNDARY MISC KINETIC TOTAL TEMP POTENTIAL TOTALAVG TEMPAVG PRESSURE GPRESSURE VOLUME PRESSAVG GPRESSAVG
ENERGY: 0 4.7163 5.7415 3.1217 0.0000 -10827.4097 1571.7058 0.0000 0.0000 1734.9056 -7507.2188 298.2727 -9242.1244 -7507.2188 298.2727 690.4691 771.9070 29851.5889 690.4691 771.9070
ENERGY: 300000 2.3467 7.1380 5.2244 0.0000 -10542.9026 1326.1816 0.0000 0.0000 1748.7937 -7453.2182 300.6604 -9202.0119 -7423.1862 300.8295 -902.8121 -970.0875 30194.2545 242.2313 250.6239
ENERGY: 600000 1.9345 4.1902 2.8452 0.0000 -10749.8541 1502.2797 0.0000 0.0000 1735.1621 -7503.4425 298.3168 -9238.6045 -7420.7356 301.1173 326.1495 353.1352 29988.6806 185.9072 201.9200
ENERGY: 900000 1.8164 4.3036 1.5090 0.0000 -10474.7551 1410.4203 0.0000 0.0000 1747.7357 -7308.9702 300.4785 -9056.7059 -7400.0220 300.8227 172.8191 162.1928 29993.6739 99.0423 120.7879
ENERGY: 1200000 2.8250 3.5159 5.6595 0.0000 -10484.1386 1342.0690 0.0000 0.0000 1746.4284 -7383.6409 300.2538 -9130.0693 -7392.0408 301.3739 -609.8162 -524.9064 29847.6882 27.7708 61.4932
ENERGY: 1500000 1.4471 5.4140 5.5078 0.0000 -10600.3398 1401.2708 0.0000 0.0000 1715.6781 -7471.0220 294.9670 -9186.7001 -7400.0364 300.0800 -395.3204 -317.5806 29887.4042 -34.8834 6.4009
TCL: Exiting due to exit command.
