Info: SIMULATION PARAMETERS:
Info: TIMESTEP               2
Info: NUMBER OF STEPS        0
Info: STEPS PER CYCLE        10
Info: PERIODIC CELL BASIS 1  31.343 0 0
Info: PERIODIC CELL BASIS 2  0 31.3054 0
Info: PERIODIC CELL BASIS 3  0 0 30.5255
Info: PERIODIC CELL CENTER   0 0 0
Info: WRAPPING WATERS AROUND PERIODIC BOUNDARIES ON OUTPUT.
Info: WRAPPING ALL CLUSTERS AROUND PERIODIC BOUNDARIES ON OUTPUT.
Info: FIRST LDB TIMESTEP     50
Info: LAST LDB TIMESTEP     -1
Info: HOM BACKGROUND SCALING 1
Info: PME BACKGROUND SCALING 1
Info: MIN ATOMS PER PATCH    40
Info: EMPTY PATCH LOAD       40 ATOMS
Info: VELOCITY FILE          mobley_6571751_equil.vel
Info: CENTER OF MASS MOVING INITIALLY? NO
Info: DIELECTRIC             1
Info: EXCLUDE                SCALED ONE-FOUR
Info: 1-4 ELECTROSTATICS SCALED BY 0.833333
Info: MODIFIED 1-4 VDW PARAMETERS WILL BE USED
Info: DCD FILENAME           mobley_6571751_prod.dcd
Info: DCD FREQUENCY          100000
Info: DCD FIRST STEP         100000
Info: DCD FILE WILL CONTAIN UNIT CELL DATA
Info: XST FILENAME           mobley_6571751_prod.xst
Info: XST FREQUENCY          100000
Info: NO VELOCITY DCD OUTPUT
Info: NO FORCE DCD OUTPUT
Info: OUTPUT FILENAME        mobley_6571751_prod
Info: BINARY OUTPUT FILES WILL BE USED
Info: RESTART FILENAME       mobley_6571751_prod.restart
Info: RESTART FREQUENCY      100000
Info: BINARY RESTART FILES WILL BE USED
Info: CUTOFF                 9
Info: PAIRLIST DISTANCE      11
Info: PAIRLIST SHRINK RATE   0.01
Info: PAIRLIST GROW RATE     0.01
Info: PAIRLIST TRIGGER       0.3
Info: PAIRLISTS PER CYCLE    2
Info: PAIRLISTS ENABLED
Info: MARGIN                 2
Info: HYDROGEN GROUP CUTOFF  2.5
Info: PATCH DIMENSION        15.5
Info: ENERGY OUTPUT STEPS    100000
Info: ENERGY EVALUATION STEPS    100000
Info: OUTPUT ENERGY PRECISION 4
Info: CROSSTERM ENERGY INCLUDED IN DIHEDRAL
Info: TIMING OUTPUT STEPS    1000000
Info: PRESSURE OUTPUT STEPS  100000
Info: ALCHEMICAL FEP ON
Info: FEP CURRENT LAMBDA VALUE     0
Info: FEP COMPARISON LAMBDA VALUE  0.05
Info: FEP INTRA-ALCHEMICAL NON-BONDED INTERACTIONS WILL BE RETAINED
Info: FEP INTRA-ALCHEMICAL BONDED INTERACTIONS WILL BE RETAINED
Info: FEP VDW SHIFTING COEFFICIENT 5
Info: FEP ELEC. ACTIVE FOR ANNIHILATED PARTICLES BETWEEN LAMBDA = 0 AND LAMBDA = 0.5
Info: FEP ELEC. ACTIVE FOR EXNIHILATED PARTICLES BETWEEN LAMBDA = 0.5 AND LAMBDA = 1
Info: FEP VDW ACTIVE FOR ANNIHILATED PARTICLES BETWEEN LAMBDA = 0 AND LAMBDA = 1
Info: FEP VDW ACTIVE FOR EXNIHILATED PARTICLES BETWEEN LAMBDA = 0 AND LAMBDA = 1
Info: FEP BOND ACTIVE FOR ANNIHILATED PARTICLES BETWEEN LAMBDA = 1 AND LAMBDA = 1
Info: FEP BOND ACTIVE FOR EXNIHILATED PARTICLES BETWEEN LAMBDA = 0 AND LAMBDA = 0
Info: LANGEVIN DYNAMICS ACTIVE
Info: LANGEVIN TEMPERATURE   300
Info: LANGEVIN USING BBK INTEGRATOR
Info: LANGEVIN DAMPING COEFFICIENT IS 1 INVERSE PS
Info: LANGEVIN DYNAMICS APPLIED TO HYDROGENS
Info: LANGEVIN PISTON PRESSURE CONTROL ACTIVE
Info:        TARGET PRESSURE IS 1.01325 BAR
Info:     OSCILLATION PERIOD IS 50 FS
Info:             DECAY TIME IS 25 FS
Info:     PISTON TEMPERATURE IS 300 K
Info:       PRESSURE CONTROL IS GROUP-BASED
Info:    INITIAL STRAIN RATE IS 5.4022e-05 5.4022e-05 5.4022e-05
Info:       CELL FLUCTUATION IS ISOTROPIC
Info: PARTICLE MESH EWALD (PME) ACTIVE
Info: PME TOLERANCE               1e-06
Info: PME EWALD COEFFICIENT       0.348832
Info: PME INTERPOLATION ORDER     4
Info: PME GRID DIMENSIONS         32 32 32
Info: PME MAXIMUM GRID SPACING    1
Info: PME CALCULATION WILL BE PERFORMED ON GPU
Info: FULL ELECTROSTATIC EVALUATION FREQUENCY      2
Info: USING VERLET I (r-RESPA) MTS SCHEME.
Info: C1 SPLITTING OF LONG RANGE ELECTROSTATICS
Info: PLACING ATOMS IN PATCHES BY HYDROGEN GROUPS
Info: RIGID BONDS TO HYDROGEN : ALL
Info:         ERROR TOLERANCE : 1e-08
Info:          MAX ITERATIONS : 100
Info: RIGID WATER USING SETTLE ALGORITHM
Info: RANDOM NUMBER SEED     1743611298
Info: USE HYDROGEN BONDS?    NO
Info: Using AMBER format force field!
Info: AMBER PARM FILE        mobley_6571751.prmtop
Info: COORDINATE PDB         mobley_6571751.pdb
Info: Exclusions will be read from PARM file!
Info: SCNB (VDW SCALING)     2
Info: USING ARITHMETIC MEAN TO COMBINE L-J SIGMA PARAMETERS
Info: BINARY COORDINATES     mobley_6571751_equil.coor
Info: SUMMARY OF PARAMETERS:
Info: 7 BONDS
Info: 9 ANGLES
Info:   9 HARMONIC
Info:   0 COSINE-BASED
Info: 12 DIHEDRAL
Info: 0 IMPROPER
Info: 0 CROSSTERM
Info: 0 VDW
Info: 21 VDW_PAIRS
Info: 0 NBTHOLE_PAIRS
Info: To read alchdata from file: mobley_6571751.pdb
Info: To read alchflag data from column: 5
Info: STRUCTURE SUMMARY:
Info: 2953 ATOMS
Info: 2953 BONDS
Info: 36 ANGLES
Info: 69 DIHEDRALS
Info: 0 IMPROPERS
Info: 0 CROSSTERMS
Info: 3035 EXCLUSIONS
Info: 2946 RIGID BONDS
Info: ALCH: 0 ATOMS TO DISAPPEAR IN FINAL STATE
Info: ALCH: 19 ATOMS TO APPEAR IN FINAL STATE
Info: 5913 DEGREES OF FREEDOM
Info: 985 HYDROGEN GROUPS
Info: 4 ATOMS IN LARGEST HYDROGEN GROUP
Info: 985 MIGRATION GROUPS
Info: 4 ATOMS IN LARGEST MIGRATION GROUP
Info: TOTAL MASS = 17715.8 amu
Info: TOTAL CHARGE = -0.000200026 e
Info: MASS DENSITY = 0.982194 g/cm^3
Info: ATOM DENSITY = 0.0985917 atoms/A^3
Info: ADDED 0 IMPLICIT EXCLUSIONS
Info: NONBONDED TABLE R-SQUARED SPACING: 0.0625
Info: NONBONDED TABLE SIZE: 705 POINTS
Info: REDUCING NUMBER OF PATCHES TO IMPROVE LOAD BALANCE
Info: REMOVING COM VELOCITY 0.267077 -0.226001 -0.0597884
Info: Use 3D box decompostion in PME FFT.
Info: Updated CUDA force table with 4096 elements.
Info: Updated CUDA LJ table with 6 x 6 elements.
Info: Found 22 unique exclusion lists needing 60 bytes
TCL: Running for 1500000 steps
ETITLE: TS BOND ANGLE DIHED IMPRP ELECT VDW BOUNDARY MISC KINETIC TOTAL TEMP POTENTIAL TOTALAVG TEMPAVG PRESSURE GPRESSURE VOLUME PRESSAVG GPRESSAVG
ENERGY: 0 3.3776 5.7025 13.0174 0.0000 -10654.6333 1424.6384 0.0000 0.0000 1726.6561 -7481.2413 293.8924 -9207.8974 -7481.2413 293.8924 150.1903 241.1233 29951.8012 150.1903 241.1233
ENERGY: 300000 1.7603 7.3472 12.5060 0.0000 -10726.0698 1485.2613 0.0000 0.0000 1776.5524 -7442.6426 302.3852 -9219.1949 -7460.6222 298.8027 273.4481 266.6028 30366.4287 -75.6562 -18.6499
ENERGY: 600000 1.3975 9.4940 12.1632 0.0000 -10783.5641 1565.4150 0.0000 0.0000 1796.3429 -7398.7515 305.7537 -9195.0944 -7442.2870 300.0842 1132.5832 1170.0998 30095.2575 78.5488 132.9893
ENERGY: 900000 1.8944 6.2739 13.9778 0.0000 -10709.2135 1431.1483 0.0000 0.0000 1751.9299 -7503.9893 298.1942 -9255.9192 -7452.6508 300.8934 -168.7952 -125.4432 30218.5927 152.8575 199.8317
ENERGY: 1200000 2.9484 4.9367 13.1539 0.0000 -10685.6810 1438.3084 0.0000 0.0000 1833.1729 -7393.1606 312.0225 -9226.3335 -7446.3597 301.7839 68.6405 103.9852 30147.1073 78.2760 125.5282
ENERGY: 1500000 5.6725 9.8466 14.9645 0.0000 -10654.9813 1479.3520 0.0000 0.0000 1792.8355 -7352.3101 305.1567 -9145.1457 -7448.4700 301.8110 257.8371 366.1447 30730.9427 5.9546 62.4617
TCL: Running FEP window   2: Lambda1 0.05   Lambda2 0.1    [dLambda 0.05  ]
TCL: Setting parameter firsttimestep to 0
TCL: Setting parameter alchLambda to 0.05
Info: NONBONDED TABLE R-SQUARED SPACING: 0.0625
Info: NONBONDED TABLE SIZE: 705 POINTS
TCL: Setting parameter alchLambda2 to 0.1
Info: NONBONDED TABLE R-SQUARED SPACING: 0.0625
Info: NONBONDED TABLE SIZE: 705 POINTS
TCL: Running for 1500000 steps
ETITLE: TS BOND ANGLE DIHED IMPRP ELECT VDW BOUNDARY MISC KINETIC TOTAL TEMP POTENTIAL TOTALAVG TEMPAVG PRESSURE GPRESSURE VOLUME PRESSAVG GPRESSAVG
ENERGY: 0 5.6725 9.8466 14.9645 0.0000 -10654.9805 1481.6466 0.0000 0.0000 1791.9399 -7350.9104 305.0043 -9142.8503 -7350.9104 305.0043 295.1343 374.5440 30730.9427 295.1343 374.5440
ENERGY: 300000 3.2506 7.9492 13.5375 0.0000 -10581.5522 1428.9896 0.0000 0.0000 1741.5372 -7386.2881 296.4253 -9127.8253 -7394.6997 301.3328 -20.6182 -20.7773 30706.6159 125.2720 172.9950
ENERGY: 600000 1.9172 11.9615 13.5244 0.0000 -10679.7779 1405.8931 0.0000 0.0000 1786.6356 -7459.8462 304.1014 -9246.4817 -7414.7178 300.2808 -595.6994 -504.7847 30431.6131 -233.4264 -178.5374
ENERGY: 900000 2.0387 7.8784 13.2435 0.0000 -10797.5860 1577.3757 0.0000 0.0000 1822.4812 -7374.5686 310.2027 -9197.0497 -7427.0490 300.8207 951.9802 991.6385 30268.0711 -173.8791 -125.5171
ENERGY: 1200000 2.1250 5.5272 13.2764 0.0000 -10562.5254 1400.1286 0.0000 0.0000 1791.4225 -7350.0457 304.9162 -9141.4682 -7423.8241 300.8044 -398.1173 -355.5957 30846.7816 -128.7865 -77.1360
ENERGY: 1500000 5.5686 10.4141 11.9914 0.0000 -10617.7835 1393.5820 0.0000 0.0000 1731.2026 -7465.0248 294.6663 -9196.2274 -7436.2925 300.8105 -565.2388 -523.9698 30192.1784 -131.7630 -80.3113
TCL: Running FEP window   3: Lambda1 0.1    Lambda2 0.15000000000000002 [dLambda 0.05000000000000002]
TCL: Setting parameter firsttimestep to 0
TCL: Setting parameter alchLambda to 0.1
Info: NONBONDED TABLE R-SQUARED SPACING: 0.0625
Info: NONBONDED TABLE SIZE: 705 POINTS
TCL: Setting parameter alchLambda2 to 0.15000000000000002
Info: NONBONDED TABLE R-SQUARED SPACING: 0.0625
Info: NONBONDED TABLE SIZE: 705 POINTS
TCL: Running for 1500000 steps
ETITLE: TS BOND ANGLE DIHED IMPRP ELECT VDW BOUNDARY MISC KINETIC TOTAL TEMP POTENTIAL TOTALAVG TEMPAVG PRESSURE GPRESSURE VOLUME PRESSAVG GPRESSAVG
ENERGY: 0 5.5686 10.4141 11.9914 0.0000 -10617.7842 1398.1011 0.0000 0.0000 1730.2831 -7461.4257 294.5098 -9191.7089 -7461.4257 294.5098 -591.7331 -509.3717 30192.1784 -591.7331 -509.3717
ENERGY: 300000 1.9773 12.3013 13.3124 0.0000 -10668.0979 1420.9655 0.0000 0.0000 1741.3168 -7478.2247 296.3878 -9219.5414 -7456.7551 295.8546 -328.1757 -242.1560 30402.2949 -430.9948 -364.0435
ENERGY: 600000 3.0448 5.6522 13.5430 0.0000 -10674.3133 1499.4987 0.0000 0.0000 1800.2524 -7352.3222 306.4192 -9152.5747 -7416.5704 300.0077 326.4358 463.6806 30806.6035 -46.8446 19.2841
ENERGY: 900000 2.0432 10.3548 11.7608 0.0000 -10553.1255 1398.0440 0.0000 0.0000 1788.4659 -7342.4569 304.4130 -9130.9228 -7417.9654 300.7502 -145.3693 -84.1458 30517.0247 -26.4049 44.1349
ENERGY: 1200000 0.9465 9.6897 13.8401 0.0000 -10860.8787 1556.4176 0.0000 0.0000 1784.2900 -7495.6948 303.7022 -9279.9848 -7425.9068 301.9645 1037.4770 1132.1137 29632.0818 0.6163 69.3676
ENERGY: 1500000 1.1558 5.7269 13.3720 0.0000 -10805.8778 1524.8321 0.0000 0.0000 1727.1090 -7533.6820 293.9695 -9260.7910 -7434.1886 300.8921 873.3775 889.3173 29788.0832 13.4595 76.7958
TCL: Running FEP window   4: Lambda1 0.15000000000000002 Lambda2 0.2    [dLambda 0.04999999999999999]
TCL: Setting parameter firsttimestep to 0
TCL: Setting parameter alchLambda to 0.15000000000000002
Info: NONBONDED TABLE R-SQUARED SPACING: 0.0625
Info: NONBONDED TABLE SIZE: 705 POINTS
TCL: Setting parameter alchLambda2 to 0.2
Info: NONBONDED TABLE R-SQUARED SPACING: 0.0625
Info: NONBONDED TABLE SIZE: 705 POINTS
TCL: Running for 1500000 steps
ETITLE: TS BOND ANGLE DIHED IMPRP ELECT VDW BOUNDARY MISC KINETIC TOTAL TEMP POTENTIAL TOTALAVG TEMPAVG PRESSURE GPRESSURE VOLUME PRESSAVG GPRESSAVG
ENERGY: 0 1.1558 5.7269 13.3720 0.0000 -10805.8784 1525.5572 0.0000 0.0000 1726.1884 -7533.8780 293.8128 -9260.0664 -7533.8780 293.8128 803.7963 897.0768 29788.0832 803.7963 897.0768
ENERGY: 300000 2.0531 4.5232 12.5631 0.0000 -10740.1997 1430.6408 0.0000 0.0000 1789.8776 -7500.5419 304.6533 -9290.4195 -7485.0149 297.8646 -55.8833 3.5967 29816.5397 197.2792 253.2078
ENERGY: 600000 1.2538 4.2518 13.5149 0.0000 -10721.0390 1441.1107 0.0000 0.0000 1727.0939 -7533.8139 293.9669 -9260.9078 -7505.4802 295.4090 16.5115 62.7245 29977.1670 -26.4716 30.1673
ENERGY: 900000 3.4578 9.1056 12.7729 0.0000 -10730.5902 1464.0697 0.0000 0.0000 1773.0874 -7468.0969 301.7954 -9241.1843 -7501.5573 296.3673 -39.9880 100.4854 30365.4523 -95.4920 -31.9407
ENERGY: 1200000 1.4469 7.1756 12.2938 0.0000 -10642.6860 1432.0986 0.0000 0.0000 1748.8388 -7440.8324 297.6681 -9189.6712 -7486.6034 297.0070 -96.5191 19.7841 30278.8890 -100.3474 -32.8333
ENERGY: 1500000 2.4383 7.0955 12.0722 0.0000 -10788.2723 1550.5304 0.0000 0.0000 1845.7947 -7370.3412 314.1709 -9216.1358 -7476.7514 298.3599 1091.4024 1148.9762 30071.0698 -35.8753 33.3808
TCL: Running FEP window   5: Lambda1 0.2    Lambda2 0.25   [dLambda 0.04999999999999999]
TCL: Setting parameter firsttimestep to 0
TCL: Setting parameter alchLambda to 0.2
Info: NONBONDED TABLE R-SQUARED SPACING: 0.0625
Info: NONBONDED TABLE SIZE: 705 POINTS
TCL: Setting parameter alchLambda2 to 0.25
Info: NONBONDED TABLE R-SQUARED SPACING: 0.0625
Info: NONBONDED TABLE SIZE: 705 POINTS
TCL: Running for 1500000 steps
ETITLE: TS BOND ANGLE DIHED IMPRP ELECT VDW BOUNDARY MISC KINETIC TOTAL TEMP POTENTIAL TOTALAVG TEMPAVG PRESSURE GPRESSURE VOLUME PRESSAVG GPRESSAVG
ENERGY: 0 2.4383 7.0955 12.0722 0.0000 -10788.2733 1550.6394 0.0000 0.0000 1844.9461 -7371.0818 314.0264 -9216.0279 -7371.0818 314.0264 1070.6911 1153.1032 30071.0698 1070.6911 1153.1032
ENERGY: 300000 1.1557 6.7303 13.5369 0.0000 -10691.9235 1452.2672 0.0000 0.0000 1797.6168 -7420.6166 305.9705 -9218.2334 -7434.7642 304.9988 10.5356 86.8109 30725.3445 49.7602 109.1708
ENERGY: 600000 2.2700 7.4228 11.7473 0.0000 -10671.8976 1416.6354 0.0000 0.0000 1743.0137 -7490.8082 296.6766 -9233.8219 -7438.3973 302.7533 -451.4733 -337.8004 30542.3333 65.9678 140.5760
ENERGY: 900000 2.6011 5.1151 12.4304 0.0000 -10411.7753 1329.9025 0.0000 0.0000 1756.6311 -7305.0951 298.9944 -9061.7262 -7419.7083 303.0580 -684.6655 -644.0419 30852.5810 -68.2885 0.5243
ENERGY: 1200000 4.8993 4.4449 13.4500 0.0000 -10669.6291 1369.7261 0.0000 0.0000 1842.5133 -7434.5954 313.6123 -9277.1087 -7408.8172 304.3550 -845.0315 -775.5882 30686.5549 -145.2028 -73.7025
ENERGY: 1500000 2.2816 9.6652 12.1116 0.0000 -10679.0998 1443.8919 0.0000 0.0000 1805.7877 -7405.3617 307.3613 -9211.1495 -7415.4427 304.3036 223.0574 295.1119 30008.3814 -148.5549 -80.3052
TCL: Running FEP window   6: Lambda1 0.25   Lambda2 0.3    [dLambda 0.04999999999999999]
TCL: Setting parameter firsttimestep to 0
TCL: Setting parameter alchLambda to 0.25
Info: NONBONDED TABLE R-SQUARED SPACING: 0.0625
Info: NONBONDED TABLE SIZE: 705 POINTS
TCL: Setting parameter alchLambda2 to 0.3
Info: NONBONDED TABLE R-SQUARED SPACING: 0.0625
Info: NONBONDED TABLE SIZE: 705 POINTS
TCL: Running for 1500000 steps
ETITLE: TS BOND ANGLE DIHED IMPRP ELECT VDW BOUNDARY MISC KINETIC TOTAL TEMP POTENTIAL TOTALAVG TEMPAVG PRESSURE GPRESSURE VOLUME PRESSAVG GPRESSAVG
ENERGY: 0 2.2816 9.6652 12.1116 0.0000 -10679.0993 1443.8899 0.0000 0.0000 1804.9166 -7406.2342 307.2130 -9211.1508 -7406.2342 307.2130 195.1237 298.4033 30008.3814 195.1237 298.4033
ENERGY: 300000 1.8816 8.8470 12.5914 0.0000 -10723.2994 1499.1944 0.0000 0.0000 1822.6869 -7378.0981 310.2377 -9200.7850 -7451.3668 305.4609 435.7827 507.8093 30297.0775 265.5546 333.6794
ENERGY: 600000 3.4746 5.1066 14.1036 0.0000 -10715.9464 1473.8495 0.0000 0.0000 1764.0575 -7455.3545 300.2585 -9219.4121 -7460.3042 302.6525 239.4727 355.5709 30119.9420 111.9834 189.9047
ENERGY: 900000 2.2091 11.3338 12.2642 0.0000 -10653.8838 1401.7018 0.0000 0.0000 1792.3728 -7434.0022 305.0780 -9226.3749 -7449.3442 302.6628 -249.7872 -260.0046 30312.9737 -22.5374 40.7212
ENERGY: 1200000 0.8828 6.6651 13.7445 0.0000 -10428.0731 1347.3216 0.0000 0.0000 1739.7877 -7319.6713 296.1275 -9059.4590 -7444.2578 300.9898 -521.9391 -425.1575 30871.1114 -131.5934 -63.8616
ENERGY: 1500000 3.8493 9.3356 12.6205 0.0000 -10641.4248 1415.9090 0.0000 0.0000 1726.3287 -7473.3818 293.8367 -9199.7105 -7443.0267 300.6836 -325.0983 -252.5717 30510.6284 -96.2861 -33.9150
TCL: Running FEP window   7: Lambda1 0.3    Lambda2 0.35   [dLambda 0.04999999999999999]
TCL: Setting parameter firsttimestep to 0
TCL: Setting parameter alchLambda to 0.3
Info: NONBONDED TABLE R-SQUARED SPACING: 0.0625
Info: NONBONDED TABLE SIZE: 705 POINTS
TCL: Setting parameter alchLambda2 to 0.35
Info: NONBONDED TABLE R-SQUARED SPACING: 0.0625
Info: NONBONDED TABLE SIZE: 705 POINTS
TCL: Running for 1500000 steps
ETITLE: TS BOND ANGLE DIHED IMPRP ELECT VDW BOUNDARY MISC KINETIC TOTAL TEMP POTENTIAL TOTALAVG TEMPAVG PRESSURE GPRESSURE VOLUME PRESSAVG GPRESSAVG
ENERGY: 0 3.8493 9.3356 12.6205 0.0000 -10641.4243 1416.1166 0.0000 0.0000 1725.4112 -7474.0911 293.6805 -9199.5023 -7474.0911 293.6805 -320.9674 -246.9996 30510.6284 -320.9674 -246.9996
ENERGY: 300000 2.6824 8.7783 13.5922 0.0000 -10503.5307 1342.0609 0.0000 0.0000 1805.3903 -7331.0266 307.2937 -9136.4169 -7430.2371 299.9678 -412.6171 -310.5933 30149.7311 -140.0976 -77.3858
ENERGY: 600000 0.4797 8.9610 13.2636 0.0000 -10836.4589 1510.2962 0.0000 0.0000 1763.1533 -7540.3052 300.1045 -9303.4585 -7475.1498 299.1076 398.1819 459.1658 29977.2717 -173.8015 -113.8897
ENERGY: 900000 3.7451 8.5902 13.3213 0.0000 -10603.0235 1375.9589 0.0000 0.0000 1767.3719 -7434.0361 300.8226 -9201.4080 -7470.4919 299.4069 -505.3526 -424.4300 30404.2797 -232.5416 -164.4382
ENERGY: 1200000 2.2716 5.8554 13.4318 0.0000 -10588.3041 1400.4574 0.0000 0.0000 1760.8734 -7405.4145 299.7165 -9166.2879 -7450.3000 300.6676 -20.8054 -48.9480 30614.6229 -200.0152 -138.5457
ENERGY: 1500000 3.5069 12.1475 13.7936 0.0000 -10656.4762 1432.2578 0.0000 0.0000 1776.3313 -7418.4393 302.3476 -9194.7706 -7450.9307 300.2076 -88.1076 -79.8316 30352.3029 -196.6113 -134.4862
TCL: Running FEP window   8: Lambda1 0.35   Lambda2 0.39999999999999997 [dLambda 0.04999999999999999]
TCL: Setting parameter firsttimestep to 0
TCL: Setting parameter alchLambda to 0.35
Info: NONBONDED TABLE R-SQUARED SPACING: 0.0625
Info: NONBONDED TABLE SIZE: 705 POINTS
TCL: Setting parameter alchLambda2 to 0.39999999999999997
Info: NONBONDED TABLE R-SQUARED SPACING: 0.0625
Info: NONBONDED TABLE SIZE: 705 POINTS
TCL: Running for 1500000 steps
ETITLE: TS BOND ANGLE DIHED IMPRP ELECT VDW BOUNDARY MISC KINETIC TOTAL TEMP POTENTIAL TOTALAVG TEMPAVG PRESSURE GPRESSURE VOLUME PRESSAVG GPRESSAVG
ENERGY: 0 3.5069 12.1475 13.7936 0.0000 -10656.4768 1431.8191 0.0000 0.0000 1775.4711 -7419.7387 302.2011 -9195.2098 -7419.7387 302.2011 -146.1925 -78.0062 30352.3029 -146.1925 -78.0062
ENERGY: 300000 2.3686 6.0694 12.1941 0.0000 -10720.6160 1417.1052 0.0000 0.0000 1751.7337 -7531.1450 298.1608 -9282.8787 -7485.3505 296.2226 -276.2743 -259.9741 30179.3032 -428.4121 -374.6074
ENERGY: 600000 2.6547 10.6336 13.2426 0.0000 -10629.2704 1401.2028 0.0000 0.0000 1766.8893 -7434.6474 300.7405 -9201.5367 -7471.8549 295.9928 -161.2755 -163.8363 30000.6279 -232.7289 -170.8886
ENERGY: 900000 2.8014 7.4116 12.5857 0.0000 -10548.4070 1371.7374 0.0000 0.0000 1751.9353 -7401.9356 298.1951 -9153.8709 -7465.6038 297.3888 -408.3086 -352.9708 30567.3565 -247.9344 -185.0452
ENERGY: 1200000 1.0804 11.8914 13.3177 0.0000 -10640.5055 1432.3004 0.0000 0.0000 1769.3794 -7412.5363 301.1643 -9181.9157 -7456.5182 298.6687 20.0937 81.9069 30259.7430 -158.8178 -102.0549
ENERGY: 1500000 4.5434 7.4239 11.7084 0.0000 -10630.7056 1429.5009 0.0000 0.0000 1742.6513 -7434.8776 296.6149 -9177.5290 -7460.6173 298.3585 -21.9971 53.1869 30425.9085 -157.7420 -100.4005
TCL: Running FEP window   9: Lambda1 0.39999999999999997 Lambda2 0.44999999999999996 [dLambda 0.04999999999999999]
TCL: Setting parameter firsttimestep to 0
TCL: Setting parameter alchLambda to 0.39999999999999997
Info: NONBONDED TABLE R-SQUARED SPACING: 0.0625
Info: NONBONDED TABLE SIZE: 705 POINTS
TCL: Setting parameter alchLambda2 to 0.44999999999999996
Info: NONBONDED TABLE R-SQUARED SPACING: 0.0625
Info: NONBONDED TABLE SIZE: 705 POINTS
TCL: Running for 1500000 steps
ETITLE: TS BOND ANGLE DIHED IMPRP ELECT VDW BOUNDARY MISC KINETIC TOTAL TEMP POTENTIAL TOTALAVG TEMPAVG PRESSURE GPRESSURE VOLUME PRESSAVG GPRESSAVG
ENERGY: 0 4.5435 7.4239 11.7084 0.0000 -10630.7054 1429.1911 0.0000 0.0000 1741.8073 -7436.0313 296.4713 -9177.8386 -7436.0313 296.4713 -35.0072 54.0617 30425.9085 -35.0072 54.0617
ENERGY: 300000 2.3178 7.8043 13.0612 0.0000 -10617.9870 1380.2587 0.0000 0.0000 1723.0205 -7491.5245 293.2736 -9214.5450 -7467.1862 294.3756 -747.8982 -723.3550 30738.4973 -105.3308 -67.3549
ENERGY: 600000 2.3107 6.3601 12.0792 0.0000 -10613.6851 1416.7552 0.0000 0.0000 1743.1640 -7433.0161 296.7022 -9176.1800 -7462.4004 295.6127 -44.6429 -43.6119 30201.1670 -81.7084 -47.2843
ENERGY: 900000 2.8964 6.2289 14.0701 0.0000 -10774.8092 1480.0469 0.0000 0.0000 1744.5665 -7527.0003 296.9409 -9271.5668 -7460.7223 296.8126 -65.4484 -20.4554 30366.2823 -49.1284 -7.4869
ENERGY: 1200000 2.0478 11.1848 12.0941 0.0000 -10743.5252 1534.0908 0.0000 0.0000 1722.8577 -7461.2499 293.2459 -9184.1077 -7459.9896 296.9149 887.4741 955.2462 30244.4890 -19.6867 23.1067
ENERGY: 1500000 0.5432 9.5581 13.4741 0.0000 -10675.1164 1447.5360 0.0000 0.0000 1772.5720 -7431.4331 301.7077 -9204.0051 -7450.2349 298.3185 302.6394 332.2151 30052.1054 -10.8376 31.5221
TCL: Running FEP window  10: Lambda1 0.44999999999999996 Lambda2 0.49999999999999994 [dLambda 0.04999999999999999]
TCL: Setting parameter firsttimestep to 0
TCL: Setting parameter alchLambda to 0.44999999999999996
Info: NONBONDED TABLE R-SQUARED SPACING: 0.0625
Info: NONBONDED TABLE SIZE: 705 POINTS
TCL: Setting parameter alchLambda2 to 0.49999999999999994
Info: NONBONDED TABLE R-SQUARED SPACING: 0.0625
Info: NONBONDED TABLE SIZE: 705 POINTS
TCL: Running for 1500000 steps
ETITLE: TS BOND ANGLE DIHED IMPRP ELECT VDW BOUNDARY MISC KINETIC TOTAL TEMP POTENTIAL TOTALAVG TEMPAVG PRESSURE GPRESSURE VOLUME PRESSAVG GPRESSAVG
ENERGY: 0 0.5432 9.5581 13.4741 0.0000 -10675.1173 1447.4796 0.0000 0.0000 1771.7088 -7432.3535 301.5608 -9204.0624 -7432.3535 301.5608 265.4570 336.9603 30052.1054 265.4570 336.9603
ENERGY: 300000 2.9728 5.8250 12.3877 0.0000 -10665.8225 1395.4861 0.0000 0.0000 1774.5714 -7474.5796 302.0480 -9249.1510 -7475.5241 301.1564 -645.2855 -610.8194 30854.9735 -172.6939 -117.4114
ENERGY: 600000 1.1398 7.8563 12.2389 0.0000 -10580.9256 1340.7696 0.0000 0.0000 1798.9107 -7420.0102 306.1908 -9218.9210 -7465.8005 299.2590 -778.3343 -703.1111 30271.5875 -322.1861 -257.9170
ENERGY: 900000 2.2088 8.7484 12.1915 0.0000 -10621.9805 1425.8477 0.0000 0.0000 1789.6745 -7383.3094 304.6187 -9172.9840 -7452.0592 299.7888 131.1067 149.9425 30209.6045 -260.9538 -196.2536
ENERGY: 1200000 2.0335 6.4448 13.5736 0.0000 -10647.5543 1394.7717 0.0000 0.0000 1729.3374 -7501.3933 294.3488 -9230.7307 -7458.6890 298.4523 -345.4204 -243.7267 30335.5767 -300.9063 -233.0162
ENERGY: 1500000 2.5763 7.3601 11.7066 0.0000 -10738.1823 1451.2690 0.0000 0.0000 1733.7005 -7531.5698 295.0914 -9265.2703 -7464.8368 298.2941 -100.8474 -46.1380 30228.7419 -237.9383 -170.2565
TCL: Running FEP window  11: Lambda1 0.49999999999999994 Lambda2 0.5499999999999999 [dLambda 0.04999999999999999]
TCL: Setting parameter firsttimestep to 0
TCL: Setting parameter alchLambda to 0.49999999999999994
Info: NONBONDED TABLE R-SQUARED SPACING: 0.0625
Info: NONBONDED TABLE SIZE: 705 POINTS
TCL: Setting parameter alchLambda2 to 0.5499999999999999
Info: NONBONDED TABLE R-SQUARED SPACING: 0.0625
Info: NONBONDED TABLE SIZE: 705 POINTS
TCL: Running for 1500000 steps
ETITLE: TS BOND ANGLE DIHED IMPRP ELECT VDW BOUNDARY MISC KINETIC TOTAL TEMP POTENTIAL TOTALAVG TEMPAVG PRESSURE GPRESSURE VOLUME PRESSAVG GPRESSAVG
ENERGY: 0 2.5763 7.3601 11.7066 0.0000 -10738.1830 1451.8415 0.0000 0.0000 1732.7899 -7531.9085 294.9364 -9264.6985 -7531.9085 294.9364 -125.9882 -34.0269 30228.7419 -125.9882 -34.0269
ENERGY: 300000 2.5451 4.8059 13.6471 0.0000 -10755.3560 1471.8450 0.0000 0.0000 1724.2204 -7538.2925 293.4778 -9262.5129 -7520.7275 299.5042 419.0370 476.3230 29921.3765 -232.1207 -144.6782
ENERGY: 600000 3.0635 13.0868 11.9740 0.0000 -10830.1207 1518.3549 0.0000 0.0000 1763.6096 -7520.0319 300.1822 -9283.6415 -7496.2932 300.8813 709.0937 762.5155 29879.5087 -150.0957 -72.5682
ENERGY: 900000 1.1303 6.1410 13.6876 0.0000 -10741.0361 1464.5558 0.0000 0.0000 1753.9332 -7501.5882 298.5352 -9255.5214 -7493.3830 300.4542 73.0858 64.4798 30511.9795 -70.1144 -4.2238
ENERGY: 1200000 1.2483 11.4792 12.2225 0.0000 -10840.3298 1519.2803 0.0000 0.0000 1730.7311 -7565.3684 294.5860 -9296.0995 -7487.8820 301.0687 529.4160 502.4215 30328.0081 -29.3393 22.2950
ENERGY: 1500000 2.0632 8.9101 12.4550 0.0000 -10680.5190 1517.7895 0.0000 0.0000 1763.0596 -7376.2418 300.0886 -9139.3013 -7481.9134 300.8330 684.0397 735.8697 30684.3226 37.2558 91.2353
TCL: Running FEP window  12: Lambda1 0.5499999999999999 Lambda2 0.6    [dLambda 0.050000000000000044]
TCL: Setting parameter firsttimestep to 0
TCL: Setting parameter alchLambda to 0.5499999999999999
Info: NONBONDED TABLE R-SQUARED SPACING: 0.0625
Info: NONBONDED TABLE SIZE: 705 POINTS
TCL: Setting parameter alchLambda2 to 0.6
Info: NONBONDED TABLE R-SQUARED SPACING: 0.0625
Info: NONBONDED TABLE SIZE: 705 POINTS
TCL: Running for 1500000 steps
ETITLE: TS BOND ANGLE DIHED IMPRP ELECT VDW BOUNDARY MISC KINETIC TOTAL TEMP POTENTIAL TOTALAVG TEMPAVG PRESSURE GPRESSURE VOLUME PRESSAVG GPRESSAVG
ENERGY: 0 2.0632 8.9101 12.4550 0.0000 -10680.6290 1517.4390 0.0000 0.0000 1762.1975 -7377.5643 299.9419 -9139.7618 -7377.5643 299.9419 661.9906 736.0891 30684.3226 661.9906 736.0891
ENERGY: 300000 2.7784 8.7563 11.7117 0.0000 -10571.8641 1326.4605 0.0000 0.0000 1724.8057 -7497.3514 293.5774 -9222.1572 -7457.2369 296.6889 -768.6926 -731.1148 30188.9416 -99.8803 -60.4815
ENERGY: 600000 3.8466 7.3500 12.8145 0.0000 -10577.6841 1356.7787 0.0000 0.0000 1754.1635 -7442.7308 298.5744 -9196.8943 -7466.2861 299.1121 -684.7146 -622.0545 30678.3419 -157.7119 -110.9895
ENERGY: 900000 4.1052 11.0671 13.6779 0.0000 -10596.6256 1390.4138 0.0000 0.0000 1776.8744 -7400.4873 302.4400 -9177.3616 -7446.3955 300.9475 -350.2172 -377.2891 30530.1374 56.6833 83.3618
ENERGY: 1200000 2.7207 9.2329 13.7476 0.0000 -10649.5857 1485.9522 0.0000 0.0000 1731.1770 -7406.7553 294.6619 -9137.9322 -7451.5885 299.6141 521.6702 586.2652 30440.3708 27.6256 57.2912
ENERGY: 1500000 2.5013 8.7357 13.8793 0.0000 -10670.5755 1413.2406 0.0000 0.0000 1796.7250 -7435.4936 305.8187 -9232.2186 -7447.7653 299.8208 -253.6857 -207.8649 30401.0757 -26.5383 7.7542
TCL: Running FEP window  13: Lambda1 0.6    Lambda2 0.65   [dLambda 0.050000000000000044]
TCL: Setting parameter firsttimestep to 0
TCL: Setting parameter alchLambda to 0.6
Info: NONBONDED TABLE R-SQUARED SPACING: 0.0625
Info: NONBONDED TABLE SIZE: 705 POINTS
TCL: Setting parameter alchLambda2 to 0.65
Info: NONBONDED TABLE R-SQUARED SPACING: 0.0625
Info: NONBONDED TABLE SIZE: 705 POINTS
TCL: Running for 1500000 steps
ETITLE: TS BOND ANGLE DIHED IMPRP ELECT VDW BOUNDARY MISC KINETIC TOTAL TEMP POTENTIAL TOTALAVG TEMPAVG PRESSURE GPRESSURE VOLUME PRESSAVG GPRESSAVG
ENERGY: 0 2.5013 8.7357 13.8793 0.0000 -10670.6470 1413.0604 0.0000 0.0000 1795.8332 -7436.6370 305.6670 -9232.4702 -7436.6370 305.6670 -301.8433 -201.4312 30401.0757 -301.8433 -201.4312
ENERGY: 300000 1.2495 6.9860 13.1384 0.0000 -10609.7788 1360.1686 0.0000 0.0000 1798.2193 -7430.0170 306.0731 -9228.2363 -7432.4041 304.0783 -783.2257 -788.9395 30569.9936 -390.4956 -343.3166
ENERGY: 600000 1.7818 10.2059 14.3263 0.0000 -10602.8624 1415.8596 0.0000 0.0000 1760.7676 -7399.9212 299.6985 -9160.6888 -7402.5859 304.8163 81.7262 131.1680 30082.7338 -181.1563 -141.6461
ENERGY: 900000 1.9007 5.9070 11.9111 0.0000 -10666.7788 1430.9331 0.0000 0.0000 1763.6420 -7452.4849 300.1877 -9216.1269 -7415.1382 303.6970 -31.5968 15.1623 30466.8321 -245.8627 -194.8979
ENERGY: 1200000 1.7702 8.6738 13.8835 0.0000 -10793.6215 1519.2475 0.0000 0.0000 1689.3468 -7560.6997 287.5420 -9250.0465 -7439.4151 301.3457 498.0863 617.1667 30073.6729 -241.9748 -189.6277
ENERGY: 1500000 1.6363 5.3570 13.4891 0.0000 -10741.3367 1483.1048 0.0000 0.0000 1804.3476 -7433.4019 307.1162 -9237.7495 -7437.4372 300.8491 447.5558 497.7701 30190.4502 -229.6268 -173.6808
TCL: Running FEP window  14: Lambda1 0.65   Lambda2 0.7000000000000001 [dLambda 0.050000000000000044]
TCL: Setting parameter firsttimestep to 0
TCL: Setting parameter alchLambda to 0.65
Info: NONBONDED TABLE R-SQUARED SPACING: 0.0625
Info: NONBONDED TABLE SIZE: 705 POINTS
TCL: Setting parameter alchLambda2 to 0.7000000000000001
Info: NONBONDED TABLE R-SQUARED SPACING: 0.0625
Info: NONBONDED TABLE SIZE: 705 POINTS
TCL: Running for 1500000 steps
ETITLE: TS BOND ANGLE DIHED IMPRP ELECT VDW BOUNDARY MISC KINETIC TOTAL TEMP POTENTIAL TOTALAVG TEMPAVG PRESSURE GPRESSURE VOLUME PRESSAVG GPRESSAVG
ENERGY: 0 1.6363 5.3570 13.4891 0.0000 -10741.2233 1482.9595 0.0000 0.0000 1803.4869 -7434.2946 306.9697 -9237.7814 -7434.2946 306.9697 427.0460 505.0054 30190.4502 427.0460 505.0054
ENERGY: 300000 0.8090 9.3270 16.0254 0.0000 -10675.6854 1410.2779 0.0000 0.0000 1762.1949 -7477.0512 299.9414 -9239.2461 -7482.8007 301.2016 -346.6136 -262.3331 30427.5126 -273.4458 -217.8264
ENERGY: 600000 3.7037 8.1153 15.7705 0.0000 -10585.1296 1432.6225 0.0000 0.0000 1732.6229 -7392.2947 294.9080 -9124.9176 -7472.4242 299.7139 -239.7029 -241.9558 31060.4855 -141.3203 -73.8275
ENERGY: 900000 4.9088 10.3429 13.0423 0.0000 -10819.3270 1527.3282 0.0000 0.0000 1796.5500 -7467.1548 305.7890 -9263.7048 -7474.4860 300.2530 561.6251 581.4124 30707.9629 -3.2574 61.3335
ENERGY: 1200000 3.0241 7.9501 14.0292 0.0000 -10844.8180 1530.0476 0.0000 0.0000 1737.3256 -7552.4413 295.7084 -9289.7670 -7477.8590 299.7080 339.7940 443.0928 30591.0336 -42.6039 20.6469
ENERGY: 1500000 1.2180 5.7091 12.1966 0.0000 -10675.2191 1472.4727 0.0000 0.0000 1735.2501 -7448.3726 295.3552 -9183.6227 -7467.1784 299.6703 360.0971 456.3125 30339.5478 -23.9208 39.3276
TCL: Running FEP window  15: Lambda1 0.7000000000000001 Lambda2 0.7500000000000001 [dLambda 0.050000000000000044]
TCL: Setting parameter firsttimestep to 0
TCL: Setting parameter alchLambda to 0.7000000000000001
Info: NONBONDED TABLE R-SQUARED SPACING: 0.0625
Info: NONBONDED TABLE SIZE: 705 POINTS
TCL: Setting parameter alchLambda2 to 0.7500000000000001
Info: NONBONDED TABLE R-SQUARED SPACING: 0.0625
Info: NONBONDED TABLE SIZE: 705 POINTS
TCL: Running for 1500000 steps
ETITLE: TS BOND ANGLE DIHED IMPRP ELECT VDW BOUNDARY MISC KINETIC TOTAL TEMP POTENTIAL TOTALAVG TEMPAVG PRESSURE GPRESSURE VOLUME PRESSAVG GPRESSAVG
ENERGY: 0 1.2180 5.7091 12.1965 0.0000 -10675.1402 1472.1742 0.0000 0.0000 1734.3346 -7449.5077 295.1993 -9183.8423 -7449.5077 295.1993 381.1569 461.9819 30339.5478 381.1569 461.9819
ENERGY: 300000 1.9569 6.8970 12.4381 0.0000 -10643.8949 1374.6192 0.0000 0.0000 1786.4831 -7461.5006 304.0755 -9247.9836 -7440.9322 303.1188 -443.4268 -310.4607 29980.4363 385.7049 460.0543
ENERGY: 600000 3.8322 10.1546 13.2359 0.0000 -10577.8331 1376.8429 0.0000 0.0000 1771.2252 -7402.5423 301.4785 -9173.7675 -7440.5333 303.2719 -151.4221 -26.8255 29837.6828 444.8782 518.0975
ENERGY: 900000 0.7061 7.8681 14.1764 0.0000 -10630.3024 1424.0639 0.0000 0.0000 1791.3053 -7392.1825 304.8963 -9183.4879 -7434.1311 302.5881 -61.9559 -20.4516 30666.3982 370.7284 437.9104
ENERGY: 1200000 2.6286 11.8740 13.7558 0.0000 -10686.0172 1463.0825 0.0000 0.0000 1745.7962 -7448.8802 297.1502 -9194.6764 -7437.3058 301.6782 282.4630 362.0071 30327.0201 250.4527 316.0561
ENERGY: 1500000 3.1718 13.9096 11.6363 0.0000 -10619.7549 1365.7432 0.0000 0.0000 1811.4904 -7413.8037 308.3320 -9225.2941 -7440.9968 302.1809 -488.9380 -389.6705 30500.3688 140.4379 208.9898
TCL: Running FEP window  16: Lambda1 0.7500000000000001 Lambda2 0.8000000000000002 [dLambda 0.050000000000000044]
TCL: Setting parameter firsttimestep to 0
TCL: Setting parameter alchLambda to 0.7500000000000001
Info: NONBONDED TABLE R-SQUARED SPACING: 0.0625
Info: NONBONDED TABLE SIZE: 705 POINTS
TCL: Setting parameter alchLambda2 to 0.8000000000000002
Info: NONBONDED TABLE R-SQUARED SPACING: 0.0625
Info: NONBONDED TABLE SIZE: 705 POINTS
TCL: Running for 1500000 steps
ETITLE: TS BOND ANGLE DIHED IMPRP ELECT VDW BOUNDARY MISC KINETIC TOTAL TEMP POTENTIAL TOTALAVG TEMPAVG PRESSURE GPRESSURE VOLUME PRESSAVG GPRESSAVG
ENERGY: 0 3.1718 13.9096 11.6363 0.0000 -10619.8171 1365.4743 0.0000 0.0000 1810.5907 -7415.0344 308.1788 -9225.6251 -7415.0344 308.1788 -470.6987 -381.0067 30500.3688 -470.6987 -381.0067
ENERGY: 300000 2.9463 9.5835 13.2763 0.0000 -10834.3455 1520.7938 0.0000 0.0000 1743.6817 -7544.0641 296.7903 -9287.7458 -7452.8178 301.5512 161.5695 243.7561 30756.0434 -233.5536 -161.4384
ENERGY: 600000 1.3839 7.1543 13.0561 0.0000 -10705.0397 1476.4478 0.0000 0.0000 1766.6313 -7440.3664 300.6965 -9206.9977 -7465.4577 300.0514 500.1915 573.9360 29947.8625 -57.6078 8.7612
ENERGY: 900000 3.5312 6.0828 13.3516 0.0000 -10622.9457 1347.5027 0.0000 0.0000 1807.1264 -7445.3510 307.5892 -9252.4774 -7476.1632 299.7267 -667.8685 -594.5847 30204.4090 -88.0547 -21.7127
ENERGY: 1200000 1.9687 10.8582 13.4131 0.0000 -10614.1528 1415.6230 0.0000 0.0000 1782.1943 -7390.0955 303.3455 -9172.2898 -7464.2947 300.3441 -15.6004 22.7348 30458.4045 -86.9487 -15.2882
ENERGY: 1500000 1.3547 12.0103 13.3921 0.0000 -10568.9361 1324.0598 0.0000 0.0000 1773.6924 -7444.4267 301.8984 -9218.1191 -7466.8763 299.5988 -966.9935 -908.7828 30935.6801 -132.0641 -63.4729
TCL: Running FEP window  17: Lambda1 0.8000000000000002 Lambda2 0.8500000000000002 [dLambda 0.050000000000000044]
TCL: Setting parameter firsttimestep to 0
TCL: Setting parameter alchLambda to 0.8000000000000002
Info: NONBONDED TABLE R-SQUARED SPACING: 0.0625
Info: NONBONDED TABLE SIZE: 705 POINTS
TCL: Setting parameter alchLambda2 to 0.8500000000000002
Info: NONBONDED TABLE R-SQUARED SPACING: 0.0625
Info: NONBONDED TABLE SIZE: 705 POINTS
TCL: Running for 1500000 steps
ETITLE: TS BOND ANGLE DIHED IMPRP ELECT VDW BOUNDARY MISC KINETIC TOTAL TEMP POTENTIAL TOTALAVG TEMPAVG PRESSURE GPRESSURE VOLUME PRESSAVG GPRESSAVG
ENERGY: 0 1.3547 12.0103 13.3921 0.0000 -10568.9767 1324.9283 0.0000 0.0000 1772.8254 -7444.4659 301.7508 -9217.2913 -7444.4659 301.7508 -977.5566 -888.7699 30935.6801 -977.5566 -888.7699
ENERGY: 300000 5.1906 7.1834 13.3665 0.0000 -10639.5363 1396.1538 0.0000 0.0000 1756.5539 -7461.0881 298.9813 -9217.6420 -7434.1933 303.2640 -186.7626 -138.8546 30015.2398 -174.1307 -123.1801
ENERGY: 600000 2.1235 11.8741 14.0052 0.0000 -10636.6414 1354.0872 0.0000 0.0000 1744.5493 -7510.0020 296.9380 -9254.5513 -7460.6546 300.8560 -768.8463 -683.7446 30348.3860 -92.2097 -39.9161
ENERGY: 900000 1.2950 8.1874 13.2003 0.0000 -10732.7389 1412.7980 0.0000 0.0000 1786.3766 -7510.8815 304.0574 -9297.2581 -7466.6506 301.3666 -416.0131 -361.5869 30549.0780 -221.6257 -162.7267
ENERGY: 1200000 0.2538 7.8590 12.8936 0.0000 -10694.5887 1455.4388 0.0000 0.0000 1745.7603 -7472.3832 297.1441 -9218.1435 -7469.1415 300.2725 4.9086 118.5482 30504.4293 -99.8706 -41.7826
ENERGY: 1500000 3.7840 9.5104 12.6407 0.0000 -10712.3489 1469.1084 0.0000 0.0000 1777.4312 -7439.8741 302.5348 -9217.3053 -7466.6554 300.4705 239.4281 274.2151 30531.3344 -82.0133 -19.0768
TCL: Running FEP window  18: Lambda1 0.8500000000000002 Lambda2 0.9000000000000002 [dLambda 0.050000000000000044]
TCL: Setting parameter firsttimestep to 0
TCL: Setting parameter alchLambda to 0.8500000000000002
Info: NONBONDED TABLE R-SQUARED SPACING: 0.0625
Info: NONBONDED TABLE SIZE: 705 POINTS
TCL: Setting parameter alchLambda2 to 0.9000000000000002
Info: NONBONDED TABLE R-SQUARED SPACING: 0.0625
Info: NONBONDED TABLE SIZE: 705 POINTS
TCL: Running for 1500000 steps
ETITLE: TS BOND ANGLE DIHED IMPRP ELECT VDW BOUNDARY MISC KINETIC TOTAL TEMP POTENTIAL TOTALAVG TEMPAVG PRESSURE GPRESSURE VOLUME PRESSAVG GPRESSAVG
ENERGY: 0 3.7840 9.5104 12.6407 0.0000 -10712.4200 1469.7556 0.0000 0.0000 1776.5259 -7440.2033 302.3807 -9216.7292 -7440.2033 302.3807 208.0702 297.5148 30531.3344 208.0702 297.5148
ENERGY: 300000 1.5753 10.1252 13.5572 0.0000 -10632.8194 1401.1385 0.0000 0.0000 1724.9695 -7481.4537 293.6053 -9206.4232 -7443.8637 298.6325 -358.3187 -255.3130 30420.4198 -31.5786 27.9414
ENERGY: 600000 6.8078 8.9960 14.8710 0.0000 -10829.5586 1574.1004 0.0000 0.0000 1805.3227 -7419.4607 307.2822 -9224.7834 -7429.3921 301.8967 1293.7050 1314.0263 29878.4817 179.9473 221.3400
ENERGY: 900000 2.8489 9.0415 12.0219 0.0000 -10794.4837 1464.9359 0.0000 0.0000 1719.9248 -7585.7107 292.7467 -9305.6356 -7450.8121 301.1345 -63.8575 19.4906 30220.2007 102.9609 146.8984
ENERGY: 1200000 2.3425 10.7675 14.0217 0.0000 -10860.1407 1500.8588 0.0000 0.0000 1780.7757 -7551.3745 303.1040 -9332.1502 -7456.7356 301.3878 317.7940 383.6760 30426.5370 22.3503 68.7441
ENERGY: 1500000 2.3483 7.9855 12.5853 0.0000 -10583.8605 1362.6672 0.0000 0.0000 1789.0069 -7409.2673 304.5051 -9198.2742 -7445.0563 301.5270 -333.3174 -275.4177 30596.5816 -73.2480 -27.6724
TCL: Running FEP window  19: Lambda1 0.9000000000000002 Lambda2 0.9500000000000003 [dLambda 0.050000000000000044]
TCL: Setting parameter firsttimestep to 0
TCL: Setting parameter alchLambda to 0.9000000000000002
Info: NONBONDED TABLE R-SQUARED SPACING: 0.0625
Info: NONBONDED TABLE SIZE: 705 POINTS
TCL: Setting parameter alchLambda2 to 0.9500000000000003
Info: NONBONDED TABLE R-SQUARED SPACING: 0.0625
Info: NONBONDED TABLE SIZE: 705 POINTS
TCL: Running for 1500000 steps
ETITLE: TS BOND ANGLE DIHED IMPRP ELECT VDW BOUNDARY MISC KINETIC TOTAL TEMP POTENTIAL TOTALAVG TEMPAVG PRESSURE GPRESSURE VOLUME PRESSAVG GPRESSAVG
ENERGY: 0 2.3483 7.9855 12.5853 0.0000 -10583.8998 1362.7510 0.0000 0.0000 1788.1159 -7410.1139 304.3534 -9198.2298 -7410.1139 304.3534 -370.9156 -262.7727 30596.5816 -370.9156 -262.7727
ENERGY: 300000 0.4962 12.5546 13.5818 0.0000 -10602.9667 1386.6094 0.0000 0.0000 1802.3596 -7387.3651 306.7778 -9189.7247 -7427.7314 303.9158 -564.3509 -538.2354 31110.0517 -257.8564 -187.3338
ENERGY: 600000 1.3767 8.2532 13.1028 0.0000 -10723.7622 1478.6393 0.0000 0.0000 1742.8889 -7479.5013 296.6554 -9222.3902 -7446.0991 302.4267 333.1044 511.4029 30063.6565 -126.0843 -48.3203
ENERGY: 900000 0.3203 7.8442 13.7301 0.0000 -10800.0361 1524.2977 0.0000 0.0000 1780.2500 -7473.5940 303.0146 -9253.8439 -7445.9872 302.6969 725.3286 747.6056 29974.3182 -26.6904 38.4000
ENERGY: 1200000 2.2878 8.0074 12.8030 0.0000 -10791.4763 1507.2497 0.0000 0.0000 1782.8204 -7478.3080 303.4521 -9261.1284 -7454.7217 301.9399 320.8794 420.2793 30638.4501 18.0314 90.1768
ENERGY: 1500000 5.2383 10.8053 13.3730 0.0000 -10597.6706 1356.6331 0.0000 0.0000 1757.6012 -7454.0196 299.1595 -9211.6208 -7457.1849 300.9701 -587.8880 -549.3306 30651.0210 -9.3103 55.7543
TCL: Running FEP window  20: Lambda1 0.9500000000000003 Lambda2 1.0    [dLambda 0.04999999999999971]
TCL: Setting parameter firsttimestep to 0
TCL: Setting parameter alchLambda to 0.9500000000000003
Info: NONBONDED TABLE R-SQUARED SPACING: 0.0625
Info: NONBONDED TABLE SIZE: 705 POINTS
TCL: Setting parameter alchLambda2 to 1.0
Info: NONBONDED TABLE R-SQUARED SPACING: 0.0625
Info: NONBONDED TABLE SIZE: 705 POINTS
TCL: Running for 1500000 steps
ETITLE: TS BOND ANGLE DIHED IMPRP ELECT VDW BOUNDARY MISC KINETIC TOTAL TEMP POTENTIAL TOTALAVG TEMPAVG PRESSURE GPRESSURE VOLUME PRESSAVG GPRESSAVG
ENERGY: 0 5.2383 10.8054 13.3730 0.0000 -10597.6823 1356.0368 0.0000 0.0000 1756.7467 -7455.4821 299.0141 -9212.2288 -7455.4821 299.0141 -627.5795 -547.9116 30651.0210 -627.5795 -547.9116
ENERGY: 300000 5.5862 7.8969 12.8782 0.0000 -10660.1132 1463.3472 0.0000 0.0000 1758.1119 -7412.2929 299.2465 -9170.4048 -7436.0880 300.8285 224.5863 307.4688 30756.0967 -18.7925 59.5233
ENERGY: 600000 1.0811 6.9174 12.5712 0.0000 -10567.5789 1379.6536 0.0000 0.0000 1739.1043 -7428.2513 296.0112 -9167.3555 -7455.9002 298.6282 -299.8772 -261.5445 30522.5193 -71.3506 5.3977
ENERGY: 900000 3.3475 10.3590 12.1312 0.0000 -10685.3600 1435.2359 0.0000 0.0000 1760.1421 -7464.1443 299.5920 -9224.2864 -7453.9316 298.9365 279.7759 381.1935 29976.3419 -55.5232 24.1606
ENERGY: 1200000 0.8158 7.1910 12.9530 0.0000 -10787.0970 1466.7233 0.0000 0.0000 1757.5968 -7541.8172 299.1588 -9299.4140 -7456.4327 300.7174 -38.4333 91.5904 30189.1331 -64.1809 9.7743
ENERGY: 1500000 1.1006 8.0022 13.5983 0.0000 -10676.4267 1450.0822 0.0000 0.0000 1724.0212 -7479.6222 293.4439 -9203.6434 -7461.2421 300.5619 -23.0020 74.9511 30780.4707 -92.4809 -16.5455
TCL: Exiting due to exit command.
