Info: SIMULATION PARAMETERS:
Info: TIMESTEP               2
Info: NUMBER OF STEPS        0
Info: STEPS PER CYCLE        10
Info: PERIODIC CELL BASIS 1  31.7399 0 0
Info: PERIODIC CELL BASIS 2  0 29.9719 0
Info: PERIODIC CELL BASIS 3  0 0 31.6682
Info: PERIODIC CELL CENTER   0 0 0
Info: WRAPPING WATERS AROUND PERIODIC BOUNDARIES ON OUTPUT.
Info: WRAPPING ALL CLUSTERS AROUND PERIODIC BOUNDARIES ON OUTPUT.
Info: FIRST LDB TIMESTEP     50
Info: LAST LDB TIMESTEP     -1
Info: HOM BACKGROUND SCALING 1
Info: PME BACKGROUND SCALING 1
Info: MIN ATOMS PER PATCH    40
Info: EMPTY PATCH LOAD       40 ATOMS
Info: VELOCITY FILE          mobley_8057732_equil.vel
Info: CENTER OF MASS MOVING INITIALLY? NO
Info: DIELECTRIC             1
Info: EXCLUDE                SCALED ONE-FOUR
Info: 1-4 ELECTROSTATICS SCALED BY 0.833333
Info: MODIFIED 1-4 VDW PARAMETERS WILL BE USED
Info: DCD FILENAME           mobley_8057732_prod.dcd
Info: DCD FREQUENCY          100000
Info: DCD FIRST STEP         100000
Info: DCD FILE WILL CONTAIN UNIT CELL DATA
Info: XST FILENAME           mobley_8057732_prod.xst
Info: XST FREQUENCY          100000
Info: NO VELOCITY DCD OUTPUT
Info: NO FORCE DCD OUTPUT
Info: OUTPUT FILENAME        mobley_8057732_prod
Info: BINARY OUTPUT FILES WILL BE USED
Info: RESTART FILENAME       mobley_8057732_prod.restart
Info: RESTART FREQUENCY      100000
Info: BINARY RESTART FILES WILL BE USED
Info: CUTOFF                 9
Info: PAIRLIST DISTANCE      11
Info: PAIRLIST SHRINK RATE   0.01
Info: PAIRLIST GROW RATE     0.01
Info: PAIRLIST TRIGGER       0.3
Info: PAIRLISTS PER CYCLE    2
Info: PAIRLISTS ENABLED
Info: MARGIN                 2
Info: HYDROGEN GROUP CUTOFF  2.5
Info: PATCH DIMENSION        15.5
Info: ENERGY OUTPUT STEPS    100000
Info: ENERGY EVALUATION STEPS    100000
Info: OUTPUT ENERGY PRECISION 4
Info: CROSSTERM ENERGY INCLUDED IN DIHEDRAL
Info: TIMING OUTPUT STEPS    1000000
Info: PRESSURE OUTPUT STEPS  100000
Info: ALCHEMICAL FEP ON
Info: FEP CURRENT LAMBDA VALUE     1
Info: FEP COMPARISON LAMBDA VALUE  0.95
Info: FEP INTRA-ALCHEMICAL NON-BONDED INTERACTIONS WILL BE RETAINED
Info: FEP INTRA-ALCHEMICAL BONDED INTERACTIONS WILL BE RETAINED
Info: FEP VDW SHIFTING COEFFICIENT 5
Info: FEP ELEC. ACTIVE FOR ANNIHILATED PARTICLES BETWEEN LAMBDA = 0 AND LAMBDA = 0.5
Info: FEP ELEC. ACTIVE FOR EXNIHILATED PARTICLES BETWEEN LAMBDA = 0.5 AND LAMBDA = 1
Info: FEP VDW ACTIVE FOR ANNIHILATED PARTICLES BETWEEN LAMBDA = 0 AND LAMBDA = 1
Info: FEP VDW ACTIVE FOR EXNIHILATED PARTICLES BETWEEN LAMBDA = 0 AND LAMBDA = 1
Info: FEP BOND ACTIVE FOR ANNIHILATED PARTICLES BETWEEN LAMBDA = 1 AND LAMBDA = 1
Info: FEP BOND ACTIVE FOR EXNIHILATED PARTICLES BETWEEN LAMBDA = 0 AND LAMBDA = 0
Info: LANGEVIN DYNAMICS ACTIVE
Info: LANGEVIN TEMPERATURE   300
Info: LANGEVIN USING BBK INTEGRATOR
Info: LANGEVIN DAMPING COEFFICIENT IS 1 INVERSE PS
Info: LANGEVIN DYNAMICS APPLIED TO HYDROGENS
Info: LANGEVIN PISTON PRESSURE CONTROL ACTIVE
Info:        TARGET PRESSURE IS 1.01325 BAR
Info:     OSCILLATION PERIOD IS 50 FS
Info:             DECAY TIME IS 25 FS
Info:     PISTON TEMPERATURE IS 300 K
Info:       PRESSURE CONTROL IS GROUP-BASED
Info:    INITIAL STRAIN RATE IS -0.00013217 -0.00013217 -0.00013217
Info:       CELL FLUCTUATION IS ISOTROPIC
Info: PARTICLE MESH EWALD (PME) ACTIVE
Info: PME TOLERANCE               1e-06
Info: PME EWALD COEFFICIENT       0.348832
Info: PME INTERPOLATION ORDER     4
Info: PME GRID DIMENSIONS         32 32 32
Info: PME MAXIMUM GRID SPACING    1
Info: PME CALCULATION WILL BE PERFORMED ON GPU
Info: FULL ELECTROSTATIC EVALUATION FREQUENCY      2
Info: USING VERLET I (r-RESPA) MTS SCHEME.
Info: C1 SPLITTING OF LONG RANGE ELECTROSTATICS
Info: PLACING ATOMS IN PATCHES BY HYDROGEN GROUPS
Info: RIGID BONDS TO HYDROGEN : ALL
Info:         ERROR TOLERANCE : 1e-08
Info:          MAX ITERATIONS : 100
Info: RIGID WATER USING SETTLE ALGORITHM
Info: RANDOM NUMBER SEED     1743565266
Info: USE HYDROGEN BONDS?    NO
Info: Using AMBER format force field!
Info: AMBER PARM FILE        mobley_8057732.prmtop
Info: COORDINATE PDB         mobley_8057732.pdb
Info: Exclusions will be read from PARM file!
Info: SCNB (VDW SCALING)     2
Info: USING ARITHMETIC MEAN TO COMBINE L-J SIGMA PARAMETERS
Info: BINARY COORDINATES     mobley_8057732_equil.coor
Info: SUMMARY OF PARAMETERS:
Info: 7 BONDS
Info: 5 ANGLES
Info:   5 HARMONIC
Info:   0 COSINE-BASED
Info: 3 DIHEDRAL
Info: 0 IMPROPER
Info: 0 CROSSTERM
Info: 0 VDW
Info: 21 VDW_PAIRS
Info: 0 NBTHOLE_PAIRS
Info: To read alchdata from file: mobley_8057732.pdb
Info: To read alchflag data from column: 5
Info: STRUCTURE SUMMARY:
Info: 2962 ATOMS
Info: 2962 BONDS
Info: 19 ANGLES
Info: 32 DIHEDRALS
Info: 0 IMPROPERS
Info: 0 CROSSTERMS
Info: 3004 EXCLUSIONS
Info: 2954 RIGID BONDS
Info: ALCH: 0 ATOMS TO DISAPPEAR IN FINAL STATE
Info: ALCH: 13 ATOMS TO APPEAR IN FINAL STATE
Info: 5932 DEGREES OF FREEDOM
Info: 991 HYDROGEN GROUPS
Info: 3 ATOMS IN LARGEST HYDROGEN GROUP
Info: 991 MIGRATION GROUPS
Info: 3 ATOMS IN LARGEST MIGRATION GROUP
Info: TOTAL MASS = 17838.3 amu
Info: TOTAL CHARGE = -0.000199962 e
Info: MASS DENSITY = 0.983263 g/cm^3
Info: ATOM DENSITY = 0.0983202 atoms/A^3
Info: ADDED 0 IMPLICIT EXCLUSIONS
Info: NONBONDED TABLE R-SQUARED SPACING: 0.0625
Info: NONBONDED TABLE SIZE: 705 POINTS
Info: REMOVING COM VELOCITY -0.15537 0.0770503 -0.0502306
Info: Use 3D box decompostion in PME FFT.
Info: Updated CUDA force table with 4096 elements.
Info: Updated CUDA LJ table with 6 x 6 elements.
Info: Found 16 unique exclusion lists needing 32 bytes
TCL: Running for 1500000 steps
ETITLE: TS BOND ANGLE DIHED IMPRP ELECT VDW BOUNDARY MISC KINETIC TOTAL TEMP POTENTIAL TOTALAVG TEMPAVG PRESSURE GPRESSURE VOLUME PRESSAVG GPRESSAVG
ENERGY: 0 5.2064 5.4779 3.3916 0.0000 -10742.1934 1408.2572 0.0000 0.0000 1795.9000 -7523.9604 304.6993 -9319.8604 -7523.9604 304.6993 -143.1994 -66.3812 30126.0643 -143.1994 -66.3812
ENERGY: 300000 1.1765 2.0270 2.2042 0.0000 -10547.4849 1239.6341 0.0000 0.0000 1760.8890 -7541.5541 298.7592 -9302.4432 -7556.6857 299.2764 -1990.5563 -1953.1100 31368.3868 -607.2555 -543.5786
ENERGY: 600000 2.5376 4.2843 3.4118 0.0000 -10606.3034 1374.7131 0.0000 0.0000 1724.7571 -7496.5996 292.6289 -9221.3567 -7543.1944 298.4654 -431.8363 -326.7712 30789.9811 -489.9428 -431.9962
ENERGY: 900000 4.1035 1.5703 3.9723 0.0000 -10827.4473 1379.0754 0.0000 0.0000 1744.0213 -7694.7045 295.8973 -9438.7258 -7557.9227 299.2493 -1119.8067 -1047.5378 30587.4829 -509.6261 -445.6800
ENERGY: 1200000 2.5573 1.7306 3.9707 0.0000 -10609.9204 1334.5879 0.0000 0.0000 1761.8414 -7505.2325 298.9207 -9267.0739 -7551.8969 299.1650 -1090.1261 -1038.7823 30820.3992 -434.8254 -378.4835
ENERGY: 1500000 1.7684 2.1302 3.9373 0.0000 -10869.2362 1569.2598 0.0000 0.0000 1736.5527 -7555.5879 294.6302 -9292.1406 -7553.5687 299.0186 1004.4359 1005.5701 30707.7450 -347.8966 -294.8511
TCL: Running FEP window   2: Lambda1 0.95   Lambda2 0.8999999999999999 [dLambda -0.050000000000000044]
TCL: Setting parameter firsttimestep to 0
TCL: Setting parameter alchLambda to 0.95
Info: NONBONDED TABLE R-SQUARED SPACING: 0.0625
Info: NONBONDED TABLE SIZE: 705 POINTS
TCL: Setting parameter alchLambda2 to 0.8999999999999999
Info: NONBONDED TABLE R-SQUARED SPACING: 0.0625
Info: NONBONDED TABLE SIZE: 705 POINTS
TCL: Running for 1500000 steps
ETITLE: TS BOND ANGLE DIHED IMPRP ELECT VDW BOUNDARY MISC KINETIC TOTAL TEMP POTENTIAL TOTALAVG TEMPAVG PRESSURE GPRESSURE VOLUME PRESSAVG GPRESSAVG
ENERGY: 0 1.7684 2.1302 3.9373 0.0000 -10867.6111 1568.5130 0.0000 0.0000 1735.6846 -7555.5777 294.4829 -9291.2623 -7555.5777 294.4829 909.8243 988.1414 30707.7450 909.8243 988.1414
ENERGY: 300000 2.1617 4.3802 3.9801 0.0000 -10787.6063 1463.2259 0.0000 0.0000 1774.8816 -7538.9767 301.1332 -9313.8583 -7526.3173 298.5189 -16.9436 29.5593 30630.6378 81.6955 168.3128
ENERGY: 600000 1.7742 3.2760 1.9083 0.0000 -10825.9474 1492.2419 0.0000 0.0000 1752.3952 -7574.3518 297.3181 -9326.7470 -7530.1396 299.9672 753.1335 874.2063 29723.5628 251.6410 348.9083
ENERGY: 900000 0.4184 0.8954 4.2059 0.0000 -10816.9018 1478.9753 0.0000 0.0000 1728.0152 -7604.3916 293.1817 -9332.4068 -7537.0520 299.5277 145.9122 212.6594 30544.7427 171.9205 262.3908
ENERGY: 1200000 4.8063 2.9084 4.4994 0.0000 -10814.6298 1459.8108 0.0000 0.0000 1761.5370 -7581.0679 298.8691 -9342.6049 -7542.3576 299.3700 173.7680 191.4532 30303.3864 177.9016 261.5762
ENERGY: 1500000 3.0577 1.8196 1.7410 0.0000 -10801.6339 1497.9815 0.0000 0.0000 1803.6137 -7493.4204 306.0080 -9297.0341 -7536.2735 300.4049 960.9472 1084.8631 29884.1564 204.5928 287.1540
TCL: Running FEP window   3: Lambda1 0.8999999999999999 Lambda2 0.8499999999999999 [dLambda -0.050000000000000044]
TCL: Setting parameter firsttimestep to 0
TCL: Setting parameter alchLambda to 0.8999999999999999
Info: NONBONDED TABLE R-SQUARED SPACING: 0.0625
Info: NONBONDED TABLE SIZE: 705 POINTS
TCL: Setting parameter alchLambda2 to 0.8499999999999999
Info: NONBONDED TABLE R-SQUARED SPACING: 0.0625
Info: NONBONDED TABLE SIZE: 705 POINTS
TCL: Running for 1500000 steps
ETITLE: TS BOND ANGLE DIHED IMPRP ELECT VDW BOUNDARY MISC KINETIC TOTAL TEMP POTENTIAL TOTALAVG TEMPAVG PRESSURE GPRESSURE VOLUME PRESSAVG GPRESSAVG
ENERGY: 0 3.0577 1.8196 1.7410 0.0000 -10799.5203 1497.2303 0.0000 0.0000 1802.6986 -7492.9731 305.8527 -9295.6717 -7492.9731 305.8527 981.4395 1067.5109 29884.1564 981.4395 1067.5109
ENERGY: 300000 8.0391 2.0113 3.4456 0.0000 -10963.2540 1501.9002 0.0000 0.0000 1865.2600 -7582.5977 316.4671 -9447.8577 -7546.3433 304.2856 7.7142 15.6242 30405.6631 114.9887 185.1473
ENERGY: 600000 1.4278 3.2979 2.8181 0.0000 -10750.2272 1444.7015 0.0000 0.0000 1770.8700 -7527.1119 300.4526 -9297.9819 -7545.6821 302.8856 26.8839 80.8382 30524.8040 21.4985 83.0583
ENERGY: 900000 1.4384 1.9482 1.9157 0.0000 -10644.4070 1300.1612 0.0000 0.0000 1789.8745 -7549.0691 303.6769 -9338.9436 -7552.2037 302.2834 -1257.4001 -1233.5488 30804.1836 -118.1667 -62.9043
ENERGY: 1200000 1.5116 5.8675 5.6309 0.0000 -10734.8867 1446.0661 0.0000 0.0000 1808.8257 -7466.9849 306.8923 -9275.8106 -7530.4759 302.5692 98.5560 144.8422 30737.6796 -30.1299 22.4109
ENERGY: 1500000 4.1164 1.9766 6.5861 0.0000 -10842.7818 1511.9257 0.0000 0.0000 1749.8435 -7568.3335 296.8851 -9318.1770 -7539.7827 301.9264 138.2554 188.2046 30953.9141 24.7621 76.9266
TCL: Running FEP window   4: Lambda1 0.8499999999999999 Lambda2 0.7999999999999998 [dLambda -0.050000000000000044]
TCL: Setting parameter firsttimestep to 0
TCL: Setting parameter alchLambda to 0.8499999999999999
Info: NONBONDED TABLE R-SQUARED SPACING: 0.0625
Info: NONBONDED TABLE SIZE: 705 POINTS
TCL: Setting parameter alchLambda2 to 0.7999999999999998
Info: NONBONDED TABLE R-SQUARED SPACING: 0.0625
Info: NONBONDED TABLE SIZE: 705 POINTS
TCL: Running for 1500000 steps
ETITLE: TS BOND ANGLE DIHED IMPRP ELECT VDW BOUNDARY MISC KINETIC TOTAL TEMP POTENTIAL TOTALAVG TEMPAVG PRESSURE GPRESSURE VOLUME PRESSAVG GPRESSAVG
ENERGY: 0 4.1164 1.9766 6.5861 0.0000 -10842.1121 1512.4654 0.0000 0.0000 1748.9372 -7568.0302 296.7314 -9316.9674 -7568.0302 296.7314 100.1049 189.1990 30953.9141 100.1049 189.1990
ENERGY: 300000 3.4992 2.5874 1.6747 0.0000 -10882.2798 1441.2704 0.0000 0.0000 1784.9976 -7648.2505 302.8495 -9433.2480 -7576.4809 298.5957 -119.4038 -91.5286 30083.0069 -130.0935 -83.7245
ENERGY: 600000 1.9993 1.8779 3.0174 0.0000 -10768.0843 1452.2717 0.0000 0.0000 1716.8696 -7592.0485 291.2907 -9308.9181 -7585.9629 297.7337 -436.7470 -319.1438 31320.4431 -298.0914 -238.8134
ENERGY: 900000 1.6528 2.2504 4.0327 0.0000 -10786.0823 1429.1588 0.0000 0.0000 1828.6298 -7520.3578 310.2523 -9348.9876 -7571.8730 298.9887 -312.0514 -268.3496 30672.7741 -213.3642 -147.0942
ENERGY: 1200000 2.8602 3.8213 5.1013 0.0000 -10644.2166 1321.7799 0.0000 0.0000 1797.0339 -7513.6201 304.8916 -9310.6540 -7560.0983 299.6253 -916.2281 -838.4373 30778.5082 -180.4072 -111.8511
ENERGY: 1500000 2.7711 3.9589 1.8401 0.0000 -10749.7321 1415.7237 0.0000 0.0000 1779.2335 -7546.2049 301.8715 -9325.4384 -7553.1998 299.6738 -295.9593 -213.9611 30576.3297 -182.6757 -108.6486
TCL: Running FEP window   5: Lambda1 0.7999999999999998 Lambda2 0.7499999999999998 [dLambda -0.050000000000000044]
TCL: Setting parameter firsttimestep to 0
TCL: Setting parameter alchLambda to 0.7999999999999998
Info: NONBONDED TABLE R-SQUARED SPACING: 0.0625
Info: NONBONDED TABLE SIZE: 705 POINTS
TCL: Setting parameter alchLambda2 to 0.7499999999999998
Info: NONBONDED TABLE R-SQUARED SPACING: 0.0625
Info: NONBONDED TABLE SIZE: 705 POINTS
TCL: Running for 1500000 steps
ETITLE: TS BOND ANGLE DIHED IMPRP ELECT VDW BOUNDARY MISC KINETIC TOTAL TEMP POTENTIAL TOTALAVG TEMPAVG PRESSURE GPRESSURE VOLUME PRESSAVG GPRESSAVG
ENERGY: 0 2.7711 3.9589 1.8401 0.0000 -10748.0298 1414.7042 0.0000 0.0000 1778.3518 -7546.4037 301.7220 -9324.7555 -7546.4037 301.7220 -315.7561 -232.9333 30576.3297 -315.7561 -232.9333
ENERGY: 300000 1.8643 1.8439 3.7412 0.0000 -10805.3941 1469.3344 0.0000 0.0000 1795.5993 -7533.0109 304.6482 -9328.6102 -7535.6859 302.1774 29.1237 112.9223 30320.7368 -231.9092 -182.3976
ENERGY: 600000 4.6898 2.7536 2.6275 0.0000 -10704.2788 1367.5890 0.0000 0.0000 1797.5560 -7529.0628 304.9802 -9326.6188 -7548.4860 300.1410 -544.9933 -553.6192 30557.7884 -154.6165 -115.5919
ENERGY: 900000 5.3052 7.7310 1.6336 0.0000 -10719.2244 1414.8109 0.0000 0.0000 1768.7091 -7521.0347 300.0859 -9289.7437 -7536.8006 301.8463 -242.8953 -151.3314 30530.0250 -57.1607 -8.5701
ENERGY: 1200000 1.6105 5.4669 2.1097 0.0000 -10724.4702 1377.6042 0.0000 0.0000 1779.2020 -7558.4769 301.8662 -9337.6789 -7542.5499 302.1194 -729.1511 -644.3622 30841.1843 -112.8234 -61.1961
ENERGY: 1500000 2.6928 2.4490 1.5308 0.0000 -10722.5277 1474.9109 0.0000 0.0000 1805.3631 -7435.5811 306.3048 -9240.9442 -7534.7784 302.0547 338.2023 384.0839 30658.1509 -114.1672 -62.3905
TCL: Running FEP window   6: Lambda1 0.7499999999999998 Lambda2 0.6999999999999997 [dLambda -0.050000000000000044]
TCL: Setting parameter firsttimestep to 0
TCL: Setting parameter alchLambda to 0.7499999999999998
Info: NONBONDED TABLE R-SQUARED SPACING: 0.0625
Info: NONBONDED TABLE SIZE: 705 POINTS
TCL: Setting parameter alchLambda2 to 0.6999999999999997
Info: NONBONDED TABLE R-SQUARED SPACING: 0.0625
Info: NONBONDED TABLE SIZE: 705 POINTS
TCL: Running for 1500000 steps
ETITLE: TS BOND ANGLE DIHED IMPRP ELECT VDW BOUNDARY MISC KINETIC TOTAL TEMP POTENTIAL TOTALAVG TEMPAVG PRESSURE GPRESSURE VOLUME PRESSAVG GPRESSAVG
ENERGY: 0 2.6928 2.4490 1.5308 0.0000 -10721.7956 1474.3357 0.0000 0.0000 1804.4444 -7436.3429 306.1489 -9240.7873 -7436.3429 306.1489 295.0155 367.8976 30658.1509 295.0155 367.8976
ENERGY: 300000 1.0723 1.1412 1.6656 0.0000 -10733.4887 1387.4076 0.0000 0.0000 1740.8947 -7601.3074 295.3669 -9342.2021 -7569.9172 295.8171 -356.5012 -239.3088 29984.7583 -186.0084 -105.4578
ENERGY: 600000 0.8211 2.3115 1.1571 0.0000 -10920.4337 1520.6699 0.0000 0.0000 1730.1732 -7665.3010 293.5478 -9395.4742 -7604.8819 293.6187 -6.1245 40.9948 30708.9172 -260.6526 -195.9577
ENERGY: 900000 4.6814 6.3937 4.8402 0.0000 -10786.3613 1500.8514 0.0000 0.0000 1811.3626 -7458.2319 307.3227 -9269.5946 -7581.0002 296.2990 606.2084 634.5107 30384.1647 -158.1523 -97.4312
ENERGY: 1200000 1.1035 4.7629 2.0625 0.0000 -10650.5464 1369.7105 0.0000 0.0000 1761.8564 -7511.0506 298.9233 -9272.9071 -7562.1066 297.3626 -516.0532 -396.8439 30569.3425 -181.3712 -115.8482
ENERGY: 1500000 1.5599 2.0407 3.0701 0.0000 -10678.6058 1376.8112 0.0000 0.0000 1714.9957 -7580.1283 290.9727 -9295.1240 -7559.5368 296.3908 -581.6443 -534.0579 30920.5706 -115.3166 -51.2194
TCL: Running FEP window   7: Lambda1 0.6999999999999997 Lambda2 0.6499999999999997 [dLambda -0.050000000000000044]
TCL: Setting parameter firsttimestep to 0
TCL: Setting parameter alchLambda to 0.6999999999999997
Info: NONBONDED TABLE R-SQUARED SPACING: 0.0625
Info: NONBONDED TABLE SIZE: 705 POINTS
TCL: Setting parameter alchLambda2 to 0.6499999999999997
Info: NONBONDED TABLE R-SQUARED SPACING: 0.0625
Info: NONBONDED TABLE SIZE: 705 POINTS
TCL: Running for 1500000 steps
ETITLE: TS BOND ANGLE DIHED IMPRP ELECT VDW BOUNDARY MISC KINETIC TOTAL TEMP POTENTIAL TOTALAVG TEMPAVG PRESSURE GPRESSURE VOLUME PRESSAVG GPRESSAVG
ENERGY: 0 1.5599 2.0407 3.0701 0.0000 -10677.0764 1376.7712 0.0000 0.0000 1714.1100 -7579.5246 290.8225 -9293.6346 -7579.5246 290.8225 -628.6540 -541.3643 30920.5706 -628.6540 -541.3643
ENERGY: 300000 3.1655 1.8410 3.0688 0.0000 -10820.5712 1466.0705 0.0000 0.0000 1754.4709 -7591.9546 297.6702 -9346.4255 -7556.5871 297.6935 -158.9166 -27.2208 30631.1529 45.4218 114.1751
ENERGY: 600000 3.0966 1.5801 3.4824 0.0000 -10637.6484 1453.6645 0.0000 0.0000 1789.9548 -7385.8700 303.6906 -9175.8248 -7521.6824 299.9494 -102.6825 -26.9086 31362.3488 1.9365 64.9712
ENERGY: 900000 7.0107 1.2276 4.3828 0.0000 -10695.3134 1382.9198 0.0000 0.0000 1763.3770 -7536.3955 299.1813 -9299.7725 -7537.9223 298.5576 -348.1064 -303.9613 30437.3542 12.8386 84.9186
ENERGY: 1200000 1.9216 2.2193 2.2044 0.0000 -10879.9905 1609.2943 0.0000 0.0000 1779.6098 -7484.7412 301.9354 -9264.3509 -7533.2666 299.2572 1395.0150 1411.0508 30435.1435 48.9730 115.7693
ENERGY: 1500000 2.0654 4.6639 4.7273 0.0000 -10765.4577 1478.3420 0.0000 0.0000 1803.2191 -7472.4400 305.9410 -9275.6591 -7529.1507 300.0143 405.7514 454.2281 30233.5989 -49.8851 15.9483
TCL: Running FEP window   8: Lambda1 0.6499999999999997 Lambda2 0.5999999999999996 [dLambda -0.050000000000000044]
TCL: Setting parameter firsttimestep to 0
TCL: Setting parameter alchLambda to 0.6499999999999997
Info: NONBONDED TABLE R-SQUARED SPACING: 0.0625
Info: NONBONDED TABLE SIZE: 705 POINTS
TCL: Setting parameter alchLambda2 to 0.5999999999999996
Info: NONBONDED TABLE R-SQUARED SPACING: 0.0625
Info: NONBONDED TABLE SIZE: 705 POINTS
TCL: Running for 1500000 steps
ETITLE: TS BOND ANGLE DIHED IMPRP ELECT VDW BOUNDARY MISC KINETIC TOTAL TEMP POTENTIAL TOTALAVG TEMPAVG PRESSURE GPRESSURE VOLUME PRESSAVG GPRESSAVG
ENERGY: 0 2.0654 4.6639 4.7273 0.0000 -10763.9090 1477.9856 0.0000 0.0000 1802.3288 -7472.1380 305.7900 -9274.4668 -7472.1380 305.7900 365.7438 450.0633 30233.5989 365.7438 450.0633
ENERGY: 300000 1.5767 0.9353 2.5661 0.0000 -10834.0970 1473.1912 0.0000 0.0000 1776.2628 -7579.5650 301.3675 -9355.8278 -7560.2985 300.0165 -129.5387 -92.2737 30858.4184 -193.3220 -126.6473
ENERGY: 600000 2.0718 2.3386 1.5635 0.0000 -10853.8934 1522.7964 0.0000 0.0000 1767.7348 -7557.3883 299.9206 -9325.1231 -7543.7577 299.6944 644.8009 717.5972 30213.0859 -78.6071 -6.8188
ENERGY: 900000 2.6880 4.3651 2.9355 0.0000 -10834.2477 1481.6386 0.0000 0.0000 1840.5321 -7502.0883 312.2717 -9342.6204 -7514.2349 302.7244 -37.9202 8.0696 30875.4234 -23.2391 44.8208
ENERGY: 1200000 3.1307 2.9620 4.7719 0.0000 -10681.7379 1389.8635 0.0000 0.0000 1760.7029 -7520.3070 298.7276 -9281.0099 -7520.8835 302.2197 -723.3573 -626.5391 30915.6570 -172.3280 -98.5586
ENERGY: 1500000 2.6189 5.8969 3.1097 0.0000 -10849.3211 1472.3719 0.0000 0.0000 1769.7964 -7595.5273 300.2704 -9365.3236 -7527.6541 301.5119 212.7150 303.5672 30237.2409 -40.9626 39.0114
TCL: Running FEP window   9: Lambda1 0.5999999999999996 Lambda2 0.5499999999999996 [dLambda -0.050000000000000044]
TCL: Setting parameter firsttimestep to 0
TCL: Setting parameter alchLambda to 0.5999999999999996
Info: NONBONDED TABLE R-SQUARED SPACING: 0.0625
Info: NONBONDED TABLE SIZE: 705 POINTS
TCL: Setting parameter alchLambda2 to 0.5499999999999996
Info: NONBONDED TABLE R-SQUARED SPACING: 0.0625
Info: NONBONDED TABLE SIZE: 705 POINTS
TCL: Running for 1500000 steps
ETITLE: TS BOND ANGLE DIHED IMPRP ELECT VDW BOUNDARY MISC KINETIC TOTAL TEMP POTENTIAL TOTALAVG TEMPAVG PRESSURE GPRESSURE VOLUME PRESSAVG GPRESSAVG
ENERGY: 0 2.6189 5.8969 3.1097 0.0000 -10848.6524 1472.7502 0.0000 0.0000 1768.9283 -7595.3483 300.1231 -9364.2766 -7595.3483 300.1231 211.3397 303.6610 30237.2409 211.3397 303.6610
ENERGY: 300000 2.8027 2.1467 1.9015 0.0000 -10741.7833 1404.7920 0.0000 0.0000 1783.8450 -7546.2953 302.6540 -9330.1403 -7548.9204 301.2063 -414.8677 -380.6423 30540.2133 -288.0216 -222.4028
ENERGY: 600000 2.0946 4.8805 3.3172 0.0000 -10539.8205 1306.8240 0.0000 0.0000 1809.4721 -7413.2321 307.0019 -9222.7042 -7494.9874 304.1452 -1134.6882 -1112.3226 31316.1470 -514.6620 -441.1469
ENERGY: 900000 1.4556 2.1865 1.9961 0.0000 -10834.1542 1495.5447 0.0000 0.0000 1789.7601 -7543.2113 303.6575 -9332.9714 -7517.5911 302.6486 288.3797 402.4896 30600.8476 -399.5659 -317.7069
ENERGY: 1200000 2.0808 6.5801 4.9769 0.0000 -10914.2481 1581.8772 0.0000 0.0000 1796.3867 -7522.3463 304.7818 -9318.7330 -7528.1674 301.9778 1181.4434 1278.9576 30058.5952 -280.2259 -205.2001
ENERGY: 1500000 3.4991 4.3828 1.4769 0.0000 -10925.5073 1544.4347 0.0000 0.0000 1778.2886 -7593.4252 301.7112 -9371.7139 -7539.1227 301.3510 549.9689 618.4067 30627.7834 -253.9995 -179.6653
TCL: Running FEP window  10: Lambda1 0.5499999999999996 Lambda2 0.4999999999999996 [dLambda -0.04999999999999999]
TCL: Setting parameter firsttimestep to 0
TCL: Setting parameter alchLambda to 0.5499999999999996
Info: NONBONDED TABLE R-SQUARED SPACING: 0.0625
Info: NONBONDED TABLE SIZE: 705 POINTS
TCL: Setting parameter alchLambda2 to 0.4999999999999996
Info: NONBONDED TABLE R-SQUARED SPACING: 0.0625
Info: NONBONDED TABLE SIZE: 705 POINTS
TCL: Running for 1500000 steps
ETITLE: TS BOND ANGLE DIHED IMPRP ELECT VDW BOUNDARY MISC KINETIC TOTAL TEMP POTENTIAL TOTALAVG TEMPAVG PRESSURE GPRESSURE VOLUME PRESSAVG GPRESSAVG
ENERGY: 0 3.4991 4.3828 1.4769 0.0000 -10925.2946 1544.6545 0.0000 0.0000 1777.4041 -7593.8772 301.5612 -9371.2813 -7593.8772 301.5612 534.9007 610.2215 30627.7834 534.9007 610.2215
ENERGY: 300000 3.2384 4.4500 2.8935 0.0000 -10681.1688 1405.8135 0.0000 0.0000 1726.6067 -7538.1668 292.9427 -9264.7734 -7561.0687 298.5086 -185.4652 -175.8711 30456.2988 -74.5610 -40.9709
ENERGY: 600000 2.5904 3.5017 5.0786 0.0000 -10807.6232 1503.6440 0.0000 0.0000 1742.0194 -7550.7891 295.5577 -9292.8085 -7559.8522 299.3682 402.4174 414.8986 30422.9150 101.8569 143.6791
ENERGY: 900000 0.9243 4.5175 5.2452 0.0000 -10730.0235 1481.1882 0.0000 0.0000 1813.3287 -7424.8195 307.6563 -9238.1483 -7542.2834 299.7774 455.8657 531.1263 30782.2443 93.3851 134.6276
ENERGY: 1200000 1.5314 3.2998 2.9313 0.0000 -10738.0516 1417.3411 0.0000 0.0000 1743.1936 -7569.7543 295.7569 -9312.9479 -7539.6587 299.6942 -387.7903 -338.9593 30542.1130 26.7118 66.2114
ENERGY: 1500000 2.0630 2.8681 2.8149 0.0000 -10670.0385 1371.8291 0.0000 0.0000 1789.6294 -7500.8340 303.6354 -9290.4634 -7537.4555 299.7891 -502.7802 -424.2644 30449.3005 -21.2678 23.4140
TCL: Running FEP window  11: Lambda1 0.4999999999999996 Lambda2 0.4499999999999996 [dLambda -0.04999999999999999]
TCL: Setting parameter firsttimestep to 0
TCL: Setting parameter alchLambda to 0.4999999999999996
Info: NONBONDED TABLE R-SQUARED SPACING: 0.0625
Info: NONBONDED TABLE SIZE: 705 POINTS
TCL: Setting parameter alchLambda2 to 0.4499999999999996
Info: NONBONDED TABLE R-SQUARED SPACING: 0.0625
Info: NONBONDED TABLE SIZE: 705 POINTS
TCL: Running for 1500000 steps
ETITLE: TS BOND ANGLE DIHED IMPRP ELECT VDW BOUNDARY MISC KINETIC TOTAL TEMP POTENTIAL TOTALAVG TEMPAVG PRESSURE GPRESSURE VOLUME PRESSAVG GPRESSAVG
ENERGY: 0 2.0630 2.8681 2.8149 0.0000 -10670.1201 1372.3415 0.0000 0.0000 1788.7423 -7501.2903 303.4849 -9290.0326 -7501.2903 303.4849 -507.3337 -424.2968 30449.3005 -507.3337 -424.2968
ENERGY: 300000 2.9330 0.6274 1.5078 0.0000 -10732.8573 1440.4433 0.0000 0.0000 1733.4962 -7553.8496 294.1116 -9287.3458 -7546.0364 299.9850 359.4314 397.1018 30189.0450 -14.3788 44.8441
ENERGY: 600000 0.9550 2.0780 3.5943 0.0000 -10744.1027 1472.6484 0.0000 0.0000 1810.1492 -7454.6778 307.1168 -9264.8270 -7532.9633 299.7902 162.1733 224.7128 30603.6669 -75.3888 -19.6961
ENERGY: 900000 2.5297 3.1762 2.1435 0.0000 -10733.3186 1486.7880 0.0000 0.0000 1798.2304 -7440.4508 305.0946 -9238.6812 -7530.0640 300.7191 725.7807 814.2556 30222.6852 57.4284 109.2632
ENERGY: 1200000 2.5064 4.7117 2.4587 0.0000 -10648.9108 1386.8290 0.0000 0.0000 1778.9532 -7473.4519 301.8240 -9252.4051 -7522.9159 299.8341 -276.3780 -193.2312 30619.0975 -6.0648 51.5289
ENERGY: 1500000 2.8169 4.9389 3.3781 0.0000 -10555.2054 1360.9774 0.0000 0.0000 1789.3840 -7393.7101 303.5937 -9183.0941 -7517.3027 300.3167 -396.8606 -290.8222 30448.4480 -52.7047 7.9189
TCL: Running FEP window  12: Lambda1 0.4499999999999996 Lambda2 0.39999999999999963 [dLambda -0.04999999999999999]
TCL: Setting parameter firsttimestep to 0
TCL: Setting parameter alchLambda to 0.4499999999999996
Info: NONBONDED TABLE R-SQUARED SPACING: 0.0625
Info: NONBONDED TABLE SIZE: 705 POINTS
TCL: Setting parameter alchLambda2 to 0.39999999999999963
Info: NONBONDED TABLE R-SQUARED SPACING: 0.0625
Info: NONBONDED TABLE SIZE: 705 POINTS
TCL: Running for 1500000 steps
ETITLE: TS BOND ANGLE DIHED IMPRP ELECT VDW BOUNDARY MISC KINETIC TOTAL TEMP POTENTIAL TOTALAVG TEMPAVG PRESSURE GPRESSURE VOLUME PRESSAVG GPRESSAVG
ENERGY: 0 2.8169 4.9389 3.3781 0.0000 -10555.2051 1361.5590 0.0000 0.0000 1788.4557 -7394.0565 303.4362 -9182.5122 -7394.0565 303.4362 -389.8308 -289.3961 30448.4480 -389.8308 -289.3961
ENERGY: 300000 2.0695 2.4100 3.8753 0.0000 -10683.6750 1372.7604 0.0000 0.0000 1736.7184 -7565.8414 294.6583 -9302.5598 -7520.8052 297.2073 -740.6675 -662.8394 30647.6905 -376.1164 -289.7462
ENERGY: 600000 4.2498 1.0166 5.1321 0.0000 -10753.8245 1388.9005 0.0000 0.0000 1768.5951 -7585.9302 300.0666 -9354.5254 -7505.9646 299.0715 -314.5752 -253.5677 30198.7207 -272.9903 -202.1287
ENERGY: 900000 0.2440 3.8471 3.5418 0.0000 -10750.8908 1440.4276 0.0000 0.0000 1735.3465 -7567.4838 294.4255 -9302.8303 -7524.6758 297.6939 93.0757 165.8630 30173.7714 -33.6795 34.7995
ENERGY: 1200000 4.1204 1.5543 2.3297 0.0000 -10691.1505 1391.5683 0.0000 0.0000 1750.9894 -7540.5884 297.0796 -9291.5778 -7527.4620 298.1015 -325.6839 -286.7795 30539.0094 -21.9967 51.8608
ENERGY: 1500000 1.5769 3.3185 5.4900 0.0000 -10817.0151 1434.3728 0.0000 0.0000 1728.2374 -7644.0195 293.2194 -9372.2569 -7528.2091 298.1834 -268.5500 -212.3885 30105.4502 -45.8282 28.1000
TCL: Running FEP window  13: Lambda1 0.39999999999999963 Lambda2 0.34999999999999964 [dLambda -0.04999999999999999]
TCL: Setting parameter firsttimestep to 0
TCL: Setting parameter alchLambda to 0.39999999999999963
Info: NONBONDED TABLE R-SQUARED SPACING: 0.0625
Info: NONBONDED TABLE SIZE: 705 POINTS
TCL: Setting parameter alchLambda2 to 0.34999999999999964
Info: NONBONDED TABLE R-SQUARED SPACING: 0.0625
Info: NONBONDED TABLE SIZE: 705 POINTS
TCL: Running for 1500000 steps
ETITLE: TS BOND ANGLE DIHED IMPRP ELECT VDW BOUNDARY MISC KINETIC TOTAL TEMP POTENTIAL TOTALAVG TEMPAVG PRESSURE GPRESSURE VOLUME PRESSAVG GPRESSAVG
ENERGY: 0 1.5769 3.3185 5.4900 0.0000 -10817.0144 1434.6775 0.0000 0.0000 1727.3428 -7644.6088 293.0676 -9371.9516 -7644.6088 293.0676 -293.7670 -217.6566 30105.4502 -293.7670 -217.6566
ENERGY: 300000 2.8312 2.5208 3.3150 0.0000 -10833.9379 1519.4026 0.0000 0.0000 1797.9648 -7507.9035 305.0496 -9305.8683 -7522.7731 301.8823 470.1309 603.0227 30414.1276 278.0227 373.3797
ENERGY: 600000 3.1570 3.8171 3.5403 0.0000 -10634.7779 1342.8704 0.0000 0.0000 1786.6570 -7494.7362 303.1311 -9281.3932 -7537.1225 300.3799 -675.4042 -645.1523 30621.1061 77.2226 152.2566
ENERGY: 900000 1.7986 7.3716 2.3013 0.0000 -10619.8719 1369.5911 0.0000 0.0000 1796.7276 -7442.0816 304.8397 -9238.8092 -7536.9948 299.1816 -537.5760 -448.3839 30915.7380 35.6570 108.8781
ENERGY: 1200000 6.0697 3.2062 5.7615 0.0000 -10686.9551 1436.7297 0.0000 0.0000 1765.8774 -7469.3105 299.6055 -9235.1880 -7542.9463 299.4414 275.9316 351.0781 30029.4748 86.3442 158.8332
ENERGY: 1500000 3.0781 2.8437 2.7146 0.0000 -10744.2154 1428.6491 0.0000 0.0000 1722.4971 -7584.4329 292.2454 -9306.9300 -7548.4756 298.7440 -210.0987 -187.0413 30601.5381 66.0243 136.4768
TCL: Running FEP window  14: Lambda1 0.34999999999999964 Lambda2 0.29999999999999966 [dLambda -0.04999999999999999]
TCL: Setting parameter firsttimestep to 0
TCL: Setting parameter alchLambda to 0.34999999999999964
Info: NONBONDED TABLE R-SQUARED SPACING: 0.0625
Info: NONBONDED TABLE SIZE: 705 POINTS
TCL: Setting parameter alchLambda2 to 0.29999999999999966
Info: NONBONDED TABLE R-SQUARED SPACING: 0.0625
Info: NONBONDED TABLE SIZE: 705 POINTS
TCL: Running for 1500000 steps
ETITLE: TS BOND ANGLE DIHED IMPRP ELECT VDW BOUNDARY MISC KINETIC TOTAL TEMP POTENTIAL TOTALAVG TEMPAVG PRESSURE GPRESSURE VOLUME PRESSAVG GPRESSAVG
ENERGY: 0 3.0781 2.8437 2.7146 0.0000 -10744.2157 1428.9278 0.0000 0.0000 1721.6181 -7585.0335 292.0963 -9306.6516 -7585.0335 292.0963 -265.1283 -188.2767 30601.5381 -265.1283 -188.2767
ENERGY: 300000 0.9883 1.8490 1.9114 0.0000 -10786.7015 1469.2123 0.0000 0.0000 1819.9196 -7492.8209 308.7745 -9312.7404 -7575.2501 298.5202 443.1533 510.7433 29932.7233 -200.0094 -107.7611
ENERGY: 600000 0.7374 7.9991 1.8007 0.0000 -10716.1303 1400.2710 0.0000 0.0000 1774.0193 -7531.3028 300.9869 -9305.3221 -7543.6562 298.9487 -310.5188 -189.5760 30279.7118 -309.9848 -220.1506
ENERGY: 900000 3.3552 3.0689 3.6093 0.0000 -10740.3661 1424.9637 0.0000 0.0000 1810.9013 -7494.4677 307.2444 -9305.3690 -7530.9143 299.8979 -111.5364 -38.3084 30393.4571 -323.8543 -243.9770
ENERGY: 1200000 2.1741 5.8218 1.7927 0.0000 -10776.6425 1487.0103 0.0000 0.0000 1777.6731 -7502.1704 301.6068 -9279.8435 -7539.2969 299.4758 351.9063 401.8248 30641.9333 -210.3837 -134.1118
ENERGY: 1500000 1.4351 1.7258 2.7243 0.0000 -10800.9403 1456.8604 0.0000 0.0000 1785.0576 -7553.1370 302.8597 -9338.1946 -7534.0851 299.4208 126.5226 188.4933 30335.4444 -234.6119 -153.4010
TCL: Running FEP window  15: Lambda1 0.29999999999999966 Lambda2 0.24999999999999967 [dLambda -0.04999999999999999]
TCL: Setting parameter firsttimestep to 0
TCL: Setting parameter alchLambda to 0.29999999999999966
Info: NONBONDED TABLE R-SQUARED SPACING: 0.0625
Info: NONBONDED TABLE SIZE: 705 POINTS
TCL: Setting parameter alchLambda2 to 0.24999999999999967
Info: NONBONDED TABLE R-SQUARED SPACING: 0.0625
Info: NONBONDED TABLE SIZE: 705 POINTS
TCL: Running for 1500000 steps
ETITLE: TS BOND ANGLE DIHED IMPRP ELECT VDW BOUNDARY MISC KINETIC TOTAL TEMP POTENTIAL TOTALAVG TEMPAVG PRESSURE GPRESSURE VOLUME PRESSAVG GPRESSAVG
ENERGY: 0 1.4351 1.7258 2.7243 0.0000 -10800.9394 1457.3890 0.0000 0.0000 1784.1577 -7553.5074 302.7070 -9337.6651 -7553.5074 302.7070 110.9697 187.0135 30335.4444 110.9697 187.0135
ENERGY: 300000 1.9374 1.2280 3.5244 0.0000 -10615.7632 1372.3071 0.0000 0.0000 1805.0939 -7431.6724 306.2591 -9236.7663 -7550.2938 301.4574 -468.0227 -427.9577 31095.7198 -298.0507 -256.1736
ENERGY: 600000 2.7705 2.3211 5.1628 0.0000 -10898.5008 1484.6570 0.0000 0.0000 1767.9052 -7635.6842 299.9496 -9403.5894 -7557.6872 300.6613 46.9658 88.5672 30263.9925 -286.5439 -238.9422
ENERGY: 900000 1.6364 4.2202 3.0550 0.0000 -10928.7824 1560.0799 0.0000 0.0000 1820.2883 -7539.5026 308.8371 -9359.7909 -7554.2825 302.4580 1018.8688 1086.6667 29696.1678 -96.6169 -49.6039
ENERGY: 1200000 1.8422 0.8830 2.1443 0.0000 -10802.9157 1453.1763 0.0000 0.0000 1729.4511 -7615.4188 293.4253 -9344.8699 -7553.2427 302.0437 160.4123 245.8448 29884.3045 -103.8733 -54.0676
ENERGY: 1500000 2.7453 4.9348 2.5315 0.0000 -10567.0170 1377.1661 0.0000 0.0000 1734.5815 -7445.0578 294.2957 -9179.6393 -7534.6589 301.9298 -327.0741 -289.1191 30855.1385 -74.8752 -19.5250
TCL: Running FEP window  16: Lambda1 0.24999999999999967 Lambda2 0.19999999999999968 [dLambda -0.04999999999999999]
TCL: Setting parameter firsttimestep to 0
TCL: Setting parameter alchLambda to 0.24999999999999967
Info: NONBONDED TABLE R-SQUARED SPACING: 0.0625
Info: NONBONDED TABLE SIZE: 705 POINTS
TCL: Setting parameter alchLambda2 to 0.19999999999999968
Info: NONBONDED TABLE R-SQUARED SPACING: 0.0625
Info: NONBONDED TABLE SIZE: 705 POINTS
TCL: Running for 1500000 steps
ETITLE: TS BOND ANGLE DIHED IMPRP ELECT VDW BOUNDARY MISC KINETIC TOTAL TEMP POTENTIAL TOTALAVG TEMPAVG PRESSURE GPRESSURE VOLUME PRESSAVG GPRESSAVG
ENERGY: 0 2.7453 4.9348 2.5315 0.0000 -10567.0169 1376.8857 0.0000 0.0000 1733.6908 -7446.2288 294.1446 -9179.9196 -7446.2288 294.1446 -379.2328 -295.3911 30855.1385 -379.2328 -295.3911
ENERGY: 300000 1.2159 2.9786 1.3541 0.0000 -10897.9988 1493.0613 0.0000 0.0000 1771.4883 -7627.9006 300.5575 -9399.3889 -7571.3699 299.4785 356.7672 366.5110 30243.6738 -24.3344 29.5467
ENERGY: 600000 4.5242 1.1697 4.1436 0.0000 -10782.3695 1410.0026 0.0000 0.0000 1793.4079 -7569.1216 304.2764 -9362.5295 -7549.1702 301.0934 -862.5128 -808.5631 30951.6175 -31.0751 15.4885
ENERGY: 900000 3.2852 1.8184 2.5832 0.0000 -10717.9592 1421.6049 0.0000 0.0000 1758.7854 -7529.8820 298.4023 -9288.6675 -7541.9590 301.0306 -469.7794 -403.2090 30671.7818 -68.4091 -17.7705
ENERGY: 1200000 1.4305 2.0012 0.9097 0.0000 -10806.9386 1439.0775 0.0000 0.0000 1793.2073 -7570.3123 304.2424 -9363.5196 -7536.7826 301.8500 -127.2453 -106.9647 30357.8776 -116.4107 -67.2240
ENERGY: 1500000 3.8702 4.1267 1.8960 0.0000 -10748.9458 1371.8498 0.0000 0.0000 1812.9879 -7554.2152 307.5984 -9367.2031 -7525.1530 302.2977 -448.4810 -447.2503 29876.4349 -30.3349 20.1173
TCL: Running FEP window  17: Lambda1 0.19999999999999968 Lambda2 0.1499999999999997 [dLambda -0.04999999999999999]
TCL: Setting parameter firsttimestep to 0
TCL: Setting parameter alchLambda to 0.19999999999999968
Info: NONBONDED TABLE R-SQUARED SPACING: 0.0625
Info: NONBONDED TABLE SIZE: 705 POINTS
TCL: Setting parameter alchLambda2 to 0.1499999999999997
Info: NONBONDED TABLE R-SQUARED SPACING: 0.0625
Info: NONBONDED TABLE SIZE: 705 POINTS
TCL: Running for 1500000 steps
ETITLE: TS BOND ANGLE DIHED IMPRP ELECT VDW BOUNDARY MISC KINETIC TOTAL TEMP POTENTIAL TOTALAVG TEMPAVG PRESSURE GPRESSURE VOLUME PRESSAVG GPRESSAVG
ENERGY: 0 3.8702 4.1267 1.8960 0.0000 -10748.9468 1372.1004 0.0000 0.0000 1812.1063 -7554.8473 307.4489 -9366.9536 -7554.8473 307.4489 -513.1395 -446.7140 29876.4349 -513.1395 -446.7140
ENERGY: 300000 2.0234 1.7556 2.0325 0.0000 -10668.1165 1359.6302 0.0000 0.0000 1766.4075 -7536.2671 299.6955 -9302.6747 -7547.2026 299.5531 -690.6654 -568.7634 29984.8133 -215.5328 -137.0439
ENERGY: 600000 1.9408 3.5388 2.5872 0.0000 -10671.9644 1363.2427 0.0000 0.0000 1790.3950 -7510.2598 303.7653 -9300.6549 -7538.5079 301.7514 -795.4270 -681.3461 30484.8751 -332.4849 -241.7768
ENERGY: 900000 2.6585 2.8009 3.0076 0.0000 -10587.4087 1318.1572 0.0000 0.0000 1739.6332 -7521.1512 295.1528 -9260.7844 -7529.7232 300.9012 -529.3761 -507.1290 30159.5720 -296.5872 -232.6907
ENERGY: 1200000 1.4465 3.2670 4.2340 0.0000 -10815.7416 1500.6073 0.0000 0.0000 1778.9635 -7527.2233 301.8257 -9306.1868 -7529.9903 301.2343 678.1088 698.6098 30125.0435 -183.9688 -131.3284
ENERGY: 1500000 2.8737 1.4685 3.0889 0.0000 -10779.3079 1516.4995 0.0000 0.0000 1801.1247 -7454.2525 305.5857 -9255.3773 -7524.2180 301.4176 272.4851 353.2902 31031.0035 -119.4649 -72.6029
TCL: Running FEP window  18: Lambda1 0.1499999999999997 Lambda2 0.09999999999999969 [dLambda -0.05 ]
TCL: Setting parameter firsttimestep to 0
TCL: Setting parameter alchLambda to 0.1499999999999997
Info: NONBONDED TABLE R-SQUARED SPACING: 0.0625
Info: NONBONDED TABLE SIZE: 705 POINTS
TCL: Setting parameter alchLambda2 to 0.09999999999999969
Info: NONBONDED TABLE R-SQUARED SPACING: 0.0625
Info: NONBONDED TABLE SIZE: 705 POINTS
TCL: Running for 1500000 steps
ETITLE: TS BOND ANGLE DIHED IMPRP ELECT VDW BOUNDARY MISC KINETIC TOTAL TEMP POTENTIAL TOTALAVG TEMPAVG PRESSURE GPRESSURE VOLUME PRESSAVG GPRESSAVG
ENERGY: 0 2.8737 1.4685 3.0889 0.0000 -10779.3069 1516.5763 0.0000 0.0000 1800.2651 -7455.0345 305.4398 -9255.2995 -7455.0345 305.4398 275.7017 348.7475 31031.0035 275.7017 348.7475
ENERGY: 300000 2.6548 3.2959 2.4609 0.0000 -10772.5226 1509.1160 0.0000 0.0000 1782.4550 -7472.5399 302.4181 -9254.9950 -7480.4785 303.7637 541.1569 570.9160 30364.2877 194.5287 246.4601
ENERGY: 600000 1.4810 1.7584 4.1167 0.0000 -10788.7322 1460.6987 0.0000 0.0000 1793.3620 -7527.3155 304.2686 -9320.6774 -7507.3874 301.4084 -168.8264 -152.4847 30724.6254 33.6615 90.0206
ENERGY: 900000 3.9192 4.6064 2.5494 0.0000 -10745.9953 1433.2698 0.0000 0.0000 1742.7118 -7558.9386 295.6751 -9301.6504 -7514.5165 300.7033 -235.1222 -163.5820 30590.4764 -15.8099 36.9794
ENERGY: 1200000 2.2142 2.2992 2.1219 0.0000 -10733.4955 1398.9717 0.0000 0.0000 1762.6633 -7565.2252 299.0602 -9327.8885 -7514.0057 299.7402 -313.7123 -289.1261 30298.5975 -57.4379 0.2062
ENERGY: 1500000 1.5838 2.3471 3.1892 0.0000 -10772.4768 1461.7532 0.0000 0.0000 1792.7760 -7510.8275 304.1692 -9303.6035 -7521.8683 299.6908 12.5279 120.1213 30383.0772 -68.8833 -8.7478
TCL: Running FEP window  19: Lambda1 0.09999999999999969 Lambda2 0.049999999999999684 [dLambda -0.05 ]
TCL: Setting parameter firsttimestep to 0
TCL: Setting parameter alchLambda to 0.09999999999999969
Info: NONBONDED TABLE R-SQUARED SPACING: 0.0625
Info: NONBONDED TABLE SIZE: 705 POINTS
TCL: Setting parameter alchLambda2 to 0.049999999999999684
Info: NONBONDED TABLE R-SQUARED SPACING: 0.0625
Info: NONBONDED TABLE SIZE: 705 POINTS
TCL: Running for 1500000 steps
ETITLE: TS BOND ANGLE DIHED IMPRP ELECT VDW BOUNDARY MISC KINETIC TOTAL TEMP POTENTIAL TOTALAVG TEMPAVG PRESSURE GPRESSURE VOLUME PRESSAVG GPRESSAVG
ENERGY: 0 1.5838 2.3471 3.1892 0.0000 -10772.4779 1461.9176 0.0000 0.0000 1791.9182 -7511.5220 304.0237 -9303.4402 -7511.5220 304.0237 27.6370 116.7145 30383.0772 27.6370 116.7145
ENERGY: 300000 2.2130 2.3290 5.3856 0.0000 -10656.7431 1424.8722 0.0000 0.0000 1737.3878 -7484.5554 294.7719 -9221.9432 -7517.1888 300.5105 -427.8963 -309.2217 30956.6986 -427.2052 -337.5263
ENERGY: 600000 1.6834 2.4708 2.7861 0.0000 -10772.6116 1410.8217 0.0000 0.0000 1814.5007 -7540.3489 307.8551 -9354.8496 -7514.1676 301.3756 -598.7121 -509.6981 30912.3462 -429.7438 -353.6776
ENERGY: 900000 1.3419 2.6694 2.8476 0.0000 -10862.4292 1466.8033 0.0000 0.0000 1848.9991 -7539.7678 313.7083 -9388.7670 -7515.9840 302.7573 -29.5593 88.1869 30424.2464 -328.4202 -244.9033
ENERGY: 1200000 3.2557 3.1500 3.6887 0.0000 -10698.9095 1389.1228 0.0000 0.0000 1745.7283 -7553.9641 296.1869 -9299.6924 -7523.9756 300.8958 -722.8515 -661.3099 30782.9110 -422.4454 -342.2492
ENERGY: 1500000 4.1953 1.3960 1.8488 0.0000 -10729.9676 1411.4151 0.0000 0.0000 1720.1102 -7591.0022 291.8405 -9311.1124 -7535.1542 299.6406 -175.0273 -57.1579 30273.9634 -386.3673 -301.0669
TCL: Running FEP window  20: Lambda1 0.049999999999999684 Lambda2 0.0    [dLambda -0.049999999999999684]
TCL: Setting parameter firsttimestep to 0
TCL: Setting parameter alchLambda to 0.049999999999999684
Info: NONBONDED TABLE R-SQUARED SPACING: 0.0625
Info: NONBONDED TABLE SIZE: 705 POINTS
TCL: Setting parameter alchLambda2 to 0.0
Info: NONBONDED TABLE R-SQUARED SPACING: 0.0625
Info: NONBONDED TABLE SIZE: 705 POINTS
TCL: Running for 1500000 steps
ETITLE: TS BOND ANGLE DIHED IMPRP ELECT VDW BOUNDARY MISC KINETIC TOTAL TEMP POTENTIAL TOTALAVG TEMPAVG PRESSURE GPRESSURE VOLUME PRESSAVG GPRESSAVG
ENERGY: 0 4.1953 1.3960 1.8488 0.0000 -10729.9678 1410.4832 0.0000 0.0000 1719.2225 -7592.8220 291.6899 -9312.0445 -7592.8220 291.6899 -160.9676 -64.8206 30273.9634 -160.9676 -64.8206
ENERGY: 300000 2.5041 0.9404 3.6748 0.0000 -10700.0650 1477.8196 0.0000 0.0000 1735.5179 -7479.6082 294.4546 -9215.1261 -7527.3036 295.0249 513.9087 544.6830 30359.9187 90.6774 160.7475
ENERGY: 600000 2.5494 3.5805 3.0955 0.0000 -10890.5253 1547.5678 0.0000 0.0000 1727.8108 -7605.9214 293.1470 -9333.7322 -7555.6149 293.1609 645.6056 704.3952 30288.5983 172.2466 247.3195
ENERGY: 900000 2.1728 3.7011 2.9064 0.0000 -10843.0911 1447.2426 0.0000 0.0000 1764.0106 -7623.0576 299.2888 -9387.0682 -7562.8239 295.9336 -354.7283 -225.6051 30115.0060 56.3746 134.8348
ENERGY: 1200000 4.0370 1.9462 3.4244 0.0000 -10699.7579 1382.5681 0.0000 0.0000 1834.9467 -7472.8355 311.3241 -9307.7823 -7529.0075 299.4196 -850.8881 -760.4307 30913.3192 -97.7683 -12.3558
ENERGY: 1500000 2.0448 2.2999 3.0171 0.0000 -10699.2607 1403.3164 0.0000 0.0000 1792.2509 -7496.3315 304.0801 -9288.5824 -7529.5294 299.5299 -277.1169 -210.0813 30238.8316 -83.8497 -2.0912
TCL: Exiting due to exit command.
