Info: SIMULATION PARAMETERS:
Info: TIMESTEP               2
Info: NUMBER OF STEPS        0
Info: STEPS PER CYCLE        10
Info: PERIODIC CELL BASIS 1  30.7019 0 0
Info: PERIODIC CELL BASIS 2  0 31.0749 0
Info: PERIODIC CELL BASIS 3  0 0 31.2793
Info: PERIODIC CELL CENTER   0 0 0
Info: WRAPPING WATERS AROUND PERIODIC BOUNDARIES ON OUTPUT.
Info: WRAPPING ALL CLUSTERS AROUND PERIODIC BOUNDARIES ON OUTPUT.
Info: FIRST LDB TIMESTEP     50
Info: LAST LDB TIMESTEP     -1
Info: HOM BACKGROUND SCALING 1
Info: PME BACKGROUND SCALING 1
Info: MIN ATOMS PER PATCH    40
Info: EMPTY PATCH LOAD       40 ATOMS
Info: VELOCITY FILE          mobley_8882696_equil.vel
Info: CENTER OF MASS MOVING INITIALLY? NO
Info: DIELECTRIC             1
Info: EXCLUDE                SCALED ONE-FOUR
Info: 1-4 ELECTROSTATICS SCALED BY 0.833333
Info: MODIFIED 1-4 VDW PARAMETERS WILL BE USED
Info: DCD FILENAME           mobley_8882696_prod.dcd
Info: DCD FREQUENCY          100000
Info: DCD FIRST STEP         100000
Info: DCD FILE WILL CONTAIN UNIT CELL DATA
Info: XST FILENAME           mobley_8882696_prod.xst
Info: XST FREQUENCY          100000
Info: NO VELOCITY DCD OUTPUT
Info: NO FORCE DCD OUTPUT
Info: OUTPUT FILENAME        mobley_8882696_prod
Info: BINARY OUTPUT FILES WILL BE USED
Info: RESTART FILENAME       mobley_8882696_prod.restart
Info: RESTART FREQUENCY      100000
Info: BINARY RESTART FILES WILL BE USED
Info: CUTOFF                 9
Info: PAIRLIST DISTANCE      11
Info: PAIRLIST SHRINK RATE   0.01
Info: PAIRLIST GROW RATE     0.01
Info: PAIRLIST TRIGGER       0.3
Info: PAIRLISTS PER CYCLE    2
Info: PAIRLISTS ENABLED
Info: MARGIN                 2
Info: HYDROGEN GROUP CUTOFF  2.5
Info: PATCH DIMENSION        15.5
Info: ENERGY OUTPUT STEPS    100000
Info: ENERGY EVALUATION STEPS    100000
Info: OUTPUT ENERGY PRECISION 4
Info: CROSSTERM ENERGY INCLUDED IN DIHEDRAL
Info: TIMING OUTPUT STEPS    1000000
Info: PRESSURE OUTPUT STEPS  100000
Info: ALCHEMICAL FEP ON
Info: FEP CURRENT LAMBDA VALUE     0
Info: FEP COMPARISON LAMBDA VALUE  0.05
Info: FEP INTRA-ALCHEMICAL NON-BONDED INTERACTIONS WILL BE RETAINED
Info: FEP INTRA-ALCHEMICAL BONDED INTERACTIONS WILL BE RETAINED
Info: FEP VDW SHIFTING COEFFICIENT 5
Info: FEP ELEC. ACTIVE FOR ANNIHILATED PARTICLES BETWEEN LAMBDA = 0 AND LAMBDA = 0.5
Info: FEP ELEC. ACTIVE FOR EXNIHILATED PARTICLES BETWEEN LAMBDA = 0.5 AND LAMBDA = 1
Info: FEP VDW ACTIVE FOR ANNIHILATED PARTICLES BETWEEN LAMBDA = 0 AND LAMBDA = 1
Info: FEP VDW ACTIVE FOR EXNIHILATED PARTICLES BETWEEN LAMBDA = 0 AND LAMBDA = 1
Info: FEP BOND ACTIVE FOR ANNIHILATED PARTICLES BETWEEN LAMBDA = 1 AND LAMBDA = 1
Info: FEP BOND ACTIVE FOR EXNIHILATED PARTICLES BETWEEN LAMBDA = 0 AND LAMBDA = 0
Info: LANGEVIN DYNAMICS ACTIVE
Info: LANGEVIN TEMPERATURE   300
Info: LANGEVIN USING BBK INTEGRATOR
Info: LANGEVIN DAMPING COEFFICIENT IS 1 INVERSE PS
Info: LANGEVIN DYNAMICS APPLIED TO HYDROGENS
Info: LANGEVIN PISTON PRESSURE CONTROL ACTIVE
Info:        TARGET PRESSURE IS 1.01325 BAR
Info:     OSCILLATION PERIOD IS 50 FS
Info:             DECAY TIME IS 25 FS
Info:     PISTON TEMPERATURE IS 300 K
Info:       PRESSURE CONTROL IS GROUP-BASED
Info:    INITIAL STRAIN RATE IS 0.00029288 0.00029288 0.00029288
Info:       CELL FLUCTUATION IS ISOTROPIC
Info: PARTICLE MESH EWALD (PME) ACTIVE
Info: PME TOLERANCE               1e-06
Info: PME EWALD COEFFICIENT       0.348832
Info: PME INTERPOLATION ORDER     4
Info: PME GRID DIMENSIONS         32 32 32
Info: PME MAXIMUM GRID SPACING    1
Info: PME CALCULATION WILL BE PERFORMED ON GPU
Info: FULL ELECTROSTATIC EVALUATION FREQUENCY      2
Info: USING VERLET I (r-RESPA) MTS SCHEME.
Info: C1 SPLITTING OF LONG RANGE ELECTROSTATICS
Info: PLACING ATOMS IN PATCHES BY HYDROGEN GROUPS
Info: RIGID BONDS TO HYDROGEN : ALL
Info:         ERROR TOLERANCE : 1e-08
Info:          MAX ITERATIONS : 100
Info: RIGID WATER USING SETTLE ALGORITHM
Info: RANDOM NUMBER SEED     1743552734
Info: USE HYDROGEN BONDS?    NO
Info: Using AMBER format force field!
Info: AMBER PARM FILE        mobley_8882696.prmtop
Info: COORDINATE PDB         mobley_8882696.pdb
Info: Exclusions will be read from PARM file!
Info: SCNB (VDW SCALING)     2
Info: USING ARITHMETIC MEAN TO COMBINE L-J SIGMA PARAMETERS
Info: BINARY COORDINATES     mobley_8882696_equil.coor
Info: SUMMARY OF PARAMETERS:
Info: 6 BONDS
Info: 8 ANGLES
Info:   8 HARMONIC
Info:   0 COSINE-BASED
Info: 11 DIHEDRAL
Info: 0 IMPROPER
Info: 0 CROSSTERM
Info: 0 VDW
Info: 21 VDW_PAIRS
Info: 0 NBTHOLE_PAIRS
Info: To read alchdata from file: mobley_8882696.pdb
Info: To read alchflag data from column: 5
Info: STRUCTURE SUMMARY:
Info: 2920 ATOMS
Info: 2920 BONDS
Info: 25 ANGLES
Info: 41 DIHEDRALS
Info: 0 IMPROPERS
Info: 0 CROSSTERMS
Info: 2973 EXCLUSIONS
Info: 2915 RIGID BONDS
Info: ALCH: 0 ATOMS TO DISAPPEAR IN FINAL STATE
Info: ALCH: 13 ATOMS TO APPEAR IN FINAL STATE
Info: 5845 DEGREES OF FREEDOM
Info: 974 HYDROGEN GROUPS
Info: 3 ATOMS IN LARGEST HYDROGEN GROUP
Info: 974 MIGRATION GROUPS
Info: 3 ATOMS IN LARGEST MIGRATION GROUP
Info: TOTAL MASS = 17529.6 amu
Info: TOTAL CHARGE = -0.000100002 e
Info: MASS DENSITY = 0.975438 g/cm^3
Info: ATOM DENSITY = 0.0978478 atoms/A^3
Info: ADDED 0 IMPLICIT EXCLUSIONS
Info: NONBONDED TABLE R-SQUARED SPACING: 0.0625
Info: NONBONDED TABLE SIZE: 705 POINTS
Info: REMOVING COM VELOCITY -0.0793383 -0.165004 -0.0100879
Info: Use 3D box decompostion in PME FFT.
Info: Updated CUDA force table with 4096 elements.
Info: Updated CUDA LJ table with 6 x 6 elements.
Info: Found 16 unique exclusion lists needing 32 bytes
TCL: Running for 1500000 steps
ETITLE: TS BOND ANGLE DIHED IMPRP ELECT VDW BOUNDARY MISC KINETIC TOTAL TEMP POTENTIAL TOTALAVG TEMPAVG PRESSURE GPRESSURE VOLUME PRESSAVG GPRESSAVG
ENERGY: 0 1.3915 5.2536 10.1990 0.0000 -10585.9820 1405.7733 0.0000 0.0000 1742.4953 -7420.8693 300.0389 -9163.3646 -7420.8693 300.0389 -198.5769 -117.6233 29842.2691 -198.5769 -117.6233
ENERGY: 300000 1.7631 10.2902 7.1833 0.0000 -10675.4072 1427.3793 0.0000 0.0000 1744.2527 -7484.5385 300.3415 -9228.7913 -7416.9453 303.4607 223.5159 215.7334 29228.5816 -12.2206 49.8094
ENERGY: 600000 1.8216 9.0526 7.9217 0.0000 -10517.2411 1352.6879 0.0000 0.0000 1836.5912 -7309.1660 316.2411 -9145.7572 -7385.4513 305.5646 -520.7921 -428.9271 30011.2521 38.9595 111.2231
ENERGY: 900000 0.3552 7.7050 8.5889 0.0000 -10510.2941 1355.4225 0.0000 0.0000 1755.3980 -7382.8247 302.2605 -9138.2226 -7391.5637 304.6994 -629.5551 -573.8456 30198.5008 -21.1125 49.4315
ENERGY: 1200000 0.3077 9.3397 8.1883 0.0000 -10535.1857 1436.1044 0.0000 0.0000 1782.3840 -7298.8617 306.9072 -9081.2457 -7386.8415 303.7297 256.9613 348.8690 30124.9787 3.3451 68.7368
ENERGY: 1500000 1.2645 9.3193 10.1016 0.0000 -10649.5981 1472.3514 0.0000 0.0000 1708.6286 -7447.9327 294.2074 -9156.5613 -7391.7199 302.3497 412.7720 399.2612 29967.7515 6.4298 62.4555
TCL: Running FEP window   2: Lambda1 0.05   Lambda2 0.1    [dLambda 0.05  ]
TCL: Setting parameter firsttimestep to 0
TCL: Setting parameter alchLambda to 0.05
Info: NONBONDED TABLE R-SQUARED SPACING: 0.0625
Info: NONBONDED TABLE SIZE: 705 POINTS
TCL: Setting parameter alchLambda2 to 0.1
Info: NONBONDED TABLE R-SQUARED SPACING: 0.0625
Info: NONBONDED TABLE SIZE: 705 POINTS
TCL: Running for 1500000 steps
ETITLE: TS BOND ANGLE DIHED IMPRP ELECT VDW BOUNDARY MISC KINETIC TOTAL TEMP POTENTIAL TOTALAVG TEMPAVG PRESSURE GPRESSURE VOLUME PRESSAVG GPRESSAVG
ENERGY: 0 1.2645 9.3193 10.1016 0.0000 -10649.5985 1474.3485 0.0000 0.0000 1707.7728 -7446.7918 294.0600 -9154.5646 -7446.7918 294.0600 331.9969 405.7700 29967.7515 331.9969 405.7700
ENERGY: 300000 0.6355 6.2562 10.4917 0.0000 -10486.7553 1408.3862 0.0000 0.0000 1783.1023 -7277.8834 307.0309 -9060.9857 -7337.2025 302.5078 232.8241 328.7745 29637.7414 303.1928 365.2783
ENERGY: 600000 0.6758 10.3551 6.8687 0.0000 -10589.6686 1431.6159 0.0000 0.0000 1769.6355 -7370.5176 304.7121 -9140.1531 -7353.8273 302.2495 108.1327 188.2380 29694.2257 183.3419 242.7193
ENERGY: 900000 1.3000 9.4574 9.0856 0.0000 -10489.5296 1432.1236 0.0000 0.0000 1741.3349 -7296.2280 299.8390 -9037.5630 -7351.0822 303.2997 389.0273 497.4736 29801.1888 212.7374 276.1331
ENERGY: 1200000 1.1302 7.2420 8.6335 0.0000 -10578.7386 1419.2399 0.0000 0.0000 1712.7835 -7429.7094 294.9228 -9142.4929 -7358.9724 303.1450 213.2870 288.1637 29422.3096 142.4730 208.3249
ENERGY: 1500000 0.7418 8.0444 9.4424 0.0000 -10417.9930 1393.0343 0.0000 0.0000 1767.4964 -7239.2336 304.3438 -9006.7300 -7352.9014 302.5811 181.9421 99.9162 30108.4584 92.5611 148.3373
TCL: Running FEP window   3: Lambda1 0.1    Lambda2 0.15000000000000002 [dLambda 0.05000000000000002]
TCL: Setting parameter firsttimestep to 0
TCL: Setting parameter alchLambda to 0.1
Info: NONBONDED TABLE R-SQUARED SPACING: 0.0625
Info: NONBONDED TABLE SIZE: 705 POINTS
TCL: Setting parameter alchLambda2 to 0.15000000000000002
Info: NONBONDED TABLE R-SQUARED SPACING: 0.0625
Info: NONBONDED TABLE SIZE: 705 POINTS
TCL: Running for 1500000 steps
ETITLE: TS BOND ANGLE DIHED IMPRP ELECT VDW BOUNDARY MISC KINETIC TOTAL TEMP POTENTIAL TOTALAVG TEMPAVG PRESSURE GPRESSURE VOLUME PRESSAVG GPRESSAVG
ENERGY: 0 0.7419 8.0444 9.4424 0.0000 -10417.9929 1393.9739 0.0000 0.0000 1766.6276 -7239.1627 304.1942 -9005.7903 -7239.1627 304.1942 40.1631 104.0162 30108.4584 40.1631 104.0162
ENERGY: 300000 1.9833 5.4996 10.3446 0.0000 -10460.8799 1317.0824 0.0000 0.0000 1739.3070 -7386.6630 299.4899 -9125.9700 -7362.9145 303.3870 -802.8744 -727.8883 30401.5369 -163.4555 -127.2013
ENERGY: 600000 0.8465 7.7181 7.5996 0.0000 -10610.9627 1450.4943 0.0000 0.0000 1756.7080 -7387.5962 302.4861 -9144.3042 -7366.8353 303.1789 30.4354 109.6192 30176.5227 -62.9813 -16.1999
ENERGY: 900000 1.9659 9.4621 6.9535 0.0000 -10786.5186 1567.3056 0.0000 0.0000 1742.6455 -7458.1860 300.0647 -9200.8315 -7386.5032 302.3761 751.8732 805.1811 30157.5464 -9.3667 40.7619
ENERGY: 1200000 2.0711 8.5359 9.1225 0.0000 -10396.7854 1331.7594 0.0000 0.0000 1725.6660 -7319.6305 297.1410 -9045.2965 -7390.1697 302.8152 -622.0274 -543.3106 30361.8670 -89.2387 -23.9779
ENERGY: 1500000 1.3889 8.9423 6.5117 0.0000 -10649.5941 1420.5152 0.0000 0.0000 1728.6891 -7483.5470 297.6616 -9212.2361 -7400.4055 302.2778 -333.4859 -254.5222 29794.5878 -106.7416 -38.7526
TCL: Running FEP window   4: Lambda1 0.15000000000000002 Lambda2 0.2    [dLambda 0.04999999999999999]
TCL: Setting parameter firsttimestep to 0
TCL: Setting parameter alchLambda to 0.15000000000000002
Info: NONBONDED TABLE R-SQUARED SPACING: 0.0625
Info: NONBONDED TABLE SIZE: 705 POINTS
TCL: Setting parameter alchLambda2 to 0.2
Info: NONBONDED TABLE R-SQUARED SPACING: 0.0625
Info: NONBONDED TABLE SIZE: 705 POINTS
TCL: Running for 1500000 steps
ETITLE: TS BOND ANGLE DIHED IMPRP ELECT VDW BOUNDARY MISC KINETIC TOTAL TEMP POTENTIAL TOTALAVG TEMPAVG PRESSURE GPRESSURE VOLUME PRESSAVG GPRESSAVG
ENERGY: 0 1.3889 8.9423 6.5117 0.0000 -10649.5941 1421.5404 0.0000 0.0000 1727.8413 -7483.3697 297.5156 -9211.2110 -7483.3697 297.5156 -322.1582 -246.2657 29794.5878 -322.1582 -246.2657
ENERGY: 300000 2.2556 10.2630 6.1785 0.0000 -10491.5522 1386.2991 0.0000 0.0000 1758.1877 -7328.3683 302.7409 -9086.5560 -7422.1802 301.3371 -310.1009 -217.0993 30151.0178 45.5323 124.8345
ENERGY: 600000 0.8539 11.0128 6.9762 0.0000 -10483.8111 1379.7968 0.0000 0.0000 1814.9653 -7270.2060 312.5174 -9085.1713 -7399.0622 302.5397 -23.9948 32.0395 29642.0486 -203.2835 -132.4479
ENERGY: 900000 0.9595 11.7031 5.7643 0.0000 -10589.9427 1426.7923 0.0000 0.0000 1741.9223 -7402.8012 299.9402 -9144.7235 -7400.0562 301.7339 356.0679 362.7888 29492.6744 46.0394 108.1949
ENERGY: 1200000 1.2067 5.0241 8.9986 0.0000 -10570.3644 1429.9831 0.0000 0.0000 1746.6640 -7378.4879 300.7566 -9125.1518 -7397.2839 301.4912 107.4180 104.1692 30220.8531 79.3241 127.4101
ENERGY: 1500000 1.5721 9.6202 7.2417 0.0000 -10560.3939 1434.5628 0.0000 0.0000 1763.8413 -7343.5557 303.7144 -9107.3970 -7395.0249 301.8932 258.0601 286.8062 29854.4114 47.2358 96.9106
TCL: Running FEP window   5: Lambda1 0.2    Lambda2 0.25   [dLambda 0.04999999999999999]
TCL: Setting parameter firsttimestep to 0
TCL: Setting parameter alchLambda to 0.2
Info: NONBONDED TABLE R-SQUARED SPACING: 0.0625
Info: NONBONDED TABLE SIZE: 705 POINTS
TCL: Setting parameter alchLambda2 to 0.25
Info: NONBONDED TABLE R-SQUARED SPACING: 0.0625
Info: NONBONDED TABLE SIZE: 705 POINTS
TCL: Running for 1500000 steps
ETITLE: TS BOND ANGLE DIHED IMPRP ELECT VDW BOUNDARY MISC KINETIC TOTAL TEMP POTENTIAL TOTALAVG TEMPAVG PRESSURE GPRESSURE VOLUME PRESSAVG GPRESSAVG
ENERGY: 0 1.5721 9.6202 7.2417 0.0000 -10560.3942 1435.6786 0.0000 0.0000 1762.9881 -7343.2935 303.5675 -9106.2815 -7343.2935 303.5675 226.3155 295.8301 29854.4114 226.3155 295.8301
ENERGY: 300000 3.6336 11.5479 7.2712 0.0000 -10421.3088 1385.6234 0.0000 0.0000 1708.7013 -7304.5314 294.2199 -9013.2327 -7362.2777 303.2929 -151.2903 -105.2587 30627.9345 440.9904 476.8132
ENERGY: 600000 3.0353 8.9062 6.7343 0.0000 -10469.2879 1342.5691 0.0000 0.0000 1718.9410 -7389.1020 295.9830 -9108.0430 -7364.6759 301.8356 -641.5921 -632.8405 30273.9430 -27.1126 -0.1760
ENERGY: 900000 3.3984 6.7441 7.4730 0.0000 -10583.6161 1448.1400 0.0000 0.0000 1774.5273 -7343.3333 305.5544 -9117.8606 -7355.4407 301.4821 333.8954 392.9222 30011.4567 58.2233 99.7056
ENERGY: 1200000 0.6928 8.5602 10.0010 0.0000 -10655.4336 1460.0666 0.0000 0.0000 1785.5300 -7390.5831 307.4490 -9176.1130 -7356.5762 302.7437 356.9275 468.8781 29502.4403 70.3291 110.9847
ENERGY: 1500000 0.9989 8.8565 8.0453 0.0000 -10656.2690 1448.6699 0.0000 0.0000 1680.9754 -7508.7231 289.4458 -9189.6985 -7371.9879 301.3429 -101.9372 -47.4370 29892.4650 45.8160 95.0493
TCL: Running FEP window   6: Lambda1 0.25   Lambda2 0.3    [dLambda 0.04999999999999999]
TCL: Setting parameter firsttimestep to 0
TCL: Setting parameter alchLambda to 0.25
Info: NONBONDED TABLE R-SQUARED SPACING: 0.0625
Info: NONBONDED TABLE SIZE: 705 POINTS
TCL: Setting parameter alchLambda2 to 0.3
Info: NONBONDED TABLE R-SQUARED SPACING: 0.0625
Info: NONBONDED TABLE SIZE: 705 POINTS
TCL: Running for 1500000 steps
ETITLE: TS BOND ANGLE DIHED IMPRP ELECT VDW BOUNDARY MISC KINETIC TOTAL TEMP POTENTIAL TOTALAVG TEMPAVG PRESSURE GPRESSURE VOLUME PRESSAVG GPRESSAVG
ENERGY: 0 0.9989 8.8565 8.0453 0.0000 -10656.2692 1448.7155 0.0000 0.0000 1680.0813 -7509.5718 289.2918 -9189.6531 -7509.5718 289.2918 -132.4058 -45.3542 29892.4650 -132.4058 -45.3542
ENERGY: 300000 0.9525 12.2998 6.1698 0.0000 -10576.4535 1417.2929 0.0000 0.0000 1782.8540 -7356.8845 306.9882 -9139.7385 -7361.2674 302.8741 -0.5662 -29.9163 29713.2109 13.0405 47.5244
ENERGY: 600000 0.5749 6.5779 7.9168 0.0000 -10647.8464 1451.7542 0.0000 0.0000 1716.9604 -7464.0622 295.6420 -9181.0225 -7388.0819 300.6762 -144.5454 -86.0370 30261.9364 -255.6069 -213.2950
ENERGY: 900000 0.8538 6.5262 7.7527 0.0000 -10610.5766 1447.4120 0.0000 0.0000 1785.0162 -7363.0157 307.3605 -9148.0319 -7394.7260 301.0168 170.0218 235.1549 29887.8183 -65.3451 -16.7812
ENERGY: 1200000 2.3693 10.5046 6.7487 0.0000 -10572.2819 1411.9106 0.0000 0.0000 1811.3249 -7329.4238 311.8906 -9140.7488 -7378.2196 301.5912 180.1961 300.4471 29822.8465 -40.9129 6.1874
ENERGY: 1500000 1.1078 8.8632 7.0209 0.0000 -10602.5274 1406.8435 0.0000 0.0000 1772.3826 -7406.3093 305.1851 -9178.6920 -7380.3543 302.0830 -515.0896 -508.8524 30502.2621 -79.8607 -33.1803
TCL: Running FEP window   7: Lambda1 0.3    Lambda2 0.35   [dLambda 0.04999999999999999]
TCL: Setting parameter firsttimestep to 0
TCL: Setting parameter alchLambda to 0.3
Info: NONBONDED TABLE R-SQUARED SPACING: 0.0625
Info: NONBONDED TABLE SIZE: 705 POINTS
TCL: Setting parameter alchLambda2 to 0.35
Info: NONBONDED TABLE R-SQUARED SPACING: 0.0625
Info: NONBONDED TABLE SIZE: 705 POINTS
TCL: Running for 1500000 steps
ETITLE: TS BOND ANGLE DIHED IMPRP ELECT VDW BOUNDARY MISC KINETIC TOTAL TEMP POTENTIAL TOTALAVG TEMPAVG PRESSURE GPRESSURE VOLUME PRESSAVG GPRESSAVG
ENERGY: 0 1.1078 8.8632 7.0209 0.0000 -10602.5269 1407.0652 0.0000 0.0000 1771.5123 -7406.9574 305.0353 -9178.4698 -7406.9574 305.0353 -585.4028 -504.7503 30502.2621 -585.4028 -504.7503
ENERGY: 300000 1.1335 9.8065 7.9483 0.0000 -10596.4723 1477.3425 0.0000 0.0000 1734.6427 -7365.5986 298.6867 -9100.2414 -7391.0105 298.5541 409.8098 399.5574 30105.9300 4.5862 54.9297
ENERGY: 600000 0.8618 6.0390 8.4730 0.0000 -10480.8859 1375.5001 0.0000 0.0000 1719.0166 -7370.9953 295.9961 -9090.0119 -7407.3553 297.4451 -115.5917 -2.0767 29727.5240 -29.8465 23.4749
ENERGY: 900000 1.1278 8.3697 9.2548 0.0000 -10653.8407 1485.8750 0.0000 0.0000 1714.3500 -7434.8635 295.1925 -9149.2135 -7404.0364 298.3942 608.6848 710.0781 29442.1207 77.8470 147.5573
ENERGY: 1200000 2.2604 9.7056 7.3316 0.0000 -10574.5405 1489.6303 0.0000 0.0000 1724.7560 -7340.8566 296.9843 -9065.6127 -7396.2956 298.8557 492.3432 574.0298 30138.9056 89.3316 158.5382
ENERGY: 1500000 0.8500 12.8735 7.8267 0.0000 -10592.0132 1480.3263 0.0000 0.0000 1736.3681 -7353.7685 298.9838 -9090.1366 -7388.3092 299.0966 542.1874 551.9483 30040.4588 107.9154 169.4951
TCL: Running FEP window   8: Lambda1 0.35   Lambda2 0.39999999999999997 [dLambda 0.04999999999999999]
TCL: Setting parameter firsttimestep to 0
TCL: Setting parameter alchLambda to 0.35
Info: NONBONDED TABLE R-SQUARED SPACING: 0.0625
Info: NONBONDED TABLE SIZE: 705 POINTS
TCL: Setting parameter alchLambda2 to 0.39999999999999997
Info: NONBONDED TABLE R-SQUARED SPACING: 0.0625
Info: NONBONDED TABLE SIZE: 705 POINTS
TCL: Running for 1500000 steps
ETITLE: TS BOND ANGLE DIHED IMPRP ELECT VDW BOUNDARY MISC KINETIC TOTAL TEMP POTENTIAL TOTALAVG TEMPAVG PRESSURE GPRESSURE VOLUME PRESSAVG GPRESSAVG
ENERGY: 0 0.8500 12.8735 7.8267 0.0000 -10592.0134 1480.9972 0.0000 0.0000 1735.4917 -7353.9742 298.8329 -9089.4659 -7353.9742 298.8329 474.2139 559.3193 30040.4588 474.2139 559.3193
ENERGY: 300000 0.9896 6.6595 8.1173 0.0000 -10698.2464 1388.3299 0.0000 0.0000 1769.9886 -7524.1615 304.7729 -9294.1501 -7432.3553 302.7720 -538.7407 -498.8391 29722.9272 -15.9236 32.3138
ENERGY: 600000 1.6350 6.4142 8.6076 0.0000 -10666.8779 1490.6273 0.0000 0.0000 1756.8881 -7402.7057 302.5171 -9159.5937 -7418.1794 302.1924 551.7865 621.8391 29624.6635 138.0796 184.6701
ENERGY: 900000 2.6666 5.7898 9.0010 0.0000 -10559.5749 1446.0857 0.0000 0.0000 1713.2963 -7382.7355 295.0111 -9096.0317 -7417.5730 301.4119 169.4307 253.3991 30116.0376 199.8325 256.8102
ENERGY: 1200000 2.0821 8.4956 8.9373 0.0000 -10670.7933 1457.0592 0.0000 0.0000 1750.4482 -7443.7710 301.4082 -9194.2192 -7417.1429 300.4966 119.1027 182.0723 29988.7207 151.9207 204.4897
ENERGY: 1500000 5.6451 9.7892 6.7172 0.0000 -10410.9944 1323.8292 0.0000 0.0000 1750.4723 -7314.5413 301.4124 -9065.0136 -7420.8720 299.7499 -800.8586 -812.9304 30281.1286 67.9133 116.3542
TCL: Running FEP window   9: Lambda1 0.39999999999999997 Lambda2 0.44999999999999996 [dLambda 0.04999999999999999]
TCL: Setting parameter firsttimestep to 0
TCL: Setting parameter alchLambda to 0.39999999999999997
Info: NONBONDED TABLE R-SQUARED SPACING: 0.0625
Info: NONBONDED TABLE SIZE: 705 POINTS
TCL: Setting parameter alchLambda2 to 0.44999999999999996
Info: NONBONDED TABLE R-SQUARED SPACING: 0.0625
Info: NONBONDED TABLE SIZE: 705 POINTS
TCL: Running for 1500000 steps
ETITLE: TS BOND ANGLE DIHED IMPRP ELECT VDW BOUNDARY MISC KINETIC TOTAL TEMP POTENTIAL TOTALAVG TEMPAVG PRESSURE GPRESSURE VOLUME PRESSAVG GPRESSAVG
ENERGY: 0 5.6451 9.7892 6.7172 0.0000 -10410.9945 1324.2774 0.0000 0.0000 1749.6050 -7314.9606 301.2631 -9064.5656 -7314.9606 301.2631 -883.8947 -807.8556 30281.1286 -883.8947 -807.8556
ENERGY: 300000 2.1417 6.0087 9.1942 0.0000 -10618.1292 1480.0582 0.0000 0.0000 1763.5925 -7357.1340 303.6716 -9120.7265 -7349.2286 300.6225 651.2864 703.6599 29767.9192 -58.2319 -2.9722
ENERGY: 600000 2.2343 8.4771 7.8316 0.0000 -10562.8843 1400.8607 0.0000 0.0000 1772.2558 -7371.2248 305.1633 -9143.4805 -7381.5984 299.5206 -182.7583 -120.7951 30019.2831 -74.1396 -14.1201
ENERGY: 900000 1.5577 9.7296 8.1353 0.0000 -10451.1045 1349.5021 0.0000 0.0000 1760.5625 -7321.6172 303.1498 -9082.1797 -7392.8953 299.1852 -620.8340 -568.7094 30154.5981 -234.9292 -178.2464
ENERGY: 1200000 1.4052 9.9000 7.0622 0.0000 -10561.2491 1414.7668 0.0000 0.0000 1752.2629 -7375.8521 301.7207 -9128.1150 -7387.8485 299.5637 179.3079 203.4798 29688.5458 -210.2364 -155.4065
ENERGY: 1500000 0.9889 14.3742 6.0736 0.0000 -10491.2174 1369.3118 0.0000 0.0000 1742.6997 -7357.7693 300.0740 -9100.4689 -7397.9607 298.5297 -830.9780 -783.4775 31043.9329 -233.1968 -177.8152
TCL: Running FEP window  10: Lambda1 0.44999999999999996 Lambda2 0.49999999999999994 [dLambda 0.04999999999999999]
TCL: Setting parameter firsttimestep to 0
TCL: Setting parameter alchLambda to 0.44999999999999996
Info: NONBONDED TABLE R-SQUARED SPACING: 0.0625
Info: NONBONDED TABLE SIZE: 705 POINTS
TCL: Setting parameter alchLambda2 to 0.49999999999999994
Info: NONBONDED TABLE R-SQUARED SPACING: 0.0625
Info: NONBONDED TABLE SIZE: 705 POINTS
TCL: Running for 1500000 steps
ETITLE: TS BOND ANGLE DIHED IMPRP ELECT VDW BOUNDARY MISC KINETIC TOTAL TEMP POTENTIAL TOTALAVG TEMPAVG PRESSURE GPRESSURE VOLUME PRESSAVG GPRESSAVG
ENERGY: 0 0.9889 14.3742 6.0736 0.0000 -10491.2181 1369.1107 0.0000 0.0000 1741.8204 -7358.8502 299.9226 -9100.6706 -7358.8502 299.9226 -852.4092 -780.4248 31043.9329 -852.4092 -780.4248
ENERGY: 300000 1.5836 8.5462 9.2144 0.0000 -10664.0578 1431.4263 0.0000 0.0000 1753.4078 -7459.8795 301.9179 -9213.2873 -7418.6110 302.5291 -93.9861 -99.2578 29887.6664 73.0651 134.6721
ENERGY: 600000 1.5441 7.1278 8.3960 0.0000 -10740.0869 1505.0980 0.0000 0.0000 1719.3969 -7498.5241 296.0616 -9217.9210 -7436.1793 300.5964 588.1535 615.7262 29718.8863 96.9435 159.4515
ENERGY: 900000 3.0094 8.7582 6.5930 0.0000 -10452.2126 1307.2545 0.0000 0.0000 1753.9264 -7372.6711 302.0072 -9126.5976 -7412.3564 302.3668 -896.4131 -839.0213 30317.2792 -121.8573 -63.3867
ENERGY: 1200000 2.7869 7.9256 9.3191 0.0000 -10403.3918 1252.6304 0.0000 0.0000 1733.4482 -7397.2817 298.4810 -9130.7298 -7398.4858 301.9135 -1513.0627 -1405.9684 30161.1323 -255.9593 -192.1707
ENERGY: 1500000 1.2803 8.7953 6.6113 0.0000 -10642.6814 1459.9690 0.0000 0.0000 1762.0756 -7403.9498 303.4104 -9166.0254 -7400.8690 301.4524 260.4992 344.9026 29876.1157 -184.4098 -120.0318
TCL: Running FEP window  11: Lambda1 0.49999999999999994 Lambda2 0.5499999999999999 [dLambda 0.04999999999999999]
TCL: Setting parameter firsttimestep to 0
TCL: Setting parameter alchLambda to 0.49999999999999994
Info: NONBONDED TABLE R-SQUARED SPACING: 0.0625
Info: NONBONDED TABLE SIZE: 705 POINTS
TCL: Setting parameter alchLambda2 to 0.5499999999999999
Info: NONBONDED TABLE R-SQUARED SPACING: 0.0625
Info: NONBONDED TABLE SIZE: 705 POINTS
TCL: Running for 1500000 steps
ETITLE: TS BOND ANGLE DIHED IMPRP ELECT VDW BOUNDARY MISC KINETIC TOTAL TEMP POTENTIAL TOTALAVG TEMPAVG PRESSURE GPRESSURE VOLUME PRESSAVG GPRESSAVG
ENERGY: 0 1.2803 8.7953 6.6113 0.0000 -10642.6806 1460.0269 0.0000 0.0000 1761.1883 -7404.7784 303.2576 -9165.9667 -7404.7784 303.2576 260.2616 352.2140 29876.1157 260.2616 352.2140
ENERGY: 300000 1.2992 10.9074 6.1029 0.0000 -10432.3633 1312.7679 0.0000 0.0000 1704.7997 -7396.4861 293.5481 -9101.2858 -7351.9038 303.1530 -717.0204 -609.2759 29952.5126 6.7183 80.0172
ENERGY: 600000 0.2943 10.7830 7.6723 0.0000 -10494.2964 1383.6110 0.0000 0.0000 1762.7218 -7329.2140 303.5216 -9091.9357 -7381.5475 300.9498 -213.6351 -181.9325 30265.6029 -33.3775 27.1800
ENERGY: 900000 1.4829 12.9817 7.0906 0.0000 -10654.7322 1437.0601 0.0000 0.0000 1770.6955 -7425.4214 304.8946 -9196.1169 -7382.8263 301.1118 74.6661 150.2635 29893.9753 52.1855 113.7263
ENERGY: 1200000 2.1711 13.7610 7.6409 0.0000 -10543.3036 1369.9539 0.0000 0.0000 1733.6948 -7416.0819 298.5235 -9149.7768 -7385.2039 301.8461 -731.1777 -694.3737 30136.2931 -17.6805 39.8264
ENERGY: 1500000 0.5852 7.2380 9.3081 0.0000 -10582.1627 1346.5824 0.0000 0.0000 1782.9826 -7435.4664 307.0103 -9218.4490 -7390.1834 302.3304 -633.6629 -570.0379 30006.4837 24.7771 82.7950
TCL: Running FEP window  12: Lambda1 0.5499999999999999 Lambda2 0.6    [dLambda 0.050000000000000044]
TCL: Setting parameter firsttimestep to 0
TCL: Setting parameter alchLambda to 0.5499999999999999
Info: NONBONDED TABLE R-SQUARED SPACING: 0.0625
Info: NONBONDED TABLE SIZE: 705 POINTS
TCL: Setting parameter alchLambda2 to 0.6
Info: NONBONDED TABLE R-SQUARED SPACING: 0.0625
Info: NONBONDED TABLE SIZE: 705 POINTS
TCL: Running for 1500000 steps
ETITLE: TS BOND ANGLE DIHED IMPRP ELECT VDW BOUNDARY MISC KINETIC TOTAL TEMP POTENTIAL TOTALAVG TEMPAVG PRESSURE GPRESSURE VOLUME PRESSAVG GPRESSAVG
ENERGY: 0 0.5852 7.2380 9.3081 0.0000 -10582.7331 1346.3677 0.0000 0.0000 1782.1472 -7437.0869 306.8665 -9219.2340 -7437.0869 306.8665 -655.6581 -566.7790 30006.4837 -655.6581 -566.7790
ENERGY: 300000 1.1685 6.3755 9.5358 0.0000 -10644.0500 1474.5912 0.0000 0.0000 1764.7073 -7387.6717 303.8635 -9152.3790 -7389.1696 304.6547 285.2208 373.8348 29933.4836 311.1123 388.5660
ENERGY: 600000 5.7295 6.2752 7.5230 0.0000 -10590.2299 1435.5720 0.0000 0.0000 1698.1396 -7436.9905 292.4013 -9135.1301 -7411.0312 301.3459 -70.3494 -37.0561 30043.6737 135.0805 202.3337
ENERGY: 900000 1.2460 12.0061 6.4948 0.0000 -10585.5551 1481.7747 0.0000 0.0000 1701.8003 -7382.2332 293.0316 -9084.0335 -7400.8328 300.0487 560.6696 516.2031 30290.3266 162.9403 218.1891
ENERGY: 1200000 4.9675 8.2509 6.7495 0.0000 -10555.9813 1415.2387 0.0000 0.0000 1735.8345 -7384.9402 298.8919 -9120.7748 -7406.3884 299.1642 321.4664 392.1717 29498.7808 156.0177 214.2686
ENERGY: 1500000 3.9771 9.7677 8.1599 0.0000 -10517.1552 1414.0102 0.0000 0.0000 1728.6464 -7352.5938 297.6542 -9081.2403 -7397.1597 298.5901 10.1132 42.8223 30282.6005 112.6129 164.5553
TCL: Running FEP window  13: Lambda1 0.6    Lambda2 0.65   [dLambda 0.050000000000000044]
TCL: Setting parameter firsttimestep to 0
TCL: Setting parameter alchLambda to 0.6
Info: NONBONDED TABLE R-SQUARED SPACING: 0.0625
Info: NONBONDED TABLE SIZE: 705 POINTS
TCL: Setting parameter alchLambda2 to 0.65
Info: NONBONDED TABLE R-SQUARED SPACING: 0.0625
Info: NONBONDED TABLE SIZE: 705 POINTS
TCL: Running for 1500000 steps
ETITLE: TS BOND ANGLE DIHED IMPRP ELECT VDW BOUNDARY MISC KINETIC TOTAL TEMP POTENTIAL TOTALAVG TEMPAVG PRESSURE GPRESSURE VOLUME PRESSAVG GPRESSAVG
ENERGY: 0 3.9771 9.7677 8.1599 0.0000 -10516.7672 1414.2325 0.0000 0.0000 1727.7614 -7352.8685 297.5018 -9080.6299 -7352.8685 297.5018 -53.3843 51.8123 30282.6005 -53.3843 51.8123
ENERGY: 300000 0.3755 5.8073 11.9305 0.0000 -10492.9932 1365.6330 0.0000 0.0000 1710.2179 -7399.0290 294.4810 -9109.2470 -7393.4960 299.3691 -631.5747 -606.9160 30493.1931 -481.9843 -414.0112
ENERGY: 600000 3.0335 7.1151 6.8275 0.0000 -10644.4576 1410.7110 0.0000 0.0000 1765.9018 -7450.8687 304.0692 -9216.7705 -7396.6350 300.3997 -468.2313 -408.7754 29978.3216 -297.8390 -234.9957
ENERGY: 900000 1.7146 12.1869 7.0920 0.0000 -10584.6179 1410.0403 0.0000 0.0000 1731.5009 -7422.0831 298.1457 -9153.5840 -7395.5613 300.9133 -324.7060 -271.7548 30622.7279 -265.5899 -202.1558
ENERGY: 1200000 0.7856 11.7489 8.4743 0.0000 -10525.9456 1390.3994 0.0000 0.0000 1687.3305 -7427.2070 290.5401 -9114.5375 -7401.1131 299.4763 -303.0545 -240.3212 30217.5602 -215.8811 -148.9551
ENERGY: 1500000 0.7382 9.0228 7.4620 0.0000 -10576.0171 1409.8320 0.0000 0.0000 1812.4687 -7336.4933 312.0875 -9148.9621 -7387.4304 300.3265 123.4725 159.7836 29888.6600 -236.6631 -178.0499
TCL: Running FEP window  14: Lambda1 0.65   Lambda2 0.7000000000000001 [dLambda 0.050000000000000044]
TCL: Setting parameter firsttimestep to 0
TCL: Setting parameter alchLambda to 0.65
Info: NONBONDED TABLE R-SQUARED SPACING: 0.0625
Info: NONBONDED TABLE SIZE: 705 POINTS
TCL: Setting parameter alchLambda2 to 0.7000000000000001
Info: NONBONDED TABLE R-SQUARED SPACING: 0.0625
Info: NONBONDED TABLE SIZE: 705 POINTS
TCL: Running for 1500000 steps
ETITLE: TS BOND ANGLE DIHED IMPRP ELECT VDW BOUNDARY MISC KINETIC TOTAL TEMP POTENTIAL TOTALAVG TEMPAVG PRESSURE GPRESSURE VOLUME PRESSAVG GPRESSAVG
ENERGY: 0 0.7382 9.0228 7.4620 0.0000 -10576.0528 1410.7105 0.0000 0.0000 1811.5925 -7336.5268 311.9366 -9148.1193 -7336.5268 311.9366 87.0784 172.9696 29888.6600 87.0784 172.9696
ENERGY: 300000 0.8336 10.9363 10.5267 0.0000 -10569.0818 1411.5163 0.0000 0.0000 1732.2908 -7402.9781 298.2817 -9135.2688 -7377.4129 302.4252 -434.8222 -389.7898 30548.7954 -374.4358 -282.3214
ENERGY: 600000 1.5059 8.4221 8.5965 0.0000 -10652.3167 1454.8296 0.0000 0.0000 1753.2161 -7425.7465 301.8849 -9178.9626 -7404.2944 302.4141 513.4631 548.3650 29615.1290 -194.1538 -114.7241
ENERGY: 900000 3.1843 9.5573 9.0995 0.0000 -10543.8029 1440.8916 0.0000 0.0000 1787.2875 -7293.7827 307.7516 -9081.0701 -7401.5754 301.5014 450.2874 540.6473 29864.3641 5.2921 79.4450
ENERGY: 1200000 0.8181 10.1834 7.2445 0.0000 -10708.6470 1514.3157 0.0000 0.0000 1790.0866 -7385.9988 308.2335 -9176.0854 -7402.1151 302.0621 667.6295 719.4557 29680.5899 125.2649 198.9750
ENERGY: 1500000 1.9671 13.1898 7.0235 0.0000 -10629.8986 1464.4434 0.0000 0.0000 1675.4920 -7467.7829 288.5016 -9143.2749 -7414.0829 300.9104 359.8781 490.3083 29905.3227 174.9464 255.6719
TCL: Running FEP window  15: Lambda1 0.7000000000000001 Lambda2 0.7500000000000001 [dLambda 0.050000000000000044]
TCL: Setting parameter firsttimestep to 0
TCL: Setting parameter alchLambda to 0.7000000000000001
Info: NONBONDED TABLE R-SQUARED SPACING: 0.0625
Info: NONBONDED TABLE SIZE: 705 POINTS
TCL: Setting parameter alchLambda2 to 0.7500000000000001
Info: NONBONDED TABLE R-SQUARED SPACING: 0.0625
Info: NONBONDED TABLE SIZE: 705 POINTS
TCL: Running for 1500000 steps
ETITLE: TS BOND ANGLE DIHED IMPRP ELECT VDW BOUNDARY MISC KINETIC TOTAL TEMP POTENTIAL TOTALAVG TEMPAVG PRESSURE GPRESSURE VOLUME PRESSAVG GPRESSAVG
ENERGY: 0 1.9671 13.1898 7.0235 0.0000 -10630.2613 1464.3892 0.0000 0.0000 1674.5772 -7469.1145 288.3441 -9143.6917 -7469.1145 288.3441 391.5379 495.9256 29905.3227 391.5379 495.9256
ENERGY: 300000 1.4451 8.2162 7.0935 0.0000 -10561.5146 1357.1162 0.0000 0.0000 1744.1662 -7443.4775 300.3265 -9187.6436 -7437.0768 296.5579 -920.1206 -862.5941 30441.6490 -169.5867 -103.1267
ENERGY: 600000 4.2793 9.2735 7.0816 0.0000 -10526.7223 1349.0446 0.0000 0.0000 1755.8234 -7401.2198 302.3338 -9157.0432 -7422.9286 297.8170 -482.4383 -490.2679 30122.7630 79.8620 132.6177
ENERGY: 900000 1.0908 10.1911 8.3690 0.0000 -10680.6261 1459.3828 0.0000 0.0000 1788.8114 -7412.7810 308.0140 -9201.5924 -7417.9793 299.4775 44.4171 66.4814 30205.5261 57.2404 102.4346
ENERGY: 1200000 1.2032 6.8118 7.1379 0.0000 -10735.2690 1476.2592 0.0000 0.0000 1745.1821 -7498.6747 300.5015 -9243.8569 -7420.3962 300.1710 136.5320 182.2822 29859.4596 20.2028 66.7159
ENERGY: 1500000 1.4325 7.1302 7.7767 0.0000 -10602.7342 1457.1719 0.0000 0.0000 1703.4854 -7425.7375 293.3218 -9129.2229 -7408.2767 299.5278 96.9527 169.8384 30287.6939 32.0598 81.5392
TCL: Running FEP window  16: Lambda1 0.7500000000000001 Lambda2 0.8000000000000002 [dLambda 0.050000000000000044]
TCL: Setting parameter firsttimestep to 0
TCL: Setting parameter alchLambda to 0.7500000000000001
Info: NONBONDED TABLE R-SQUARED SPACING: 0.0625
Info: NONBONDED TABLE SIZE: 705 POINTS
TCL: Setting parameter alchLambda2 to 0.8000000000000002
Info: NONBONDED TABLE R-SQUARED SPACING: 0.0625
Info: NONBONDED TABLE SIZE: 705 POINTS
TCL: Running for 1500000 steps
ETITLE: TS BOND ANGLE DIHED IMPRP ELECT VDW BOUNDARY MISC KINETIC TOTAL TEMP POTENTIAL TOTALAVG TEMPAVG PRESSURE GPRESSURE VOLUME PRESSAVG GPRESSAVG
ENERGY: 0 1.4325 7.1302 7.7767 0.0000 -10602.7451 1456.9830 0.0000 0.0000 1702.6340 -7426.7888 293.1752 -9129.4228 -7426.7888 293.1752 92.5973 176.3530 30287.6939 92.5973 176.3530
ENERGY: 300000 0.5109 9.2757 7.2668 0.0000 -10761.6372 1552.9025 0.0000 0.0000 1767.4235 -7424.2579 304.3312 -9191.6813 -7445.2445 300.7757 1252.7594 1325.8851 29329.9206 -13.0824 74.0139
ENERGY: 600000 0.4407 7.2203 7.0913 0.0000 -10477.4495 1358.2650 0.0000 0.0000 1721.3465 -7383.0857 296.3972 -9104.4322 -7403.1311 300.1553 -649.0668 -577.2161 30504.3912 55.1724 136.1550
ENERGY: 900000 1.2448 6.1870 8.6732 0.0000 -10612.5898 1401.5547 0.0000 0.0000 1736.4314 -7458.4987 298.9947 -9194.9301 -7416.3658 300.0220 -759.5217 -729.0636 30680.0521 -60.4838 5.5063
ENERGY: 1200000 1.3996 8.1686 6.8987 0.0000 -10380.5665 1299.2775 0.0000 0.0000 1737.9150 -7326.9071 299.2502 -9064.8221 -7410.5600 300.2765 -852.9671 -810.2067 30571.5957 -55.8893 4.3527
ENERGY: 1500000 1.3188 7.3145 7.7776 0.0000 -10572.4347 1442.5649 0.0000 0.0000 1764.4498 -7349.0092 303.8192 -9113.4589 -7399.7142 301.2732 284.3726 322.9906 30287.1401 66.4123 121.3282
TCL: Running FEP window  17: Lambda1 0.8000000000000002 Lambda2 0.8500000000000002 [dLambda 0.050000000000000044]
TCL: Setting parameter firsttimestep to 0
TCL: Setting parameter alchLambda to 0.8000000000000002
Info: NONBONDED TABLE R-SQUARED SPACING: 0.0625
Info: NONBONDED TABLE SIZE: 705 POINTS
TCL: Setting parameter alchLambda2 to 0.8500000000000002
Info: NONBONDED TABLE R-SQUARED SPACING: 0.0625
Info: NONBONDED TABLE SIZE: 705 POINTS
TCL: Running for 1500000 steps
ETITLE: TS BOND ANGLE DIHED IMPRP ELECT VDW BOUNDARY MISC KINETIC TOTAL TEMP POTENTIAL TOTALAVG TEMPAVG PRESSURE GPRESSURE VOLUME PRESSAVG GPRESSAVG
ENERGY: 0 1.3188 7.3145 7.7776 0.0000 -10572.6168 1443.0776 0.0000 0.0000 1763.5624 -7349.5660 303.6664 -9113.1284 -7349.5660 303.6664 267.7922 338.5522 30287.1401 267.7922 338.5522
ENERGY: 300000 0.5952 6.4236 8.8958 0.0000 -10539.5804 1392.9360 0.0000 0.0000 1749.2898 -7381.4401 301.2088 -9130.7299 -7396.1213 298.2282 -20.3140 0.1233 29807.6816 -53.0301 1.6841
ENERGY: 600000 1.4576 9.2278 6.6868 0.0000 -10634.3230 1476.4371 0.0000 0.0000 1686.6104 -7453.9033 290.4161 -9140.5137 -7411.0498 297.3145 374.4296 435.2279 30131.8610 5.7689 67.2168
ENERGY: 900000 0.9813 7.0935 7.9866 0.0000 -10700.6169 1485.7877 0.0000 0.0000 1743.9243 -7454.8436 300.2849 -9198.7679 -7416.6483 297.1464 408.8945 463.6442 29921.6277 -15.5635 41.7088
ENERGY: 1200000 4.2087 8.7023 6.1955 0.0000 -10866.5010 1526.9214 0.0000 0.0000 1690.0587 -7630.4144 291.0098 -9320.4731 -7429.7508 297.1247 283.9011 391.9460 29656.5672 23.4669 91.6139
ENERGY: 1500000 1.2809 11.4454 7.5558 0.0000 -10649.8591 1393.9752 0.0000 0.0000 1763.7758 -7471.8260 303.7031 -9235.6018 -7427.4732 297.5850 -278.6333 -237.1970 29805.4310 -61.8230 0.3329
TCL: Running FEP window  18: Lambda1 0.8500000000000002 Lambda2 0.9000000000000002 [dLambda 0.050000000000000044]
TCL: Setting parameter firsttimestep to 0
TCL: Setting parameter alchLambda to 0.8500000000000002
Info: NONBONDED TABLE R-SQUARED SPACING: 0.0625
Info: NONBONDED TABLE SIZE: 705 POINTS
TCL: Setting parameter alchLambda2 to 0.9000000000000002
Info: NONBONDED TABLE R-SQUARED SPACING: 0.0625
Info: NONBONDED TABLE SIZE: 705 POINTS
TCL: Running for 1500000 steps
ETITLE: TS BOND ANGLE DIHED IMPRP ELECT VDW BOUNDARY MISC KINETIC TOTAL TEMP POTENTIAL TOTALAVG TEMPAVG PRESSURE GPRESSURE VOLUME PRESSAVG GPRESSAVG
ENERGY: 0 1.2809 11.4454 7.5558 0.0000 -10650.9709 1394.3664 0.0000 0.0000 1762.9064 -7473.4160 303.5534 -9236.3224 -7473.4160 303.5534 -317.8555 -231.0290 29805.4310 -317.8555 -231.0290
ENERGY: 300000 1.4186 10.5240 7.0489 0.0000 -10662.9303 1483.7380 0.0000 0.0000 1761.3034 -7398.8975 303.2774 -9160.2010 -7440.2864 300.8916 421.0785 593.3988 29696.5845 -54.5854 31.1399
ENERGY: 600000 1.5913 10.5708 5.9072 0.0000 -10542.3848 1415.5978 0.0000 0.0000 1700.7078 -7408.0098 292.8435 -9108.7176 -7423.7751 298.2657 -289.3287 -215.8464 30533.9889 -171.5518 -86.3188
ENERGY: 900000 0.4289 7.4375 7.9215 0.0000 -10609.9398 1370.4939 0.0000 0.0000 1788.0580 -7435.6001 307.8842 -9223.6581 -7420.0671 299.7173 -744.7753 -621.1028 30092.0045 -288.0866 -210.0900
ENERGY: 1200000 0.2923 8.6374 7.4867 0.0000 -10516.5793 1326.4854 0.0000 0.0000 1741.8158 -7431.8617 299.9218 -9173.6775 -7420.0039 299.2124 -873.4846 -774.8324 30106.8390 -357.2577 -275.4360
ENERGY: 1500000 1.6097 9.9588 8.9195 0.0000 -10558.0609 1352.7101 0.0000 0.0000 1707.4247 -7477.4382 294.0001 -9184.8629 -7421.5366 298.5217 -669.7386 -600.4746 29875.0053 -345.4526 -264.7059
TCL: Running FEP window  19: Lambda1 0.9000000000000002 Lambda2 0.9500000000000003 [dLambda 0.050000000000000044]
TCL: Setting parameter firsttimestep to 0
TCL: Setting parameter alchLambda to 0.9000000000000002
Info: NONBONDED TABLE R-SQUARED SPACING: 0.0625
Info: NONBONDED TABLE SIZE: 705 POINTS
TCL: Setting parameter alchLambda2 to 0.9500000000000003
Info: NONBONDED TABLE R-SQUARED SPACING: 0.0625
Info: NONBONDED TABLE SIZE: 705 POINTS
TCL: Running for 1500000 steps
ETITLE: TS BOND ANGLE DIHED IMPRP ELECT VDW BOUNDARY MISC KINETIC TOTAL TEMP POTENTIAL TOTALAVG TEMPAVG PRESSURE GPRESSURE VOLUME PRESSAVG GPRESSAVG
ENERGY: 0 1.6097 9.9588 8.9195 0.0000 -10558.6647 1352.4404 0.0000 0.0000 1706.6010 -7479.1355 293.8582 -9185.7365 -7479.1355 293.8582 -671.3302 -599.2012 29875.0053 -671.3302 -599.2012
ENERGY: 300000 2.1209 12.2110 6.5705 0.0000 -10539.7877 1406.4850 0.0000 0.0000 1718.6987 -7393.7017 295.9413 -9112.4004 -7422.8664 298.1166 -191.8086 -80.6934 30182.3199 -382.9411 -295.9685
ENERGY: 600000 0.8561 12.7010 7.3178 0.0000 -10491.2726 1332.3955 0.0000 0.0000 1761.5121 -7376.4902 303.3133 -9138.0023 -7417.2536 298.1386 -948.9922 -855.1658 30393.0027 -501.7266 -424.3825
ENERGY: 900000 1.0504 7.7160 6.6052 0.0000 -10562.0467 1430.4928 0.0000 0.0000 1731.2777 -7384.9046 298.1073 -9116.1823 -7403.7542 297.9782 238.3318 285.2335 29716.0694 -458.2469 -386.4642
ENERGY: 1200000 1.3337 11.6211 10.3081 0.0000 -10606.1512 1395.0171 0.0000 0.0000 1718.1484 -7469.7227 295.8466 -9187.8711 -7414.1048 298.2607 -573.8651 -551.8778 30532.1456 -337.0017 -264.9547
ENERGY: 1500000 1.7640 14.5915 7.1824 0.0000 -10522.6827 1365.5938 0.0000 0.0000 1706.8807 -7426.6704 293.9064 -9133.5510 -7413.1490 298.5982 -532.1405 -418.3332 30060.6376 -336.1398 -260.6896
TCL: Running FEP window  20: Lambda1 0.9500000000000003 Lambda2 1.0    [dLambda 0.04999999999999971]
TCL: Setting parameter firsttimestep to 0
TCL: Setting parameter alchLambda to 0.9500000000000003
Info: NONBONDED TABLE R-SQUARED SPACING: 0.0625
Info: NONBONDED TABLE SIZE: 705 POINTS
TCL: Setting parameter alchLambda2 to 1.0
Info: NONBONDED TABLE R-SQUARED SPACING: 0.0625
Info: NONBONDED TABLE SIZE: 705 POINTS
TCL: Running for 1500000 steps
ETITLE: TS BOND ANGLE DIHED IMPRP ELECT VDW BOUNDARY MISC KINETIC TOTAL TEMP POTENTIAL TOTALAVG TEMPAVG PRESSURE GPRESSURE VOLUME PRESSAVG GPRESSAVG
ENERGY: 0 1.7640 14.5915 7.1824 0.0000 -10523.3966 1366.1763 0.0000 0.0000 1705.9712 -7427.7112 293.7498 -9133.6824 -7427.7112 293.7498 -492.3282 -399.5660 30060.6376 -492.3282 -399.5660
ENERGY: 300000 1.0891 10.8811 6.1515 0.0000 -10593.6668 1407.2703 0.0000 0.0000 1714.4599 -7453.8150 295.2115 -9168.2749 -7431.7977 296.4202 -113.5124 -98.6875 29920.2420 -329.7861 -288.0201
ENERGY: 600000 2.0441 10.3069 6.5974 0.0000 -10486.5663 1302.6474 0.0000 0.0000 1729.2181 -7435.7525 297.7526 -9164.9705 -7420.8235 296.6808 -1178.4185 -1086.9569 30312.9686 -477.4142 -417.1960
ENERGY: 900000 1.7339 9.6540 8.6094 0.0000 -10529.8247 1446.8205 0.0000 0.0000 1750.6272 -7312.3798 301.4391 -9063.0070 -7392.1306 297.8437 520.6569 586.1926 30233.7949 -306.4558 -250.7485
ENERGY: 1200000 2.4999 11.6524 7.2629 0.0000 -10605.0209 1440.8261 0.0000 0.0000 1806.8131 -7335.9665 311.1137 -9142.7796 -7382.8944 299.2516 149.2367 203.1335 30159.5706 -250.7075 -195.7658
ENERGY: 1500000 0.7581 7.0964 7.5797 0.0000 -10578.7234 1430.9619 0.0000 0.0000 1743.2849 -7389.0424 300.1748 -9132.3273 -7383.3650 299.7596 55.4948 47.2169 30212.8939 -253.6743 -205.4405
TCL: Exiting due to exit command.
