Info: SIMULATION PARAMETERS:
Info: TIMESTEP               2
Info: NUMBER OF STEPS        0
Info: STEPS PER CYCLE        10
Info: PERIODIC CELL BASIS 1  33.0888 0 0
Info: PERIODIC CELL BASIS 2  0 33.4079 0
Info: PERIODIC CELL BASIS 3  0 0 27.7094
Info: PERIODIC CELL CENTER   0 0 0
Info: WRAPPING WATERS AROUND PERIODIC BOUNDARIES ON OUTPUT.
Info: WRAPPING ALL CLUSTERS AROUND PERIODIC BOUNDARIES ON OUTPUT.
Info: FIRST LDB TIMESTEP     50
Info: LAST LDB TIMESTEP     -1
Info: HOM BACKGROUND SCALING 1
Info: PME BACKGROUND SCALING 1
Info: MIN ATOMS PER PATCH    40
Info: EMPTY PATCH LOAD       40 ATOMS
Info: VELOCITY FILE          mobley_2960202_equil.vel
Info: CENTER OF MASS MOVING INITIALLY? NO
Info: DIELECTRIC             1
Info: EXCLUDE                SCALED ONE-FOUR
Info: 1-4 ELECTROSTATICS SCALED BY 0.833333
Info: MODIFIED 1-4 VDW PARAMETERS WILL BE USED
Info: DCD FILENAME           mobley_2960202_prod.dcd
Info: DCD FREQUENCY          100000
Info: DCD FIRST STEP         100000
Info: DCD FILE WILL CONTAIN UNIT CELL DATA
Info: XST FILENAME           mobley_2960202_prod.xst
Info: XST FREQUENCY          100000
Info: NO VELOCITY DCD OUTPUT
Info: NO FORCE DCD OUTPUT
Info: OUTPUT FILENAME        mobley_2960202_prod
Info: BINARY OUTPUT FILES WILL BE USED
Info: RESTART FILENAME       mobley_2960202_prod.restart
Info: RESTART FREQUENCY      100000
Info: BINARY RESTART FILES WILL BE USED
Info: CUTOFF                 9
Info: PAIRLIST DISTANCE      11
Info: PAIRLIST SHRINK RATE   0.01
Info: PAIRLIST GROW RATE     0.01
Info: PAIRLIST TRIGGER       0.3
Info: PAIRLISTS PER CYCLE    2
Info: PAIRLISTS ENABLED
Info: MARGIN                 2
Info: HYDROGEN GROUP CUTOFF  2.5
Info: PATCH DIMENSION        15.5
Info: ENERGY OUTPUT STEPS    100000
Info: ENERGY EVALUATION STEPS    100000
Info: OUTPUT ENERGY PRECISION 4
Info: CROSSTERM ENERGY INCLUDED IN DIHEDRAL
Info: TIMING OUTPUT STEPS    1000000
Info: PRESSURE OUTPUT STEPS  100000
Info: ALCHEMICAL FEP ON
Info: FEP CURRENT LAMBDA VALUE     0
Info: FEP COMPARISON LAMBDA VALUE  0.05
Info: FEP INTRA-ALCHEMICAL NON-BONDED INTERACTIONS WILL BE RETAINED
Info: FEP INTRA-ALCHEMICAL BONDED INTERACTIONS WILL BE RETAINED
Info: FEP VDW SHIFTING COEFFICIENT 5
Info: FEP ELEC. ACTIVE FOR ANNIHILATED PARTICLES BETWEEN LAMBDA = 0 AND LAMBDA = 0.5
Info: FEP ELEC. ACTIVE FOR EXNIHILATED PARTICLES BETWEEN LAMBDA = 0.5 AND LAMBDA = 1
Info: FEP VDW ACTIVE FOR ANNIHILATED PARTICLES BETWEEN LAMBDA = 0 AND LAMBDA = 1
Info: FEP VDW ACTIVE FOR EXNIHILATED PARTICLES BETWEEN LAMBDA = 0 AND LAMBDA = 1
Info: FEP BOND ACTIVE FOR ANNIHILATED PARTICLES BETWEEN LAMBDA = 1 AND LAMBDA = 1
Info: FEP BOND ACTIVE FOR EXNIHILATED PARTICLES BETWEEN LAMBDA = 0 AND LAMBDA = 0
Info: LANGEVIN DYNAMICS ACTIVE
Info: LANGEVIN TEMPERATURE   300
Info: LANGEVIN USING BBK INTEGRATOR
Info: LANGEVIN DAMPING COEFFICIENT IS 1 INVERSE PS
Info: LANGEVIN DYNAMICS APPLIED TO HYDROGENS
Info: LANGEVIN PISTON PRESSURE CONTROL ACTIVE
Info:        TARGET PRESSURE IS 1.01325 BAR
Info:     OSCILLATION PERIOD IS 50 FS
Info:             DECAY TIME IS 25 FS
Info:     PISTON TEMPERATURE IS 300 K
Info:       PRESSURE CONTROL IS GROUP-BASED
Info:    INITIAL STRAIN RATE IS 0.00028252 0.00028252 0.00028252
Info:       CELL FLUCTUATION IS ISOTROPIC
Info: PARTICLE MESH EWALD (PME) ACTIVE
Info: PME TOLERANCE               1e-06
Info: PME EWALD COEFFICIENT       0.348832
Info: PME INTERPOLATION ORDER     4
Info: PME GRID DIMENSIONS         36 36 28
Info: PME MAXIMUM GRID SPACING    1
Info: PME CALCULATION WILL BE PERFORMED ON GPU
Info: FULL ELECTROSTATIC EVALUATION FREQUENCY      2
Info: USING VERLET I (r-RESPA) MTS SCHEME.
Info: C1 SPLITTING OF LONG RANGE ELECTROSTATICS
Info: PLACING ATOMS IN PATCHES BY HYDROGEN GROUPS
Info: RIGID BONDS TO HYDROGEN : ALL
Info:         ERROR TOLERANCE : 1e-08
Info:          MAX ITERATIONS : 100
Info: RIGID WATER USING SETTLE ALGORITHM
Info: RANDOM NUMBER SEED     1743631828
Info: USE HYDROGEN BONDS?    NO
Info: Using AMBER format force field!
Info: AMBER PARM FILE        mobley_2960202.prmtop
Info: COORDINATE PDB         mobley_2960202.pdb
Info: Exclusions will be read from PARM file!
Info: SCNB (VDW SCALING)     2
Info: USING ARITHMETIC MEAN TO COMBINE L-J SIGMA PARAMETERS
Info: BINARY COORDINATES     mobley_2960202_equil.coor
Info: SUMMARY OF PARAMETERS:
Info: 6 BONDS
Info: 5 ANGLES
Info:   5 HARMONIC
Info:   0 COSINE-BASED
Info: 3 DIHEDRAL
Info: 0 IMPROPER
Info: 0 CROSSTERM
Info: 0 VDW
Info: 21 VDW_PAIRS
Info: 0 NBTHOLE_PAIRS
Info: To read alchdata from file: mobley_2960202.pdb
Info: To read alchflag data from column: 5
Info: STRUCTURE SUMMARY:
Info: 2953 ATOMS
Info: 2955 BONDS
Info: 38 ANGLES
Info: 68 DIHEDRALS
Info: 0 IMPROPERS
Info: 0 CROSSTERMS
Info: 3040 EXCLUSIONS
Info: 2933 RIGID BONDS
Info: ALCH: 0 ATOMS TO DISAPPEAR IN FINAL STATE
Info: ALCH: 22 ATOMS TO APPEAR IN FINAL STATE
Info: 5926 DEGREES OF FREEDOM
Info: 997 HYDROGEN GROUPS
Info: 3 ATOMS IN LARGEST HYDROGEN GROUP
Info: 997 MIGRATION GROUPS
Info: 3 ATOMS IN LARGEST MIGRATION GROUP
Info: TOTAL MASS = 17992.5 amu
Info: TOTAL CHARGE = 0.00050002 e
Info: MASS DENSITY = 0.975421 g/cm^3
Info: ATOM DENSITY = 0.0964063 atoms/A^3
Info: ADDED 0 IMPLICIT EXCLUSIONS
Info: NONBONDED TABLE R-SQUARED SPACING: 0.0625
Info: NONBONDED TABLE SIZE: 705 POINTS
Info: REDUCING NUMBER OF PATCHES TO IMPROVE LOAD BALANCE
Info: REMOVING COM VELOCITY -0.0169551 -0.0123818 0.119636
Info: Use 3D box decompostion in PME FFT.
Info: Updated CUDA force table with 4096 elements.
Info: Updated CUDA LJ table with 6 x 6 elements.
Info: Found 23 unique exclusion lists needing 68 bytes
TCL: Running for 1500000 steps
ETITLE: TS BOND ANGLE DIHED IMPRP ELECT VDW BOUNDARY MISC KINETIC TOTAL TEMP POTENTIAL TOTALAVG TEMPAVG PRESSURE GPRESSURE VOLUME PRESSAVG GPRESSAVG
ENERGY: 0 4.8274 7.6417 8.1631 0.0000 -10651.5445 1443.5087 0.0000 0.0000 1728.2419 -7459.1616 293.5170 -9187.4035 -7459.1616 293.5170 115.2718 202.4265 30630.7699 115.2718 202.4265
ENERGY: 300000 9.2335 4.0708 3.9738 0.0000 -10687.3105 1480.6837 0.0000 0.0000 1783.0093 -7406.3394 302.8185 -9189.3487 -7422.1855 301.8312 206.2757 201.4558 30318.7450 -214.2130 -170.5406
ENERGY: 600000 4.1638 4.4120 10.0889 0.0000 -10601.6694 1352.1004 0.0000 0.0000 1774.8025 -7456.1018 301.4247 -9230.9043 -7449.2732 300.1631 -632.3917 -598.3428 30105.2592 -389.4410 -345.0302
ENERGY: 900000 11.5556 8.6409 6.0008 0.0000 -10817.7997 1519.1763 0.0000 0.0000 1747.9921 -7524.4341 296.8713 -9272.4261 -7444.6084 301.2358 563.6231 620.4522 29663.4190 -149.9521 -106.0946
ENERGY: 1200000 9.4225 7.2149 3.7514 0.0000 -10687.6200 1453.4243 0.0000 0.0000 1759.6647 -7454.1422 298.8537 -9213.8069 -7458.5689 300.1910 100.2272 98.9280 30119.4423 -101.3150 -52.4015
ENERGY: 1500000 7.5257 3.0845 8.1248 0.0000 -10710.9933 1424.6155 0.0000 0.0000 1754.1044 -7513.5383 297.9094 -9267.6427 -7452.6313 300.5850 -406.4121 -329.2488 29937.8582 -101.2453 -52.7856
TCL: Running FEP window   2: Lambda1 0.05   Lambda2 0.1    [dLambda 0.05  ]
TCL: Setting parameter firsttimestep to 0
TCL: Setting parameter alchLambda to 0.05
Info: NONBONDED TABLE R-SQUARED SPACING: 0.0625
Info: NONBONDED TABLE SIZE: 705 POINTS
TCL: Setting parameter alchLambda2 to 0.1
Info: NONBONDED TABLE R-SQUARED SPACING: 0.0625
Info: NONBONDED TABLE SIZE: 705 POINTS
TCL: Running for 1500000 steps
ETITLE: TS BOND ANGLE DIHED IMPRP ELECT VDW BOUNDARY MISC KINETIC TOTAL TEMP POTENTIAL TOTALAVG TEMPAVG PRESSURE GPRESSURE VOLUME PRESSAVG GPRESSAVG
ENERGY: 0 7.5257 3.0845 8.1248 0.0000 -10710.9922 1434.0699 0.0000 0.0000 1753.2089 -7504.9784 297.7573 -9258.1873 -7504.9784 297.7573 -398.2335 -302.9966 29937.8582 -398.2335 -302.9966
ENERGY: 300000 5.8291 3.1846 10.0595 0.0000 -10772.2502 1474.6272 0.0000 0.0000 1700.3434 -7578.2064 288.7788 -9278.5498 -7522.0296 296.7479 94.8933 159.8629 30144.9083 0.9859 50.8282
ENERGY: 600000 8.3868 2.6485 8.1959 0.0000 -10668.9292 1430.7404 0.0000 0.0000 1762.0993 -7456.8582 299.2672 -9218.9575 -7477.0932 298.6444 -301.9227 -201.7430 30232.7751 -121.8009 -58.4340
ENERGY: 900000 7.8803 6.2314 3.6341 0.0000 -10658.3568 1485.7993 0.0000 0.0000 1796.4713 -7358.3405 305.1048 -9154.8117 -7459.2851 299.6271 648.6215 754.1791 30003.9646 -93.8796 -28.7855
ENERGY: 1200000 6.6360 4.0145 6.9153 0.0000 -10762.7009 1484.8048 0.0000 0.0000 1766.1564 -7494.1739 299.9562 -9260.3303 -7454.8269 299.7743 80.6884 141.5757 30234.4239 -41.6422 26.2208
ENERGY: 1500000 7.0942 4.6462 5.3211 0.0000 -10610.1222 1391.2799 0.0000 0.0000 1775.0281 -7426.7527 301.4630 -9201.7807 -7445.0878 300.1395 -594.3277 -523.6750 30440.7539 -77.3258 -13.7612
TCL: Running FEP window   3: Lambda1 0.1    Lambda2 0.15000000000000002 [dLambda 0.05000000000000002]
TCL: Setting parameter firsttimestep to 0
TCL: Setting parameter alchLambda to 0.1
Info: NONBONDED TABLE R-SQUARED SPACING: 0.0625
Info: NONBONDED TABLE SIZE: 705 POINTS
TCL: Setting parameter alchLambda2 to 0.15000000000000002
Info: NONBONDED TABLE R-SQUARED SPACING: 0.0625
Info: NONBONDED TABLE SIZE: 705 POINTS
TCL: Running for 1500000 steps
ETITLE: TS BOND ANGLE DIHED IMPRP ELECT VDW BOUNDARY MISC KINETIC TOTAL TEMP POTENTIAL TOTALAVG TEMPAVG PRESSURE GPRESSURE VOLUME PRESSAVG GPRESSAVG
ENERGY: 0 7.0942 4.6462 5.3211 0.0000 -10610.1225 1392.7891 0.0000 0.0000 1774.1236 -7426.1481 301.3094 -9200.2718 -7426.1481 301.3094 -597.3275 -510.1097 30440.7539 -597.3275 -510.1097
ENERGY: 300000 10.5532 3.5385 5.6974 0.0000 -10621.5047 1401.4403 0.0000 0.0000 1720.6119 -7479.6634 292.2212 -9200.2753 -7438.3691 300.6171 -426.5853 -325.1830 30398.4849 -379.4090 -312.1589
ENERGY: 600000 9.9943 4.4222 7.7725 0.0000 -10696.3139 1467.8033 0.0000 0.0000 1808.1574 -7398.1641 307.0895 -9206.3216 -7436.9880 300.0830 -12.2845 74.6652 30095.3772 -255.7117 -192.1569
ENERGY: 900000 5.7567 4.4702 5.2834 0.0000 -10664.1139 1384.6536 0.0000 0.0000 1768.1666 -7495.7833 300.2976 -9263.9499 -7426.6441 300.9625 -601.3504 -498.9393 30376.7147 -398.7011 -337.9867
ENERGY: 1200000 6.0065 3.7163 4.9524 0.0000 -10715.7078 1514.6882 0.0000 0.0000 1807.0835 -7379.2610 306.9071 -9186.3445 -7423.1077 300.8622 519.9617 626.7183 30336.5444 -386.0027 -320.6701
ENERGY: 1500000 5.6611 6.3690 5.1785 0.0000 -10757.1697 1459.2707 0.0000 0.0000 1813.6820 -7467.0085 308.0278 -9280.6905 -7427.3364 301.3976 59.3142 88.7232 30076.4433 -230.0326 -168.0369
TCL: Running FEP window   4: Lambda1 0.15000000000000002 Lambda2 0.2    [dLambda 0.04999999999999999]
TCL: Setting parameter firsttimestep to 0
TCL: Setting parameter alchLambda to 0.15000000000000002
Info: NONBONDED TABLE R-SQUARED SPACING: 0.0625
Info: NONBONDED TABLE SIZE: 705 POINTS
TCL: Setting parameter alchLambda2 to 0.2
Info: NONBONDED TABLE R-SQUARED SPACING: 0.0625
Info: NONBONDED TABLE SIZE: 705 POINTS
TCL: Running for 1500000 steps
ETITLE: TS BOND ANGLE DIHED IMPRP ELECT VDW BOUNDARY MISC KINETIC TOTAL TEMP POTENTIAL TOTALAVG TEMPAVG PRESSURE GPRESSURE VOLUME PRESSAVG GPRESSAVG
ENERGY: 0 5.6611 6.3690 5.1784 0.0000 -10757.1694 1460.1173 0.0000 0.0000 1812.7740 -7467.0695 307.8736 -9279.8435 -7467.0695 307.8736 14.0991 98.6435 30076.4433 14.0991 98.6435
ENERGY: 300000 8.1915 4.1299 4.5465 0.0000 -10799.5889 1471.8871 0.0000 0.0000 1813.8996 -7496.9342 308.0647 -9310.8338 -7409.4236 304.1377 -169.8113 -155.0279 30316.9293 -105.0689 -28.1278
ENERGY: 600000 7.6000 6.7290 6.5965 0.0000 -10679.3872 1448.5863 0.0000 0.0000 1796.6810 -7413.1943 305.1404 -9209.8753 -7400.7687 306.0010 -160.2761 -145.6499 30409.8483 -98.9452 -47.2972
ENERGY: 900000 7.0294 5.9144 3.4953 0.0000 -10663.0859 1436.5393 0.0000 0.0000 1769.6507 -7440.4568 300.5497 -9210.1075 -7409.8452 305.2002 47.4109 82.0854 30160.4617 0.9930 47.2942
ENERGY: 1200000 3.8319 6.0688 7.9494 0.0000 -10763.8613 1456.9697 0.0000 0.0000 1784.7555 -7504.2859 303.1150 -9289.0414 -7417.5633 303.4319 -112.7753 -164.3348 30698.6013 -9.2902 37.8556
ENERGY: 1500000 6.8352 3.4917 6.0219 0.0000 -10561.0777 1401.6071 0.0000 0.0000 1765.9281 -7377.1937 299.9175 -9143.1218 -7415.0375 303.7747 -384.9860 -404.0967 30518.3830 20.8049 62.2507
TCL: Running FEP window   5: Lambda1 0.2    Lambda2 0.25   [dLambda 0.04999999999999999]
TCL: Setting parameter firsttimestep to 0
TCL: Setting parameter alchLambda to 0.2
Info: NONBONDED TABLE R-SQUARED SPACING: 0.0625
Info: NONBONDED TABLE SIZE: 705 POINTS
TCL: Setting parameter alchLambda2 to 0.25
Info: NONBONDED TABLE R-SQUARED SPACING: 0.0625
Info: NONBONDED TABLE SIZE: 705 POINTS
TCL: Running for 1500000 steps
ETITLE: TS BOND ANGLE DIHED IMPRP ELECT VDW BOUNDARY MISC KINETIC TOTAL TEMP POTENTIAL TOTALAVG TEMPAVG PRESSURE GPRESSURE VOLUME PRESSAVG GPRESSAVG
ENERGY: 0 6.8352 3.4917 6.0219 0.0000 -10561.0769 1403.0435 0.0000 0.0000 1765.0498 -7376.6347 299.7683 -9141.6845 -7376.6347 299.7683 -467.5481 -387.2509 30518.3830 -467.5481 -387.2509
ENERGY: 300000 5.5925 3.6088 4.5468 0.0000 -10650.6205 1459.7001 0.0000 0.0000 1783.6714 -7393.5009 302.9309 -9177.1724 -7442.7005 299.9171 484.6320 564.6422 30252.2354 -172.0844 -106.4556
ENERGY: 600000 8.0849 5.2458 4.3710 0.0000 -10658.7626 1462.6152 0.0000 0.0000 1781.0374 -7397.4083 302.4836 -9178.4458 -7440.8448 300.8015 410.0570 464.1227 30023.5812 -96.0704 -42.1183
ENERGY: 900000 5.3091 3.2683 3.3798 0.0000 -10678.8414 1410.7884 0.0000 0.0000 1827.0848 -7429.0111 310.3041 -9256.0959 -7438.0822 302.0575 -318.5178 -291.6265 30527.9712 -60.4313 -18.9484
ENERGY: 1200000 5.5908 4.0549 6.7377 0.0000 -10613.3270 1411.5182 0.0000 0.0000 1801.2323 -7384.1931 305.9134 -9185.4254 -7424.6983 302.2939 93.3608 195.6176 30056.2873 -8.6727 40.4142
ENERGY: 1500000 4.2259 6.7521 8.9578 0.0000 -10577.4788 1424.4122 0.0000 0.0000 1755.4008 -7377.7299 298.1296 -9133.1307 -7423.0425 301.9117 -12.9433 -6.4589 30845.2497 36.4794 87.2120
TCL: Running FEP window   6: Lambda1 0.25   Lambda2 0.3    [dLambda 0.04999999999999999]
TCL: Setting parameter firsttimestep to 0
TCL: Setting parameter alchLambda to 0.25
Info: NONBONDED TABLE R-SQUARED SPACING: 0.0625
Info: NONBONDED TABLE SIZE: 705 POINTS
TCL: Setting parameter alchLambda2 to 0.3
Info: NONBONDED TABLE R-SQUARED SPACING: 0.0625
Info: NONBONDED TABLE SIZE: 705 POINTS
TCL: Running for 1500000 steps
ETITLE: TS BOND ANGLE DIHED IMPRP ELECT VDW BOUNDARY MISC KINETIC TOTAL TEMP POTENTIAL TOTALAVG TEMPAVG PRESSURE GPRESSURE VOLUME PRESSAVG GPRESSAVG
ENERGY: 0 4.2259 6.7521 8.9578 0.0000 -10577.4786 1424.7308 0.0000 0.0000 1754.5364 -7378.2755 297.9828 -9132.8119 -7378.2755 297.9828 -64.7387 5.6704 30845.2497 -64.7387 5.6704
ENERGY: 300000 5.4705 3.9420 6.1488 0.0000 -10638.0521 1428.2192 0.0000 0.0000 1798.6738 -7395.5978 305.4789 -9194.2717 -7380.7913 300.3541 252.7504 271.2761 29993.4963 -25.2042 34.8538
ENERGY: 600000 8.4522 4.0080 6.8066 0.0000 -10613.0036 1422.5869 0.0000 0.0000 1765.7251 -7405.4246 299.8830 -9171.1497 -7409.6956 300.4343 -160.9227 -39.5946 30177.3124 -86.8159 -12.1736
ENERGY: 900000 4.7255 4.3338 5.2811 0.0000 -10666.5962 1430.9740 0.0000 0.0000 1737.2959 -7483.9860 295.0547 -9221.2819 -7422.9767 300.9210 -221.4968 -159.2574 30326.8306 -87.0767 -17.3947
ENERGY: 1200000 9.6189 6.7956 4.0752 0.0000 -10599.5814 1366.7744 0.0000 0.0000 1756.1627 -7456.1546 298.2590 -9212.3174 -7426.0384 301.0441 -614.4734 -600.0459 30435.3729 -54.2243 5.4322
ENERGY: 1500000 7.3776 6.3674 5.9339 0.0000 -10732.9572 1476.1668 0.0000 0.0000 1831.2806 -7405.8309 311.0166 -9237.1115 -7424.9357 302.0314 426.7103 455.8707 30030.8405 -27.4416 28.3429
TCL: Running FEP window   7: Lambda1 0.3    Lambda2 0.35   [dLambda 0.04999999999999999]
TCL: Setting parameter firsttimestep to 0
TCL: Setting parameter alchLambda to 0.3
Info: NONBONDED TABLE R-SQUARED SPACING: 0.0625
Info: NONBONDED TABLE SIZE: 705 POINTS
TCL: Setting parameter alchLambda2 to 0.35
Info: NONBONDED TABLE R-SQUARED SPACING: 0.0625
Info: NONBONDED TABLE SIZE: 705 POINTS
TCL: Running for 1500000 steps
ETITLE: TS BOND ANGLE DIHED IMPRP ELECT VDW BOUNDARY MISC KINETIC TOTAL TEMP POTENTIAL TOTALAVG TEMPAVG PRESSURE GPRESSURE VOLUME PRESSAVG GPRESSAVG
ENERGY: 0 7.3776 6.3674 5.9339 0.0000 -10732.9575 1475.5377 0.0000 0.0000 1830.4031 -7407.3378 310.8676 -9237.7410 -7407.3378 310.8676 374.3537 459.5939 30030.8405 374.3537 459.5939
ENERGY: 300000 5.5794 5.5396 7.8651 0.0000 -10581.7323 1426.0643 0.0000 0.0000 1778.2332 -7358.4507 302.0073 -9136.6839 -7410.8130 303.2595 80.5890 73.6707 30448.1721 308.6859 365.1261
ENERGY: 600000 7.2210 3.3055 5.8581 0.0000 -10587.1001 1417.4119 0.0000 0.0000 1806.7402 -7346.5634 306.8488 -9153.3036 -7414.0131 302.8024 -238.8880 -168.6127 30596.3536 71.7792 128.2932
ENERGY: 900000 8.8537 3.1505 4.5039 0.0000 -10698.4846 1451.0757 0.0000 0.0000 1747.2364 -7483.6644 296.7429 -9230.9008 -7423.7618 301.8496 5.2027 62.9069 30496.4672 -5.3832 53.0874
ENERGY: 1200000 9.4671 4.1299 5.8967 0.0000 -10773.7873 1491.5355 0.0000 0.0000 1704.9083 -7557.8500 289.5541 -9262.7583 -7435.6497 300.0969 437.4466 463.9256 30003.3540 37.2822 94.8259
ENERGY: 1500000 5.0312 6.3661 8.6300 0.0000 -10521.2425 1337.6889 0.0000 0.0000 1771.6457 -7391.8806 300.8885 -9163.5263 -7433.2757 300.1643 -1086.3558 -1016.1677 30850.7767 -34.3179 23.5527
TCL: Running FEP window   8: Lambda1 0.35   Lambda2 0.39999999999999997 [dLambda 0.04999999999999999]
TCL: Setting parameter firsttimestep to 0
TCL: Setting parameter alchLambda to 0.35
Info: NONBONDED TABLE R-SQUARED SPACING: 0.0625
Info: NONBONDED TABLE SIZE: 705 POINTS
TCL: Setting parameter alchLambda2 to 0.39999999999999997
Info: NONBONDED TABLE R-SQUARED SPACING: 0.0625
Info: NONBONDED TABLE SIZE: 705 POINTS
TCL: Running for 1500000 steps
ETITLE: TS BOND ANGLE DIHED IMPRP ELECT VDW BOUNDARY MISC KINETIC TOTAL TEMP POTENTIAL TOTALAVG TEMPAVG PRESSURE GPRESSURE VOLUME PRESSAVG GPRESSAVG
ENERGY: 0 5.0312 6.3661 8.6300 0.0000 -10521.2432 1338.3176 0.0000 0.0000 1770.7713 -7392.1270 300.7400 -9162.8983 -7392.1270 300.7400 -1088.7877 -1001.7737 30850.7767 -1088.7877 -1001.7737
ENERGY: 300000 5.5387 6.0172 3.4048 0.0000 -10673.5581 1404.6581 0.0000 0.0000 1773.6210 -7480.3184 301.2240 -9253.9393 -7435.9770 298.5465 -69.8319 -0.0729 30037.0516 -442.7209 -379.3344
ENERGY: 600000 7.1664 6.2090 10.2366 0.0000 -10543.3273 1394.2850 0.0000 0.0000 1763.7427 -7361.6876 299.5463 -9125.4303 -7418.9920 300.5140 -367.9596 -265.7152 30748.5352 -393.6968 -330.5800
ENERGY: 900000 3.5291 7.0906 6.5374 0.0000 -10616.1821 1435.8052 0.0000 0.0000 1720.8036 -7442.4163 292.2537 -9163.2199 -7417.9765 299.4490 25.5647 126.2234 30779.0201 -172.0468 -109.7051
ENERGY: 1200000 5.8557 6.0678 7.3249 0.0000 -10747.8177 1465.5436 0.0000 0.0000 1801.7569 -7461.2688 306.0025 -9263.0257 -7419.6358 300.1584 176.7125 158.7121 30405.9901 -35.6851 23.8193
ENERGY: 1500000 6.4755 4.4111 7.0899 0.0000 -10686.4895 1521.5399 0.0000 0.0000 1791.0673 -7355.9060 304.1870 -9146.9732 -7413.9574 300.1198 854.7963 956.9564 30270.1261 79.7242 135.5015
TCL: Running FEP window   9: Lambda1 0.39999999999999997 Lambda2 0.44999999999999996 [dLambda 0.04999999999999999]
TCL: Setting parameter firsttimestep to 0
TCL: Setting parameter alchLambda to 0.39999999999999997
Info: NONBONDED TABLE R-SQUARED SPACING: 0.0625
Info: NONBONDED TABLE SIZE: 705 POINTS
TCL: Setting parameter alchLambda2 to 0.44999999999999996
Info: NONBONDED TABLE R-SQUARED SPACING: 0.0625
Info: NONBONDED TABLE SIZE: 705 POINTS
TCL: Running for 1500000 steps
ETITLE: TS BOND ANGLE DIHED IMPRP ELECT VDW BOUNDARY MISC KINETIC TOTAL TEMP POTENTIAL TOTALAVG TEMPAVG PRESSURE GPRESSURE VOLUME PRESSAVG GPRESSAVG
ENERGY: 0 6.4755 4.4111 7.0899 0.0000 -10686.4890 1522.0215 0.0000 0.0000 1790.2165 -7356.2746 304.0425 -9146.4911 -7356.2746 304.0425 883.0224 973.5910 30270.1261 883.0224 973.5910
ENERGY: 300000 8.7334 4.9256 4.5425 0.0000 -10560.3977 1360.0315 0.0000 0.0000 1803.4863 -7378.6784 306.2962 -9182.1647 -7365.2545 303.0272 -678.4484 -603.4079 30893.0515 202.4270 287.3898
ENERGY: 600000 7.9858 5.2895 5.8059 0.0000 -10671.1990 1431.3287 0.0000 0.0000 1754.6151 -7466.1740 297.9961 -9220.7891 -7392.8826 303.3270 -256.7652 -163.2850 30199.6223 28.7453 110.3485
ENERGY: 900000 8.0277 5.6854 4.4447 0.0000 -10695.3351 1447.7434 0.0000 0.0000 1767.8677 -7461.5663 300.2469 -9229.4340 -7406.1818 302.4617 -92.3561 -104.5351 30742.8641 11.5035 79.1553
ENERGY: 1200000 9.7857 5.7688 2.0167 0.0000 -10667.7120 1393.7431 0.0000 0.0000 1692.3155 -7564.0823 287.4154 -9256.3978 -7416.7121 301.4362 -587.6374 -532.1188 30732.0315 -37.0959 31.2785
ENERGY: 1500000 4.3818 6.6685 6.0797 0.0000 -10616.3051 1414.0390 0.0000 0.0000 1792.5861 -7392.5500 304.4449 -9185.1361 -7402.5563 301.8161 1.2840 23.3168 30488.2280 25.4485 93.7680
TCL: Running FEP window  10: Lambda1 0.44999999999999996 Lambda2 0.49999999999999994 [dLambda 0.04999999999999999]
TCL: Setting parameter firsttimestep to 0
TCL: Setting parameter alchLambda to 0.44999999999999996
Info: NONBONDED TABLE R-SQUARED SPACING: 0.0625
Info: NONBONDED TABLE SIZE: 705 POINTS
TCL: Setting parameter alchLambda2 to 0.49999999999999994
Info: NONBONDED TABLE R-SQUARED SPACING: 0.0625
Info: NONBONDED TABLE SIZE: 705 POINTS
TCL: Running for 1500000 steps
ETITLE: TS BOND ANGLE DIHED IMPRP ELECT VDW BOUNDARY MISC KINETIC TOTAL TEMP POTENTIAL TOTALAVG TEMPAVG PRESSURE GPRESSURE VOLUME PRESSAVG GPRESSAVG
ENERGY: 0 4.3818 6.6685 6.0797 0.0000 -10616.3048 1412.9573 0.0000 0.0000 1791.7227 -7394.4947 304.2983 -9186.2174 -7394.4947 304.2983 -59.9677 25.3663 30488.2280 -59.9677 25.3663
ENERGY: 300000 7.8477 7.1104 4.5293 0.0000 -10697.6135 1401.7710 0.0000 0.0000 1764.3284 -7512.0268 299.6458 -9276.3551 -7472.2026 298.9292 -589.0711 -517.7304 30546.2325 -93.4677 -16.7579
ENERGY: 600000 9.2932 3.9889 4.3364 0.0000 -10669.5342 1442.6493 0.0000 0.0000 1702.0767 -7507.1897 289.0732 -9209.2664 -7458.6197 298.3189 71.5568 121.2523 30328.4986 14.7557 76.6145
ENERGY: 900000 5.6073 7.0525 7.7295 0.0000 -10656.1300 1432.0467 0.0000 0.0000 1784.8673 -7418.8267 303.1340 -9203.6939 -7438.2434 298.7092 139.4108 195.5103 30303.9468 63.9942 125.1163
ENERGY: 1200000 8.1326 8.3642 3.5739 0.0000 -10476.5359 1347.1647 0.0000 0.0000 1796.0745 -7313.2260 305.0374 -9109.3005 -7434.0468 299.5169 -738.2800 -662.2496 31017.4935 -17.3989 45.0776
ENERGY: 1500000 8.2925 5.2072 5.5157 0.0000 -10644.3599 1376.2901 0.0000 0.0000 1784.2111 -7464.8431 303.0226 -9249.0542 -7436.9675 299.5817 -802.7288 -677.8717 30418.5504 -98.4947 -38.1028
TCL: Running FEP window  11: Lambda1 0.49999999999999994 Lambda2 0.5499999999999999 [dLambda 0.04999999999999999]
TCL: Setting parameter firsttimestep to 0
TCL: Setting parameter alchLambda to 0.49999999999999994
Info: NONBONDED TABLE R-SQUARED SPACING: 0.0625
Info: NONBONDED TABLE SIZE: 705 POINTS
TCL: Setting parameter alchLambda2 to 0.5499999999999999
Info: NONBONDED TABLE R-SQUARED SPACING: 0.0625
Info: NONBONDED TABLE SIZE: 705 POINTS
TCL: Running for 1500000 steps
ETITLE: TS BOND ANGLE DIHED IMPRP ELECT VDW BOUNDARY MISC KINETIC TOTAL TEMP POTENTIAL TOTALAVG TEMPAVG PRESSURE GPRESSURE VOLUME PRESSAVG GPRESSAVG
ENERGY: 0 8.2925 5.2072 5.5157 0.0000 -10644.3609 1376.7488 0.0000 0.0000 1783.3485 -7465.2481 302.8761 -9248.5966 -7465.2481 302.8761 -754.2331 -664.8980 30418.5504 -754.2331 -664.8980
ENERGY: 300000 6.9261 3.8935 6.2255 0.0000 -10747.1539 1512.3870 0.0000 0.0000 1755.7210 -7462.0008 298.1839 -9217.7218 -7461.2058 297.6618 833.0722 801.8491 29986.7234 -221.1201 -164.7706
ENERGY: 600000 5.6718 3.4212 3.6576 0.0000 -10503.1982 1342.5279 0.0000 0.0000 1818.9357 -7328.9841 308.9200 -9147.9197 -7436.3447 300.6748 -326.9834 -258.9771 30244.6616 -288.1872 -218.3074
ENERGY: 900000 10.7072 4.0659 7.7507 0.0000 -10662.3349 1426.8697 0.0000 0.0000 1728.2773 -7484.6640 293.5230 -9212.9413 -7430.8074 300.1944 -389.0806 -366.2196 30856.3207 -282.0290 -218.1911
ENERGY: 1200000 7.2004 4.5204 5.4478 0.0000 -10652.3306 1484.9312 0.0000 0.0000 1789.9564 -7360.2744 303.9983 -9150.2307 -7418.3641 301.2509 559.5160 549.2771 30249.5604 -179.2459 -121.7720
ENERGY: 1500000 10.0471 4.6478 6.1914 0.0000 -10634.0213 1454.9568 0.0000 0.0000 1773.9890 -7384.1891 301.2865 -9158.1781 -7422.2239 300.8796 159.2361 229.6727 30337.9520 -140.4319 -82.1487
TCL: Running FEP window  12: Lambda1 0.5499999999999999 Lambda2 0.6    [dLambda 0.050000000000000044]
TCL: Setting parameter firsttimestep to 0
TCL: Setting parameter alchLambda to 0.5499999999999999
Info: NONBONDED TABLE R-SQUARED SPACING: 0.0625
Info: NONBONDED TABLE SIZE: 705 POINTS
TCL: Setting parameter alchLambda2 to 0.6
Info: NONBONDED TABLE R-SQUARED SPACING: 0.0625
Info: NONBONDED TABLE SIZE: 705 POINTS
TCL: Running for 1500000 steps
ETITLE: TS BOND ANGLE DIHED IMPRP ELECT VDW BOUNDARY MISC KINETIC TOTAL TEMP POTENTIAL TOTALAVG TEMPAVG PRESSURE GPRESSURE VOLUME PRESSAVG GPRESSAVG
ENERGY: 0 10.0471 4.6478 6.1914 0.0000 -10633.7912 1454.4577 0.0000 0.0000 1773.1619 -7385.2852 301.1460 -9158.4471 -7385.2852 301.1460 168.1625 237.4101 30337.9520 168.1625 237.4101
ENERGY: 300000 6.3151 5.4798 7.8371 0.0000 -10627.3592 1373.6609 0.0000 0.0000 1723.7271 -7510.3391 292.7502 -9234.0662 -7425.2591 301.0092 -787.6858 -760.7699 30476.0031 -129.4956 -75.8984
ENERGY: 600000 8.8481 4.3565 8.5560 0.0000 -10761.3921 1468.1350 0.0000 0.0000 1725.9292 -7545.5672 293.1242 -9271.4964 -7443.3923 299.5127 365.0985 409.9146 30260.4349 2.2499 67.6855
ENERGY: 900000 11.4910 4.0118 5.1649 0.0000 -10629.6370 1400.9972 0.0000 0.0000 1747.7589 -7460.2132 296.8317 -9207.9721 -7453.9855 299.7431 -367.4261 -334.5522 30536.9914 -105.3542 -36.6187
ENERGY: 1200000 3.5045 7.9256 5.9945 0.0000 -10733.8112 1441.7109 0.0000 0.0000 1778.3405 -7496.3352 302.0255 -9274.6757 -7461.4088 299.7410 55.9110 106.8478 30199.8994 -75.1308 -8.4935
ENERGY: 1500000 8.8438 7.1950 9.1371 0.0000 -10626.0597 1413.1904 0.0000 0.0000 1816.4660 -7371.2274 308.5006 -9187.6934 -7452.9016 300.6191 -443.6292 -371.5572 30786.6214 -98.7541 -32.9718
TCL: Running FEP window  13: Lambda1 0.6    Lambda2 0.65   [dLambda 0.050000000000000044]
TCL: Setting parameter firsttimestep to 0
TCL: Setting parameter alchLambda to 0.6
Info: NONBONDED TABLE R-SQUARED SPACING: 0.0625
Info: NONBONDED TABLE SIZE: 705 POINTS
TCL: Setting parameter alchLambda2 to 0.65
Info: NONBONDED TABLE R-SQUARED SPACING: 0.0625
Info: NONBONDED TABLE SIZE: 705 POINTS
TCL: Running for 1500000 steps
ETITLE: TS BOND ANGLE DIHED IMPRP ELECT VDW BOUNDARY MISC KINETIC TOTAL TEMP POTENTIAL TOTALAVG TEMPAVG PRESSURE GPRESSURE VOLUME PRESSAVG GPRESSAVG
ENERGY: 0 8.8438 7.1950 9.1371 0.0000 -10626.1722 1412.8453 0.0000 0.0000 1815.6013 -7372.5498 308.3537 -9188.1510 -7372.5498 308.3537 -443.5747 -361.8321 30786.6214 -443.5747 -361.8321
ENERGY: 300000 6.4857 7.8047 6.2201 0.0000 -10744.3484 1487.0109 0.0000 0.0000 1802.0222 -7434.8048 306.0475 -9236.8269 -7407.9292 304.3210 483.7300 544.8681 30207.5113 -199.1074 -123.1942
ENERGY: 600000 5.8168 2.8906 5.4439 0.0000 -10722.8945 1467.1590 0.0000 0.0000 1756.0985 -7485.4858 298.2481 -9241.5843 -7421.4383 301.2530 238.2106 413.1007 30410.5583 -72.8987 5.1439
ENERGY: 900000 4.8936 7.0122 3.7431 0.0000 -10558.4578 1340.6949 0.0000 0.0000 1795.2114 -7406.9027 304.8908 -9202.1140 -7430.8905 299.7019 -489.9687 -437.3030 30242.0672 -199.0473 -133.2338
ENERGY: 1200000 8.7143 3.8923 6.2712 0.0000 -10681.6211 1411.6426 0.0000 0.0000 1793.2605 -7457.8402 304.5595 -9251.1007 -7430.2652 300.5912 -272.0573 -189.7144 30256.8955 -97.6573 -37.5937
ENERGY: 1500000 11.2206 3.2107 6.0006 0.0000 -10561.0976 1426.5174 0.0000 0.0000 1784.8181 -7329.3302 303.1257 -9114.1483 -7431.1762 300.1099 80.6450 107.2336 30679.3830 -127.2082 -67.3413
TCL: Running FEP window  14: Lambda1 0.65   Lambda2 0.7000000000000001 [dLambda 0.050000000000000044]
TCL: Setting parameter firsttimestep to 0
TCL: Setting parameter alchLambda to 0.65
Info: NONBONDED TABLE R-SQUARED SPACING: 0.0625
Info: NONBONDED TABLE SIZE: 705 POINTS
TCL: Setting parameter alchLambda2 to 0.7000000000000001
Info: NONBONDED TABLE R-SQUARED SPACING: 0.0625
Info: NONBONDED TABLE SIZE: 705 POINTS
TCL: Running for 1500000 steps
ETITLE: TS BOND ANGLE DIHED IMPRP ELECT VDW BOUNDARY MISC KINETIC TOTAL TEMP POTENTIAL TOTALAVG TEMPAVG PRESSURE GPRESSURE VOLUME PRESSAVG GPRESSAVG
ENERGY: 0 11.2206 3.2107 6.0006 0.0000 -10561.2915 1426.5057 0.0000 0.0000 1783.9521 -7330.4019 302.9786 -9114.3539 -7330.4019 302.9786 40.6053 121.3319 30679.3830 40.6053 121.3319
ENERGY: 300000 7.0629 2.7245 5.2179 0.0000 -10553.0630 1315.8974 0.0000 0.0000 1727.4969 -7494.6634 293.3905 -9222.1602 -7434.8071 295.8885 -1158.9320 -1048.4670 30652.3254 -54.3226 30.8379
ENERGY: 600000 6.8979 7.1870 5.8340 0.0000 -10691.3159 1433.9999 0.0000 0.0000 1748.7775 -7488.6197 297.0047 -9237.3972 -7443.1971 296.2411 -68.1196 25.2895 30244.3122 114.4426 190.6531
ENERGY: 900000 5.4600 5.7194 1.6267 0.0000 -10666.0349 1430.1476 0.0000 0.0000 1781.8838 -7441.1974 302.6273 -9223.0812 -7445.3602 297.1682 82.4666 244.9909 30383.1293 131.5785 210.6434
ENERGY: 1200000 8.9788 7.5291 7.1701 0.0000 -10866.9151 1671.0791 0.0000 0.0000 1723.1350 -7449.0230 292.6497 -9172.1580 -7437.8903 296.9697 2370.4965 2512.3544 29714.4301 288.9836 372.0554
ENERGY: 1500000 14.2123 7.7451 4.0898 0.0000 -10748.2731 1466.9457 0.0000 0.0000 1734.9144 -7520.3657 294.6502 -9255.2801 -7445.6148 296.7047 -228.7050 -174.4920 30439.0591 226.2041 305.3545
TCL: Running FEP window  15: Lambda1 0.7000000000000001 Lambda2 0.7500000000000001 [dLambda 0.050000000000000044]
TCL: Setting parameter firsttimestep to 0
TCL: Setting parameter alchLambda to 0.7000000000000001
Info: NONBONDED TABLE R-SQUARED SPACING: 0.0625
Info: NONBONDED TABLE SIZE: 705 POINTS
TCL: Setting parameter alchLambda2 to 0.7500000000000001
Info: NONBONDED TABLE R-SQUARED SPACING: 0.0625
Info: NONBONDED TABLE SIZE: 705 POINTS
TCL: Running for 1500000 steps
ETITLE: TS BOND ANGLE DIHED IMPRP ELECT VDW BOUNDARY MISC KINETIC TOTAL TEMP POTENTIAL TOTALAVG TEMPAVG PRESSURE GPRESSURE VOLUME PRESSAVG GPRESSAVG
ENERGY: 0 14.2123 7.7451 4.0898 0.0000 -10748.3662 1466.9012 0.0000 0.0000 1734.0239 -7521.3938 294.4990 -9255.4177 -7521.3938 294.4990 -249.6182 -163.5491 30439.0591 -249.6182 -163.5491
ENERGY: 300000 7.8985 5.4035 6.4012 0.0000 -10732.8196 1449.3811 0.0000 0.0000 1771.1652 -7492.5700 300.8069 -9263.7352 -7473.3305 297.2170 -151.2443 -61.4903 30252.5371 -12.9941 44.1254
ENERGY: 600000 7.2854 3.7672 5.3034 0.0000 -10734.2843 1468.8815 0.0000 0.0000 1758.8489 -7490.1980 298.7152 -9249.0468 -7468.5240 299.2052 -139.2871 -94.1499 31091.8830 -32.3580 25.6567
ENERGY: 900000 6.6560 2.5528 6.1953 0.0000 -10627.3069 1414.6536 0.0000 0.0000 1798.5014 -7398.7478 305.4496 -9197.2492 -7459.0720 300.6706 171.6667 212.9026 30524.1983 -78.4023 -19.0890
ENERGY: 1200000 4.5538 5.1890 7.3197 0.0000 -10732.1695 1495.6727 0.0000 0.0000 1771.9550 -7447.4793 300.9410 -9219.4343 -7446.6987 301.7491 399.0271 437.9932 30633.3060 27.6679 86.6273
ENERGY: 1500000 5.3307 6.1610 4.5091 0.0000 -10811.7213 1566.6752 0.0000 0.0000 1714.9320 -7514.1133 291.2565 -9229.0453 -7445.3827 300.6882 839.4683 917.5274 30282.4843 75.3278 135.0931
TCL: Running FEP window  16: Lambda1 0.7500000000000001 Lambda2 0.8000000000000002 [dLambda 0.050000000000000044]
TCL: Setting parameter firsttimestep to 0
TCL: Setting parameter alchLambda to 0.7500000000000001
Info: NONBONDED TABLE R-SQUARED SPACING: 0.0625
Info: NONBONDED TABLE SIZE: 705 POINTS
TCL: Setting parameter alchLambda2 to 0.8000000000000002
Info: NONBONDED TABLE R-SQUARED SPACING: 0.0625
Info: NONBONDED TABLE SIZE: 705 POINTS
TCL: Running for 1500000 steps
ETITLE: TS BOND ANGLE DIHED IMPRP ELECT VDW BOUNDARY MISC KINETIC TOTAL TEMP POTENTIAL TOTALAVG TEMPAVG PRESSURE GPRESSURE VOLUME PRESSAVG GPRESSAVG
ENERGY: 0 5.3307 6.1610 4.5091 0.0000 -10811.7547 1565.7264 0.0000 0.0000 1714.0400 -7515.9875 291.1050 -9230.0275 -7515.9875 291.1050 828.0590 924.2351 30282.4843 828.0590 924.2351
ENERGY: 300000 7.8958 4.2118 6.2097 0.0000 -10694.9314 1470.8031 0.0000 0.0000 1719.4847 -7486.3263 292.0297 -9205.8110 -7513.4044 293.5566 122.6561 202.2195 30659.0758 -270.2857 -185.4577
ENERGY: 600000 7.1259 5.5007 3.8681 0.0000 -10704.1439 1394.9635 0.0000 0.0000 1807.8247 -7484.8610 307.0330 -9292.6857 -7485.2689 297.1209 -547.1966 -503.8470 30849.5988 -55.4330 31.3283
ENERGY: 900000 7.7778 6.3500 3.8264 0.0000 -10771.3365 1485.6858 0.0000 0.0000 1791.0146 -7476.6819 304.1781 -9267.6965 -7470.7815 297.4967 17.4638 111.1751 30515.8984 -83.6228 -1.6077
ENERGY: 1200000 6.0719 3.7816 3.9561 0.0000 -10689.3181 1460.2854 0.0000 0.0000 1779.4020 -7435.8211 302.2058 -9215.2231 -7459.9587 299.1902 540.9281 592.5657 30169.7029 42.1855 117.4230
ENERGY: 1500000 5.4731 4.5968 4.5096 0.0000 -10672.8426 1420.2436 0.0000 0.0000 1743.4404 -7494.5791 296.0983 -9238.0195 -7461.9346 298.5295 -195.3470 -126.2620 30656.0315 20.1717 90.9475
TCL: Running FEP window  17: Lambda1 0.8000000000000002 Lambda2 0.8500000000000002 [dLambda 0.050000000000000044]
TCL: Setting parameter firsttimestep to 0
TCL: Setting parameter alchLambda to 0.8000000000000002
Info: NONBONDED TABLE R-SQUARED SPACING: 0.0625
Info: NONBONDED TABLE SIZE: 705 POINTS
TCL: Setting parameter alchLambda2 to 0.8500000000000002
Info: NONBONDED TABLE R-SQUARED SPACING: 0.0625
Info: NONBONDED TABLE SIZE: 705 POINTS
TCL: Running for 1500000 steps
ETITLE: TS BOND ANGLE DIHED IMPRP ELECT VDW BOUNDARY MISC KINETIC TOTAL TEMP POTENTIAL TOTALAVG TEMPAVG PRESSURE GPRESSURE VOLUME PRESSAVG GPRESSAVG
ENERGY: 0 5.4731 4.5968 4.5096 0.0000 -10673.1895 1419.2740 0.0000 0.0000 1742.5750 -7496.7610 295.9513 -9239.3360 -7496.7610 295.9513 -204.5754 -120.5905 30656.0315 -204.5754 -120.5905
ENERGY: 300000 6.7019 6.2659 6.2786 0.0000 -10706.7411 1473.5373 0.0000 0.0000 1709.5966 -7504.3607 290.3504 -9213.9573 -7444.3325 300.8857 -188.1612 -65.1491 30945.5616 -39.8825 37.0700
ENERGY: 600000 8.7305 4.8042 5.8603 0.0000 -10700.3959 1489.0211 0.0000 0.0000 1796.0649 -7395.9149 305.0358 -9191.9798 -7436.1924 300.9952 441.6321 532.5781 30466.7074 -163.9814 -78.8682
ENERGY: 900000 6.1568 3.6726 8.3697 0.0000 -10772.2786 1484.7524 0.0000 0.0000 1742.1083 -7527.2189 295.8720 -9269.3272 -7437.0480 302.1084 471.6122 562.9640 29947.3458 -191.3030 -117.3821
ENERGY: 1200000 7.5635 6.6481 3.3316 0.0000 -10666.9136 1421.0545 0.0000 0.0000 1801.9662 -7426.3497 306.0380 -9228.3159 -7437.0665 302.4474 -48.7955 25.6773 30746.2391 -204.7535 -134.3649
ENERGY: 1500000 9.7457 6.5307 9.3199 0.0000 -10611.0136 1359.4790 0.0000 0.0000 1804.3990 -7421.5393 306.4512 -9225.9383 -7432.6938 302.3054 -670.3622 -606.1829 30444.3613 -246.6357 -178.1349
TCL: Running FEP window  18: Lambda1 0.8500000000000002 Lambda2 0.9000000000000002 [dLambda 0.050000000000000044]
TCL: Setting parameter firsttimestep to 0
TCL: Setting parameter alchLambda to 0.8500000000000002
Info: NONBONDED TABLE R-SQUARED SPACING: 0.0625
Info: NONBONDED TABLE SIZE: 705 POINTS
TCL: Setting parameter alchLambda2 to 0.9000000000000002
Info: NONBONDED TABLE R-SQUARED SPACING: 0.0625
Info: NONBONDED TABLE SIZE: 705 POINTS
TCL: Running for 1500000 steps
ETITLE: TS BOND ANGLE DIHED IMPRP ELECT VDW BOUNDARY MISC KINETIC TOTAL TEMP POTENTIAL TOTALAVG TEMPAVG PRESSURE GPRESSURE VOLUME PRESSAVG GPRESSAVG
ENERGY: 0 9.7457 6.5308 9.3199 0.0000 -10611.1404 1359.9274 0.0000 0.0000 1803.5380 -7422.0786 306.3050 -9225.6167 -7422.0786 306.3050 -679.4510 -577.4263 30444.3613 -679.4510 -577.4263
ENERGY: 300000 10.2327 8.1289 7.2084 0.0000 -10560.9090 1390.0944 0.0000 0.0000 1804.8325 -7340.4120 306.5248 -9145.2445 -7401.9119 303.9484 -113.3038 -72.8503 30692.5144 -255.3306 -197.3437
ENERGY: 600000 7.1335 2.2609 6.0397 0.0000 -10534.0251 1295.6585 0.0000 0.0000 1731.8078 -7491.1246 294.1226 -9222.9325 -7408.9367 302.1931 -1149.1928 -1166.1037 30846.6083 -466.2895 -408.9593
ENERGY: 900000 5.0030 5.7473 5.5581 0.0000 -10827.2874 1510.3108 0.0000 0.0000 1801.2576 -7499.4107 305.9177 -9300.6683 -7407.7160 303.2052 978.9844 1018.9319 30082.7314 -326.3646 -269.0150
ENERGY: 1200000 10.4492 3.3648 5.3169 0.0000 -10705.8893 1464.1452 0.0000 0.0000 1721.9775 -7500.6358 292.4531 -9222.6133 -7425.5999 301.9460 65.7486 126.9622 30630.6944 -295.6473 -232.2416
ENERGY: 1500000 8.9535 5.0061 6.8030 0.0000 -10741.6130 1448.9470 0.0000 0.0000 1773.0669 -7498.8365 301.1299 -9271.9034 -7430.0094 301.9202 -514.8539 -458.8020 31122.6044 -348.0387 -290.9404
TCL: Running FEP window  19: Lambda1 0.9000000000000002 Lambda2 0.9500000000000003 [dLambda 0.050000000000000044]
TCL: Setting parameter firsttimestep to 0
TCL: Setting parameter alchLambda to 0.9000000000000002
Info: NONBONDED TABLE R-SQUARED SPACING: 0.0625
Info: NONBONDED TABLE SIZE: 705 POINTS
TCL: Setting parameter alchLambda2 to 0.9500000000000003
Info: NONBONDED TABLE R-SQUARED SPACING: 0.0625
Info: NONBONDED TABLE SIZE: 705 POINTS
TCL: Running for 1500000 steps
ETITLE: TS BOND ANGLE DIHED IMPRP ELECT VDW BOUNDARY MISC KINETIC TOTAL TEMP POTENTIAL TOTALAVG TEMPAVG PRESSURE GPRESSURE VOLUME PRESSAVG GPRESSAVG
ENERGY: 0 8.9535 5.0061 6.8030 0.0000 -10742.1651 1448.8545 0.0000 0.0000 1772.1867 -7500.3613 300.9804 -9272.5480 -7500.3613 300.9804 -523.5402 -440.6375 31122.6044 -523.5402 -440.6375
ENERGY: 300000 8.1376 4.7234 6.6755 0.0000 -10612.3589 1368.4109 0.0000 0.0000 1714.7759 -7509.6355 291.2300 -9224.4114 -7437.9387 298.9492 -555.1998 -554.3154 30595.6950 -555.2089 -485.1201
ENERGY: 600000 5.9479 3.1857 7.6095 0.0000 -10549.1891 1350.4968 0.0000 0.0000 1762.9571 -7418.9921 299.4129 -9181.9492 -7448.9219 299.2687 -635.8986 -537.0108 30545.9996 -266.8431 -199.1317
ENERGY: 900000 5.6897 5.1275 4.5402 0.0000 -10677.7379 1463.1621 0.0000 0.0000 1786.9747 -7412.2436 303.4919 -9199.2183 -7439.5523 300.1529 -9.2636 94.3153 31247.5822 -250.1703 -175.5256
ENERGY: 1200000 11.1873 7.2441 9.4369 0.0000 -10775.7990 1487.1107 0.0000 0.0000 1756.7497 -7504.0703 298.3586 -9260.8200 -7444.9663 300.3294 56.3938 114.9582 30795.5577 -246.1484 -177.7078
ENERGY: 1500000 9.9860 3.7573 7.7506 0.0000 -10686.8219 1414.8203 0.0000 0.0000 1715.0561 -7535.4516 291.2776 -9250.5077 -7451.3884 299.5328 -313.2139 -298.2343 30738.1142 -189.1797 -122.7331
TCL: Running FEP window  20: Lambda1 0.9500000000000003 Lambda2 1.0    [dLambda 0.04999999999999971]
TCL: Setting parameter firsttimestep to 0
TCL: Setting parameter alchLambda to 0.9500000000000003
Info: NONBONDED TABLE R-SQUARED SPACING: 0.0625
Info: NONBONDED TABLE SIZE: 705 POINTS
TCL: Setting parameter alchLambda2 to 1.0
Info: NONBONDED TABLE R-SQUARED SPACING: 0.0625
Info: NONBONDED TABLE SIZE: 705 POINTS
TCL: Running for 1500000 steps
ETITLE: TS BOND ANGLE DIHED IMPRP ELECT VDW BOUNDARY MISC KINETIC TOTAL TEMP POTENTIAL TOTALAVG TEMPAVG PRESSURE GPRESSURE VOLUME PRESSAVG GPRESSAVG
ENERGY: 0 9.9860 3.7573 7.7506 0.0000 -10687.2988 1414.6339 0.0000 0.0000 1714.1787 -7536.9923 291.1286 -9251.1710 -7536.9923 291.1286 -349.1423 -279.1063 30738.1142 -349.1423 -279.1063
ENERGY: 300000 7.5242 2.9740 8.0057 0.0000 -10641.4487 1413.9977 0.0000 0.0000 1703.7290 -7505.2181 289.3538 -9208.9471 -7488.3890 296.4689 -236.1156 -133.8838 30667.1652 -198.6973 -117.6845
ENERGY: 600000 8.5454 3.7146 4.7227 0.0000 -10719.2065 1468.8165 0.0000 0.0000 1734.3238 -7499.0836 294.5499 -9233.4073 -7460.6038 300.0960 -41.1310 52.4095 30672.5922 -146.3951 -74.4759
ENERGY: 900000 5.9820 4.0190 11.0066 0.0000 -10648.2378 1437.9907 0.0000 0.0000 1799.7026 -7389.5369 305.6536 -9189.2395 -7460.0453 300.0386 334.1991 368.8290 30691.3297 -40.3766 14.0292
ENERGY: 1200000 5.0938 5.3775 5.4626 0.0000 -10710.3561 1453.2037 0.0000 0.0000 1811.8799 -7429.3386 307.7217 -9241.2185 -7449.4314 301.3575 365.4170 492.5026 30035.2558 -62.3991 4.6121
ENERGY: 1500000 7.0334 5.0355 5.7606 0.0000 -10949.7344 1650.5244 0.0000 0.0000 1743.0690 -7538.3115 296.0352 -9281.3805 -7450.2030 301.9344 1686.7206 1706.7267 30450.2605 60.6991 125.3066
TCL: Exiting due to exit command.
