Info: SIMULATION PARAMETERS:
Info: TIMESTEP               2
Info: NUMBER OF STEPS        0
Info: STEPS PER CYCLE        10
Info: PERIODIC CELL BASIS 1  32.778 0 0
Info: PERIODIC CELL BASIS 2  0 34.1868 0
Info: PERIODIC CELL BASIS 3  0 0 27.6724
Info: PERIODIC CELL CENTER   0 0 0
Info: WRAPPING WATERS AROUND PERIODIC BOUNDARIES ON OUTPUT.
Info: WRAPPING ALL CLUSTERS AROUND PERIODIC BOUNDARIES ON OUTPUT.
Info: FIRST LDB TIMESTEP     50
Info: LAST LDB TIMESTEP     -1
Info: HOM BACKGROUND SCALING 1
Info: PME BACKGROUND SCALING 1
Info: MIN ATOMS PER PATCH    40
Info: EMPTY PATCH LOAD       40 ATOMS
Info: VELOCITY FILE          mobley_2844990_equil.vel
Info: CENTER OF MASS MOVING INITIALLY? NO
Info: DIELECTRIC             1
Info: EXCLUDE                SCALED ONE-FOUR
Info: 1-4 ELECTROSTATICS SCALED BY 0.833333
Info: MODIFIED 1-4 VDW PARAMETERS WILL BE USED
Info: DCD FILENAME           mobley_2844990_prod.dcd
Info: DCD FREQUENCY          100000
Info: DCD FIRST STEP         100000
Info: DCD FILE WILL CONTAIN UNIT CELL DATA
Info: XST FILENAME           mobley_2844990_prod.xst
Info: XST FREQUENCY          100000
Info: NO VELOCITY DCD OUTPUT
Info: NO FORCE DCD OUTPUT
Info: OUTPUT FILENAME        mobley_2844990_prod
Info: BINARY OUTPUT FILES WILL BE USED
Info: RESTART FILENAME       mobley_2844990_prod.restart
Info: RESTART FREQUENCY      100000
Info: BINARY RESTART FILES WILL BE USED
Info: CUTOFF                 9
Info: PAIRLIST DISTANCE      11
Info: PAIRLIST SHRINK RATE   0.01
Info: PAIRLIST GROW RATE     0.01
Info: PAIRLIST TRIGGER       0.3
Info: PAIRLISTS PER CYCLE    2
Info: PAIRLISTS ENABLED
Info: MARGIN                 2
Info: HYDROGEN GROUP CUTOFF  2.5
Info: PATCH DIMENSION        15.5
Info: ENERGY OUTPUT STEPS    100000
Info: ENERGY EVALUATION STEPS    100000
Info: OUTPUT ENERGY PRECISION 4
Info: CROSSTERM ENERGY INCLUDED IN DIHEDRAL
Info: TIMING OUTPUT STEPS    1000000
Info: PRESSURE OUTPUT STEPS  100000
Info: ALCHEMICAL FEP ON
Info: FEP CURRENT LAMBDA VALUE     1
Info: FEP COMPARISON LAMBDA VALUE  0.95
Info: FEP INTRA-ALCHEMICAL NON-BONDED INTERACTIONS WILL BE RETAINED
Info: FEP INTRA-ALCHEMICAL BONDED INTERACTIONS WILL BE RETAINED
Info: FEP VDW SHIFTING COEFFICIENT 5
Info: FEP ELEC. ACTIVE FOR ANNIHILATED PARTICLES BETWEEN LAMBDA = 0 AND LAMBDA = 0.5
Info: FEP ELEC. ACTIVE FOR EXNIHILATED PARTICLES BETWEEN LAMBDA = 0.5 AND LAMBDA = 1
Info: FEP VDW ACTIVE FOR ANNIHILATED PARTICLES BETWEEN LAMBDA = 0 AND LAMBDA = 1
Info: FEP VDW ACTIVE FOR EXNIHILATED PARTICLES BETWEEN LAMBDA = 0 AND LAMBDA = 1
Info: FEP BOND ACTIVE FOR ANNIHILATED PARTICLES BETWEEN LAMBDA = 1 AND LAMBDA = 1
Info: FEP BOND ACTIVE FOR EXNIHILATED PARTICLES BETWEEN LAMBDA = 0 AND LAMBDA = 0
Info: LANGEVIN DYNAMICS ACTIVE
Info: LANGEVIN TEMPERATURE   300
Info: LANGEVIN USING BBK INTEGRATOR
Info: LANGEVIN DAMPING COEFFICIENT IS 1 INVERSE PS
Info: LANGEVIN DYNAMICS APPLIED TO HYDROGENS
Info: LANGEVIN PISTON PRESSURE CONTROL ACTIVE
Info:        TARGET PRESSURE IS 1.01325 BAR
Info:     OSCILLATION PERIOD IS 50 FS
Info:             DECAY TIME IS 25 FS
Info:     PISTON TEMPERATURE IS 300 K
Info:       PRESSURE CONTROL IS GROUP-BASED
Info:    INITIAL STRAIN RATE IS 0.000474512 0.000474512 0.000474512
Info:       CELL FLUCTUATION IS ISOTROPIC
Info: PARTICLE MESH EWALD (PME) ACTIVE
Info: PME TOLERANCE               1e-06
Info: PME EWALD COEFFICIENT       0.348832
Info: PME INTERPOLATION ORDER     4
Info: PME GRID DIMENSIONS         36 36 28
Info: PME MAXIMUM GRID SPACING    1
Info: PME CALCULATION WILL BE PERFORMED ON GPU
Info: FULL ELECTROSTATIC EVALUATION FREQUENCY      2
Info: USING VERLET I (r-RESPA) MTS SCHEME.
Info: C1 SPLITTING OF LONG RANGE ELECTROSTATICS
Info: PLACING ATOMS IN PATCHES BY HYDROGEN GROUPS
Info: RIGID BONDS TO HYDROGEN : ALL
Info:         ERROR TOLERANCE : 1e-08
Info:          MAX ITERATIONS : 100
Info: RIGID WATER USING SETTLE ALGORITHM
Info: RANDOM NUMBER SEED     1743642244
Info: USE HYDROGEN BONDS?    NO
Info: Using AMBER format force field!
Info: AMBER PARM FILE        mobley_2844990.prmtop
Info: COORDINATE PDB         mobley_2844990.pdb
Info: Exclusions will be read from PARM file!
Info: SCNB (VDW SCALING)     2
Info: USING ARITHMETIC MEAN TO COMBINE L-J SIGMA PARAMETERS
Info: BINARY COORDINATES     mobley_2844990_equil.coor
Info: SUMMARY OF PARAMETERS:
Info: 6 BONDS
Info: 5 ANGLES
Info:   5 HARMONIC
Info:   0 COSINE-BASED
Info: 3 DIHEDRAL
Info: 0 IMPROPER
Info: 0 CROSSTERM
Info: 0 VDW
Info: 21 VDW_PAIRS
Info: 0 NBTHOLE_PAIRS
Info: To read alchdata from file: mobley_2844990.pdb
Info: To read alchflag data from column: 5
Info: STRUCTURE SUMMARY:
Info: 2992 ATOMS
Info: 2994 BONDS
Info: 38 ANGLES
Info: 68 DIHEDRALS
Info: 0 IMPROPERS
Info: 0 CROSSTERMS
Info: 3079 EXCLUSIONS
Info: 2974 RIGID BONDS
Info: ALCH: 0 ATOMS TO DISAPPEAR IN FINAL STATE
Info: ALCH: 22 ATOMS TO APPEAR IN FINAL STATE
Info: 6002 DEGREES OF FREEDOM
Info: 1008 HYDROGEN GROUPS
Info: 3 ATOMS IN LARGEST HYDROGEN GROUP
Info: 1008 MIGRATION GROUPS
Info: 3 ATOMS IN LARGEST MIGRATION GROUP
Info: TOTAL MASS = 18157.8 amu
Info: TOTAL CHARGE = -0.000100005 e
Info: MASS DENSITY = 0.972377 g/cm^3
Info: ATOM DENSITY = 0.0964882 atoms/A^3
Info: ADDED 0 IMPLICIT EXCLUSIONS
Info: NONBONDED TABLE R-SQUARED SPACING: 0.0625
Info: NONBONDED TABLE SIZE: 705 POINTS
Info: REDUCING NUMBER OF PATCHES TO IMPROVE LOAD BALANCE
Info: REMOVING COM VELOCITY 0.11624 0.0137995 0.0850543
Info: Use 3D box decompostion in PME FFT.
Info: Updated CUDA force table with 4096 elements.
Info: Updated CUDA LJ table with 6 x 6 elements.
Info: Found 25 unique exclusion lists needing 72 bytes
TCL: Running for 1500000 steps
ETITLE: TS BOND ANGLE DIHED IMPRP ELECT VDW BOUNDARY MISC KINETIC TOTAL TEMP POTENTIAL TOTALAVG TEMPAVG PRESSURE GPRESSURE VOLUME PRESSAVG GPRESSAVG
ENERGY: 0 8.2953 4.8252 4.3556 0.0000 -10773.5934 1477.4896 0.0000 0.0000 1754.6242 -7524.0035 294.2243 -9278.6277 -7524.0035 294.2243 265.6882 337.9746 31008.9753 265.6882 337.9746
ENERGY: 300000 6.2046 8.6598 9.0216 0.0000 -10702.2746 1384.9101 0.0000 0.0000 1764.1879 -7529.2907 295.8280 -9293.4786 -7540.7711 297.6551 -462.9048 -407.0348 31358.6247 -139.4350 -80.3769
ENERGY: 600000 8.2996 5.1866 8.4184 0.0000 -10851.0268 1516.2854 0.0000 0.0000 1790.0276 -7522.8093 300.1609 -9312.8369 -7541.6752 298.6071 518.9978 547.8229 30892.3939 -16.5447 37.8858
ENERGY: 900000 7.7121 5.2710 8.8503 0.0000 -10694.7164 1445.8204 0.0000 0.0000 1761.8908 -7465.1719 295.4428 -9227.0627 -7539.1951 298.9526 11.5536 73.9038 31478.1062 104.2637 160.2085
ENERGY: 1200000 4.7492 4.2678 7.0926 0.0000 -10705.4519 1370.0451 0.0000 0.0000 1772.2909 -7547.0063 297.1867 -9319.2972 -7529.5436 299.8312 -464.3488 -401.5052 30915.9136 37.3029 94.4858
ENERGY: 1500000 7.0108 6.5749 4.7935 0.0000 -10996.5038 1535.2315 0.0000 0.0000 1839.2798 -7603.6133 308.4198 -9442.8931 -7534.5038 300.6510 786.4226 924.5770 30512.7585 97.9117 159.4004
TCL: Running FEP window   2: Lambda1 0.95   Lambda2 0.8999999999999999 [dLambda -0.050000000000000044]
TCL: Setting parameter firsttimestep to 0
TCL: Setting parameter alchLambda to 0.95
Info: NONBONDED TABLE R-SQUARED SPACING: 0.0625
Info: NONBONDED TABLE SIZE: 705 POINTS
TCL: Setting parameter alchLambda2 to 0.8999999999999999
Info: NONBONDED TABLE R-SQUARED SPACING: 0.0625
Info: NONBONDED TABLE SIZE: 705 POINTS
TCL: Running for 1500000 steps
ETITLE: TS BOND ANGLE DIHED IMPRP ELECT VDW BOUNDARY MISC KINETIC TOTAL TEMP POTENTIAL TOTALAVG TEMPAVG PRESSURE GPRESSURE VOLUME PRESSAVG GPRESSAVG
ENERGY: 0 7.0108 6.5749 4.7935 0.0000 -10995.9862 1536.1437 0.0000 0.0000 1838.4149 -7603.0484 308.2747 -9441.4632 -7603.0484 308.2747 834.6148 915.0687 30512.7585 834.6148 915.0687
ENERGY: 300000 5.0292 4.3801 10.0271 0.0000 -10784.3675 1436.8006 0.0000 0.0000 1820.9888 -7507.1417 305.3526 -9328.1305 -7565.6670 302.5826 -143.0241 -77.6264 30967.7509 -41.0105 14.7325
ENERGY: 600000 8.1440 4.7184 6.6764 0.0000 -10707.6964 1431.3697 0.0000 0.0000 1868.1160 -7388.6718 313.2552 -9256.7878 -7546.9515 303.0907 2.7700 70.5624 31273.1556 12.1170 64.6754
ENERGY: 900000 7.1956 6.6557 4.8657 0.0000 -10817.1960 1395.3159 0.0000 0.0000 1799.2994 -7603.8638 301.7156 -9403.1631 -7559.3781 302.1834 -627.9355 -608.4393 30880.1208 -54.4402 -2.7000
ENERGY: 1200000 5.3484 4.8957 2.9414 0.0000 -10866.4194 1483.3406 0.0000 0.0000 1815.5974 -7554.2959 304.4486 -9369.8933 -7553.2259 303.1386 74.5540 110.8408 30933.9114 -57.5840 -6.0668
ENERGY: 1500000 7.2771 7.5345 5.8060 0.0000 -10872.3772 1454.5324 0.0000 0.0000 1767.7962 -7629.4311 296.4330 -9397.2273 -7552.6406 302.6223 -46.8465 -15.2120 30686.5717 -85.9762 -37.8969
TCL: Running FEP window   3: Lambda1 0.8999999999999999 Lambda2 0.8499999999999999 [dLambda -0.050000000000000044]
TCL: Setting parameter firsttimestep to 0
TCL: Setting parameter alchLambda to 0.8999999999999999
Info: NONBONDED TABLE R-SQUARED SPACING: 0.0625
Info: NONBONDED TABLE SIZE: 705 POINTS
TCL: Setting parameter alchLambda2 to 0.8499999999999999
Info: NONBONDED TABLE R-SQUARED SPACING: 0.0625
Info: NONBONDED TABLE SIZE: 705 POINTS
TCL: Running for 1500000 steps
ETITLE: TS BOND ANGLE DIHED IMPRP ELECT VDW BOUNDARY MISC KINETIC TOTAL TEMP POTENTIAL TOTALAVG TEMPAVG PRESSURE GPRESSURE VOLUME PRESSAVG GPRESSAVG
ENERGY: 0 7.2771 7.5345 5.8060 0.0000 -10871.9179 1454.2853 0.0000 0.0000 1766.9109 -7630.1041 296.2846 -9397.0150 -7630.1041 296.2846 -112.3935 -43.8573 30686.5717 -112.3935 -43.8573
ENERGY: 300000 7.7297 5.0872 7.7537 0.0000 -10837.1757 1459.9400 0.0000 0.0000 1856.6595 -7500.0056 311.3341 -9356.6651 -7569.1822 302.6442 -78.0983 40.4536 30946.1614 178.8422 251.5309
ENERGY: 600000 5.6727 4.9248 4.8001 0.0000 -10835.5177 1459.6974 0.0000 0.0000 1797.7304 -7562.6923 301.4526 -9360.4228 -7567.5889 301.1285 -148.2353 -85.1274 31266.5389 -94.8382 -38.3220
ENERGY: 900000 5.9228 4.9810 5.5406 0.0000 -10816.4225 1428.8815 0.0000 0.0000 1769.3912 -7601.7053 296.7005 -9371.0965 -7559.1621 300.1295 217.5022 242.5909 30448.3045 -219.6061 -167.8444
ENERGY: 1200000 5.3530 4.8334 4.4193 0.0000 -10758.3060 1413.5299 0.0000 0.0000 1824.7659 -7505.4044 305.9860 -9330.1703 -7563.5599 300.2479 -150.3688 -84.3904 31292.5013 -146.3207 -86.3691
ENERGY: 1500000 7.5340 6.4377 4.2869 0.0000 -10704.2771 1390.6644 0.0000 0.0000 1755.0894 -7540.2646 294.3023 -9295.3540 -7557.7794 300.1886 -641.3041 -597.0389 31397.5898 -265.7187 -212.0088
TCL: Running FEP window   4: Lambda1 0.8499999999999999 Lambda2 0.7999999999999998 [dLambda -0.050000000000000044]
TCL: Setting parameter firsttimestep to 0
TCL: Setting parameter alchLambda to 0.8499999999999999
Info: NONBONDED TABLE R-SQUARED SPACING: 0.0625
Info: NONBONDED TABLE SIZE: 705 POINTS
TCL: Setting parameter alchLambda2 to 0.7999999999999998
Info: NONBONDED TABLE R-SQUARED SPACING: 0.0625
Info: NONBONDED TABLE SIZE: 705 POINTS
TCL: Running for 1500000 steps
ETITLE: TS BOND ANGLE DIHED IMPRP ELECT VDW BOUNDARY MISC KINETIC TOTAL TEMP POTENTIAL TOTALAVG TEMPAVG PRESSURE GPRESSURE VOLUME PRESSAVG GPRESSAVG
ENERGY: 0 7.5340 6.4377 4.2869 0.0000 -10703.9776 1391.7913 0.0000 0.0000 1754.2049 -7539.7227 294.1540 -9293.9277 -7539.7227 294.1540 -683.6236 -603.4271 31397.5898 -683.6236 -603.4271
ENERGY: 300000 8.2638 4.1122 5.1700 0.0000 -10795.9116 1428.6867 0.0000 0.0000 1797.4775 -7552.2014 301.4101 -9349.6789 -7526.3501 297.8294 -24.6247 -20.3204 30713.9976 -393.8872 -331.7992
ENERGY: 600000 13.4815 5.0932 8.8952 0.0000 -10785.4640 1423.9342 0.0000 0.0000 1777.6102 -7556.4498 298.0787 -9334.0600 -7521.5129 299.5621 -436.2865 -417.1636 30961.4653 -332.0479 -265.7853
ENERGY: 900000 8.3003 8.4039 4.7701 0.0000 -10767.1701 1390.2153 0.0000 0.0000 1811.7668 -7543.7138 303.8062 -9355.4805 -7522.4050 301.1125 -758.6360 -704.5777 31542.1505 -374.1313 -306.4537
ENERGY: 1200000 8.6045 5.2348 8.1580 0.0000 -10735.2279 1374.3334 0.0000 0.0000 1760.0828 -7578.8144 295.1396 -9338.8973 -7530.2556 299.8099 -683.3534 -512.9432 30921.8514 -371.5340 -298.9605
ENERGY: 1500000 5.3066 3.4528 6.8341 0.0000 -10833.2449 1456.0782 0.0000 0.0000 1764.4114 -7597.1618 295.8655 -9361.5732 -7531.7935 300.0577 -259.4926 -223.3149 31007.5198 -288.8566 -221.4122
TCL: Running FEP window   5: Lambda1 0.7999999999999998 Lambda2 0.7499999999999998 [dLambda -0.050000000000000044]
TCL: Setting parameter firsttimestep to 0
TCL: Setting parameter alchLambda to 0.7999999999999998
Info: NONBONDED TABLE R-SQUARED SPACING: 0.0625
Info: NONBONDED TABLE SIZE: 705 POINTS
TCL: Setting parameter alchLambda2 to 0.7499999999999998
Info: NONBONDED TABLE R-SQUARED SPACING: 0.0625
Info: NONBONDED TABLE SIZE: 705 POINTS
TCL: Running for 1500000 steps
ETITLE: TS BOND ANGLE DIHED IMPRP ELECT VDW BOUNDARY MISC KINETIC TOTAL TEMP POTENTIAL TOTALAVG TEMPAVG PRESSURE GPRESSURE VOLUME PRESSAVG GPRESSAVG
ENERGY: 0 5.3066 3.4528 6.8341 0.0000 -10832.3965 1456.9584 0.0000 0.0000 1763.5189 -7596.3257 295.7158 -9359.8447 -7596.3257 295.7158 -323.1624 -229.3270 31007.5198 -323.1624 -229.3270
ENERGY: 300000 8.4072 3.7197 7.2300 0.0000 -10898.1764 1483.5272 0.0000 0.0000 1791.5208 -7603.7716 300.4113 -9395.2924 -7587.9752 298.3289 325.1460 311.7241 30539.1857 -10.2989 36.6258
ENERGY: 600000 8.5424 6.7291 6.6893 0.0000 -10740.1420 1408.0647 0.0000 0.0000 1829.6013 -7480.5152 306.7968 -9310.1165 -7567.1552 300.8868 -440.7889 -422.6981 31009.4689 -218.5514 -172.6992
ENERGY: 900000 10.8582 3.7513 3.7485 0.0000 -10895.5523 1530.1017 0.0000 0.0000 1775.6153 -7571.4773 297.7442 -9347.0926 -7555.9120 300.8552 181.1190 239.6764 31054.8671 -173.1701 -116.0615
ENERGY: 1200000 6.3665 4.0373 5.1381 0.0000 -10736.7996 1389.9496 0.0000 0.0000 1801.5122 -7529.7959 302.0867 -9331.3081 -7558.0285 302.1981 -196.7059 -161.3846 30598.5001 -155.1393 -96.8054
ENERGY: 1500000 3.2104 7.9293 10.3747 0.0000 -10882.2085 1573.2879 0.0000 0.0000 1796.5516 -7490.8544 301.2549 -9287.4060 -7556.5839 301.5472 1258.1578 1285.3106 30694.1933 -18.8099 36.6399
TCL: Running FEP window   6: Lambda1 0.7499999999999998 Lambda2 0.6999999999999997 [dLambda -0.050000000000000044]
TCL: Setting parameter firsttimestep to 0
TCL: Setting parameter alchLambda to 0.7499999999999998
Info: NONBONDED TABLE R-SQUARED SPACING: 0.0625
Info: NONBONDED TABLE SIZE: 705 POINTS
TCL: Setting parameter alchLambda2 to 0.6999999999999997
Info: NONBONDED TABLE R-SQUARED SPACING: 0.0625
Info: NONBONDED TABLE SIZE: 705 POINTS
TCL: Running for 1500000 steps
ETITLE: TS BOND ANGLE DIHED IMPRP ELECT VDW BOUNDARY MISC KINETIC TOTAL TEMP POTENTIAL TOTALAVG TEMPAVG PRESSURE GPRESSURE VOLUME PRESSAVG GPRESSAVG
ENERGY: 0 3.2105 7.9293 10.3747 0.0000 -10881.4671 1573.9734 0.0000 0.0000 1795.6610 -7490.3183 301.1055 -9285.9793 -7490.3183 301.1055 1186.5537 1274.8191 30694.1933 1186.5537 1274.8191
ENERGY: 300000 8.1737 3.1430 3.5373 0.0000 -10789.2053 1415.4772 0.0000 0.0000 1821.3929 -7537.4812 305.4204 -9358.8741 -7513.3631 303.4244 -189.5393 -111.2333 30835.2476 748.4681 823.9713
ENERGY: 600000 6.3375 7.6848 6.4926 0.0000 -10867.9583 1559.1312 0.0000 0.0000 1805.2525 -7483.0596 302.7139 -9288.3121 -7520.3297 302.5807 1134.1153 1156.1408 30437.3447 570.5512 622.2107
ENERGY: 900000 6.6715 2.3820 9.7743 0.0000 -10814.9350 1445.0951 0.0000 0.0000 1830.1528 -7520.8593 306.8893 -9351.0121 -7525.2796 302.5434 -107.0780 33.6568 30928.1906 308.8089 376.6576
ENERGY: 1200000 5.7978 7.4580 4.8086 0.0000 -10971.9100 1516.2057 0.0000 0.0000 1832.2209 -7605.4190 307.2361 -9437.6399 -7542.7137 302.2993 505.9414 545.9756 30771.0697 264.9514 335.9574
ENERGY: 1500000 6.1159 6.7176 4.7489 0.0000 -10707.4666 1438.1327 0.0000 0.0000 1768.1161 -7483.6355 296.4867 -9251.7516 -7544.5266 302.2103 312.3740 383.1328 30943.3329 279.4969 345.2195
TCL: Running FEP window   7: Lambda1 0.6999999999999997 Lambda2 0.6499999999999997 [dLambda -0.050000000000000044]
TCL: Setting parameter firsttimestep to 0
TCL: Setting parameter alchLambda to 0.6999999999999997
Info: NONBONDED TABLE R-SQUARED SPACING: 0.0625
Info: NONBONDED TABLE SIZE: 705 POINTS
TCL: Setting parameter alchLambda2 to 0.6499999999999997
Info: NONBONDED TABLE R-SQUARED SPACING: 0.0625
Info: NONBONDED TABLE SIZE: 705 POINTS
TCL: Running for 1500000 steps
ETITLE: TS BOND ANGLE DIHED IMPRP ELECT VDW BOUNDARY MISC KINETIC TOTAL TEMP POTENTIAL TOTALAVG TEMPAVG PRESSURE GPRESSURE VOLUME PRESSAVG GPRESSAVG
ENERGY: 0 6.1159 6.7176 4.7489 0.0000 -10707.0388 1438.2059 0.0000 0.0000 1767.2158 -7484.0347 296.3357 -9251.2505 -7484.0347 296.3357 284.3313 368.8940 30943.3329 284.3313 368.8940
ENERGY: 300000 6.2309 5.9406 6.1363 0.0000 -10823.9785 1488.6223 0.0000 0.0000 1840.6733 -7476.3750 308.6534 -9317.0483 -7479.7782 303.4722 273.2232 290.1812 31067.0876 -267.9355 -194.5665
ENERGY: 600000 7.6784 7.4729 10.5008 0.0000 -10685.0492 1399.5520 0.0000 0.0000 1819.2235 -7440.6215 305.0566 -9259.8450 -7497.4776 303.0977 -270.4682 -265.6963 31195.1885 -210.4093 -140.6940
ENERGY: 900000 6.2008 4.9650 6.6126 0.0000 -10780.0816 1487.6204 0.0000 0.0000 1773.8219 -7500.8609 297.4434 -9274.6828 -7509.4619 302.5965 381.5583 370.7829 31018.1548 -243.4654 -181.9938
ENERGY: 1200000 5.3236 5.9526 5.7117 0.0000 -10827.7389 1459.9565 0.0000 0.0000 1790.0957 -7560.6990 300.1723 -9350.7946 -7516.9083 301.8882 17.7685 55.0034 31064.5020 -259.3049 -196.9374
ENERGY: 1500000 8.7351 7.3835 3.8956 0.0000 -10786.2293 1474.2889 0.0000 0.0000 1781.0671 -7510.8592 298.6584 -9291.9263 -7515.4035 302.3346 122.1706 170.0303 30903.4062 -172.7871 -111.9308
TCL: Running FEP window   8: Lambda1 0.6499999999999997 Lambda2 0.5999999999999996 [dLambda -0.050000000000000044]
TCL: Setting parameter firsttimestep to 0
TCL: Setting parameter alchLambda to 0.6499999999999997
Info: NONBONDED TABLE R-SQUARED SPACING: 0.0625
Info: NONBONDED TABLE SIZE: 705 POINTS
TCL: Setting parameter alchLambda2 to 0.5999999999999996
Info: NONBONDED TABLE R-SQUARED SPACING: 0.0625
Info: NONBONDED TABLE SIZE: 705 POINTS
TCL: Running for 1500000 steps
ETITLE: TS BOND ANGLE DIHED IMPRP ELECT VDW BOUNDARY MISC KINETIC TOTAL TEMP POTENTIAL TOTALAVG TEMPAVG PRESSURE GPRESSURE VOLUME PRESSAVG GPRESSAVG
ENERGY: 0 8.7351 7.3835 3.8956 0.0000 -10786.1053 1475.1099 0.0000 0.0000 1780.2313 -7510.7500 298.5182 -9290.9812 -7510.7500 298.5182 84.1033 161.5022 30903.4062 84.1033 161.5022
ENERGY: 300000 6.9238 3.4246 5.7632 0.0000 -10835.7459 1455.3702 0.0000 0.0000 1779.1444 -7585.1198 298.3359 -9364.2642 -7536.1406 302.5799 -72.0306 13.1303 30398.7009 32.3012 113.5626
ENERGY: 600000 4.2813 4.2898 6.8719 0.0000 -10758.2387 1417.7906 0.0000 0.0000 1819.6736 -7505.3316 305.1321 -9325.0052 -7557.1375 302.2135 221.6644 282.2954 30329.5326 -7.5062 63.1634
ENERGY: 900000 7.1579 5.3955 6.6600 0.0000 -10761.4625 1489.9972 0.0000 0.0000 1726.4601 -7525.7917 289.5016 -9252.2518 -7548.6320 299.8433 256.1994 309.9386 31061.2994 68.7637 130.5834
ENERGY: 1200000 6.5779 2.7697 4.8583 0.0000 -10801.8636 1492.2347 0.0000 0.0000 1750.2123 -7545.2108 293.4845 -9295.4231 -7536.0788 300.3387 458.3965 496.2053 31222.3636 203.6285 263.7145
ENERGY: 1500000 4.9228 5.0928 4.4564 0.0000 -10925.1154 1511.8620 0.0000 0.0000 1791.3035 -7607.4780 300.3748 -9398.7815 -7544.8228 300.2994 476.7393 544.3458 30476.0229 219.5728 281.4002
TCL: Running FEP window   9: Lambda1 0.5999999999999996 Lambda2 0.5499999999999996 [dLambda -0.050000000000000044]
TCL: Setting parameter firsttimestep to 0
TCL: Setting parameter alchLambda to 0.5999999999999996
Info: NONBONDED TABLE R-SQUARED SPACING: 0.0625
Info: NONBONDED TABLE SIZE: 705 POINTS
TCL: Setting parameter alchLambda2 to 0.5499999999999996
Info: NONBONDED TABLE R-SQUARED SPACING: 0.0625
Info: NONBONDED TABLE SIZE: 705 POINTS
TCL: Running for 1500000 steps
ETITLE: TS BOND ANGLE DIHED IMPRP ELECT VDW BOUNDARY MISC KINETIC TOTAL TEMP POTENTIAL TOTALAVG TEMPAVG PRESSURE GPRESSURE VOLUME PRESSAVG GPRESSAVG
ENERGY: 0 4.9228 5.0928 4.4564 0.0000 -10924.9520 1512.2006 0.0000 0.0000 1790.4317 -7607.8477 300.2287 -9398.2794 -7607.8477 300.2287 448.5827 534.7081 30476.0229 448.5827 534.7081
ENERGY: 300000 6.1823 2.3830 5.4866 0.0000 -10802.6074 1395.2491 0.0000 0.0000 1751.2523 -7642.0542 293.6589 -9393.3065 -7611.3209 295.8303 -438.6445 -359.8091 30906.1212 -273.6629 -190.2568
ENERGY: 600000 3.7744 5.7851 6.3353 0.0000 -10893.9472 1553.2380 0.0000 0.0000 1820.1091 -7504.7053 305.2051 -9324.8144 -7601.4602 297.9289 760.3602 761.9161 30717.6887 73.9100 131.6964
ENERGY: 900000 5.6225 5.3850 5.6607 0.0000 -10797.5025 1458.9502 0.0000 0.0000 1800.9507 -7520.9334 301.9925 -9321.8841 -7590.4517 299.4170 -188.8900 -115.6185 31247.1212 48.4016 105.8026
ENERGY: 1200000 7.4837 4.6392 5.2206 0.0000 -10950.2807 1521.2281 0.0000 0.0000 1843.2808 -7568.4283 309.0907 -9411.7091 -7576.5596 300.7406 384.9425 445.3529 30771.2631 99.8038 163.8609
ENERGY: 1500000 5.2219 5.6248 5.4984 0.0000 -10972.2926 1595.2104 0.0000 0.0000 1805.6271 -7555.1102 302.7767 -9360.7372 -7578.3863 300.9034 860.1691 933.6390 31028.9226 41.6251 105.0842
TCL: Running FEP window  10: Lambda1 0.5499999999999996 Lambda2 0.4999999999999996 [dLambda -0.04999999999999999]
TCL: Setting parameter firsttimestep to 0
TCL: Setting parameter alchLambda to 0.5499999999999996
Info: NONBONDED TABLE R-SQUARED SPACING: 0.0625
Info: NONBONDED TABLE SIZE: 705 POINTS
TCL: Setting parameter alchLambda2 to 0.4999999999999996
Info: NONBONDED TABLE R-SQUARED SPACING: 0.0625
Info: NONBONDED TABLE SIZE: 705 POINTS
TCL: Running for 1500000 steps
ETITLE: TS BOND ANGLE DIHED IMPRP ELECT VDW BOUNDARY MISC KINETIC TOTAL TEMP POTENTIAL TOTALAVG TEMPAVG PRESSURE GPRESSURE VOLUME PRESSAVG GPRESSAVG
ENERGY: 0 5.2219 5.6248 5.4984 0.0000 -10972.2751 1595.6333 0.0000 0.0000 1804.7531 -7555.5436 302.6302 -9360.2967 -7555.5436 302.6302 835.0066 921.3028 31028.9226 835.0066 921.3028
ENERGY: 300000 3.3459 4.0612 4.2649 0.0000 -10812.5669 1466.6071 0.0000 0.0000 1784.6411 -7549.6466 299.2577 -9334.2878 -7535.2443 301.4995 -0.0106 15.9025 30945.4304 322.6286 391.8241
ENERGY: 600000 5.4302 6.9366 4.8821 0.0000 -10750.7146 1421.8031 0.0000 0.0000 1757.7000 -7553.9625 294.7401 -9311.6625 -7548.1626 301.7229 -217.5180 -75.4577 30579.2094 196.4014 270.3900
ENERGY: 900000 10.9140 3.9293 5.8991 0.0000 -10642.4565 1312.1057 0.0000 0.0000 1800.4249 -7509.1834 301.9044 -9309.6083 -7544.7746 301.2072 -1352.3062 -1281.1602 31100.6844 6.6158 86.4134
ENERGY: 1200000 6.3958 5.8243 3.6836 0.0000 -10838.0464 1449.1724 0.0000 0.0000 1760.3614 -7612.6087 295.1863 -9372.9701 -7555.7412 299.5926 88.7574 105.8955 30689.5002 7.8587 74.9791
ENERGY: 1500000 6.1332 1.9617 4.1719 0.0000 -10927.0705 1511.4071 0.0000 0.0000 1752.4614 -7650.9351 293.8616 -9403.3965 -7559.3912 299.9697 197.5588 281.6676 30792.7284 -12.3774 49.4903
TCL: Running FEP window  11: Lambda1 0.4999999999999996 Lambda2 0.4499999999999996 [dLambda -0.04999999999999999]
TCL: Setting parameter firsttimestep to 0
TCL: Setting parameter alchLambda to 0.4999999999999996
Info: NONBONDED TABLE R-SQUARED SPACING: 0.0625
Info: NONBONDED TABLE SIZE: 705 POINTS
TCL: Setting parameter alchLambda2 to 0.4499999999999996
Info: NONBONDED TABLE R-SQUARED SPACING: 0.0625
Info: NONBONDED TABLE SIZE: 705 POINTS
TCL: Running for 1500000 steps
ETITLE: TS BOND ANGLE DIHED IMPRP ELECT VDW BOUNDARY MISC KINETIC TOTAL TEMP POTENTIAL TOTALAVG TEMPAVG PRESSURE GPRESSURE VOLUME PRESSAVG GPRESSAVG
ENERGY: 0 6.1332 1.9617 4.1719 0.0000 -10926.8878 1511.8388 0.0000 0.0000 1751.5627 -7651.2194 293.7109 -9402.7821 -7651.2194 293.7109 182.8398 269.4650 30792.7284 182.8398 269.4650
ENERGY: 300000 7.0798 4.3063 3.5805 0.0000 -10765.5555 1439.2427 0.0000 0.0000 1823.4660 -7487.8803 305.7680 -9311.3462 -7546.0655 300.2548 -323.7611 -223.8560 31138.5009 87.0031 167.7186
ENERGY: 600000 8.9108 1.9105 3.9870 0.0000 -10801.0533 1443.4866 0.0000 0.0000 1778.2196 -7564.5388 298.1809 -9342.7584 -7552.7240 300.4175 -498.8050 -440.1217 31213.1421 -3.7280 78.4842
ENERGY: 900000 3.9217 4.9484 2.8699 0.0000 -10823.3832 1448.4380 0.0000 0.0000 1769.8115 -7593.3937 296.7710 -9363.2052 -7558.5675 300.9337 -48.4889 20.3070 30682.2815 -15.5575 61.8112
ENERGY: 1200000 16.7256 7.0928 2.4964 0.0000 -10817.3882 1477.5349 0.0000 0.0000 1823.1092 -7490.4294 305.7082 -9313.5386 -7551.6336 301.0600 48.9315 126.3067 30680.4880 56.6337 132.8322
ENERGY: 1500000 6.9919 6.2142 7.4413 0.0000 -10848.9601 1466.5787 0.0000 0.0000 1763.2011 -7598.5328 295.6625 -9361.7339 -7547.7026 300.7747 30.8219 64.9596 30697.0159 11.3122 79.6203
TCL: Running FEP window  12: Lambda1 0.4499999999999996 Lambda2 0.39999999999999963 [dLambda -0.04999999999999999]
TCL: Setting parameter firsttimestep to 0
TCL: Setting parameter alchLambda to 0.4499999999999996
Info: NONBONDED TABLE R-SQUARED SPACING: 0.0625
Info: NONBONDED TABLE SIZE: 705 POINTS
TCL: Setting parameter alchLambda2 to 0.39999999999999963
Info: NONBONDED TABLE R-SQUARED SPACING: 0.0625
Info: NONBONDED TABLE SIZE: 705 POINTS
TCL: Running for 1500000 steps
ETITLE: TS BOND ANGLE DIHED IMPRP ELECT VDW BOUNDARY MISC KINETIC TOTAL TEMP POTENTIAL TOTALAVG TEMPAVG PRESSURE GPRESSURE VOLUME PRESSAVG GPRESSAVG
ENERGY: 0 6.9919 6.2142 7.4413 0.0000 -10848.9619 1466.9641 0.0000 0.0000 1762.2934 -7599.0569 295.5103 -9361.3503 -7599.0569 295.5103 -11.1514 55.2079 30697.0159 -11.1514 55.2079
ENERGY: 300000 6.5906 3.2307 3.0090 0.0000 -10726.7609 1444.5809 0.0000 0.0000 1778.8898 -7490.4599 298.2933 -9269.3497 -7517.5265 299.9348 102.8701 125.1439 30941.6484 -130.2560 -84.4375
ENERGY: 600000 7.4735 8.1173 2.6128 0.0000 -10904.0188 1496.9362 0.0000 0.0000 1752.4116 -7636.4674 293.8533 -9388.8790 -7537.1120 299.6586 -6.7012 52.4144 30563.8595 -202.2947 -154.0269
ENERGY: 900000 10.4801 6.5897 4.9051 0.0000 -10715.3752 1435.1126 0.0000 0.0000 1758.7517 -7499.5360 294.9164 -9258.2877 -7537.0829 299.3347 -221.6729 -143.3917 31040.8203 -95.3720 -47.7953
ENERGY: 1200000 3.8257 6.3440 7.4541 0.0000 -10765.6142 1347.5674 0.0000 0.0000 1777.7215 -7622.7017 298.0974 -9400.4232 -7535.8154 299.8011 -912.3737 -891.0152 30913.1942 -185.8077 -137.4209
ENERGY: 1500000 6.3645 4.1036 5.8860 0.0000 -10813.8981 1475.6743 0.0000 0.0000 1813.2522 -7508.6175 304.0553 -9321.8697 -7537.3603 299.8247 269.7675 330.1975 30942.6222 -186.2611 -135.4459
TCL: Running FEP window  13: Lambda1 0.39999999999999963 Lambda2 0.34999999999999964 [dLambda -0.04999999999999999]
TCL: Setting parameter firsttimestep to 0
TCL: Setting parameter alchLambda to 0.39999999999999963
Info: NONBONDED TABLE R-SQUARED SPACING: 0.0625
Info: NONBONDED TABLE SIZE: 705 POINTS
TCL: Setting parameter alchLambda2 to 0.34999999999999964
Info: NONBONDED TABLE R-SQUARED SPACING: 0.0625
Info: NONBONDED TABLE SIZE: 705 POINTS
TCL: Running for 1500000 steps
ETITLE: TS BOND ANGLE DIHED IMPRP ELECT VDW BOUNDARY MISC KINETIC TOTAL TEMP POTENTIAL TOTALAVG TEMPAVG PRESSURE GPRESSURE VOLUME PRESSAVG GPRESSAVG
ENERGY: 0 6.3645 4.1036 5.8860 0.0000 -10813.8989 1476.4011 0.0000 0.0000 1812.3766 -7508.7671 303.9085 -9321.1437 -7508.7671 303.9085 235.9750 325.8523 30942.6222 235.9750 325.8523
ENERGY: 300000 4.4981 6.4415 7.1222 0.0000 -10845.5039 1487.7185 0.0000 0.0000 1746.0670 -7593.6566 292.7894 -9339.7236 -7526.4181 300.2429 255.5180 378.3575 30715.3190 222.4927 292.2419
ENERGY: 600000 2.2058 3.7053 5.4560 0.0000 -10780.4258 1448.6246 0.0000 0.0000 1754.9918 -7565.4424 294.2859 -9320.4342 -7518.0799 300.4753 -0.6262 21.7450 30889.4287 88.8481 151.5077
ENERGY: 900000 12.4631 5.3766 5.6158 0.0000 -10871.8359 1544.1832 0.0000 0.0000 1732.8999 -7571.2974 290.5814 -9304.1972 -7524.5636 300.2190 863.2191 904.5153 31056.8876 150.6422 207.6298
ENERGY: 1200000 7.0665 4.6411 7.8321 0.0000 -10876.4981 1501.7612 0.0000 0.0000 1824.7588 -7530.4385 305.9848 -9355.1972 -7531.2964 300.8655 381.0447 396.5683 30608.9633 226.9662 275.4924
ENERGY: 1500000 6.1822 6.1001 6.1029 0.0000 -10624.1832 1317.5195 0.0000 0.0000 1805.8732 -7482.4053 302.8180 -9288.2785 -7525.8166 301.2199 -1336.7006 -1326.6426 31576.3323 61.2027 109.3440
TCL: Running FEP window  14: Lambda1 0.34999999999999964 Lambda2 0.29999999999999966 [dLambda -0.04999999999999999]
TCL: Setting parameter firsttimestep to 0
TCL: Setting parameter alchLambda to 0.34999999999999964
Info: NONBONDED TABLE R-SQUARED SPACING: 0.0625
Info: NONBONDED TABLE SIZE: 705 POINTS
TCL: Setting parameter alchLambda2 to 0.29999999999999966
Info: NONBONDED TABLE R-SQUARED SPACING: 0.0625
Info: NONBONDED TABLE SIZE: 705 POINTS
TCL: Running for 1500000 steps
ETITLE: TS BOND ANGLE DIHED IMPRP ELECT VDW BOUNDARY MISC KINETIC TOTAL TEMP POTENTIAL TOTALAVG TEMPAVG PRESSURE GPRESSURE VOLUME PRESSAVG GPRESSAVG
ENERGY: 0 6.1822 6.1001 6.1029 0.0000 -10624.1846 1318.6855 0.0000 0.0000 1804.9763 -7482.1375 302.6676 -9287.1138 -7482.1375 302.6676 -1402.4148 -1327.2065 31576.3323 -1402.4148 -1327.2065
ENERGY: 300000 7.1452 5.8712 7.1246 0.0000 -10694.3888 1384.4505 0.0000 0.0000 1801.0894 -7488.7080 302.0158 -9289.7974 -7515.9769 297.7687 -632.0949 -546.2034 30702.5801 -477.2156 -378.9401
ENERGY: 600000 8.3285 4.7883 5.1010 0.0000 -10784.0821 1444.5728 0.0000 0.0000 1818.7771 -7502.5144 304.9818 -9321.2915 -7532.5539 297.1039 -206.2038 -157.3880 30536.3336 -292.5128 -233.1075
ENERGY: 900000 6.5935 5.8286 1.9892 0.0000 -10783.4908 1459.8234 0.0000 0.0000 1773.6188 -7535.6373 297.4094 -9309.2560 -7535.7174 297.1108 -239.2167 -204.1419 31219.9895 -250.0019 -183.0704
ENERGY: 1200000 8.6800 7.6872 5.7123 0.0000 -10724.9846 1397.5124 0.0000 0.0000 1783.9285 -7521.4642 299.1382 -9305.3927 -7539.6723 296.9516 -463.9498 -410.1751 31092.0774 -241.1593 -178.1942
ENERGY: 1500000 5.8699 5.5583 4.7670 0.0000 -10843.7233 1507.3893 0.0000 0.0000 1771.0175 -7549.1213 296.9732 -9320.1388 -7543.1519 297.2357 157.1630 299.2624 30917.3946 -212.6372 -145.2307
TCL: Running FEP window  15: Lambda1 0.29999999999999966 Lambda2 0.24999999999999967 [dLambda -0.04999999999999999]
TCL: Setting parameter firsttimestep to 0
TCL: Setting parameter alchLambda to 0.29999999999999966
Info: NONBONDED TABLE R-SQUARED SPACING: 0.0625
Info: NONBONDED TABLE SIZE: 705 POINTS
TCL: Setting parameter alchLambda2 to 0.24999999999999967
Info: NONBONDED TABLE R-SQUARED SPACING: 0.0625
Info: NONBONDED TABLE SIZE: 705 POINTS
TCL: Running for 1500000 steps
ETITLE: TS BOND ANGLE DIHED IMPRP ELECT VDW BOUNDARY MISC KINETIC TOTAL TEMP POTENTIAL TOTALAVG TEMPAVG PRESSURE GPRESSURE VOLUME PRESSAVG GPRESSAVG
ENERGY: 0 5.8699 5.5583 4.7670 0.0000 -10843.7236 1507.8486 0.0000 0.0000 1770.1315 -7549.5483 296.8246 -9319.6799 -7549.5483 296.8246 194.9331 294.5243 30917.3946 194.9331 294.5243
ENERGY: 300000 4.5096 4.1864 2.8542 0.0000 -10851.3599 1484.7101 0.0000 0.0000 1816.7910 -7538.3087 304.6487 -9355.0997 -7523.7855 300.7038 71.0668 145.0688 30638.1155 -10.9100 56.3564
ENERGY: 600000 4.1318 3.0089 5.4273 0.0000 -10675.6067 1350.1136 0.0000 0.0000 1815.6560 -7497.2690 304.4584 -9312.9251 -7521.1013 302.0798 -679.5063 -673.3704 30629.6447 15.5354 75.0519
ENERGY: 900000 6.1272 5.3011 4.1848 0.0000 -10891.0713 1525.7970 0.0000 0.0000 1771.3167 -7578.3444 297.0234 -9349.6611 -7540.2655 300.0417 563.1164 680.5502 30654.0944 18.2001 78.2418
ENERGY: 1200000 5.3385 8.5021 4.6574 0.0000 -10743.1310 1421.6353 0.0000 0.0000 1800.9043 -7502.0933 301.9848 -9302.9976 -7532.4609 300.0362 -176.7366 -124.6701 30624.8960 79.4130 134.2220
ENERGY: 1500000 6.4613 3.3226 6.3014 0.0000 -10971.3678 1536.9305 0.0000 0.0000 1828.0297 -7590.3223 306.5333 -9418.3520 -7538.0429 300.6263 397.4570 498.4623 30654.6866 -5.4097 60.8283
TCL: Running FEP window  16: Lambda1 0.24999999999999967 Lambda2 0.19999999999999968 [dLambda -0.04999999999999999]
TCL: Setting parameter firsttimestep to 0
TCL: Setting parameter alchLambda to 0.24999999999999967
Info: NONBONDED TABLE R-SQUARED SPACING: 0.0625
Info: NONBONDED TABLE SIZE: 705 POINTS
TCL: Setting parameter alchLambda2 to 0.19999999999999968
Info: NONBONDED TABLE R-SQUARED SPACING: 0.0625
Info: NONBONDED TABLE SIZE: 705 POINTS
TCL: Running for 1500000 steps
ETITLE: TS BOND ANGLE DIHED IMPRP ELECT VDW BOUNDARY MISC KINETIC TOTAL TEMP POTENTIAL TOTALAVG TEMPAVG PRESSURE GPRESSURE VOLUME PRESSAVG GPRESSAVG
ENERGY: 0 6.4613 3.3226 6.3014 0.0000 -10971.3676 1537.6389 0.0000 0.0000 1827.1763 -7590.4671 306.3902 -9417.6434 -7590.4671 306.3902 431.5439 495.7140 30654.6866 431.5439 495.7140
ENERGY: 300000 5.3010 2.5931 6.7162 0.0000 -10799.9516 1518.0813 0.0000 0.0000 1751.7954 -7515.4646 293.7499 -9267.2600 -7542.0190 300.4158 578.6684 591.0838 31049.6527 204.1141 253.6183
ENERGY: 600000 6.1104 2.6399 5.9352 0.0000 -10823.0302 1505.3264 0.0000 0.0000 1754.6234 -7548.3949 294.2241 -9303.0182 -7517.9679 301.2105 420.5203 503.4408 30649.6653 145.5012 201.1575
ENERGY: 900000 9.5381 5.2434 3.6958 0.0000 -10967.0113 1541.3056 0.0000 0.0000 1791.5912 -7615.6373 300.4231 -9407.2284 -7530.0311 301.6182 433.3716 451.9961 30594.0710 141.9912 193.2716
ENERGY: 1200000 7.9029 5.0201 3.1859 0.0000 -10738.7348 1377.2482 0.0000 0.0000 1788.5386 -7556.8390 299.9112 -9345.3777 -7526.3418 301.6486 -781.3088 -795.0093 31223.8065 113.9936 164.8007
ENERGY: 1500000 8.0070 3.6909 5.6701 0.0000 -10911.1336 1506.8718 0.0000 0.0000 1805.4872 -7581.4066 302.7532 -9386.8938 -7528.4215 301.4555 44.5739 98.0092 30628.8526 145.2879 194.4954
TCL: Running FEP window  17: Lambda1 0.19999999999999968 Lambda2 0.1499999999999997 [dLambda -0.04999999999999999]
TCL: Setting parameter firsttimestep to 0
TCL: Setting parameter alchLambda to 0.19999999999999968
Info: NONBONDED TABLE R-SQUARED SPACING: 0.0625
Info: NONBONDED TABLE SIZE: 705 POINTS
TCL: Setting parameter alchLambda2 to 0.1499999999999997
Info: NONBONDED TABLE R-SQUARED SPACING: 0.0625
Info: NONBONDED TABLE SIZE: 705 POINTS
TCL: Running for 1500000 steps
ETITLE: TS BOND ANGLE DIHED IMPRP ELECT VDW BOUNDARY MISC KINETIC TOTAL TEMP POTENTIAL TOTALAVG TEMPAVG PRESSURE GPRESSURE VOLUME PRESSAVG GPRESSAVG
ENERGY: 0 8.0070 3.6909 5.6701 0.0000 -10911.1340 1506.2889 0.0000 0.0000 1804.5633 -7582.9138 302.5983 -9387.4771 -7582.9138 302.5983 -2.4321 83.7269 30628.8526 -2.4321 83.7269
ENERGY: 300000 5.2397 5.5167 4.1568 0.0000 -10926.1149 1532.1702 0.0000 0.0000 1765.5079 -7613.5236 296.0493 -9379.0316 -7557.5901 299.6212 365.6720 446.1734 30850.4139 246.5995 331.6119
ENERGY: 600000 5.6981 3.8955 6.2397 0.0000 -10703.7549 1454.3810 0.0000 0.0000 1743.6938 -7489.8469 292.3914 -9233.5407 -7548.6972 297.3283 -21.7073 57.8119 30805.2390 162.1408 227.9984
ENERGY: 900000 8.1534 5.0625 7.6770 0.0000 -10791.0902 1440.8011 0.0000 0.0000 1773.2807 -7556.1155 297.3527 -9329.3962 -7544.4377 298.1544 -177.0578 -120.5337 30317.7776 54.6119 113.8773
ENERGY: 1200000 3.7831 5.2195 3.1155 0.0000 -10922.8015 1536.7646 0.0000 0.0000 1770.5411 -7603.3777 296.8933 -9373.9188 -7549.1678 298.5730 715.7658 785.9433 30506.5242 101.6847 154.9473
ENERGY: 1500000 11.4702 5.2261 7.7309 0.0000 -10941.7335 1546.6498 0.0000 0.0000 1791.9708 -7578.6857 300.4868 -9370.6566 -7544.0037 299.4816 592.9795 708.3535 30388.1820 96.4722 155.8777
TCL: Running FEP window  18: Lambda1 0.1499999999999997 Lambda2 0.09999999999999969 [dLambda -0.05 ]
TCL: Setting parameter firsttimestep to 0
TCL: Setting parameter alchLambda to 0.1499999999999997
Info: NONBONDED TABLE R-SQUARED SPACING: 0.0625
Info: NONBONDED TABLE SIZE: 705 POINTS
TCL: Setting parameter alchLambda2 to 0.09999999999999969
Info: NONBONDED TABLE R-SQUARED SPACING: 0.0625
Info: NONBONDED TABLE SIZE: 705 POINTS
TCL: Running for 1500000 steps
ETITLE: TS BOND ANGLE DIHED IMPRP ELECT VDW BOUNDARY MISC KINETIC TOTAL TEMP POTENTIAL TOTALAVG TEMPAVG PRESSURE GPRESSURE VOLUME PRESSAVG GPRESSAVG
ENERGY: 0 11.4702 5.2261 7.7309 0.0000 -10941.7329 1546.7293 0.0000 0.0000 1791.0764 -7579.5001 300.3368 -9370.5765 -7579.5001 300.3368 613.0771 699.5301 30388.1820 613.0771 699.5301
ENERGY: 300000 5.2710 5.2066 7.8468 0.0000 -10948.1501 1498.9343 0.0000 0.0000 1770.5868 -7660.3046 296.9010 -9430.8914 -7568.1792 301.3182 -22.0902 111.0783 30342.6475 223.6521 332.9102
ENERGY: 600000 5.4959 5.2281 3.1273 0.0000 -10770.7747 1463.8756 0.0000 0.0000 1789.3602 -7503.6876 300.0490 -9293.0478 -7553.0925 300.7559 284.3022 375.2598 30284.9874 121.4869 215.1940
ENERGY: 900000 3.3998 4.0273 9.8603 0.0000 -10916.5781 1469.4621 0.0000 0.0000 1769.0426 -7660.7859 296.6420 -9429.8285 -7560.3889 300.8348 -317.8353 -258.3288 30956.6312 114.1150 202.0382
ENERGY: 1200000 7.0404 4.1541 4.4771 0.0000 -10829.2518 1457.3721 0.0000 0.0000 1786.7467 -7569.4614 299.6107 -9356.2081 -7549.3336 301.4004 115.3933 205.9035 30467.0094 13.0736 97.7608
ENERGY: 1500000 9.0386 5.7010 6.7059 0.0000 -10865.0984 1517.3270 0.0000 0.0000 1756.4152 -7569.9107 294.5246 -9326.3259 -7547.8863 301.2864 217.0144 247.4906 30915.5799 -36.2355 39.1884
TCL: Running FEP window  19: Lambda1 0.09999999999999969 Lambda2 0.049999999999999684 [dLambda -0.05 ]
TCL: Setting parameter firsttimestep to 0
TCL: Setting parameter alchLambda to 0.09999999999999969
Info: NONBONDED TABLE R-SQUARED SPACING: 0.0625
Info: NONBONDED TABLE SIZE: 705 POINTS
TCL: Setting parameter alchLambda2 to 0.049999999999999684
Info: NONBONDED TABLE R-SQUARED SPACING: 0.0625
Info: NONBONDED TABLE SIZE: 705 POINTS
TCL: Running for 1500000 steps
ETITLE: TS BOND ANGLE DIHED IMPRP ELECT VDW BOUNDARY MISC KINETIC TOTAL TEMP POTENTIAL TOTALAVG TEMPAVG PRESSURE GPRESSURE VOLUME PRESSAVG GPRESSAVG
ENERGY: 0 9.0386 5.7010 6.7059 0.0000 -10865.0980 1517.6590 0.0000 0.0000 1755.5078 -7570.4857 294.3724 -9325.9935 -7570.4857 294.3724 156.4832 246.1158 30915.5799 156.4832 246.1158
ENERGY: 300000 4.1434 7.3962 6.2011 0.0000 -10858.2522 1524.2505 0.0000 0.0000 1830.5772 -7485.6839 306.9605 -9316.2610 -7559.2050 297.5360 308.6314 342.6378 31196.5399 -264.6358 -188.2718
ENERGY: 600000 6.7349 6.4779 3.6228 0.0000 -10864.1915 1446.3889 0.0000 0.0000 1808.7107 -7592.2563 303.2938 -9400.9670 -7554.8510 298.4415 -68.4071 -5.7783 30380.6613 -139.0126 -73.3193
ENERGY: 900000 4.6701 6.0379 4.8627 0.0000 -10843.9903 1508.5639 0.0000 0.0000 1764.0561 -7555.7996 295.8059 -9319.8558 -7549.2488 297.4606 204.9572 234.2785 30828.0748 -109.3967 -45.0602
ENERGY: 1200000 5.1482 3.9717 8.0275 0.0000 -10753.8929 1410.2910 0.0000 0.0000 1751.9463 -7574.5082 293.7752 -9326.4545 -7545.3086 297.1621 -577.1018 -551.8588 30890.9615 -65.1394 -6.6446
ENERGY: 1500000 6.5924 4.6939 6.2947 0.0000 -10733.0562 1433.6392 0.0000 0.0000 1772.7499 -7509.0862 297.2637 -9281.8361 -7540.0547 297.5686 -124.0912 -78.0388 30711.7370 -12.7448 48.2602
TCL: Running FEP window  20: Lambda1 0.049999999999999684 Lambda2 0.0    [dLambda -0.049999999999999684]
TCL: Setting parameter firsttimestep to 0
TCL: Setting parameter alchLambda to 0.049999999999999684
Info: NONBONDED TABLE R-SQUARED SPACING: 0.0625
Info: NONBONDED TABLE SIZE: 705 POINTS
TCL: Setting parameter alchLambda2 to 0.0
Info: NONBONDED TABLE R-SQUARED SPACING: 0.0625
Info: NONBONDED TABLE SIZE: 705 POINTS
TCL: Running for 1500000 steps
ETITLE: TS BOND ANGLE DIHED IMPRP ELECT VDW BOUNDARY MISC KINETIC TOTAL TEMP POTENTIAL TOTALAVG TEMPAVG PRESSURE GPRESSURE VOLUME PRESSAVG GPRESSAVG
ENERGY: 0 6.5924 4.6939 6.2947 0.0000 -10733.0568 1431.2852 0.0000 0.0000 1771.8905 -7512.3001 297.1196 -9284.1906 -7512.3001 297.1196 -171.6092 -93.4139 30711.7370 -171.6092 -93.4139
ENERGY: 300000 8.5045 3.6626 3.9287 0.0000 -10910.7351 1506.5358 0.0000 0.0000 1704.4556 -7683.6478 285.8118 -9388.1034 -7531.2594 296.5255 19.7869 77.3255 30463.2294 -62.3988 -16.1621
ENERGY: 600000 6.9526 3.7606 6.3630 0.0000 -10751.3797 1382.2445 0.0000 0.0000 1834.4961 -7517.5629 307.6176 -9352.0590 -7535.2473 299.2403 -671.3180 -613.1723 30586.2474 -83.2701 -22.7584
ENERGY: 900000 4.8244 2.4509 5.2956 0.0000 -10626.2696 1385.5597 0.0000 0.0000 1777.2910 -7450.8480 298.0252 -9228.1390 -7546.9413 297.4611 -202.7962 -154.7117 30616.3045 -224.8907 -164.5529
ENERGY: 1200000 5.5813 2.3382 6.0341 0.0000 -10973.6616 1528.7568 0.0000 0.0000 1835.5331 -7595.4181 307.7915 -9430.9512 -7558.0468 297.5801 80.5416 188.4257 30574.8236 -209.5831 -145.3301
ENERGY: 1500000 4.6872 7.7463 4.7758 0.0000 -10787.0415 1498.9184 0.0000 0.0000 1805.2584 -7465.6553 302.7149 -9270.9137 -7555.8588 298.1143 572.4061 626.4188 30251.9867 -80.3819 -15.9018
TCL: Exiting due to exit command.
