Info: SIMULATION PARAMETERS:
Info: TIMESTEP               2
Info: NUMBER OF STEPS        0
Info: STEPS PER CYCLE        10
Info: PERIODIC CELL BASIS 1  31.9734 0 0
Info: PERIODIC CELL BASIS 2  0 31.2067 0
Info: PERIODIC CELL BASIS 3  0 0 30.5625
Info: PERIODIC CELL CENTER   0 0 0
Info: WRAPPING WATERS AROUND PERIODIC BOUNDARIES ON OUTPUT.
Info: WRAPPING ALL CLUSTERS AROUND PERIODIC BOUNDARIES ON OUTPUT.
Info: FIRST LDB TIMESTEP     50
Info: LAST LDB TIMESTEP     -1
Info: HOM BACKGROUND SCALING 1
Info: PME BACKGROUND SCALING 1
Info: MIN ATOMS PER PATCH    40
Info: EMPTY PATCH LOAD       40 ATOMS
Info: VELOCITY FILE          mobley_3968043_equil.vel
Info: CENTER OF MASS MOVING INITIALLY? NO
Info: DIELECTRIC             1
Info: EXCLUDE                SCALED ONE-FOUR
Info: 1-4 ELECTROSTATICS SCALED BY 0.833333
Info: MODIFIED 1-4 VDW PARAMETERS WILL BE USED
Info: DCD FILENAME           mobley_3968043_prod.dcd
Info: DCD FREQUENCY          100000
Info: DCD FIRST STEP         100000
Info: DCD FILE WILL CONTAIN UNIT CELL DATA
Info: XST FILENAME           mobley_3968043_prod.xst
Info: XST FREQUENCY          100000
Info: NO VELOCITY DCD OUTPUT
Info: NO FORCE DCD OUTPUT
Info: OUTPUT FILENAME        mobley_3968043_prod
Info: BINARY OUTPUT FILES WILL BE USED
Info: RESTART FILENAME       mobley_3968043_prod.restart
Info: RESTART FREQUENCY      100000
Info: BINARY RESTART FILES WILL BE USED
Info: CUTOFF                 9
Info: PAIRLIST DISTANCE      11
Info: PAIRLIST SHRINK RATE   0.01
Info: PAIRLIST GROW RATE     0.01
Info: PAIRLIST TRIGGER       0.3
Info: PAIRLISTS PER CYCLE    2
Info: PAIRLISTS ENABLED
Info: MARGIN                 2
Info: HYDROGEN GROUP CUTOFF  2.5
Info: PATCH DIMENSION        15.5
Info: ENERGY OUTPUT STEPS    100000
Info: ENERGY EVALUATION STEPS    100000
Info: OUTPUT ENERGY PRECISION 4
Info: CROSSTERM ENERGY INCLUDED IN DIHEDRAL
Info: TIMING OUTPUT STEPS    1000000
Info: PRESSURE OUTPUT STEPS  100000
Info: ALCHEMICAL FEP ON
Info: FEP CURRENT LAMBDA VALUE     0
Info: FEP COMPARISON LAMBDA VALUE  0.05
Info: FEP INTRA-ALCHEMICAL NON-BONDED INTERACTIONS WILL BE RETAINED
Info: FEP INTRA-ALCHEMICAL BONDED INTERACTIONS WILL BE RETAINED
Info: FEP VDW SHIFTING COEFFICIENT 5
Info: FEP ELEC. ACTIVE FOR ANNIHILATED PARTICLES BETWEEN LAMBDA = 0 AND LAMBDA = 0.5
Info: FEP ELEC. ACTIVE FOR EXNIHILATED PARTICLES BETWEEN LAMBDA = 0.5 AND LAMBDA = 1
Info: FEP VDW ACTIVE FOR ANNIHILATED PARTICLES BETWEEN LAMBDA = 0 AND LAMBDA = 1
Info: FEP VDW ACTIVE FOR EXNIHILATED PARTICLES BETWEEN LAMBDA = 0 AND LAMBDA = 1
Info: FEP BOND ACTIVE FOR ANNIHILATED PARTICLES BETWEEN LAMBDA = 1 AND LAMBDA = 1
Info: FEP BOND ACTIVE FOR EXNIHILATED PARTICLES BETWEEN LAMBDA = 0 AND LAMBDA = 0
Info: LANGEVIN DYNAMICS ACTIVE
Info: LANGEVIN TEMPERATURE   300
Info: LANGEVIN USING BBK INTEGRATOR
Info: LANGEVIN DAMPING COEFFICIENT IS 1 INVERSE PS
Info: LANGEVIN DYNAMICS APPLIED TO HYDROGENS
Info: LANGEVIN PISTON PRESSURE CONTROL ACTIVE
Info:        TARGET PRESSURE IS 1.01325 BAR
Info:     OSCILLATION PERIOD IS 50 FS
Info:             DECAY TIME IS 25 FS
Info:     PISTON TEMPERATURE IS 300 K
Info:       PRESSURE CONTROL IS GROUP-BASED
Info:    INITIAL STRAIN RATE IS -3.44844e-05 -3.44844e-05 -3.44844e-05
Info:       CELL FLUCTUATION IS ISOTROPIC
Info: PARTICLE MESH EWALD (PME) ACTIVE
Info: PME TOLERANCE               1e-06
Info: PME EWALD COEFFICIENT       0.348832
Info: PME INTERPOLATION ORDER     4
Info: PME GRID DIMENSIONS         32 32 32
Info: PME MAXIMUM GRID SPACING    1
Info: PME CALCULATION WILL BE PERFORMED ON GPU
Info: FULL ELECTROSTATIC EVALUATION FREQUENCY      2
Info: USING VERLET I (r-RESPA) MTS SCHEME.
Info: C1 SPLITTING OF LONG RANGE ELECTROSTATICS
Info: PLACING ATOMS IN PATCHES BY HYDROGEN GROUPS
Info: RIGID BONDS TO HYDROGEN : ALL
Info:         ERROR TOLERANCE : 1e-08
Info:          MAX ITERATIONS : 100
Info: RIGID WATER USING SETTLE ALGORITHM
Info: RANDOM NUMBER SEED     1743561078
Info: USE HYDROGEN BONDS?    NO
Info: Using AMBER format force field!
Info: AMBER PARM FILE        mobley_3968043.prmtop
Info: COORDINATE PDB         mobley_3968043.pdb
Info: Exclusions will be read from PARM file!
Info: SCNB (VDW SCALING)     2
Info: USING ARITHMETIC MEAN TO COMBINE L-J SIGMA PARAMETERS
Info: BINARY COORDINATES     mobley_3968043_equil.coor
Info: SUMMARY OF PARAMETERS:
Info: 6 BONDS
Info: 7 ANGLES
Info:   7 HARMONIC
Info:   0 COSINE-BASED
Info: 11 DIHEDRAL
Info: 0 IMPROPER
Info: 0 CROSSTERM
Info: 0 VDW
Info: 21 VDW_PAIRS
Info: 0 NBTHOLE_PAIRS
Info: To read alchdata from file: mobley_3968043.pdb
Info: To read alchflag data from column: 5
Info: STRUCTURE SUMMARY:
Info: 2945 ATOMS
Info: 2945 BONDS
Info: 27 ANGLES
Info: 50 DIHEDRALS
Info: 0 IMPROPERS
Info: 0 CROSSTERMS
Info: 3006 EXCLUSIONS
Info: 2939 RIGID BONDS
Info: ALCH: 0 ATOMS TO DISAPPEAR IN FINAL STATE
Info: ALCH: 14 ATOMS TO APPEAR IN FINAL STATE
Info: 5896 DEGREES OF FREEDOM
Info: 983 HYDROGEN GROUPS
Info: 3 ATOMS IN LARGEST HYDROGEN GROUP
Info: 983 MIGRATION GROUPS
Info: 3 ATOMS IN LARGEST MIGRATION GROUP
Info: TOTAL MASS = 17685.7 amu
Info: TOTAL CHARGE = 0.00030002 e
Info: MASS DENSITY = 0.963071 g/cm^3
Info: ATOM DENSITY = 0.0965741 atoms/A^3
Info: ADDED 0 IMPLICIT EXCLUSIONS
Info: NONBONDED TABLE R-SQUARED SPACING: 0.0625
Info: NONBONDED TABLE SIZE: 705 POINTS
Info: REDUCING NUMBER OF PATCHES TO IMPROVE LOAD BALANCE
Info: REMOVING COM VELOCITY -0.0120271 0.135756 -0.00196838
Info: Use 3D box decompostion in PME FFT.
Info: Updated CUDA force table with 4096 elements.
Info: Updated CUDA LJ table with 6 x 6 elements.
Info: Found 17 unique exclusion lists needing 36 bytes
TCL: Running for 1500000 steps
ETITLE: TS BOND ANGLE DIHED IMPRP ELECT VDW BOUNDARY MISC KINETIC TOTAL TEMP POTENTIAL TOTALAVG TEMPAVG PRESSURE GPRESSURE VOLUME PRESSAVG GPRESSAVG
ENERGY: 0 1.0001 11.7240 7.5041 0.0000 -10565.6086 1374.4723 0.0000 0.0000 1743.7696 -7427.1383 297.6611 -9170.9080 -7427.1383 297.6611 -455.3737 -360.5816 30494.7124 -455.3737 -360.5816
ENERGY: 300000 0.5453 11.6982 8.4614 0.0000 -10606.8173 1451.8675 0.0000 0.0000 1746.4772 -7387.7677 298.1232 -9134.2449 -7448.2778 299.1338 65.1176 182.3563 30731.7773 -612.7305 -512.8524
ENERGY: 600000 1.4979 12.0733 10.6766 0.0000 -10503.8238 1310.5808 0.0000 0.0000 1775.7503 -7393.2449 303.1202 -9168.9952 -7451.7076 299.6967 -639.6713 -637.5498 30146.0364 -496.1488 -419.7818
ENERGY: 900000 1.5352 7.3413 10.5877 0.0000 -10883.4802 1527.2083 0.0000 0.0000 1791.0896 -7545.7180 305.7386 -9336.8076 -7449.1462 300.0782 495.8302 502.5889 30096.2359 -251.0489 -189.7249
ENERGY: 1200000 0.5298 9.7263 9.6571 0.0000 -10723.3890 1454.7122 0.0000 0.0000 1722.8698 -7525.8939 294.0935 -9248.7637 -7456.8379 298.7874 194.6168 284.2821 29866.3004 -288.2194 -224.3391
ENERGY: 1500000 1.5764 15.9498 8.6570 0.0000 -10742.0651 1458.9402 0.0000 0.0000 1726.9763 -7529.9654 294.7944 -9256.9417 -7471.3550 297.8582 -246.2940 -133.7412 30593.8357 -176.9473 -113.6419
TCL: Running FEP window   2: Lambda1 0.05   Lambda2 0.1    [dLambda 0.05  ]
TCL: Setting parameter firsttimestep to 0
TCL: Setting parameter alchLambda to 0.05
Info: NONBONDED TABLE R-SQUARED SPACING: 0.0625
Info: NONBONDED TABLE SIZE: 705 POINTS
TCL: Setting parameter alchLambda2 to 0.1
Info: NONBONDED TABLE R-SQUARED SPACING: 0.0625
Info: NONBONDED TABLE SIZE: 705 POINTS
TCL: Running for 1500000 steps
ETITLE: TS BOND ANGLE DIHED IMPRP ELECT VDW BOUNDARY MISC KINETIC TOTAL TEMP POTENTIAL TOTALAVG TEMPAVG PRESSURE GPRESSURE VOLUME PRESSAVG GPRESSAVG
ENERGY: 0 1.5764 15.9498 8.6570 0.0000 -10742.0646 1461.6971 0.0000 0.0000 1726.1246 -7528.0596 294.6491 -9254.1842 -7528.0596 294.6491 -208.8975 -129.8445 30593.8357 -208.8975 -129.8445
ENERGY: 300000 1.9141 10.0640 10.1422 0.0000 -10575.1494 1391.7415 0.0000 0.0000 1763.1070 -7398.1806 300.9619 -9161.2876 -7475.3895 299.8560 -156.5772 -82.2147 30001.9315 -213.1320 -171.6175
ENERGY: 600000 2.7710 8.4735 11.6584 0.0000 -10625.7530 1426.1892 0.0000 0.0000 1747.3312 -7429.3297 298.2690 -9176.6609 -7457.2479 299.6623 124.2474 247.9977 30113.3679 -191.0203 -134.1965
ENERGY: 900000 1.7749 12.2540 11.6968 0.0000 -10759.8687 1504.0320 0.0000 0.0000 1750.7784 -7479.3326 298.8574 -9230.1110 -7464.4959 299.4638 444.0422 470.0364 30213.4726 -72.7471 -11.3208
ENERGY: 1200000 1.7109 13.6601 9.9014 0.0000 -10661.5253 1438.4239 0.0000 0.0000 1779.0603 -7418.7687 303.6852 -9197.8289 -7476.7198 298.2210 40.1488 170.9868 30012.9237 -92.0501 -21.1101
ENERGY: 1500000 1.5452 12.8938 11.8162 0.0000 -10849.2829 1567.6115 0.0000 0.0000 1722.9868 -7532.4294 294.1134 -9255.4163 -7479.3152 298.3349 902.3400 917.2920 30094.4800 -78.2315 -12.7156
TCL: Running FEP window   3: Lambda1 0.1    Lambda2 0.15000000000000002 [dLambda 0.05000000000000002]
TCL: Setting parameter firsttimestep to 0
TCL: Setting parameter alchLambda to 0.1
Info: NONBONDED TABLE R-SQUARED SPACING: 0.0625
Info: NONBONDED TABLE SIZE: 705 POINTS
TCL: Setting parameter alchLambda2 to 0.15000000000000002
Info: NONBONDED TABLE R-SQUARED SPACING: 0.0625
Info: NONBONDED TABLE SIZE: 705 POINTS
TCL: Running for 1500000 steps
ETITLE: TS BOND ANGLE DIHED IMPRP ELECT VDW BOUNDARY MISC KINETIC TOTAL TEMP POTENTIAL TOTALAVG TEMPAVG PRESSURE GPRESSURE VOLUME PRESSAVG GPRESSAVG
ENERGY: 0 1.5452 12.8938 11.8162 0.0000 -10849.2853 1569.8899 0.0000 0.0000 1722.1348 -7531.0054 293.9680 -9253.1402 -7531.0054 293.9680 835.5983 922.4963 30094.4800 835.5983 922.4963
ENERGY: 300000 1.8482 5.0094 13.0332 0.0000 -10677.9802 1391.1843 0.0000 0.0000 1775.9480 -7490.9571 303.1539 -9266.9051 -7496.4201 302.1877 -95.3693 -24.3357 29819.4927 422.3744 472.4136
ENERGY: 600000 0.3936 16.1220 8.7869 0.0000 -10765.1782 1465.5486 0.0000 0.0000 1789.6770 -7484.6501 305.4974 -9274.3271 -7477.9869 303.7631 -53.6766 -49.8668 30490.9797 238.1065 282.1605
ENERGY: 900000 1.2738 11.4817 8.9204 0.0000 -10660.2664 1404.5531 0.0000 0.0000 1788.1278 -7445.9095 305.2330 -9234.0373 -7473.9335 302.7099 -333.8239 -236.3173 30122.2209 -2.9287 43.1534
ENERGY: 1200000 2.8689 11.1439 11.0867 0.0000 -10686.3114 1490.0402 0.0000 0.0000 1720.1288 -7451.0429 293.6256 -9171.1717 -7471.4375 301.7203 696.4986 752.7053 29895.7663 14.8170 63.3032
ENERGY: 1500000 1.1230 11.1500 13.6563 0.0000 -10747.6120 1447.0173 0.0000 0.0000 1771.3785 -7503.2870 302.3739 -9274.6654 -7483.1995 299.9932 30.9705 81.4260 29679.5342 2.8905 51.6518
TCL: Running FEP window   4: Lambda1 0.15000000000000002 Lambda2 0.2    [dLambda 0.04999999999999999]
TCL: Setting parameter firsttimestep to 0
TCL: Setting parameter alchLambda to 0.15000000000000002
Info: NONBONDED TABLE R-SQUARED SPACING: 0.0625
Info: NONBONDED TABLE SIZE: 705 POINTS
TCL: Setting parameter alchLambda2 to 0.2
Info: NONBONDED TABLE R-SQUARED SPACING: 0.0625
Info: NONBONDED TABLE SIZE: 705 POINTS
TCL: Running for 1500000 steps
ETITLE: TS BOND ANGLE DIHED IMPRP ELECT VDW BOUNDARY MISC KINETIC TOTAL TEMP POTENTIAL TOTALAVG TEMPAVG PRESSURE GPRESSURE VOLUME PRESSAVG GPRESSAVG
ENERGY: 0 1.1230 11.1499 13.6563 0.0000 -10747.6115 1447.3753 0.0000 0.0000 1770.5375 -7503.7695 302.2303 -9274.3069 -7503.7695 302.2303 -0.8040 87.3854 29679.5342 -0.8040 87.3854
ENERGY: 300000 1.9097 9.3078 11.8188 0.0000 -10750.4407 1479.8987 0.0000 0.0000 1816.0588 -7431.4467 310.0008 -9247.5055 -7429.6936 307.6326 392.6444 402.9264 30112.7327 202.0260 267.6990
ENERGY: 600000 0.6878 12.4451 8.1598 0.0000 -10591.3680 1413.1184 0.0000 0.0000 1759.2408 -7397.7161 300.3020 -9156.9569 -7430.1292 303.9007 -147.2602 -119.5713 30624.6009 150.5243 202.6201
ENERGY: 900000 1.4922 18.1053 8.4980 0.0000 -10672.1424 1501.5906 0.0000 0.0000 1770.9543 -7371.5021 302.3015 -9142.4564 -7418.0283 304.5526 363.5789 429.8701 30676.3691 187.3758 240.2169
ENERGY: 1200000 1.3774 10.8813 12.4736 0.0000 -10650.2964 1454.4470 0.0000 0.0000 1759.1722 -7411.9448 300.2903 -9171.1170 -7424.1191 303.4640 218.3890 228.3319 30306.1563 163.3885 212.6542
ENERGY: 1500000 2.1391 13.3160 8.8058 0.0000 -10561.6263 1328.2155 0.0000 0.0000 1703.2506 -7505.8993 290.7445 -9209.1499 -7435.3357 302.4240 -982.9882 -891.0399 30342.3114 -3.0139 54.6585
TCL: Running FEP window   5: Lambda1 0.2    Lambda2 0.25   [dLambda 0.04999999999999999]
TCL: Setting parameter firsttimestep to 0
TCL: Setting parameter alchLambda to 0.2
Info: NONBONDED TABLE R-SQUARED SPACING: 0.0625
Info: NONBONDED TABLE SIZE: 705 POINTS
TCL: Setting parameter alchLambda2 to 0.25
Info: NONBONDED TABLE R-SQUARED SPACING: 0.0625
Info: NONBONDED TABLE SIZE: 705 POINTS
TCL: Running for 1500000 steps
ETITLE: TS BOND ANGLE DIHED IMPRP ELECT VDW BOUNDARY MISC KINETIC TOTAL TEMP POTENTIAL TOTALAVG TEMPAVG PRESSURE GPRESSURE VOLUME PRESSAVG GPRESSAVG
ENERGY: 0 2.1391 13.3160 8.8058 0.0000 -10561.6249 1329.3909 0.0000 0.0000 1702.3737 -7505.5994 290.5948 -9207.9731 -7505.5994 290.5948 -965.4666 -885.5962 30342.3114 -965.4666 -885.5962
ENERGY: 300000 0.5577 10.9059 9.4248 0.0000 -10627.1917 1392.8312 0.0000 0.0000 1769.9414 -7443.5307 302.1286 -9213.4721 -7493.2290 298.1627 -251.3849 -223.8797 29980.2749 -172.5075 -116.9084
ENERGY: 600000 1.3992 10.5229 12.6072 0.0000 -10740.5880 1484.8788 0.0000 0.0000 1793.8359 -7437.3439 306.2074 -9231.1797 -7479.2204 298.6577 290.7003 338.1013 30367.2601 -109.9419 -59.4532
ENERGY: 900000 1.3704 9.6620 11.4899 0.0000 -10567.9516 1394.4542 0.0000 0.0000 1709.7593 -7441.2158 291.8555 -9150.9750 -7468.5496 299.2732 -396.0798 -293.7664 30537.7710 19.6811 70.7939
ENERGY: 1200000 1.3302 9.3574 13.1909 0.0000 -10610.4820 1376.0466 0.0000 0.0000 1792.7137 -7417.8433 306.0158 -9210.5570 -7454.9688 300.4384 -360.8256 -307.3571 30379.1869 -90.5277 -39.9847
ENERGY: 1500000 2.0227 7.4672 12.0889 0.0000 -10593.7394 1355.0607 0.0000 0.0000 1770.2610 -7446.8389 302.1831 -9217.0999 -7457.3567 300.9661 -663.9009 -609.6436 30279.2889 -111.3248 -57.1800
TCL: Running FEP window   6: Lambda1 0.25   Lambda2 0.3    [dLambda 0.04999999999999999]
TCL: Setting parameter firsttimestep to 0
TCL: Setting parameter alchLambda to 0.25
Info: NONBONDED TABLE R-SQUARED SPACING: 0.0625
Info: NONBONDED TABLE SIZE: 705 POINTS
TCL: Setting parameter alchLambda2 to 0.3
Info: NONBONDED TABLE R-SQUARED SPACING: 0.0625
Info: NONBONDED TABLE SIZE: 705 POINTS
TCL: Running for 1500000 steps
ETITLE: TS BOND ANGLE DIHED IMPRP ELECT VDW BOUNDARY MISC KINETIC TOTAL TEMP POTENTIAL TOTALAVG TEMPAVG PRESSURE GPRESSURE VOLUME PRESSAVG GPRESSAVG
ENERGY: 0 2.0227 7.4672 12.0889 0.0000 -10593.7400 1355.3298 0.0000 0.0000 1769.3457 -7447.4858 302.0269 -9216.8315 -7447.4858 302.0269 -695.1541 -605.4474 30279.2889 -695.1541 -605.4474
ENERGY: 300000 1.6213 8.0368 10.3619 0.0000 -10800.0710 1533.1433 0.0000 0.0000 1739.1694 -7507.7383 296.8758 -9246.9077 -7486.7153 300.9241 582.4198 643.8352 30362.4958 196.0355 251.1123
ENERGY: 600000 2.4165 13.7436 9.4022 0.0000 -10767.2418 1446.4332 0.0000 0.0000 1758.3405 -7536.9057 300.1483 -9295.2462 -7486.3113 300.4214 -158.1918 -99.6942 30045.6887 -45.4973 17.2119
ENERGY: 900000 1.4905 12.0383 9.3922 0.0000 -10647.0917 1416.5426 0.0000 0.0000 1708.6949 -7498.9331 291.6738 -9207.6280 -7489.8393 299.0710 -260.2284 -132.9561 30498.3173 -33.7617 38.2451
ENERGY: 1200000 2.1536 13.3070 8.2850 0.0000 -10673.5868 1437.6265 0.0000 0.0000 1802.8206 -7409.3942 307.7410 -9212.2148 -7476.0504 300.6773 -128.0194 -76.1849 30598.6861 -58.0570 19.9541
ENERGY: 1500000 2.9934 11.1988 11.0260 0.0000 -10874.5189 1535.5216 0.0000 0.0000 1798.0016 -7515.7774 306.9184 -9313.7790 -7471.6886 301.0690 745.0613 798.7693 29562.7728 -156.8260 -81.2601
TCL: Running FEP window   7: Lambda1 0.3    Lambda2 0.35   [dLambda 0.04999999999999999]
TCL: Setting parameter firsttimestep to 0
TCL: Setting parameter alchLambda to 0.3
Info: NONBONDED TABLE R-SQUARED SPACING: 0.0625
Info: NONBONDED TABLE SIZE: 705 POINTS
TCL: Setting parameter alchLambda2 to 0.35
Info: NONBONDED TABLE R-SQUARED SPACING: 0.0625
Info: NONBONDED TABLE SIZE: 705 POINTS
TCL: Running for 1500000 steps
ETITLE: TS BOND ANGLE DIHED IMPRP ELECT VDW BOUNDARY MISC KINETIC TOTAL TEMP POTENTIAL TOTALAVG TEMPAVG PRESSURE GPRESSURE VOLUME PRESSAVG GPRESSAVG
ENERGY: 0 2.9934 11.1988 11.0260 0.0000 -10874.5191 1535.8748 0.0000 0.0000 1797.1575 -7516.2686 306.7743 -9313.4261 -7516.2686 306.7743 731.5162 805.3059 29562.7728 731.5162 805.3059
ENERGY: 300000 2.5005 8.9966 10.1363 0.0000 -10713.6790 1524.4575 0.0000 0.0000 1755.8141 -7411.7739 299.7170 -9167.5880 -7454.4147 302.1108 481.1626 456.4410 31189.4350 -10.2966 21.5599
ENERGY: 600000 1.4196 10.2099 9.5383 0.0000 -10823.3577 1488.3687 0.0000 0.0000 1808.4574 -7505.3638 308.7033 -9313.8212 -7475.3292 300.7686 64.3230 158.1700 30355.9342 -116.4072 -64.9693
ENERGY: 900000 1.3734 14.2757 9.2628 0.0000 -10680.9630 1441.3020 0.0000 0.0000 1738.9938 -7475.7553 296.8458 -9214.7491 -7480.6385 300.0320 172.6551 129.2103 30166.5991 12.5270 61.8713
ENERGY: 1200000 2.5602 11.9001 7.3939 0.0000 -10659.8947 1399.1884 0.0000 0.0000 1782.7546 -7456.0975 304.3158 -9238.8521 -7473.4183 300.6122 -561.7678 -428.2603 30398.5537 -0.0557 56.7250
ENERGY: 1500000 1.2921 4.9004 13.3063 0.0000 -10679.5993 1413.6149 0.0000 0.0000 1756.9678 -7489.5178 299.9140 -9246.4856 -7471.2800 300.8993 -228.3060 -140.9928 30268.6858 -22.1877 36.9110
TCL: Running FEP window   8: Lambda1 0.35   Lambda2 0.39999999999999997 [dLambda 0.04999999999999999]
TCL: Setting parameter firsttimestep to 0
TCL: Setting parameter alchLambda to 0.35
Info: NONBONDED TABLE R-SQUARED SPACING: 0.0625
Info: NONBONDED TABLE SIZE: 705 POINTS
TCL: Setting parameter alchLambda2 to 0.39999999999999997
Info: NONBONDED TABLE R-SQUARED SPACING: 0.0625
Info: NONBONDED TABLE SIZE: 705 POINTS
TCL: Running for 1500000 steps
ETITLE: TS BOND ANGLE DIHED IMPRP ELECT VDW BOUNDARY MISC KINETIC TOTAL TEMP POTENTIAL TOTALAVG TEMPAVG PRESSURE GPRESSURE VOLUME PRESSAVG GPRESSAVG
ENERGY: 0 1.2921 4.9004 13.3063 0.0000 -10679.5971 1414.8691 0.0000 0.0000 1756.0976 -7489.1316 299.7654 -9245.2292 -7489.1316 299.7654 -220.5330 -128.6237 30268.6858 -220.5330 -128.6237
ENERGY: 300000 1.5329 9.1347 9.7406 0.0000 -10770.4926 1564.9197 0.0000 0.0000 1708.4651 -7476.6995 291.6346 -9185.1646 -7466.0937 298.0645 1050.3957 1085.9307 30226.3434 241.9165 295.9786
ENERGY: 600000 2.1609 9.1416 9.6792 0.0000 -10680.3803 1427.4765 0.0000 0.0000 1761.1950 -7470.7271 300.6356 -9231.9221 -7470.7807 298.8875 -138.9204 -104.4958 30227.0603 138.2679 187.6301
ENERGY: 900000 2.4780 14.7701 9.2897 0.0000 -10602.3015 1406.9224 0.0000 0.0000 1784.6631 -7384.1782 304.6416 -9168.8413 -7467.6255 299.4503 -139.8147 -145.8567 30481.7272 117.1189 162.7804
ENERGY: 1200000 1.2599 8.4416 12.3112 0.0000 -10565.2142 1374.8335 0.0000 0.0000 1749.0135 -7419.3544 298.5562 -9168.3679 -7461.4010 299.9069 -668.4320 -542.0467 30721.9485 -83.2808 -26.5211
ENERGY: 1500000 1.0439 14.2799 8.4183 0.0000 -10817.2955 1516.3914 0.0000 0.0000 1794.0187 -7483.1432 306.2386 -9277.1619 -7470.4828 300.3871 543.0321 562.4496 30208.5263 -84.3126 -29.5577
TCL: Running FEP window   9: Lambda1 0.39999999999999997 Lambda2 0.44999999999999996 [dLambda 0.04999999999999999]
TCL: Setting parameter firsttimestep to 0
TCL: Setting parameter alchLambda to 0.39999999999999997
Info: NONBONDED TABLE R-SQUARED SPACING: 0.0625
Info: NONBONDED TABLE SIZE: 705 POINTS
TCL: Setting parameter alchLambda2 to 0.44999999999999996
Info: NONBONDED TABLE R-SQUARED SPACING: 0.0625
Info: NONBONDED TABLE SIZE: 705 POINTS
TCL: Running for 1500000 steps
ETITLE: TS BOND ANGLE DIHED IMPRP ELECT VDW BOUNDARY MISC KINETIC TOTAL TEMP POTENTIAL TOTALAVG TEMPAVG PRESSURE GPRESSURE VOLUME PRESSAVG GPRESSAVG
ENERGY: 0 1.0439 14.2799 8.4183 0.0000 -10817.2952 1517.6915 0.0000 0.0000 1793.1456 -7482.7159 306.0895 -9275.8615 -7482.7159 306.0895 500.0422 575.3093 30208.5263 500.0422 575.3093
ENERGY: 300000 1.6152 12.8289 10.8526 0.0000 -10573.4170 1380.3511 0.0000 0.0000 1800.7291 -7367.0401 307.3840 -9167.7691 -7463.9863 302.8317 -207.3427 -183.3689 30493.1202 -34.9249 9.9512
ENERGY: 600000 3.8183 8.4171 11.8731 0.0000 -10686.5723 1433.9604 0.0000 0.0000 1750.2655 -7478.2380 298.7699 -9228.5035 -7457.6879 300.4328 -31.7751 28.4439 30170.7673 -162.6221 -112.7751
ENERGY: 900000 1.5195 10.5879 8.8465 0.0000 -10708.0537 1492.5969 0.0000 0.0000 1725.4319 -7469.0710 294.5308 -9194.5029 -7455.2852 300.1774 373.5438 444.5736 30645.0676 10.1462 71.4685
ENERGY: 1200000 0.6372 12.5653 8.9652 0.0000 -10577.2985 1365.0247 0.0000 0.0000 1749.6260 -7440.4802 298.6607 -9190.1062 -7456.7163 300.6141 -522.2822 -505.0363 30579.4721 -78.5161 -16.7532
ENERGY: 1500000 1.2198 12.9538 10.5195 0.0000 -10654.2563 1398.5556 0.0000 0.0000 1718.1978 -7512.8097 293.2959 -9231.0075 -7453.0535 300.0805 -638.9473 -582.2669 30710.5882 -140.7602 -80.8407
TCL: Running FEP window  10: Lambda1 0.44999999999999996 Lambda2 0.49999999999999994 [dLambda 0.04999999999999999]
TCL: Setting parameter firsttimestep to 0
TCL: Setting parameter alchLambda to 0.44999999999999996
Info: NONBONDED TABLE R-SQUARED SPACING: 0.0625
Info: NONBONDED TABLE SIZE: 705 POINTS
TCL: Setting parameter alchLambda2 to 0.49999999999999994
Info: NONBONDED TABLE R-SQUARED SPACING: 0.0625
Info: NONBONDED TABLE SIZE: 705 POINTS
TCL: Running for 1500000 steps
ETITLE: TS BOND ANGLE DIHED IMPRP ELECT VDW BOUNDARY MISC KINETIC TOTAL TEMP POTENTIAL TOTALAVG TEMPAVG PRESSURE GPRESSURE VOLUME PRESSAVG GPRESSAVG
ENERGY: 0 1.2198 12.9538 10.5196 0.0000 -10654.2579 1398.4114 0.0000 0.0000 1717.3239 -7513.8293 293.1468 -9231.1533 -7513.8293 293.1468 -675.8751 -579.6776 30710.5882 -675.8751 -579.6776
ENERGY: 300000 1.0966 9.7928 12.6275 0.0000 -10742.6429 1447.8478 0.0000 0.0000 1705.7926 -7565.4857 291.1784 -9271.2783 -7541.9753 293.3815 -146.6994 -27.8744 30104.3421 -314.3232 -222.7953
ENERGY: 600000 1.6710 7.3929 10.6352 0.0000 -10653.2156 1382.9204 0.0000 0.0000 1787.2886 -7463.3075 305.0897 -9250.5961 -7497.6114 296.7140 -541.8060 -454.0861 30296.2689 -216.1607 -133.3847
ENERGY: 900000 3.7061 14.6468 9.4225 0.0000 -10682.9769 1395.8028 0.0000 0.0000 1767.6780 -7491.7206 301.7422 -9259.3986 -7479.4569 298.5841 -432.4617 -394.5554 30207.6519 -149.9975 -74.3033
ENERGY: 1200000 1.8072 6.8788 12.1546 0.0000 -10741.7835 1526.7884 0.0000 0.0000 1767.5645 -7426.5901 301.7228 -9194.1545 -7468.1084 299.7509 965.3435 1012.6179 30134.3351 -14.7868 52.1568
ENERGY: 1500000 2.2619 11.9649 10.4641 0.0000 -10563.4565 1358.5781 0.0000 0.0000 1783.4733 -7396.7141 304.4385 -9180.1874 -7451.1990 300.3094 -443.0442 -387.9198 30002.3732 -20.0540 42.0940
TCL: Running FEP window  11: Lambda1 0.49999999999999994 Lambda2 0.5499999999999999 [dLambda 0.04999999999999999]
TCL: Setting parameter firsttimestep to 0
TCL: Setting parameter alchLambda to 0.49999999999999994
Info: NONBONDED TABLE R-SQUARED SPACING: 0.0625
Info: NONBONDED TABLE SIZE: 705 POINTS
TCL: Setting parameter alchLambda2 to 0.5499999999999999
Info: NONBONDED TABLE R-SQUARED SPACING: 0.0625
Info: NONBONDED TABLE SIZE: 705 POINTS
TCL: Running for 1500000 steps
ETITLE: TS BOND ANGLE DIHED IMPRP ELECT VDW BOUNDARY MISC KINETIC TOTAL TEMP POTENTIAL TOTALAVG TEMPAVG PRESSURE GPRESSURE VOLUME PRESSAVG GPRESSAVG
ENERGY: 0 2.2619 11.9649 10.4641 0.0000 -10563.4558 1359.1796 0.0000 0.0000 1782.5979 -7396.9873 304.2890 -9179.5852 -7396.9873 304.2890 -456.1736 -377.4863 30002.3732 -456.1736 -377.4863
ENERGY: 300000 3.2930 11.9120 8.8593 0.0000 -10622.3905 1436.7484 0.0000 0.0000 1768.1502 -7393.4277 301.8228 -9161.5779 -7440.9400 301.8695 283.4680 359.3146 30235.6306 -296.7538 -198.5618
ENERGY: 600000 1.0179 13.0951 9.6494 0.0000 -10694.9103 1400.2591 0.0000 0.0000 1765.6683 -7505.2204 301.3992 -9270.8888 -7461.3726 301.3456 -428.5018 -346.5593 30225.9859 -282.4752 -190.8048
ENERGY: 900000 1.0118 7.8202 11.3600 0.0000 -10457.8950 1336.7453 0.0000 0.0000 1772.2086 -7328.7490 302.5156 -9100.9576 -7454.7951 302.1464 -538.0961 -508.1216 30842.4710 -194.6520 -107.6688
ENERGY: 1200000 0.5368 9.8635 11.2083 0.0000 -10622.2674 1422.4265 0.0000 0.0000 1713.1297 -7465.1028 292.4308 -9178.2324 -7465.3143 300.3274 5.5496 -36.9733 30478.4870 -139.1589 -68.0860
ENERGY: 1500000 2.1803 9.9248 9.8081 0.0000 -10676.4805 1427.7785 0.0000 0.0000 1729.3830 -7497.4058 295.2053 -9226.7888 -7460.4209 301.7200 -159.8564 -131.8576 30520.4162 -169.0521 -103.5234
TCL: Running FEP window  12: Lambda1 0.5499999999999999 Lambda2 0.6    [dLambda 0.050000000000000044]
TCL: Setting parameter firsttimestep to 0
TCL: Setting parameter alchLambda to 0.5499999999999999
Info: NONBONDED TABLE R-SQUARED SPACING: 0.0625
Info: NONBONDED TABLE SIZE: 705 POINTS
TCL: Setting parameter alchLambda2 to 0.6
Info: NONBONDED TABLE R-SQUARED SPACING: 0.0625
Info: NONBONDED TABLE SIZE: 705 POINTS
TCL: Running for 1500000 steps
ETITLE: TS BOND ANGLE DIHED IMPRP ELECT VDW BOUNDARY MISC KINETIC TOTAL TEMP POTENTIAL TOTALAVG TEMPAVG PRESSURE GPRESSURE VOLUME PRESSAVG GPRESSAVG
ENERGY: 0 2.1803 9.9248 9.8081 0.0000 -10677.1089 1427.3831 0.0000 0.0000 1728.5141 -7499.2984 295.0569 -9227.8125 -7499.2984 295.0569 -201.8005 -130.6502 30520.4162 -201.8005 -130.6502
ENERGY: 300000 1.7143 8.2849 11.7102 0.0000 -10770.3457 1506.5564 0.0000 0.0000 1762.2047 -7479.8753 300.8079 -9242.0800 -7461.7508 297.9565 491.0778 587.2568 30119.8007 115.9205 172.1349
ENERGY: 600000 1.1892 8.6080 9.7802 0.0000 -10677.3021 1415.3398 0.0000 0.0000 1807.5295 -7434.8555 308.5448 -9242.3849 -7460.0278 300.3630 -148.5641 -112.1236 30233.5361 -72.7189 -14.8469
ENERGY: 900000 1.4019 8.5509 10.7245 0.0000 -10645.0634 1474.6008 0.0000 0.0000 1776.6070 -7373.1782 303.2664 -9149.7852 -7450.1115 301.7367 510.2521 518.4523 30477.7315 67.9807 115.3774
ENERGY: 1200000 2.4244 8.6399 11.8644 0.0000 -10592.3052 1362.3948 0.0000 0.0000 1782.9086 -7424.0731 304.3421 -9206.9817 -7453.4035 301.1878 -228.9387 -260.6810 29820.7134 -26.8040 17.4955
ENERGY: 1500000 1.4284 9.9099 12.6855 0.0000 -10711.6644 1462.9032 0.0000 0.0000 1710.4708 -7514.2665 291.9770 -9224.7373 -7450.0678 300.3270 33.9981 81.0660 30185.3955 -3.5125 52.3864
TCL: Running FEP window  13: Lambda1 0.6    Lambda2 0.65   [dLambda 0.050000000000000044]
TCL: Setting parameter firsttimestep to 0
TCL: Setting parameter alchLambda to 0.6
Info: NONBONDED TABLE R-SQUARED SPACING: 0.0625
Info: NONBONDED TABLE SIZE: 705 POINTS
TCL: Setting parameter alchLambda2 to 0.65
Info: NONBONDED TABLE R-SQUARED SPACING: 0.0625
Info: NONBONDED TABLE SIZE: 705 POINTS
TCL: Running for 1500000 steps
ETITLE: TS BOND ANGLE DIHED IMPRP ELECT VDW BOUNDARY MISC KINETIC TOTAL TEMP POTENTIAL TOTALAVG TEMPAVG PRESSURE GPRESSURE VOLUME PRESSAVG GPRESSAVG
ENERGY: 0 1.4284 9.9100 12.6855 0.0000 -10711.5305 1463.0652 0.0000 0.0000 1709.6231 -7514.8184 291.8322 -9224.4415 -7514.8184 291.8322 1.6549 89.0981 30185.3955 1.6549 89.0981
ENERGY: 300000 1.4718 12.3152 9.8913 0.0000 -10567.8068 1368.4080 0.0000 0.0000 1805.7953 -7369.9252 308.2488 -9175.7205 -7446.8439 300.0261 -133.5773 -96.3889 30191.8349 -288.1707 -233.3148
ENERGY: 600000 1.3549 14.7297 8.9390 0.0000 -10719.6023 1474.1097 0.0000 0.0000 1810.6299 -7409.8390 309.0741 -9220.4690 -7449.4602 299.7607 436.2205 463.8695 30247.3083 -82.1986 -32.9867
ENERGY: 900000 1.0173 7.9357 9.4817 0.0000 -10654.7280 1398.4291 0.0000 0.0000 1732.8716 -7504.9928 295.8008 -9237.8643 -7447.9029 299.7914 -433.3110 -360.1697 30446.6031 -40.3391 17.5924
ENERGY: 1200000 2.1533 13.1729 8.6326 0.0000 -10688.9156 1408.3458 0.0000 0.0000 1736.2767 -7520.3342 296.3820 -9256.6109 -7451.6166 299.1210 -335.2428 -262.6617 30189.1543 -59.1162 -2.8770
ENERGY: 1500000 1.4997 8.7728 12.3356 0.0000 -10796.2465 1461.5774 0.0000 0.0000 1754.8130 -7557.2480 299.5462 -9312.0610 -7462.4675 299.3273 -259.8131 -118.0985 30436.4049 -80.1291 -20.5032
TCL: Running FEP window  14: Lambda1 0.65   Lambda2 0.7000000000000001 [dLambda 0.050000000000000044]
TCL: Setting parameter firsttimestep to 0
TCL: Setting parameter alchLambda to 0.65
Info: NONBONDED TABLE R-SQUARED SPACING: 0.0625
Info: NONBONDED TABLE SIZE: 705 POINTS
TCL: Setting parameter alchLambda2 to 0.7000000000000001
Info: NONBONDED TABLE R-SQUARED SPACING: 0.0625
Info: NONBONDED TABLE SIZE: 705 POINTS
TCL: Running for 1500000 steps
ETITLE: TS BOND ANGLE DIHED IMPRP ELECT VDW BOUNDARY MISC KINETIC TOTAL TEMP POTENTIAL TOTALAVG TEMPAVG PRESSURE GPRESSURE VOLUME PRESSAVG GPRESSAVG
ENERGY: 0 1.4997 8.7728 12.3356 0.0000 -10796.3867 1461.6299 0.0000 0.0000 1753.9416 -7558.2071 299.3974 -9312.1487 -7558.2071 299.3974 -196.6588 -112.1707 30436.4049 -196.6588 -112.1707
ENERGY: 300000 2.8399 11.5420 7.5153 0.0000 -10770.8713 1512.4397 0.0000 0.0000 1790.2616 -7446.2729 305.5972 -9236.5345 -7477.8122 302.0472 625.0728 742.8207 30078.0714 -278.5014 -193.5014
ENERGY: 600000 1.2243 9.5223 8.5636 0.0000 -10709.0662 1457.9798 0.0000 0.0000 1723.5953 -7508.1810 294.2173 -9231.7763 -7462.2848 300.4205 77.7120 150.7811 30495.4447 -224.1633 -135.6131
ENERGY: 900000 3.5998 10.4129 11.2023 0.0000 -10813.4930 1501.8268 0.0000 0.0000 1782.4099 -7504.0414 304.2569 -9286.4513 -7469.1321 300.8216 475.1365 507.9474 29704.1682 -183.7663 -102.2910
ENERGY: 1200000 2.8192 13.2481 11.0846 0.0000 -10730.4309 1438.2235 0.0000 0.0000 1758.1167 -7506.9388 300.1101 -9265.0555 -7468.4376 300.2660 -160.5195 -95.0973 30317.2751 -156.5622 -76.0367
ENERGY: 1500000 0.7251 9.8263 11.9036 0.0000 -10641.4664 1462.6269 0.0000 0.0000 1791.8517 -7364.5327 305.8687 -9156.3844 -7461.0855 300.7732 376.9702 470.4251 30363.0623 -149.9911 -69.1921
TCL: Running FEP window  15: Lambda1 0.7000000000000001 Lambda2 0.7500000000000001 [dLambda 0.050000000000000044]
TCL: Setting parameter firsttimestep to 0
TCL: Setting parameter alchLambda to 0.7000000000000001
Info: NONBONDED TABLE R-SQUARED SPACING: 0.0625
Info: NONBONDED TABLE SIZE: 705 POINTS
TCL: Setting parameter alchLambda2 to 0.7500000000000001
Info: NONBONDED TABLE R-SQUARED SPACING: 0.0625
Info: NONBONDED TABLE SIZE: 705 POINTS
TCL: Running for 1500000 steps
ETITLE: TS BOND ANGLE DIHED IMPRP ELECT VDW BOUNDARY MISC KINETIC TOTAL TEMP POTENTIAL TOTALAVG TEMPAVG PRESSURE GPRESSURE VOLUME PRESSAVG GPRESSAVG
ENERGY: 0 0.7251 9.8263 11.9036 0.0000 -10642.1695 1463.4434 0.0000 0.0000 1790.9954 -7365.2756 305.7225 -9156.2711 -7365.2756 305.7225 425.8405 485.3599 30363.0623 425.8405 485.3599
ENERGY: 300000 1.1659 7.4835 11.3121 0.0000 -10692.3237 1466.3282 0.0000 0.0000 1779.6110 -7426.4230 303.7792 -9206.0339 -7432.6820 298.5844 105.8228 137.0120 30675.0885 239.2700 298.1152
ENERGY: 600000 2.9069 13.2974 8.7822 0.0000 -10650.6699 1473.5374 0.0000 0.0000 1718.2573 -7433.8887 293.3061 -9152.1460 -7445.3610 298.0928 489.6667 547.5057 30231.0171 151.5698 220.0208
ENERGY: 900000 0.4535 10.0989 9.0597 0.0000 -10771.0752 1525.3644 0.0000 0.0000 1805.8070 -7420.2917 308.2508 -9226.0987 -7429.5022 299.8512 952.6239 977.0246 30002.5182 251.9799 307.8461
ENERGY: 1200000 1.1146 11.1657 10.4553 0.0000 -10725.0901 1456.7584 0.0000 0.0000 1814.9766 -7430.6196 309.8161 -9245.5961 -7426.5925 301.7948 484.3694 514.8023 29954.7575 208.2770 267.9117
ENERGY: 1500000 1.0698 7.2010 11.3517 0.0000 -10602.5249 1416.3626 0.0000 0.0000 1779.8360 -7386.7037 303.8176 -9166.5397 -7430.2368 301.5656 -54.1587 -9.8364 30608.6248 203.4373 268.0126
TCL: Running FEP window  16: Lambda1 0.7500000000000001 Lambda2 0.8000000000000002 [dLambda 0.050000000000000044]
TCL: Setting parameter firsttimestep to 0
TCL: Setting parameter alchLambda to 0.7500000000000001
Info: NONBONDED TABLE R-SQUARED SPACING: 0.0625
Info: NONBONDED TABLE SIZE: 705 POINTS
TCL: Setting parameter alchLambda2 to 0.8000000000000002
Info: NONBONDED TABLE R-SQUARED SPACING: 0.0625
Info: NONBONDED TABLE SIZE: 705 POINTS
TCL: Running for 1500000 steps
ETITLE: TS BOND ANGLE DIHED IMPRP ELECT VDW BOUNDARY MISC KINETIC TOTAL TEMP POTENTIAL TOTALAVG TEMPAVG PRESSURE GPRESSURE VOLUME PRESSAVG GPRESSAVG
ENERGY: 0 1.0698 7.2010 11.3517 0.0000 -10602.8310 1416.2237 0.0000 0.0000 1778.9647 -7388.0199 303.6689 -9166.9847 -7388.0199 303.6689 -83.9299 -3.8312 30608.6248 -83.9299 -3.8312
ENERGY: 300000 0.3994 9.6862 10.0753 0.0000 -10712.5060 1494.9611 0.0000 0.0000 1770.5522 -7426.8319 302.2328 -9197.3841 -7434.9400 300.8582 484.1281 541.4770 30494.1269 -97.6999 -42.4695
ENERGY: 600000 1.0656 8.7404 10.0242 0.0000 -10626.1384 1387.1951 0.0000 0.0000 1734.0592 -7485.0539 296.0035 -9219.1131 -7437.2979 301.2820 -474.0124 -412.9843 30349.5168 -184.1890 -125.1085
ENERGY: 900000 2.6844 8.0554 10.1128 0.0000 -10574.1979 1373.0500 0.0000 0.0000 1769.6725 -7410.6228 302.0827 -9180.2952 -7435.1374 301.9150 -335.3210 -259.7323 30619.5340 -66.6579 -12.1441
ENERGY: 1200000 1.5298 11.9210 8.4276 0.0000 -10628.8439 1411.9382 0.0000 0.0000 1797.7622 -7397.2650 306.8776 -9195.0272 -7444.5372 300.5930 -176.4510 -75.7914 30334.4836 -60.8246 -3.9339
ENERGY: 1500000 2.4728 9.0300 11.6324 0.0000 -10671.8054 1472.7031 0.0000 0.0000 1688.9094 -7487.0576 288.2964 -9175.9670 -7445.3257 300.6671 433.5613 427.8367 30348.7913 -29.4098 23.5376
TCL: Running FEP window  17: Lambda1 0.8000000000000002 Lambda2 0.8500000000000002 [dLambda 0.050000000000000044]
TCL: Setting parameter firsttimestep to 0
TCL: Setting parameter alchLambda to 0.8000000000000002
Info: NONBONDED TABLE R-SQUARED SPACING: 0.0625
Info: NONBONDED TABLE SIZE: 705 POINTS
TCL: Setting parameter alchLambda2 to 0.8500000000000002
Info: NONBONDED TABLE R-SQUARED SPACING: 0.0625
Info: NONBONDED TABLE SIZE: 705 POINTS
TCL: Running for 1500000 steps
ETITLE: TS BOND ANGLE DIHED IMPRP ELECT VDW BOUNDARY MISC KINETIC TOTAL TEMP POTENTIAL TOTALAVG TEMPAVG PRESSURE GPRESSURE VOLUME PRESSAVG GPRESSAVG
ENERGY: 0 2.4728 9.0300 11.6324 0.0000 -10672.4081 1472.2454 0.0000 0.0000 1688.0327 -7488.9947 288.1468 -9177.0275 -7488.9947 288.1468 349.4223 428.8545 30348.7913 349.4223 428.8545
ENERGY: 300000 4.8455 9.9579 9.4914 0.0000 -10849.6490 1473.4700 0.0000 0.0000 1752.8327 -7599.0515 299.2081 -9351.8842 -7538.4493 296.4257 53.3072 79.1264 30014.0331 263.4583 310.9280
ENERGY: 600000 2.9668 9.8195 11.0155 0.0000 -10799.2883 1499.6429 0.0000 0.0000 1770.7632 -7505.0805 302.2689 -9275.8437 -7523.0082 298.1918 430.8590 434.2915 30386.7981 193.2616 241.0922
ENERGY: 900000 0.3091 12.9685 9.4507 0.0000 -10659.4812 1493.1226 0.0000 0.0000 1809.6618 -7333.9685 308.9088 -9143.6303 -7500.8303 298.6456 651.7506 719.8313 30318.4681 197.1496 251.1766
ENERGY: 1200000 0.8890 14.3753 9.2270 0.0000 -10881.2208 1561.4543 0.0000 0.0000 1711.8105 -7583.4647 292.2056 -9295.2752 -7487.5751 299.0915 1176.8950 1187.2772 29621.0829 267.6433 314.0281
ENERGY: 1500000 2.6356 12.3152 9.8120 0.0000 -10709.4662 1431.9022 0.0000 0.0000 1746.8799 -7505.9212 298.1920 -9252.8011 -7489.2513 299.0260 -273.1908 -147.2475 30268.4168 200.8761 258.1966
TCL: Running FEP window  18: Lambda1 0.8500000000000002 Lambda2 0.9000000000000002 [dLambda 0.050000000000000044]
TCL: Setting parameter firsttimestep to 0
TCL: Setting parameter alchLambda to 0.8500000000000002
Info: NONBONDED TABLE R-SQUARED SPACING: 0.0625
Info: NONBONDED TABLE SIZE: 705 POINTS
TCL: Setting parameter alchLambda2 to 0.9000000000000002
Info: NONBONDED TABLE R-SQUARED SPACING: 0.0625
Info: NONBONDED TABLE SIZE: 705 POINTS
TCL: Running for 1500000 steps
ETITLE: TS BOND ANGLE DIHED IMPRP ELECT VDW BOUNDARY MISC KINETIC TOTAL TEMP POTENTIAL TOTALAVG TEMPAVG PRESSURE GPRESSURE VOLUME PRESSAVG GPRESSAVG
ENERGY: 0 2.6356 12.3152 9.8120 0.0000 -10710.0099 1431.6768 0.0000 0.0000 1746.0250 -7507.5452 298.0460 -9253.5702 -7507.5452 298.0460 -232.9672 -142.0054 30268.4168 -232.9672 -142.0054
ENERGY: 300000 1.5482 9.3697 9.8719 0.0000 -10772.7090 1486.1280 0.0000 0.0000 1737.5663 -7528.2249 296.6022 -9265.7913 -7469.8850 300.7551 154.5531 246.8208 30422.5825 -14.5455 45.1139
ENERGY: 600000 2.0333 6.5086 12.1535 0.0000 -10634.0716 1331.0083 0.0000 0.0000 1750.6932 -7531.6748 298.8429 -9282.3680 -7484.7094 299.4601 -922.1143 -764.4655 29965.9961 -313.7977 -238.2303
ENERGY: 900000 2.3599 10.4429 7.7289 0.0000 -10521.6375 1343.6549 0.0000 0.0000 1774.7054 -7382.7454 302.9418 -9157.4508 -7481.2414 299.0768 -577.1875 -486.4914 30538.2648 -303.1204 -218.5600
ENERGY: 1200000 2.9948 9.1019 9.9881 0.0000 -10683.9601 1431.1044 0.0000 0.0000 1774.8425 -7455.9284 302.9652 -9230.7709 -7480.5664 300.2381 -155.8347 -95.4748 30220.4080 -149.1703 -72.1298
ENERGY: 1500000 4.7717 6.7187 12.4251 0.0000 -10570.2154 1337.5738 0.0000 0.0000 1729.6009 -7479.1252 295.2425 -9208.7262 -7478.4530 300.0544 -726.6205 -690.0297 30560.9811 -212.0693 -135.2604
TCL: Running FEP window  19: Lambda1 0.9000000000000002 Lambda2 0.9500000000000003 [dLambda 0.050000000000000044]
TCL: Setting parameter firsttimestep to 0
TCL: Setting parameter alchLambda to 0.9000000000000002
Info: NONBONDED TABLE R-SQUARED SPACING: 0.0625
Info: NONBONDED TABLE SIZE: 705 POINTS
TCL: Setting parameter alchLambda2 to 0.9500000000000003
Info: NONBONDED TABLE R-SQUARED SPACING: 0.0625
Info: NONBONDED TABLE SIZE: 705 POINTS
TCL: Running for 1500000 steps
ETITLE: TS BOND ANGLE DIHED IMPRP ELECT VDW BOUNDARY MISC KINETIC TOTAL TEMP POTENTIAL TOTALAVG TEMPAVG PRESSURE GPRESSURE VOLUME PRESSAVG GPRESSAVG
ENERGY: 0 4.7717 6.7187 12.4251 0.0000 -10571.3879 1338.4026 0.0000 0.0000 1728.7108 -7480.3590 295.0905 -9209.0698 -7480.3590 295.0905 -745.2296 -672.7538 30560.9811 -745.2296 -672.7538
ENERGY: 300000 2.1871 8.6086 13.0551 0.0000 -10731.2995 1501.9724 0.0000 0.0000 1759.5892 -7445.8870 300.3615 -9205.4762 -7427.6052 299.9814 652.3795 666.2895 30447.7504 -155.1343 -69.5371
ENERGY: 600000 1.6513 12.5571 8.8805 0.0000 -10650.1327 1395.3619 0.0000 0.0000 1790.4694 -7441.2125 305.6327 -9231.6818 -7437.3160 302.4984 -362.0002 -341.3765 30490.0679 -28.9348 43.2207
ENERGY: 900000 0.8523 9.7550 10.2183 0.0000 -10697.3231 1433.7511 0.0000 0.0000 1806.6381 -7436.1083 308.3927 -9242.7464 -7441.6955 304.2315 274.9767 378.2438 29857.4742 85.9984 162.0678
ENERGY: 1200000 0.7743 10.2635 8.1503 0.0000 -10704.0859 1395.5955 0.0000 0.0000 1724.5012 -7564.8011 294.3719 -9289.3023 -7460.4413 302.0661 -704.2427 -564.7206 30370.0024 0.9925 93.6971
ENERGY: 1500000 1.4456 10.4128 10.5698 0.0000 -10698.5255 1454.5616 0.0000 0.0000 1750.5206 -7471.0152 298.8134 -9221.5358 -7464.7534 301.3517 535.2313 612.0033 29812.9003 2.4987 84.4857
TCL: Running FEP window  20: Lambda1 0.9500000000000003 Lambda2 1.0    [dLambda 0.04999999999999971]
TCL: Setting parameter firsttimestep to 0
TCL: Setting parameter alchLambda to 0.9500000000000003
Info: NONBONDED TABLE R-SQUARED SPACING: 0.0625
Info: NONBONDED TABLE SIZE: 705 POINTS
TCL: Setting parameter alchLambda2 to 1.0
Info: NONBONDED TABLE R-SQUARED SPACING: 0.0625
Info: NONBONDED TABLE SIZE: 705 POINTS
TCL: Running for 1500000 steps
ETITLE: TS BOND ANGLE DIHED IMPRP ELECT VDW BOUNDARY MISC KINETIC TOTAL TEMP POTENTIAL TOTALAVG TEMPAVG PRESSURE GPRESSURE VOLUME PRESSAVG GPRESSAVG
ENERGY: 0 1.4456 10.4128 10.5698 0.0000 -10700.3901 1455.7986 0.0000 0.0000 1749.7001 -7472.4633 298.6734 -9222.1634 -7472.4633 298.6734 546.5310 631.3993 29812.9003 546.5310 631.3993
ENERGY: 300000 2.1279 7.4247 11.6197 0.0000 -10585.2017 1371.0136 0.0000 0.0000 1720.6184 -7472.3974 293.7091 -9193.0158 -7474.2697 299.8845 -744.5148 -672.0278 30682.5694 70.8964 119.0825
ENERGY: 600000 0.7176 8.6239 8.4375 0.0000 -10536.7963 1299.7294 0.0000 0.0000 1776.0734 -7443.2145 303.1753 -9219.2879 -7438.7989 302.3190 -794.0893 -735.6714 29793.7308 -93.4486 -38.0163
ENERGY: 900000 1.2547 9.7848 9.4268 0.0000 -10749.3493 1409.0991 0.0000 0.0000 1776.6218 -7543.1621 303.2689 -9319.7840 -7449.5379 303.1070 -388.9423 -356.2336 30078.8441 -126.2840 -69.6096
ENERGY: 1200000 1.1907 8.2142 12.1586 0.0000 -10706.9423 1454.5024 0.0000 0.0000 1765.1089 -7465.7675 301.3037 -9230.8763 -7453.8618 303.9166 189.3641 272.4960 29946.0144 -2.4455 50.6206
ENERGY: 1500000 0.9452 10.5324 8.9677 0.0000 -10631.0610 1366.2350 0.0000 0.0000 1767.2186 -7477.1620 301.6638 -9244.3806 -7461.5564 302.9883 -439.8747 -382.1429 30092.3389 -78.9448 -25.2039
TCL: Exiting due to exit command.
