Info: SIMULATION PARAMETERS:
Info: TIMESTEP               2
Info: NUMBER OF STEPS        0
Info: STEPS PER CYCLE        10
Info: PERIODIC CELL BASIS 1  32.4645 0 0
Info: PERIODIC CELL BASIS 2  0 33.0441 0
Info: PERIODIC CELL BASIS 3  0 0 27.4077
Info: PERIODIC CELL CENTER   0 0 0
Info: WRAPPING WATERS AROUND PERIODIC BOUNDARIES ON OUTPUT.
Info: WRAPPING ALL CLUSTERS AROUND PERIODIC BOUNDARIES ON OUTPUT.
Info: FIRST LDB TIMESTEP     50
Info: LAST LDB TIMESTEP     -1
Info: HOM BACKGROUND SCALING 1
Info: PME BACKGROUND SCALING 1
Info: MIN ATOMS PER PATCH    40
Info: EMPTY PATCH LOAD       40 ATOMS
Info: VELOCITY FILE          mobley_7239499_equil.vel
Info: CENTER OF MASS MOVING INITIALLY? NO
Info: DIELECTRIC             1
Info: EXCLUDE                SCALED ONE-FOUR
Info: 1-4 ELECTROSTATICS SCALED BY 0.833333
Info: MODIFIED 1-4 VDW PARAMETERS WILL BE USED
Info: DCD FILENAME           mobley_7239499_prod.dcd
Info: DCD FREQUENCY          100000
Info: DCD FIRST STEP         100000
Info: DCD FILE WILL CONTAIN UNIT CELL DATA
Info: XST FILENAME           mobley_7239499_prod.xst
Info: XST FREQUENCY          100000
Info: NO VELOCITY DCD OUTPUT
Info: NO FORCE DCD OUTPUT
Info: OUTPUT FILENAME        mobley_7239499_prod
Info: BINARY OUTPUT FILES WILL BE USED
Info: RESTART FILENAME       mobley_7239499_prod.restart
Info: RESTART FREQUENCY      100000
Info: BINARY RESTART FILES WILL BE USED
Info: CUTOFF                 9
Info: PAIRLIST DISTANCE      11
Info: PAIRLIST SHRINK RATE   0.01
Info: PAIRLIST GROW RATE     0.01
Info: PAIRLIST TRIGGER       0.3
Info: PAIRLISTS PER CYCLE    2
Info: PAIRLISTS ENABLED
Info: MARGIN                 2
Info: HYDROGEN GROUP CUTOFF  2.5
Info: PATCH DIMENSION        15.5
Info: ENERGY OUTPUT STEPS    100000
Info: ENERGY EVALUATION STEPS    100000
Info: OUTPUT ENERGY PRECISION 4
Info: CROSSTERM ENERGY INCLUDED IN DIHEDRAL
Info: TIMING OUTPUT STEPS    1000000
Info: PRESSURE OUTPUT STEPS  100000
Info: ALCHEMICAL FEP ON
Info: FEP CURRENT LAMBDA VALUE     1
Info: FEP COMPARISON LAMBDA VALUE  0.95
Info: FEP INTRA-ALCHEMICAL NON-BONDED INTERACTIONS WILL BE RETAINED
Info: FEP INTRA-ALCHEMICAL BONDED INTERACTIONS WILL BE RETAINED
Info: FEP VDW SHIFTING COEFFICIENT 5
Info: FEP ELEC. ACTIVE FOR ANNIHILATED PARTICLES BETWEEN LAMBDA = 0 AND LAMBDA = 0.5
Info: FEP ELEC. ACTIVE FOR EXNIHILATED PARTICLES BETWEEN LAMBDA = 0.5 AND LAMBDA = 1
Info: FEP VDW ACTIVE FOR ANNIHILATED PARTICLES BETWEEN LAMBDA = 0 AND LAMBDA = 1
Info: FEP VDW ACTIVE FOR EXNIHILATED PARTICLES BETWEEN LAMBDA = 0 AND LAMBDA = 1
Info: FEP BOND ACTIVE FOR ANNIHILATED PARTICLES BETWEEN LAMBDA = 1 AND LAMBDA = 1
Info: FEP BOND ACTIVE FOR EXNIHILATED PARTICLES BETWEEN LAMBDA = 0 AND LAMBDA = 0
Info: LANGEVIN DYNAMICS ACTIVE
Info: LANGEVIN TEMPERATURE   300
Info: LANGEVIN USING BBK INTEGRATOR
Info: LANGEVIN DAMPING COEFFICIENT IS 1 INVERSE PS
Info: LANGEVIN DYNAMICS APPLIED TO HYDROGENS
Info: LANGEVIN PISTON PRESSURE CONTROL ACTIVE
Info:        TARGET PRESSURE IS 1.01325 BAR
Info:     OSCILLATION PERIOD IS 50 FS
Info:             DECAY TIME IS 25 FS
Info:     PISTON TEMPERATURE IS 300 K
Info:       PRESSURE CONTROL IS GROUP-BASED
Info:    INITIAL STRAIN RATE IS 0.000661755 0.000661755 0.000661755
Info:       CELL FLUCTUATION IS ISOTROPIC
Info: PARTICLE MESH EWALD (PME) ACTIVE
Info: PME TOLERANCE               1e-06
Info: PME EWALD COEFFICIENT       0.348832
Info: PME INTERPOLATION ORDER     4
Info: PME GRID DIMENSIONS         36 36 28
Info: PME MAXIMUM GRID SPACING    1
Info: PME CALCULATION WILL BE PERFORMED ON GPU
Info: FULL ELECTROSTATIC EVALUATION FREQUENCY      2
Info: USING VERLET I (r-RESPA) MTS SCHEME.
Info: C1 SPLITTING OF LONG RANGE ELECTROSTATICS
Info: PLACING ATOMS IN PATCHES BY HYDROGEN GROUPS
Info: RIGID BONDS TO HYDROGEN : ALL
Info:         ERROR TOLERANCE : 1e-08
Info:          MAX ITERATIONS : 100
Info: RIGID WATER USING SETTLE ALGORITHM
Info: RANDOM NUMBER SEED     1744103712
Info: USE HYDROGEN BONDS?    NO
Info: Using AMBER format force field!
Info: AMBER PARM FILE        mobley_7239499.prmtop
Info: COORDINATE PDB         mobley_7239499.pdb
Info: Exclusions will be read from PARM file!
Info: SCNB (VDW SCALING)     2
Info: USING ARITHMETIC MEAN TO COMBINE L-J SIGMA PARAMETERS
Info: BINARY COORDINATES     mobley_7239499_equil.coor
Info: SUMMARY OF PARAMETERS:
Info: 6 BONDS
Info: 5 ANGLES
Info:   5 HARMONIC
Info:   0 COSINE-BASED
Info: 3 DIHEDRAL
Info: 0 IMPROPER
Info: 0 CROSSTERM
Info: 0 VDW
Info: 21 VDW_PAIRS
Info: 0 NBTHOLE_PAIRS
Info: To read alchdata from file: mobley_7239499.pdb
Info: To read alchflag data from column: 5
Info: STRUCTURE SUMMARY:
Info: 2905 ATOMS
Info: 2907 BONDS
Info: 38 ANGLES
Info: 68 DIHEDRALS
Info: 0 IMPROPERS
Info: 0 CROSSTERMS
Info: 2992 EXCLUSIONS
Info: 2890 RIGID BONDS
Info: ALCH: 0 ATOMS TO DISAPPEAR IN FINAL STATE
Info: ALCH: 22 ATOMS TO APPEAR IN FINAL STATE
Info: 5825 DEGREES OF FREEDOM
Info: 976 HYDROGEN GROUPS
Info: 3 ATOMS IN LARGEST HYDROGEN GROUP
Info: 976 MIGRATION GROUPS
Info: 3 ATOMS IN LARGEST MIGRATION GROUP
Info: TOTAL MASS = 17532 amu
Info: TOTAL CHARGE = -1.11759e-08 e
Info: MASS DENSITY = 0.990183 g/cm^3
Info: ATOM DENSITY = 0.0988031 atoms/A^3
Info: ADDED 0 IMPLICIT EXCLUSIONS
Info: NONBONDED TABLE R-SQUARED SPACING: 0.0625
Info: NONBONDED TABLE SIZE: 705 POINTS
Info: REDUCING NUMBER OF PATCHES TO IMPROVE LOAD BALANCE
Info: REMOVING COM VELOCITY 0.153167 -0.137015 0.106482
Info: Use 3D box decompostion in PME FFT.
Info: Updated CUDA force table with 4096 elements.
Info: Updated CUDA LJ table with 6 x 6 elements.
Info: Found 22 unique exclusion lists needing 64 bytes
TCL: Running for 1500000 steps
ETITLE: TS BOND ANGLE DIHED IMPRP ELECT VDW BOUNDARY MISC KINETIC TOTAL TEMP POTENTIAL TOTALAVG TEMPAVG PRESSURE GPRESSURE VOLUME PRESSAVG GPRESSAVG
ENERGY: 0 6.5453 9.4240 2.9918 0.0000 -10562.5180 1449.0664 0.0000 0.0000 1674.7473 -7419.7433 289.3635 -9094.4906 -7419.7433 289.3635 501.7254 585.5012 29401.9020 501.7254 585.5012
ENERGY: 300000 4.4825 6.6112 3.6225 0.0000 -10534.0825 1429.7742 0.0000 0.0000 1774.9523 -7314.6399 306.6769 -9089.5921 -7351.5498 299.3436 289.2917 283.8065 29845.1117 56.5820 83.5937
ENERGY: 600000 6.5305 4.9805 6.7836 0.0000 -10447.2905 1331.6462 0.0000 0.0000 1728.8077 -7368.5421 298.7041 -9097.3498 -7357.9125 299.8569 -558.5858 -457.7286 29350.2548 -103.5152 -53.3487
ENERGY: 900000 5.1339 6.1058 11.5104 0.0000 -10592.8977 1426.7399 0.0000 0.0000 1691.2098 -7452.1979 292.2079 -9143.4077 -7363.7034 298.9044 -425.4726 -348.0786 30211.7320 -126.2421 -83.3851
ENERGY: 1200000 7.9433 2.3613 4.5789 0.0000 -10479.8592 1415.5386 0.0000 0.0000 1776.9718 -7272.4654 307.0259 -9049.4372 -7346.5657 300.2934 -112.3065 -110.0764 30407.7849 -166.9614 -125.5767
ENERGY: 1500000 5.2690 7.8128 6.0944 0.0000 -10481.5563 1412.3824 0.0000 0.0000 1700.0609 -7349.9367 293.7372 -9049.9976 -7356.3882 299.6923 -214.8987 -117.7723 30142.2441 -112.8480 -64.3255
TCL: Running FEP window   2: Lambda1 0.95   Lambda2 0.8999999999999999 [dLambda -0.050000000000000044]
TCL: Setting parameter firsttimestep to 0
TCL: Setting parameter alchLambda to 0.95
Info: NONBONDED TABLE R-SQUARED SPACING: 0.0625
Info: NONBONDED TABLE SIZE: 705 POINTS
TCL: Setting parameter alchLambda2 to 0.8999999999999999
Info: NONBONDED TABLE R-SQUARED SPACING: 0.0625
Info: NONBONDED TABLE SIZE: 705 POINTS
TCL: Running for 1500000 steps
ETITLE: TS BOND ANGLE DIHED IMPRP ELECT VDW BOUNDARY MISC KINETIC TOTAL TEMP POTENTIAL TOTALAVG TEMPAVG PRESSURE GPRESSURE VOLUME PRESSAVG GPRESSAVG
ENERGY: 0 5.2690 7.8128 6.0944 0.0000 -10480.3013 1412.5576 0.0000 0.0000 1699.2129 -7349.3545 293.5907 -9048.5674 -7349.3545 293.5907 -222.0545 -132.4987 30142.2441 -222.0545 -132.4987
ENERGY: 300000 7.4344 7.8250 4.7503 0.0000 -10615.1820 1512.5136 0.0000 0.0000 1780.4787 -7302.1800 307.6318 -9082.6587 -7333.4579 298.3321 733.2106 786.4646 29805.2730 320.8071 384.7885
ENERGY: 600000 4.5257 7.9999 5.1144 0.0000 -10527.7903 1404.0322 0.0000 0.0000 1751.9622 -7354.1559 302.7047 -9106.1182 -7352.8853 299.8742 -44.8864 34.2585 29823.1220 170.2972 247.6398
ENERGY: 900000 4.0637 2.7884 6.4975 0.0000 -10275.5887 1273.3790 0.0000 0.0000 1719.6078 -7269.2522 297.1145 -8988.8600 -7319.9309 300.7831 -1127.8003 -1012.2783 30445.9146 5.2133 76.2379
ENERGY: 1200000 3.8071 9.5738 6.7823 0.0000 -10493.7316 1418.3907 0.0000 0.0000 1704.9391 -7350.2386 294.5800 -9055.1777 -7325.8088 299.7306 181.3731 225.6544 29607.0705 91.7909 161.5295
ENERGY: 1500000 3.5766 5.7207 4.0757 0.0000 -10312.1443 1311.1419 0.0000 0.0000 1739.2737 -7248.3556 300.5124 -8987.6294 -7327.3140 298.7120 -639.4023 -575.0355 30352.4602 -17.3469 53.8308
TCL: Running FEP window   3: Lambda1 0.8999999999999999 Lambda2 0.8499999999999999 [dLambda -0.050000000000000044]
TCL: Setting parameter firsttimestep to 0
TCL: Setting parameter alchLambda to 0.8999999999999999
Info: NONBONDED TABLE R-SQUARED SPACING: 0.0625
Info: NONBONDED TABLE SIZE: 705 POINTS
TCL: Setting parameter alchLambda2 to 0.8499999999999999
Info: NONBONDED TABLE R-SQUARED SPACING: 0.0625
Info: NONBONDED TABLE SIZE: 705 POINTS
TCL: Running for 1500000 steps
ETITLE: TS BOND ANGLE DIHED IMPRP ELECT VDW BOUNDARY MISC KINETIC TOTAL TEMP POTENTIAL TOTALAVG TEMPAVG PRESSURE GPRESSURE VOLUME PRESSAVG GPRESSAVG
ENERGY: 0 3.5766 5.7207 4.0757 0.0000 -10311.3087 1311.7613 0.0000 0.0000 1738.4086 -7247.7657 300.3629 -8986.1743 -7247.7657 300.3629 -652.5721 -583.0618 30352.4602 -652.5721 -583.0618
ENERGY: 300000 6.6727 3.0214 2.7997 0.0000 -10612.7573 1417.4004 0.0000 0.0000 1710.3678 -7472.4953 295.5180 -9182.8630 -7339.6410 300.7947 3.1862 9.5838 29451.2191 -627.5720 -574.1394
ENERGY: 600000 4.2099 5.3632 8.2991 0.0000 -10611.2234 1504.8099 0.0000 0.0000 1677.5461 -7410.9952 289.8471 -9088.5413 -7339.0226 298.6218 584.5814 649.1896 29819.6640 -260.0276 -183.5199
ENERGY: 900000 5.1559 3.0556 7.7768 0.0000 -10360.1658 1287.8674 0.0000 0.0000 1786.0292 -7270.2810 308.5908 -9056.3101 -7327.2488 299.9286 -1237.3510 -1179.4145 30279.9844 -337.5342 -265.2008
ENERGY: 1200000 8.3566 8.0986 4.4142 0.0000 -10496.2951 1412.8870 0.0000 0.0000 1752.6180 -7309.9208 302.8180 -9062.5388 -7321.7457 300.6112 -249.1703 -196.4141 30292.3908 -278.7101 -212.4416
ENERGY: 1500000 4.5249 6.5180 6.1443 0.0000 -10517.4825 1436.2010 0.0000 0.0000 1781.3442 -7282.7501 307.7814 -9064.0944 -7310.3991 301.6306 185.2085 204.5210 29915.6817 -182.1207 -117.8960
TCL: Running FEP window   4: Lambda1 0.8499999999999999 Lambda2 0.7999999999999998 [dLambda -0.050000000000000044]
TCL: Setting parameter firsttimestep to 0
TCL: Setting parameter alchLambda to 0.8499999999999999
Info: NONBONDED TABLE R-SQUARED SPACING: 0.0625
Info: NONBONDED TABLE SIZE: 705 POINTS
TCL: Setting parameter alchLambda2 to 0.7999999999999998
Info: NONBONDED TABLE R-SQUARED SPACING: 0.0625
Info: NONBONDED TABLE SIZE: 705 POINTS
TCL: Running for 1500000 steps
ETITLE: TS BOND ANGLE DIHED IMPRP ELECT VDW BOUNDARY MISC KINETIC TOTAL TEMP POTENTIAL TOTALAVG TEMPAVG PRESSURE GPRESSURE VOLUME PRESSAVG GPRESSAVG
ENERGY: 0 4.5249 6.5180 6.1443 0.0000 -10516.5834 1436.6657 0.0000 0.0000 1780.4541 -7282.2764 307.6276 -9062.7305 -7282.2764 307.6276 118.9734 196.7360 29915.6817 118.9734 196.7360
ENERGY: 300000 4.6990 5.5874 3.8459 0.0000 -10496.4440 1446.7226 0.0000 0.0000 1691.4492 -7344.1399 292.2493 -9035.5891 -7341.2134 299.1917 159.7507 201.8264 30250.8114 1.2047 46.3035
ENERGY: 600000 8.6610 3.7998 3.1867 0.0000 -10474.2128 1404.7594 0.0000 0.0000 1714.8609 -7338.9451 296.2943 -9053.8060 -7354.2500 299.7504 -377.7867 -359.6287 30144.0168 -34.0594 8.1889
ENERGY: 900000 2.7054 3.3070 7.8604 0.0000 -10479.9816 1473.6991 0.0000 0.0000 1749.8292 -7242.5805 302.3362 -8992.4097 -7354.7067 299.2620 576.9262 617.9883 30478.7034 103.1140 145.6743
ENERGY: 1200000 10.5779 4.9297 6.6976 0.0000 -10414.1508 1402.8668 0.0000 0.0000 1804.9300 -7184.1489 311.8565 -8989.0788 -7339.9950 300.0022 -168.5705 -109.9998 30123.6002 93.9616 141.5494
ENERGY: 1500000 4.9247 3.9188 3.6615 0.0000 -10553.0497 1433.4632 0.0000 0.0000 1767.9006 -7339.1809 305.4586 -9107.0815 -7331.6844 301.3228 324.8969 321.1136 29899.8998 114.2763 156.0070
TCL: Running FEP window   5: Lambda1 0.7999999999999998 Lambda2 0.7499999999999998 [dLambda -0.050000000000000044]
TCL: Setting parameter firsttimestep to 0
TCL: Setting parameter alchLambda to 0.7999999999999998
Info: NONBONDED TABLE R-SQUARED SPACING: 0.0625
Info: NONBONDED TABLE SIZE: 705 POINTS
TCL: Setting parameter alchLambda2 to 0.7499999999999998
Info: NONBONDED TABLE R-SQUARED SPACING: 0.0625
Info: NONBONDED TABLE SIZE: 705 POINTS
TCL: Running for 1500000 steps
ETITLE: TS BOND ANGLE DIHED IMPRP ELECT VDW BOUNDARY MISC KINETIC TOTAL TEMP POTENTIAL TOTALAVG TEMPAVG PRESSURE GPRESSURE VOLUME PRESSAVG GPRESSAVG
ENERGY: 0 4.9247 3.9188 3.6615 0.0000 -10552.2443 1434.2451 0.0000 0.0000 1767.0011 -7338.4930 305.3031 -9105.4942 -7338.4930 305.3031 216.9072 314.4015 29899.8998 216.9072 314.4015
ENERGY: 300000 4.8243 5.2485 2.7767 0.0000 -10456.1069 1404.3099 0.0000 0.0000 1753.9360 -7285.0114 303.0457 -9038.9474 -7287.8056 303.0371 -306.1868 -276.6723 30441.0383 -138.5592 -79.3970
ENERGY: 600000 6.9240 7.3763 5.4958 0.0000 -10515.4373 1428.3477 0.0000 0.0000 1728.4030 -7338.8906 298.6341 -9067.2936 -7293.9192 300.7049 -272.5976 -180.4489 30210.0386 -126.7926 -55.6570
ENERGY: 900000 4.8629 6.8031 4.4372 0.0000 -10458.8082 1354.9202 0.0000 0.0000 1712.3840 -7375.4008 295.8664 -9087.7847 -7306.1444 299.4480 -789.3957 -718.3379 30194.7748 40.1321 107.0345
ENERGY: 1200000 3.1020 4.3264 5.4950 0.0000 -10633.1922 1540.2423 0.0000 0.0000 1723.0693 -7356.9573 297.7126 -9080.0265 -7315.5024 299.7835 919.2417 952.5177 29656.4308 125.4974 191.3464
ENERGY: 1500000 5.7192 4.9982 6.7237 0.0000 -10474.6262 1383.1106 0.0000 0.0000 1735.1620 -7338.9125 299.8020 -9074.0746 -7311.3512 300.1425 -423.2326 -314.5018 30096.7186 69.5034 134.8075
TCL: Running FEP window   6: Lambda1 0.7499999999999998 Lambda2 0.6999999999999997 [dLambda -0.050000000000000044]
TCL: Setting parameter firsttimestep to 0
TCL: Setting parameter alchLambda to 0.7499999999999998
Info: NONBONDED TABLE R-SQUARED SPACING: 0.0625
Info: NONBONDED TABLE SIZE: 705 POINTS
TCL: Setting parameter alchLambda2 to 0.6999999999999997
Info: NONBONDED TABLE R-SQUARED SPACING: 0.0625
Info: NONBONDED TABLE SIZE: 705 POINTS
TCL: Running for 1500000 steps
ETITLE: TS BOND ANGLE DIHED IMPRP ELECT VDW BOUNDARY MISC KINETIC TOTAL TEMP POTENTIAL TOTALAVG TEMPAVG PRESSURE GPRESSURE VOLUME PRESSAVG GPRESSAVG
ENERGY: 0 5.7192 4.9982 6.7237 0.0000 -10474.3669 1383.1358 0.0000 0.0000 1734.2736 -7339.5163 299.6485 -9073.7900 -7339.5163 299.6485 -434.1835 -331.3664 30096.7186 -434.1835 -331.3664
ENERGY: 300000 5.6019 5.0083 2.9506 0.0000 -10536.7231 1407.7141 0.0000 0.0000 1715.3573 -7400.0908 296.3801 -9115.4481 -7374.4557 299.3919 -268.3599 -244.2793 29820.7192 47.4571 102.8874
ENERGY: 600000 5.5386 4.8687 5.7540 0.0000 -10477.5611 1397.8173 0.0000 0.0000 1779.0873 -7284.4952 307.3914 -9063.5825 -7339.3121 301.8691 18.8251 160.9227 29435.7859 134.8950 208.7917
ENERGY: 900000 7.6205 5.2029 7.2639 0.0000 -10467.2813 1416.5489 0.0000 0.0000 1764.8559 -7265.7893 304.9325 -9030.6452 -7329.8754 301.2015 268.7859 380.3481 29290.1983 110.3178 182.3431
ENERGY: 1200000 4.6140 10.0070 3.2822 0.0000 -10426.1675 1425.6423 0.0000 0.0000 1772.6312 -7209.9908 306.2759 -8982.6220 -7326.9572 301.4474 381.4072 387.3240 30022.4438 81.4280 148.6870
ENERGY: 1500000 8.3632 3.4462 5.1745 0.0000 -10471.2804 1341.7497 0.0000 0.0000 1714.6037 -7397.9432 296.2499 -9112.5468 -7326.9653 300.9390 -1052.9059 -1013.8958 30109.6254 -64.7879 0.5228
TCL: Running FEP window   7: Lambda1 0.6999999999999997 Lambda2 0.6499999999999997 [dLambda -0.050000000000000044]
TCL: Setting parameter firsttimestep to 0
TCL: Setting parameter alchLambda to 0.6999999999999997
Info: NONBONDED TABLE R-SQUARED SPACING: 0.0625
Info: NONBONDED TABLE SIZE: 705 POINTS
TCL: Setting parameter alchLambda2 to 0.6499999999999997
Info: NONBONDED TABLE R-SQUARED SPACING: 0.0625
Info: NONBONDED TABLE SIZE: 705 POINTS
TCL: Running for 1500000 steps
ETITLE: TS BOND ANGLE DIHED IMPRP ELECT VDW BOUNDARY MISC KINETIC TOTAL TEMP POTENTIAL TOTALAVG TEMPAVG PRESSURE GPRESSURE VOLUME PRESSAVG GPRESSAVG
ENERGY: 0 8.3632 3.4461 5.1745 0.0000 -10470.5663 1341.3145 0.0000 0.0000 1713.7004 -7398.5676 296.0938 -9112.2680 -7398.5676 296.0938 -1125.9449 -1035.4256 30109.6254 -1125.9449 -1035.4256
ENERGY: 300000 8.3197 7.1070 5.6211 0.0000 -10572.8607 1476.8459 0.0000 0.0000 1728.2909 -7346.6761 298.6148 -9074.9670 -7363.6320 295.7194 611.0610 684.4036 29992.9877 -45.5479 11.9102
ENERGY: 600000 6.6015 5.8940 3.8070 0.0000 -10475.6341 1427.6681 0.0000 0.0000 1721.4074 -7310.2562 297.4254 -9031.6636 -7341.8176 297.4888 41.1609 65.4636 30061.2945 -210.0661 -167.0991
ENERGY: 900000 4.8595 7.0088 3.9578 0.0000 -10466.6074 1395.5119 0.0000 0.0000 1750.4992 -7304.7703 302.4519 -9055.2694 -7339.2535 298.6282 -416.3155 -292.3442 30206.4054 -167.9187 -100.2793
ENERGY: 1200000 5.3935 5.9636 7.8461 0.0000 -10460.5744 1385.5526 0.0000 0.0000 1746.9113 -7308.9075 301.8320 -9055.8188 -7337.3966 299.5974 -40.8938 -10.5176 30019.0925 -183.3879 -120.8996
ENERGY: 1500000 4.2652 3.5466 9.6237 0.0000 -10586.2558 1525.2731 0.0000 0.0000 1729.1057 -7314.4415 298.7556 -9043.5472 -7328.9232 300.1453 851.6940 880.1282 29948.2998 -63.6787 -9.4810
TCL: Running FEP window   8: Lambda1 0.6499999999999997 Lambda2 0.5999999999999996 [dLambda -0.050000000000000044]
TCL: Setting parameter firsttimestep to 0
TCL: Setting parameter alchLambda to 0.6499999999999997
Info: NONBONDED TABLE R-SQUARED SPACING: 0.0625
Info: NONBONDED TABLE SIZE: 705 POINTS
TCL: Setting parameter alchLambda2 to 0.5999999999999996
Info: NONBONDED TABLE R-SQUARED SPACING: 0.0625
Info: NONBONDED TABLE SIZE: 705 POINTS
TCL: Running for 1500000 steps
ETITLE: TS BOND ANGLE DIHED IMPRP ELECT VDW BOUNDARY MISC KINETIC TOTAL TEMP POTENTIAL TOTALAVG TEMPAVG PRESSURE GPRESSURE VOLUME PRESSAVG GPRESSAVG
ENERGY: 0 4.2652 3.5466 9.6237 0.0000 -10586.1153 1526.1252 0.0000 0.0000 1728.2288 -7314.3258 298.6041 -9042.5547 -7314.3258 298.6041 785.0303 877.9584 29948.2998 785.0303 877.9584
ENERGY: 300000 5.9600 4.4635 4.3935 0.0000 -10388.2418 1374.3589 0.0000 0.0000 1760.6851 -7238.3808 304.2119 -8999.0659 -7292.8814 301.2433 -125.0270 -45.8124 29923.1206 291.0168 349.6401
ENERGY: 600000 7.0196 6.5223 8.0633 0.0000 -10569.2066 1487.6494 0.0000 0.0000 1696.8663 -7363.0857 293.1852 -9059.9519 -7333.7128 298.3014 479.6201 551.4630 30228.2808 189.0692 247.1285
ENERGY: 900000 4.7211 6.3702 5.8539 0.0000 -10317.0679 1289.3880 0.0000 0.0000 1701.4723 -7309.2624 293.9811 -9010.7347 -7314.3060 297.7204 -953.3894 -898.6946 30468.4095 19.4063 84.8783
ENERGY: 1200000 3.7353 6.4186 7.2615 0.0000 -10464.2067 1413.2143 0.0000 0.0000 1755.9378 -7277.6391 303.3916 -9033.5769 -7297.4356 299.2316 23.6936 118.4536 29941.3732 -67.9784 -0.1637
ENERGY: 1500000 6.8284 7.4661 6.3763 0.0000 -10310.0193 1307.8321 0.0000 0.0000 1692.3434 -7289.1731 292.4037 -8981.5165 -7299.7079 298.7383 -531.5648 -446.4305 29745.4250 -145.3579 -83.2780
TCL: Running FEP window   9: Lambda1 0.5999999999999996 Lambda2 0.5499999999999996 [dLambda -0.050000000000000044]
TCL: Setting parameter firsttimestep to 0
TCL: Setting parameter alchLambda to 0.5999999999999996
Info: NONBONDED TABLE R-SQUARED SPACING: 0.0625
Info: NONBONDED TABLE SIZE: 705 POINTS
TCL: Setting parameter alchLambda2 to 0.5499999999999996
Info: NONBONDED TABLE R-SQUARED SPACING: 0.0625
Info: NONBONDED TABLE SIZE: 705 POINTS
TCL: Running for 1500000 steps
ETITLE: TS BOND ANGLE DIHED IMPRP ELECT VDW BOUNDARY MISC KINETIC TOTAL TEMP POTENTIAL TOTALAVG TEMPAVG PRESSURE GPRESSURE VOLUME PRESSAVG GPRESSAVG
ENERGY: 0 6.8284 7.4661 6.3763 0.0000 -10309.7967 1308.4127 0.0000 0.0000 1691.4525 -7289.2606 292.2498 -8980.7132 -7289.2606 292.2498 -525.2532 -452.1754 29745.4250 -525.2532 -452.1754
ENERGY: 300000 5.2061 5.3562 6.6290 0.0000 -10612.2691 1400.9688 0.0000 0.0000 1689.4409 -7504.6682 291.9023 -9194.1091 -7352.0524 298.2761 -400.8658 -309.1060 29846.1149 -33.8964 10.7923
ENERGY: 600000 4.8143 4.8835 7.5893 0.0000 -10504.2841 1417.1753 0.0000 0.0000 1783.2249 -7286.5969 308.1063 -9069.8218 -7337.6044 298.9339 221.8942 293.9769 29540.2017 -69.5071 -9.6471
ENERGY: 900000 4.6994 4.7884 7.0379 0.0000 -10450.0839 1405.9867 0.0000 0.0000 1715.6388 -7311.9328 296.4287 -9027.5715 -7334.3213 298.4815 132.9687 170.4098 29798.1617 35.0494 87.4980
ENERGY: 1200000 8.7269 5.2625 5.3136 0.0000 -10431.0972 1368.0186 0.0000 0.0000 1751.1888 -7292.5868 302.5711 -9043.7756 -7334.2195 297.9874 -540.3135 -459.5260 30024.9009 -73.3527 -10.9348
ENERGY: 1500000 2.9888 3.1567 6.7067 0.0000 -10515.5276 1407.7925 0.0000 0.0000 1785.3268 -7309.5560 308.4695 -9094.8828 -7321.9936 299.1414 -158.6890 -94.4572 29902.9243 -75.7336 -14.2596
TCL: Running FEP window  10: Lambda1 0.5499999999999996 Lambda2 0.4999999999999996 [dLambda -0.04999999999999999]
TCL: Setting parameter firsttimestep to 0
TCL: Setting parameter alchLambda to 0.5499999999999996
Info: NONBONDED TABLE R-SQUARED SPACING: 0.0625
Info: NONBONDED TABLE SIZE: 705 POINTS
TCL: Setting parameter alchLambda2 to 0.4999999999999996
Info: NONBONDED TABLE R-SQUARED SPACING: 0.0625
Info: NONBONDED TABLE SIZE: 705 POINTS
TCL: Running for 1500000 steps
ETITLE: TS BOND ANGLE DIHED IMPRP ELECT VDW BOUNDARY MISC KINETIC TOTAL TEMP POTENTIAL TOTALAVG TEMPAVG PRESSURE GPRESSURE VOLUME PRESSAVG GPRESSAVG
ENERGY: 0 2.9888 3.1567 6.7067 0.0000 -10514.7664 1408.6301 0.0000 0.0000 1784.4476 -7308.8364 308.3176 -9093.2840 -7308.8364 308.3176 -184.8654 -96.0935 29902.9243 -184.8654 -96.0935
ENERGY: 300000 3.8034 7.1208 3.5623 0.0000 -10501.9295 1450.1646 0.0000 0.0000 1778.1972 -7259.0813 307.2376 -9037.2785 -7290.8313 305.5794 361.3703 516.6260 29697.8160 -39.1182 64.6147
ENERGY: 600000 9.2038 4.8323 9.5396 0.0000 -10395.4736 1375.1378 0.0000 0.0000 1761.9054 -7234.8548 304.4227 -8996.7602 -7298.9234 302.5061 -642.0374 -592.7050 30616.1858 -376.2948 -280.6123
ENERGY: 900000 8.1030 12.3053 5.9832 0.0000 -10515.4843 1450.4336 0.0000 0.0000 1769.7930 -7268.8663 305.7855 -9038.6592 -7288.6271 303.5025 304.9097 331.5706 29984.3339 -357.5819 -271.5124
ENERGY: 1200000 2.7862 7.7967 5.4127 0.0000 -10358.0868 1338.1948 0.0000 0.0000 1713.2597 -7290.6367 296.0177 -9003.8963 -7297.2884 302.0158 -234.6514 -234.1535 29789.3778 -361.4414 -289.8045
ENERGY: 1500000 6.5704 4.0797 4.7201 0.0000 -10422.3715 1413.3875 0.0000 0.0000 1694.6370 -7298.9768 292.8000 -8993.6138 -7299.4446 301.6984 -92.8233 17.1516 29986.2791 -377.8216 -299.6883
TCL: Running FEP window  11: Lambda1 0.4999999999999996 Lambda2 0.4499999999999996 [dLambda -0.04999999999999999]
TCL: Setting parameter firsttimestep to 0
TCL: Setting parameter alchLambda to 0.4999999999999996
Info: NONBONDED TABLE R-SQUARED SPACING: 0.0625
Info: NONBONDED TABLE SIZE: 705 POINTS
TCL: Setting parameter alchLambda2 to 0.4499999999999996
Info: NONBONDED TABLE R-SQUARED SPACING: 0.0625
Info: NONBONDED TABLE SIZE: 705 POINTS
TCL: Running for 1500000 steps
ETITLE: TS BOND ANGLE DIHED IMPRP ELECT VDW BOUNDARY MISC KINETIC TOTAL TEMP POTENTIAL TOTALAVG TEMPAVG PRESSURE GPRESSURE VOLUME PRESSAVG GPRESSAVG
ENERGY: 0 6.5704 4.0797 4.7201 0.0000 -10422.3005 1413.9889 0.0000 0.0000 1693.7491 -7299.1923 292.6466 -8992.9414 -7299.1923 292.6466 -75.9856 12.7765 29986.2791 -75.9856 12.7765
ENERGY: 300000 3.6148 3.1017 4.7389 0.0000 -10524.9353 1384.8486 0.0000 0.0000 1769.9681 -7358.6632 305.8158 -9128.6314 -7336.7336 300.1667 -68.9566 59.4224 29399.6070 120.8354 184.9704
ENERGY: 600000 5.0991 7.2823 3.2885 0.0000 -10498.6073 1389.2853 0.0000 0.0000 1707.7482 -7385.9038 295.0654 -9093.6520 -7339.3595 300.5114 -442.0607 -284.6403 29786.2608 -47.4681 33.7373
ENERGY: 900000 2.4703 5.5589 5.9437 0.0000 -10527.3106 1454.1655 0.0000 0.0000 1674.1920 -7384.9803 289.2675 -9059.1723 -7343.9477 299.4300 265.6465 356.9600 29597.9759 -101.9533 -26.4148
ENERGY: 1200000 3.9678 7.6621 5.8564 0.0000 -10464.4644 1368.0116 0.0000 0.0000 1756.5482 -7322.4183 303.4971 -9078.9666 -7339.8052 299.5733 -334.5781 -297.9201 29857.5610 -128.8717 -56.7445
ENERGY: 1500000 3.4153 7.1483 3.9207 0.0000 -10450.5986 1363.1746 0.0000 0.0000 1752.0028 -7320.9369 302.7117 -9072.9397 -7340.3148 300.0900 -376.3888 -343.4500 29664.0647 -154.3759 -91.2896
TCL: Running FEP window  12: Lambda1 0.4499999999999996 Lambda2 0.39999999999999963 [dLambda -0.04999999999999999]
TCL: Setting parameter firsttimestep to 0
TCL: Setting parameter alchLambda to 0.4499999999999996
Info: NONBONDED TABLE R-SQUARED SPACING: 0.0625
Info: NONBONDED TABLE SIZE: 705 POINTS
TCL: Setting parameter alchLambda2 to 0.39999999999999963
Info: NONBONDED TABLE R-SQUARED SPACING: 0.0625
Info: NONBONDED TABLE SIZE: 705 POINTS
TCL: Running for 1500000 steps
ETITLE: TS BOND ANGLE DIHED IMPRP ELECT VDW BOUNDARY MISC KINETIC TOTAL TEMP POTENTIAL TOTALAVG TEMPAVG PRESSURE GPRESSURE VOLUME PRESSAVG GPRESSAVG
ENERGY: 0 3.4153 7.1483 3.9207 0.0000 -10450.5971 1363.6292 0.0000 0.0000 1751.1138 -7321.3698 302.5581 -9072.4836 -7321.3698 302.5581 -415.1153 -349.2914 29664.0647 -415.1153 -349.2914
ENERGY: 300000 3.3690 3.4068 3.1715 0.0000 -10451.9689 1386.7984 0.0000 0.0000 1731.3436 -7323.8797 299.1422 -9055.2233 -7298.4269 301.4627 -292.2886 -268.9344 29930.0930 -453.6299 -403.3498
ENERGY: 600000 6.6453 11.3095 8.4257 0.0000 -10458.3611 1384.8623 0.0000 0.0000 1754.0929 -7293.0254 303.0729 -9047.1183 -7304.2987 301.0355 -418.1024 -323.4266 29950.5735 -313.7538 -242.0268
ENERGY: 900000 8.4723 5.9834 9.4151 0.0000 -10540.4095 1435.7251 0.0000 0.0000 1752.1208 -7328.6929 302.7321 -9080.8137 -7311.5223 301.5423 -89.2499 -46.1137 29946.5240 -229.9551 -160.8079
ENERGY: 1200000 4.6790 3.3635 4.4667 0.0000 -10619.2836 1487.1556 0.0000 0.0000 1753.2057 -7366.4131 302.9196 -9119.6188 -7316.0474 301.7296 428.9138 547.9425 29805.3773 -131.0467 -63.0863
ENERGY: 1500000 4.3469 4.7332 5.3381 0.0000 -10406.7629 1407.9945 0.0000 0.0000 1796.3796 -7187.9706 310.3792 -8984.3502 -7310.3522 301.2142 215.4858 299.2816 29895.0046 -138.7405 -68.9314
TCL: Running FEP window  13: Lambda1 0.39999999999999963 Lambda2 0.34999999999999964 [dLambda -0.04999999999999999]
TCL: Setting parameter firsttimestep to 0
TCL: Setting parameter alchLambda to 0.39999999999999963
Info: NONBONDED TABLE R-SQUARED SPACING: 0.0625
Info: NONBONDED TABLE SIZE: 705 POINTS
TCL: Setting parameter alchLambda2 to 0.34999999999999964
Info: NONBONDED TABLE R-SQUARED SPACING: 0.0625
Info: NONBONDED TABLE SIZE: 705 POINTS
TCL: Running for 1500000 steps
ETITLE: TS BOND ANGLE DIHED IMPRP ELECT VDW BOUNDARY MISC KINETIC TOTAL TEMP POTENTIAL TOTALAVG TEMPAVG PRESSURE GPRESSURE VOLUME PRESSAVG GPRESSAVG
ENERGY: 0 4.3469 4.7332 5.3381 0.0000 -10406.7645 1408.7370 0.0000 0.0000 1795.5356 -7188.0735 310.2333 -8983.6091 -7188.0735 310.2333 215.2229 294.7407 29895.0046 215.2229 294.7407
ENERGY: 300000 3.6827 5.5845 6.0024 0.0000 -10402.5276 1345.7584 0.0000 0.0000 1742.2070 -7299.2927 301.0192 -9041.4997 -7283.9051 304.3836 -550.8295 -514.1343 29853.5912 42.1396 101.2993
ENERGY: 600000 5.4494 6.1929 7.4750 0.0000 -10657.2824 1526.5931 0.0000 0.0000 1665.9493 -7445.6226 287.8434 -9111.5720 -7318.2676 299.9093 566.0863 617.1846 29600.3701 77.4396 149.1978
ENERGY: 900000 3.2534 11.0246 2.8006 0.0000 -10496.6515 1399.9985 0.0000 0.0000 1814.6059 -7264.9685 313.5283 -9079.5744 -7322.9406 300.9190 -168.3778 -131.1274 30229.7948 -76.2021 -2.8819
ENERGY: 1200000 3.3122 4.2411 4.9426 0.0000 -10649.3597 1487.3487 0.0000 0.0000 1776.9626 -7372.5525 307.0243 -9149.5151 -7322.1382 302.0126 555.3378 590.5473 29452.4732 -23.5855 42.9042
ENERGY: 1500000 8.6478 9.4522 6.7227 0.0000 -10584.2640 1440.9614 0.0000 0.0000 1733.3548 -7385.1252 299.4897 -9118.4800 -7320.9268 301.7258 -104.0383 52.2668 29584.0400 5.7106 71.3366
TCL: Running FEP window  14: Lambda1 0.34999999999999964 Lambda2 0.29999999999999966 [dLambda -0.04999999999999999]
TCL: Setting parameter firsttimestep to 0
TCL: Setting parameter alchLambda to 0.34999999999999964
Info: NONBONDED TABLE R-SQUARED SPACING: 0.0625
Info: NONBONDED TABLE SIZE: 705 POINTS
TCL: Setting parameter alchLambda2 to 0.29999999999999966
Info: NONBONDED TABLE R-SQUARED SPACING: 0.0625
Info: NONBONDED TABLE SIZE: 705 POINTS
TCL: Running for 1500000 steps
ETITLE: TS BOND ANGLE DIHED IMPRP ELECT VDW BOUNDARY MISC KINETIC TOTAL TEMP POTENTIAL TOTALAVG TEMPAVG PRESSURE GPRESSURE VOLUME PRESSAVG GPRESSAVG
ENERGY: 0 8.6478 9.4522 6.7227 0.0000 -10584.2635 1441.7586 0.0000 0.0000 1732.4719 -7385.2104 299.3372 -9117.6823 -7385.2104 299.3372 -33.3261 53.0353 29584.0400 -33.3261 53.0353
ENERGY: 300000 8.6972 6.1288 5.8062 0.0000 -10414.9023 1339.6373 0.0000 0.0000 1734.1302 -7320.5027 299.6237 -9054.6329 -7333.5882 300.8288 -928.5615 -870.8663 30276.5839 -464.7639 -372.1218
ENERGY: 600000 4.6640 4.5365 4.0487 0.0000 -10364.8933 1347.6498 0.0000 0.0000 1711.5316 -7292.4628 295.7191 -9003.9944 -7305.9070 299.2625 -594.8520 -486.6963 30267.3598 -438.1400 -354.4063
ENERGY: 900000 5.6116 2.9452 5.1615 0.0000 -10500.3132 1451.6626 0.0000 0.0000 1737.1276 -7297.8047 300.1416 -9034.9323 -7304.3062 299.1517 771.5168 740.2418 29257.1018 -299.7744 -229.9945
ENERGY: 1200000 6.3680 2.9040 7.2799 0.0000 -10529.9789 1456.5599 0.0000 0.0000 1724.9679 -7331.8993 298.0406 -9056.8672 -7315.8310 299.2292 156.6869 208.0268 30135.1452 -232.6860 -165.2672
ENERGY: 1500000 2.1016 4.3471 9.1111 0.0000 -10560.0441 1452.7364 0.0000 0.0000 1700.2954 -7391.4525 293.7777 -9091.7479 -7330.6994 298.2010 237.0915 313.7733 29747.2878 -159.9215 -93.3473
TCL: Running FEP window  15: Lambda1 0.29999999999999966 Lambda2 0.24999999999999967 [dLambda -0.04999999999999999]
TCL: Setting parameter firsttimestep to 0
TCL: Setting parameter alchLambda to 0.29999999999999966
Info: NONBONDED TABLE R-SQUARED SPACING: 0.0625
Info: NONBONDED TABLE SIZE: 705 POINTS
TCL: Setting parameter alchLambda2 to 0.24999999999999967
Info: NONBONDED TABLE R-SQUARED SPACING: 0.0625
Info: NONBONDED TABLE SIZE: 705 POINTS
TCL: Running for 1500000 steps
ETITLE: TS BOND ANGLE DIHED IMPRP ELECT VDW BOUNDARY MISC KINETIC TOTAL TEMP POTENTIAL TOTALAVG TEMPAVG PRESSURE GPRESSURE VOLUME PRESSAVG GPRESSAVG
ENERGY: 0 2.1016 4.3471 9.1111 0.0000 -10560.0449 1453.2038 0.0000 0.0000 1699.4386 -7391.8427 293.6297 -9091.2813 -7391.8427 293.6297 224.6468 308.7065 29747.2878 224.6468 308.7065
ENERGY: 300000 4.7180 3.0536 6.8346 0.0000 -10386.2414 1425.8944 0.0000 0.0000 1746.4525 -7199.2884 301.7527 -8945.7409 -7335.5063 297.4600 207.1009 223.9143 30007.1628 228.1662 266.1623
ENERGY: 600000 6.2334 4.0330 5.5493 0.0000 -10370.2136 1380.8678 0.0000 0.0000 1762.4702 -7211.0600 304.5203 -8973.5302 -7298.9254 298.4747 -233.8767 -168.0698 29986.8579 21.1325 71.0556
ENERGY: 900000 6.3204 3.7970 9.2462 0.0000 -10604.5962 1536.9082 0.0000 0.0000 1745.3705 -7302.9540 301.5658 -9048.3245 -7310.1079 298.2636 821.6201 886.5544 29756.8212 66.8557 116.2693
ENERGY: 1200000 4.6914 2.3287 4.2673 0.0000 -10646.9654 1514.5559 0.0000 0.0000 1736.9191 -7384.2030 300.1056 -9121.1221 -7317.4939 298.4337 755.0570 838.7239 29486.8075 121.3330 178.2275
ENERGY: 1500000 9.6409 6.0290 6.4443 0.0000 -10517.5837 1484.3926 0.0000 0.0000 1754.7851 -7256.2919 303.1924 -9011.0769 -7311.7812 298.7406 207.9720 309.8002 30428.5410 101.1070 161.8196
TCL: Running FEP window  16: Lambda1 0.24999999999999967 Lambda2 0.19999999999999968 [dLambda -0.04999999999999999]
TCL: Setting parameter firsttimestep to 0
TCL: Setting parameter alchLambda to 0.24999999999999967
Info: NONBONDED TABLE R-SQUARED SPACING: 0.0625
Info: NONBONDED TABLE SIZE: 705 POINTS
TCL: Setting parameter alchLambda2 to 0.19999999999999968
Info: NONBONDED TABLE R-SQUARED SPACING: 0.0625
Info: NONBONDED TABLE SIZE: 705 POINTS
TCL: Running for 1500000 steps
ETITLE: TS BOND ANGLE DIHED IMPRP ELECT VDW BOUNDARY MISC KINETIC TOTAL TEMP POTENTIAL TOTALAVG TEMPAVG PRESSURE GPRESSURE VOLUME PRESSAVG GPRESSAVG
ENERGY: 0 9.6409 6.0290 6.4443 0.0000 -10517.5840 1484.7923 0.0000 0.0000 1753.8912 -7256.7864 303.0380 -9010.6776 -7256.7864 303.0380 217.0761 306.8329 30428.5410 217.0761 306.8329
ENERGY: 300000 5.7189 5.3165 6.7678 0.0000 -10415.0750 1358.9124 0.0000 0.0000 1708.6197 -7329.7398 295.2160 -9038.3594 -7306.4522 299.4982 -624.8884 -615.3046 30127.8840 -304.7763 -256.4478
ENERGY: 600000 9.1788 4.1163 5.5288 0.0000 -10505.3747 1444.9319 0.0000 0.0000 1765.4442 -7276.1748 305.0341 -9041.6190 -7320.0353 300.4212 172.0742 213.7889 30277.5466 -263.4061 -218.5444
ENERGY: 900000 6.6854 4.5445 3.7531 0.0000 -10535.8221 1378.1274 0.0000 0.0000 1770.6506 -7372.0610 305.9337 -9142.7117 -7330.9156 300.3640 -456.2909 -387.1462 29580.1288 -193.6285 -147.8272
ENERGY: 1200000 3.3140 4.9449 4.4707 0.0000 -10550.9969 1478.4119 0.0000 0.0000 1779.9976 -7279.8579 307.5487 -9059.8555 -7331.8494 300.1006 494.0671 522.0954 29817.3199 -128.6237 -76.8034
ENERGY: 1500000 3.0973 4.4006 3.3655 0.0000 -10463.9039 1423.8260 0.0000 0.0000 1748.8336 -7280.3810 302.1641 -9029.2145 -7324.4988 300.5325 609.5264 708.1231 29000.3967 -90.1012 -42.1854
TCL: Running FEP window  17: Lambda1 0.19999999999999968 Lambda2 0.1499999999999997 [dLambda -0.04999999999999999]
TCL: Setting parameter firsttimestep to 0
TCL: Setting parameter alchLambda to 0.19999999999999968
Info: NONBONDED TABLE R-SQUARED SPACING: 0.0625
Info: NONBONDED TABLE SIZE: 705 POINTS
TCL: Setting parameter alchLambda2 to 0.1499999999999997
Info: NONBONDED TABLE R-SQUARED SPACING: 0.0625
Info: NONBONDED TABLE SIZE: 705 POINTS
TCL: Running for 1500000 steps
ETITLE: TS BOND ANGLE DIHED IMPRP ELECT VDW BOUNDARY MISC KINETIC TOTAL TEMP POTENTIAL TOTALAVG TEMPAVG PRESSURE GPRESSURE VOLUME PRESSAVG GPRESSAVG
ENERGY: 0 3.0973 4.4006 3.3655 0.0000 -10463.9026 1423.5188 0.0000 0.0000 1747.9672 -7281.5532 302.0145 -9029.5204 -7281.5532 302.0145 615.4743 700.9060 29000.3967 615.4743 700.9060
ENERGY: 300000 3.9309 5.8693 6.5537 0.0000 -10540.6755 1440.9744 0.0000 0.0000 1707.2748 -7376.0724 294.9836 -9083.3472 -7299.8570 301.9044 150.6285 243.7420 29728.3745 -26.5012 53.0216
ENERGY: 600000 5.2170 4.9022 5.1937 0.0000 -10584.3861 1450.2559 0.0000 0.0000 1720.2300 -7398.5872 297.2220 -9118.8172 -7316.4673 300.2424 290.6413 314.6577 29830.2442 17.9750 80.3872
ENERGY: 900000 5.7494 4.0700 7.5131 0.0000 -10437.4286 1405.0796 0.0000 0.0000 1741.1677 -7273.8487 300.8396 -9015.0165 -7313.2770 299.6433 -202.9915 -117.6717 29753.6265 -81.8376 -26.2793
ENERGY: 1200000 6.8854 5.3086 8.2669 0.0000 -10528.2610 1417.6252 0.0000 0.0000 1737.8135 -7352.3615 300.2601 -9090.1750 -7305.9047 300.1896 -90.8321 -1.6145 29813.7440 -172.3244 -111.6172
ENERGY: 1500000 2.3804 3.1795 10.0398 0.0000 -10705.2431 1568.2870 0.0000 0.0000 1700.3322 -7421.0240 293.7841 -9121.3563 -7311.5144 300.0121 1100.6065 1121.9720 29357.7508 -130.6739 -71.7710
TCL: Running FEP window  18: Lambda1 0.1499999999999997 Lambda2 0.09999999999999969 [dLambda -0.05 ]
TCL: Setting parameter firsttimestep to 0
TCL: Setting parameter alchLambda to 0.1499999999999997
Info: NONBONDED TABLE R-SQUARED SPACING: 0.0625
Info: NONBONDED TABLE SIZE: 705 POINTS
TCL: Setting parameter alchLambda2 to 0.09999999999999969
Info: NONBONDED TABLE R-SQUARED SPACING: 0.0625
Info: NONBONDED TABLE SIZE: 705 POINTS
TCL: Running for 1500000 steps
ETITLE: TS BOND ANGLE DIHED IMPRP ELECT VDW BOUNDARY MISC KINETIC TOTAL TEMP POTENTIAL TOTALAVG TEMPAVG PRESSURE GPRESSURE VOLUME PRESSAVG GPRESSAVG
ENERGY: 0 2.3805 3.1795 10.0398 0.0000 -10705.2418 1568.4157 0.0000 0.0000 1699.4307 -7421.7956 293.6283 -9121.2262 -7421.7956 293.6283 1012.6273 1115.6853 29357.7508 1012.6273 1115.6853
ENERGY: 300000 6.0853 5.2272 3.0883 0.0000 -10503.9951 1379.4681 0.0000 0.0000 1744.1781 -7365.9481 301.3598 -9110.1262 -7332.1211 298.8129 -509.2828 -495.8431 29689.4411 271.0647 337.8446
ENERGY: 600000 6.5203 4.5443 7.4657 0.0000 -10550.6308 1415.8786 0.0000 0.0000 1704.4291 -7411.7928 294.4919 -9116.2219 -7335.9560 297.2248 -264.9489 -170.9131 29804.3970 -80.9809 -5.4926
ENERGY: 900000 5.4037 4.7171 1.8456 0.0000 -10440.9383 1357.5416 0.0000 0.0000 1726.0804 -7345.3499 298.2328 -9071.4302 -7319.5393 298.4600 -579.8898 -512.0789 29642.4749 -73.7403 -15.6181
ENERGY: 1200000 3.5449 4.7958 4.8246 0.0000 -10474.5092 1456.9336 0.0000 0.0000 1715.0329 -7289.3774 296.3241 -9004.4103 -7323.1215 298.4327 737.0645 780.3621 29350.1659 1.3470 46.7687
ENERGY: 1500000 7.3209 6.0185 6.8001 0.0000 -10528.3878 1459.2065 0.0000 0.0000 1727.0852 -7321.9566 298.4065 -9049.0419 -7316.9243 299.1665 407.8686 412.5532 29609.8071 63.5978 104.3180
TCL: Running FEP window  19: Lambda1 0.09999999999999969 Lambda2 0.049999999999999684 [dLambda -0.05 ]
TCL: Setting parameter firsttimestep to 0
TCL: Setting parameter alchLambda to 0.09999999999999969
Info: NONBONDED TABLE R-SQUARED SPACING: 0.0625
Info: NONBONDED TABLE SIZE: 705 POINTS
TCL: Setting parameter alchLambda2 to 0.049999999999999684
Info: NONBONDED TABLE R-SQUARED SPACING: 0.0625
Info: NONBONDED TABLE SIZE: 705 POINTS
TCL: Running for 1500000 steps
ETITLE: TS BOND ANGLE DIHED IMPRP ELECT VDW BOUNDARY MISC KINETIC TOTAL TEMP POTENTIAL TOTALAVG TEMPAVG PRESSURE GPRESSURE VOLUME PRESSAVG GPRESSAVG
ENERGY: 0 7.3209 6.0185 6.8001 0.0000 -10528.3878 1459.4521 0.0000 0.0000 1726.2280 -7322.5682 298.2584 -9048.7962 -7322.5682 298.2584 327.2565 409.7997 29609.8071 327.2565 409.7997
ENERGY: 300000 5.2140 5.4772 7.2085 0.0000 -10524.9759 1468.9065 0.0000 0.0000 1720.0072 -7318.1627 297.1835 -9038.1698 -7301.4640 301.2696 471.0157 582.0695 29760.2418 86.3780 149.4847
ENERGY: 600000 6.1649 5.6908 8.4968 0.0000 -10364.0120 1334.8669 0.0000 0.0000 1760.6537 -7248.1389 304.2064 -9008.7926 -7289.8454 301.9007 -318.8256 -306.2250 29328.7001 -156.4863 -104.4927
ENERGY: 900000 4.7340 4.6035 4.1345 0.0000 -10495.9562 1410.3422 0.0000 0.0000 1772.6869 -7299.4551 306.2855 -9072.1420 -7292.0387 300.7136 75.8351 161.1126 29389.8405 -92.8259 -42.4539
ENERGY: 1200000 6.6407 8.4556 9.0297 0.0000 -10490.0139 1417.3648 0.0000 0.0000 1745.9594 -7302.5637 301.6675 -9048.5231 -7300.6009 300.5364 -91.3043 6.4100 29357.1888 -177.0494 -122.0914
ENERGY: 1500000 4.9676 3.8338 4.0280 0.0000 -10295.5884 1326.3426 0.0000 0.0000 1716.5419 -7239.8745 296.5848 -8956.4164 -7296.6055 300.0734 -865.8303 -813.8390 30251.3336 -299.2575 -243.6912
TCL: Running FEP window  20: Lambda1 0.049999999999999684 Lambda2 0.0    [dLambda -0.049999999999999684]
TCL: Setting parameter firsttimestep to 0
TCL: Setting parameter alchLambda to 0.049999999999999684
Info: NONBONDED TABLE R-SQUARED SPACING: 0.0625
Info: NONBONDED TABLE SIZE: 705 POINTS
TCL: Setting parameter alchLambda2 to 0.0
Info: NONBONDED TABLE R-SQUARED SPACING: 0.0625
Info: NONBONDED TABLE SIZE: 705 POINTS
TCL: Running for 1500000 steps
ETITLE: TS BOND ANGLE DIHED IMPRP ELECT VDW BOUNDARY MISC KINETIC TOTAL TEMP POTENTIAL TOTALAVG TEMPAVG PRESSURE GPRESSURE VOLUME PRESSAVG GPRESSAVG
ENERGY: 0 4.9676 3.8338 4.0280 0.0000 -10295.5869 1326.5022 0.0000 0.0000 1715.6829 -7240.5723 296.4364 -8956.2553 -7240.5723 296.4364 -893.8427 -817.9297 30251.3336 -893.8427 -817.9297
ENERGY: 300000 6.0038 6.9134 3.1820 0.0000 -10429.3415 1400.1151 0.0000 0.0000 1802.5990 -7210.5283 311.4538 -9013.1272 -7256.7134 304.1526 -199.9764 -146.0447 29893.2211 -62.3163 -4.7096
ENERGY: 600000 2.9982 5.0335 3.0721 0.0000 -10585.4193 1468.0922 0.0000 0.0000 1739.5957 -7366.6277 300.5680 -9106.2234 -7278.0371 304.1878 113.8403 123.3344 29700.2048 -23.5313 27.4603
ENERGY: 900000 6.0701 4.6926 3.3556 0.0000 -10370.0071 1373.9112 0.0000 0.0000 1704.9049 -7277.0728 294.5741 -8981.9777 -7284.6224 301.4599 -432.5987 -421.6233 29970.7025 -20.1456 31.2501
ENERGY: 1200000 3.0921 4.8455 8.1986 0.0000 -10393.8015 1386.1275 0.0000 0.0000 1744.8048 -7246.7328 301.4681 -8991.5377 -7281.3562 301.7397 -182.2547 -95.8744 29978.8802 0.5235 59.7378
ENERGY: 1500000 9.1891 5.3705 5.0760 0.0000 -10513.1587 1435.0343 0.0000 0.0000 1666.3512 -7392.1375 287.9128 -9058.4887 -7294.4412 299.9067 -488.5465 -363.6418 30054.1180 -13.6497 42.2118
TCL: Exiting due to exit command.
