Info: SIMULATION PARAMETERS:
Info: TIMESTEP               2
Info: NUMBER OF STEPS        0
Info: STEPS PER CYCLE        10
Info: PERIODIC CELL BASIS 1  30.9875 0 0
Info: PERIODIC CELL BASIS 2  0 30.3445 0
Info: PERIODIC CELL BASIS 3  0 0 32.0619
Info: PERIODIC CELL CENTER   0 0 0
Info: WRAPPING WATERS AROUND PERIODIC BOUNDARIES ON OUTPUT.
Info: WRAPPING ALL CLUSTERS AROUND PERIODIC BOUNDARIES ON OUTPUT.
Info: FIRST LDB TIMESTEP     50
Info: LAST LDB TIMESTEP     -1
Info: HOM BACKGROUND SCALING 1
Info: PME BACKGROUND SCALING 1
Info: MIN ATOMS PER PATCH    40
Info: EMPTY PATCH LOAD       40 ATOMS
Info: VELOCITY FILE          mobley_4287564_equil.vel
Info: CENTER OF MASS MOVING INITIALLY? NO
Info: DIELECTRIC             1
Info: EXCLUDE                SCALED ONE-FOUR
Info: 1-4 ELECTROSTATICS SCALED BY 0.833333
Info: MODIFIED 1-4 VDW PARAMETERS WILL BE USED
Info: DCD FILENAME           mobley_4287564_prod.dcd
Info: DCD FREQUENCY          100000
Info: DCD FIRST STEP         100000
Info: DCD FILE WILL CONTAIN UNIT CELL DATA
Info: XST FILENAME           mobley_4287564_prod.xst
Info: XST FREQUENCY          100000
Info: NO VELOCITY DCD OUTPUT
Info: NO FORCE DCD OUTPUT
Info: OUTPUT FILENAME        mobley_4287564_prod
Info: BINARY OUTPUT FILES WILL BE USED
Info: RESTART FILENAME       mobley_4287564_prod.restart
Info: RESTART FREQUENCY      100000
Info: BINARY RESTART FILES WILL BE USED
Info: CUTOFF                 9
Info: PAIRLIST DISTANCE      11
Info: PAIRLIST SHRINK RATE   0.01
Info: PAIRLIST GROW RATE     0.01
Info: PAIRLIST TRIGGER       0.3
Info: PAIRLISTS PER CYCLE    2
Info: PAIRLISTS ENABLED
Info: MARGIN                 2
Info: HYDROGEN GROUP CUTOFF  2.5
Info: PATCH DIMENSION        15.5
Info: ENERGY OUTPUT STEPS    100000
Info: ENERGY EVALUATION STEPS    100000
Info: OUTPUT ENERGY PRECISION 4
Info: CROSSTERM ENERGY INCLUDED IN DIHEDRAL
Info: TIMING OUTPUT STEPS    1000000
Info: PRESSURE OUTPUT STEPS  100000
Info: ALCHEMICAL FEP ON
Info: FEP CURRENT LAMBDA VALUE     0
Info: FEP COMPARISON LAMBDA VALUE  0.05
Info: FEP INTRA-ALCHEMICAL NON-BONDED INTERACTIONS WILL BE RETAINED
Info: FEP INTRA-ALCHEMICAL BONDED INTERACTIONS WILL BE RETAINED
Info: FEP VDW SHIFTING COEFFICIENT 5
Info: FEP ELEC. ACTIVE FOR ANNIHILATED PARTICLES BETWEEN LAMBDA = 0 AND LAMBDA = 0.5
Info: FEP ELEC. ACTIVE FOR EXNIHILATED PARTICLES BETWEEN LAMBDA = 0.5 AND LAMBDA = 1
Info: FEP VDW ACTIVE FOR ANNIHILATED PARTICLES BETWEEN LAMBDA = 0 AND LAMBDA = 1
Info: FEP VDW ACTIVE FOR EXNIHILATED PARTICLES BETWEEN LAMBDA = 0 AND LAMBDA = 1
Info: FEP BOND ACTIVE FOR ANNIHILATED PARTICLES BETWEEN LAMBDA = 1 AND LAMBDA = 1
Info: FEP BOND ACTIVE FOR EXNIHILATED PARTICLES BETWEEN LAMBDA = 0 AND LAMBDA = 0
Info: LANGEVIN DYNAMICS ACTIVE
Info: LANGEVIN TEMPERATURE   300
Info: LANGEVIN USING BBK INTEGRATOR
Info: LANGEVIN DAMPING COEFFICIENT IS 1 INVERSE PS
Info: LANGEVIN DYNAMICS APPLIED TO HYDROGENS
Info: LANGEVIN PISTON PRESSURE CONTROL ACTIVE
Info:        TARGET PRESSURE IS 1.01325 BAR
Info:     OSCILLATION PERIOD IS 50 FS
Info:             DECAY TIME IS 25 FS
Info:     PISTON TEMPERATURE IS 300 K
Info:       PRESSURE CONTROL IS GROUP-BASED
Info:    INITIAL STRAIN RATE IS 6.62391e-06 6.62391e-06 6.62391e-06
Info:       CELL FLUCTUATION IS ISOTROPIC
Info: PARTICLE MESH EWALD (PME) ACTIVE
Info: PME TOLERANCE               1e-06
Info: PME EWALD COEFFICIENT       0.348832
Info: PME INTERPOLATION ORDER     4
Info: PME GRID DIMENSIONS         32 32 36
Info: PME MAXIMUM GRID SPACING    1
Info: PME CALCULATION WILL BE PERFORMED ON GPU
Info: FULL ELECTROSTATIC EVALUATION FREQUENCY      2
Info: USING VERLET I (r-RESPA) MTS SCHEME.
Info: C1 SPLITTING OF LONG RANGE ELECTROSTATICS
Info: PLACING ATOMS IN PATCHES BY HYDROGEN GROUPS
Info: RIGID BONDS TO HYDROGEN : ALL
Info:         ERROR TOLERANCE : 1e-08
Info:          MAX ITERATIONS : 100
Info: RIGID WATER USING SETTLE ALGORITHM
Info: RANDOM NUMBER SEED     1743562168
Info: USE HYDROGEN BONDS?    NO
Info: Using AMBER format force field!
Info: AMBER PARM FILE        mobley_4287564.prmtop
Info: COORDINATE PDB         mobley_4287564.pdb
Info: Exclusions will be read from PARM file!
Info: SCNB (VDW SCALING)     2
Info: USING ARITHMETIC MEAN TO COMBINE L-J SIGMA PARAMETERS
Info: BINARY COORDINATES     mobley_4287564_equil.coor
Info: SUMMARY OF PARAMETERS:
Info: 8 BONDS
Info: 10 ANGLES
Info:   10 HARMONIC
Info:   0 COSINE-BASED
Info: 4 DIHEDRAL
Info: 0 IMPROPER
Info: 0 CROSSTERM
Info: 0 VDW
Info: 36 VDW_PAIRS
Info: 0 NBTHOLE_PAIRS
Info: To read alchdata from file: mobley_4287564.pdb
Info: To read alchflag data from column: 5
Info: STRUCTURE SUMMARY:
Info: 2972 ATOMS
Info: 2972 BONDS
Info: 22 ANGLES
Info: 31 DIHEDRALS
Info: 0 IMPROPERS
Info: 0 CROSSTERMS
Info: 3017 EXCLUSIONS
Info: 2965 RIGID BONDS
Info: ALCH: 0 ATOMS TO DISAPPEAR IN FINAL STATE
Info: ALCH: 14 ATOMS TO APPEAR IN FINAL STATE
Info: 5951 DEGREES OF FREEDOM
Info: 993 HYDROGEN GROUPS
Info: 4 ATOMS IN LARGEST HYDROGEN GROUP
Info: 993 MIGRATION GROUPS
Info: 4 ATOMS IN LARGEST MIGRATION GROUP
Info: TOTAL MASS = 17856.9 amu
Info: TOTAL CHARGE = 0.000100024 e
Info: MASS DENSITY = 0.983581 g/cm^3
Info: ATOM DENSITY = 0.0985811 atoms/A^3
Info: ADDED 0 IMPLICIT EXCLUSIONS
Info: NONBONDED TABLE R-SQUARED SPACING: 0.0625
Info: NONBONDED TABLE SIZE: 705 POINTS
Info: REMOVING COM VELOCITY 0.12158 0.0356091 0.0365329
Info: Use 3D box decompostion in PME FFT.
Info: Updated CUDA force table with 4096 elements.
Info: Updated CUDA LJ table with 8 x 8 elements.
Info: Found 13 unique exclusion lists needing 24 bytes
TCL: Running for 1500000 steps
ETITLE: TS BOND ANGLE DIHED IMPRP ELECT VDW BOUNDARY MISC KINETIC TOTAL TEMP POTENTIAL TOTALAVG TEMPAVG PRESSURE GPRESSURE VOLUME PRESSAVG GPRESSAVG
ENERGY: 0 0.7562 3.1449 2.6089 0.0000 -10906.7734 1526.3225 0.0000 0.0000 1781.6113 -7592.3295 301.3099 -9373.9409 -7592.3295 301.3099 608.0215 688.0407 30147.7678 608.0215 688.0407
ENERGY: 300000 2.4941 5.1508 1.3101 0.0000 -10801.8926 1399.3298 0.0000 0.0000 1758.4578 -7635.1500 297.3941 -9393.6078 -7637.5542 295.7901 -645.7859 -558.6584 30578.5558 89.0955 147.7433
ENERGY: 600000 1.6388 3.4367 4.0173 0.0000 -10848.5213 1467.4188 0.0000 0.0000 1760.8753 -7611.1344 297.8030 -9372.0097 -7619.5819 297.7748 94.2279 95.8133 30752.4756 105.5101 158.8163
ENERGY: 900000 5.2205 2.4304 1.6236 0.0000 -10773.6420 1380.2436 0.0000 0.0000 1789.1464 -7594.9774 302.5843 -9384.1238 -7603.9785 298.5512 -766.3269 -746.9095 30200.4439 -30.5538 24.0017
ENERGY: 1200000 0.8619 4.0246 3.1729 0.0000 -10607.2465 1323.7589 0.0000 0.0000 1758.0401 -7517.3882 297.3235 -9275.4283 -7606.6207 296.5358 -778.2640 -731.1842 30334.4333 6.5176 51.9846
ENERGY: 1500000 3.3932 2.7343 0.9300 0.0000 -10715.8796 1392.1282 0.0000 0.0000 1797.1218 -7519.5720 303.9331 -9316.6938 -7595.1263 297.6705 -475.4071 -470.8645 30594.9471 -28.4396 15.6288
TCL: Running FEP window   2: Lambda1 0.05   Lambda2 0.1    [dLambda 0.05  ]
TCL: Setting parameter firsttimestep to 0
TCL: Setting parameter alchLambda to 0.05
Info: NONBONDED TABLE R-SQUARED SPACING: 0.0625
Info: NONBONDED TABLE SIZE: 705 POINTS
TCL: Setting parameter alchLambda2 to 0.1
Info: NONBONDED TABLE R-SQUARED SPACING: 0.0625
Info: NONBONDED TABLE SIZE: 705 POINTS
TCL: Running for 1500000 steps
ETITLE: TS BOND ANGLE DIHED IMPRP ELECT VDW BOUNDARY MISC KINETIC TOTAL TEMP POTENTIAL TOTALAVG TEMPAVG PRESSURE GPRESSURE VOLUME PRESSAVG GPRESSAVG
ENERGY: 0 3.3932 2.7343 0.9300 0.0000 -10715.8803 1393.8536 0.0000 0.0000 1796.2217 -7518.7475 303.7808 -9314.9691 -7518.7475 303.7808 -557.1620 -467.1351 30594.9471 -557.1620 -467.1351
ENERGY: 300000 0.6595 2.6257 4.1058 0.0000 -10895.1329 1478.9653 0.0000 0.0000 1755.3331 -7653.4434 296.8657 -9408.7765 -7571.2343 299.9169 -2.7604 65.2425 30487.4100 -33.3147 49.6749
ENERGY: 600000 0.2579 2.6021 3.3604 0.0000 -10886.7540 1485.5117 0.0000 0.0000 1719.6131 -7675.4089 290.8246 -9395.0220 -7591.2440 298.1638 23.3519 107.0213 30350.9723 -39.3181 35.4305
ENERGY: 900000 2.5714 6.5482 2.0946 0.0000 -10597.8568 1390.7387 0.0000 0.0000 1819.0104 -7376.8935 307.6349 -9195.9039 -7567.9340 298.1933 -101.9902 0.9465 30604.1524 -23.5079 47.0382
ENERGY: 1200000 2.6390 2.8117 2.7741 0.0000 -10873.1094 1529.6047 0.0000 0.0000 1789.1819 -7546.0979 302.5903 -9335.2798 -7559.4757 300.5055 638.4319 706.8057 30094.6311 -16.3546 53.0886
ENERGY: 1500000 4.4091 5.3432 3.4167 0.0000 -10844.5998 1543.6125 0.0000 0.0000 1771.3477 -7516.4706 299.5741 -9287.8183 -7561.3728 300.3781 396.2497 475.5228 30592.8442 -22.9849 46.6999
TCL: Running FEP window   3: Lambda1 0.1    Lambda2 0.15000000000000002 [dLambda 0.05000000000000002]
TCL: Setting parameter firsttimestep to 0
TCL: Setting parameter alchLambda to 0.1
Info: NONBONDED TABLE R-SQUARED SPACING: 0.0625
Info: NONBONDED TABLE SIZE: 705 POINTS
TCL: Setting parameter alchLambda2 to 0.15000000000000002
Info: NONBONDED TABLE R-SQUARED SPACING: 0.0625
Info: NONBONDED TABLE SIZE: 705 POINTS
TCL: Running for 1500000 steps
ETITLE: TS BOND ANGLE DIHED IMPRP ELECT VDW BOUNDARY MISC KINETIC TOTAL TEMP POTENTIAL TOTALAVG TEMPAVG PRESSURE GPRESSURE VOLUME PRESSAVG GPRESSAVG
ENERGY: 0 4.4091 5.3432 3.4167 0.0000 -10844.5991 1549.0024 0.0000 0.0000 1770.4882 -7511.9395 299.4287 -9282.4277 -7511.9395 299.4287 418.1993 487.2287 30592.8442 418.1993 487.2287
ENERGY: 300000 1.2255 5.9113 0.9785 0.0000 -10803.7631 1463.7473 0.0000 0.0000 1813.5662 -7518.3342 306.7142 -9331.9004 -7560.7698 301.3901 -140.6159 -76.8414 30640.6946 -51.7200 6.3022
ENERGY: 600000 0.6580 5.8749 2.5007 0.0000 -10769.5710 1386.6863 0.0000 0.0000 1851.2952 -7522.5559 313.0950 -9373.8511 -7533.8973 303.0248 -546.4402 -527.4703 30666.7759 -286.6937 -251.2361
ENERGY: 900000 2.9073 3.2878 1.3218 0.0000 -10754.0126 1464.9939 0.0000 0.0000 1743.6933 -7537.8086 294.8971 -9281.5019 -7534.3359 302.2474 403.1465 423.6854 30247.1536 -183.5875 -142.2907
ENERGY: 1200000 2.1531 3.0904 1.7729 0.0000 -10720.6411 1356.1962 0.0000 0.0000 1705.6108 -7651.8179 288.4565 -9357.4286 -7551.4196 300.2739 -808.9018 -751.7874 30361.3300 -298.6927 -247.0398
ENERGY: 1500000 2.3437 4.7194 1.5566 0.0000 -10862.2649 1447.5718 0.0000 0.0000 1726.9765 -7679.0969 292.0699 -9406.0733 -7557.6592 300.0164 -328.6232 -317.2402 30453.7179 -373.2592 -323.0238
TCL: Running FEP window   4: Lambda1 0.15000000000000002 Lambda2 0.2    [dLambda 0.04999999999999999]
TCL: Setting parameter firsttimestep to 0
TCL: Setting parameter alchLambda to 0.15000000000000002
Info: NONBONDED TABLE R-SQUARED SPACING: 0.0625
Info: NONBONDED TABLE SIZE: 705 POINTS
TCL: Setting parameter alchLambda2 to 0.2
Info: NONBONDED TABLE R-SQUARED SPACING: 0.0625
Info: NONBONDED TABLE SIZE: 705 POINTS
TCL: Running for 1500000 steps
ETITLE: TS BOND ANGLE DIHED IMPRP ELECT VDW BOUNDARY MISC KINETIC TOTAL TEMP POTENTIAL TOTALAVG TEMPAVG PRESSURE GPRESSURE VOLUME PRESSAVG GPRESSAVG
ENERGY: 0 2.3437 4.7194 1.5566 0.0000 -10862.2636 1447.4054 0.0000 0.0000 1726.1279 -7680.1105 291.9264 -9406.2383 -7680.1105 291.9264 -407.5806 -316.0290 30453.7179 -407.5806 -316.0290
ENERGY: 300000 1.7340 3.5724 2.6205 0.0000 -10717.6652 1405.3423 0.0000 0.0000 1832.8504 -7471.5457 309.9756 -9304.3961 -7561.5732 299.4128 -279.4726 -218.8158 30519.6042 -154.0805 -85.4208
ENERGY: 600000 4.0679 3.6224 2.0910 0.0000 -10628.1432 1352.9700 0.0000 0.0000 1817.5791 -7447.8126 307.3928 -9265.3918 -7551.4699 301.9424 -759.2733 -717.7863 30831.5734 -342.2835 -268.7662
ENERGY: 900000 1.6871 4.4368 1.3415 0.0000 -10788.9558 1502.7249 0.0000 0.0000 1744.8920 -7533.8734 295.0999 -9278.7655 -7545.1437 301.4352 548.3411 609.9906 30358.0858 -371.3434 -288.5283
ENERGY: 1200000 1.2242 2.7827 2.3856 0.0000 -10737.3948 1405.2137 0.0000 0.0000 1779.8377 -7545.9509 301.0099 -9325.7886 -7539.3555 301.9345 -461.0050 -433.5256 31021.0328 -298.5504 -226.3283
ENERGY: 1500000 4.2165 3.7602 2.5828 0.0000 -10713.5242 1371.9744 0.0000 0.0000 1760.3054 -7570.6850 297.7066 -9330.9903 -7542.5730 300.8378 -709.5580 -631.7796 30654.8422 -298.7996 -229.6419
TCL: Running FEP window   5: Lambda1 0.2    Lambda2 0.25   [dLambda 0.04999999999999999]
TCL: Setting parameter firsttimestep to 0
TCL: Setting parameter alchLambda to 0.2
Info: NONBONDED TABLE R-SQUARED SPACING: 0.0625
Info: NONBONDED TABLE SIZE: 705 POINTS
TCL: Setting parameter alchLambda2 to 0.25
Info: NONBONDED TABLE R-SQUARED SPACING: 0.0625
Info: NONBONDED TABLE SIZE: 705 POINTS
TCL: Running for 1500000 steps
ETITLE: TS BOND ANGLE DIHED IMPRP ELECT VDW BOUNDARY MISC KINETIC TOTAL TEMP POTENTIAL TOTALAVG TEMPAVG PRESSURE GPRESSURE VOLUME PRESSAVG GPRESSAVG
ENERGY: 0 4.2165 3.7602 2.5828 0.0000 -10713.5238 1371.7716 0.0000 0.0000 1759.4342 -7571.7585 297.5593 -9331.1927 -7571.7585 297.5593 -724.9046 -626.5924 30654.8422 -724.9046 -626.5924
ENERGY: 300000 2.5421 7.4080 1.7728 0.0000 -10753.2498 1456.6895 0.0000 0.0000 1777.2967 -7507.5407 300.5802 -9284.8374 -7555.3393 303.9773 -79.6424 -5.6908 30959.5983 -4.6272 42.1168
ENERGY: 600000 2.0854 3.1585 2.0466 0.0000 -10912.3909 1484.7864 0.0000 0.0000 1749.7555 -7670.5586 295.9224 -9420.3140 -7558.0108 303.0314 148.1542 280.7265 30144.6677 8.4457 72.8597
ENERGY: 900000 2.9033 2.0656 1.9731 0.0000 -10919.0576 1472.0678 0.0000 0.0000 1784.1749 -7655.8729 301.7434 -9440.0478 -7571.7018 303.2219 39.1558 102.5693 30128.5924 -59.0738 4.1917
ENERGY: 1200000 0.8988 3.7769 1.9072 0.0000 -10894.8901 1508.3231 0.0000 0.0000 1777.3296 -7602.6544 300.5858 -9379.9841 -7578.5724 302.0404 410.7942 468.7551 30478.2197 -38.4599 23.1536
ENERGY: 1500000 1.9876 3.0415 3.1893 0.0000 -10773.5830 1487.4196 0.0000 0.0000 1773.7431 -7504.2020 299.9792 -9277.9450 -7566.7917 301.7208 183.3074 327.5056 30671.1794 -60.4682 6.6750
TCL: Running FEP window   6: Lambda1 0.25   Lambda2 0.3    [dLambda 0.04999999999999999]
TCL: Setting parameter firsttimestep to 0
TCL: Setting parameter alchLambda to 0.25
Info: NONBONDED TABLE R-SQUARED SPACING: 0.0625
Info: NONBONDED TABLE SIZE: 705 POINTS
TCL: Setting parameter alchLambda2 to 0.3
Info: NONBONDED TABLE R-SQUARED SPACING: 0.0625
Info: NONBONDED TABLE SIZE: 705 POINTS
TCL: Running for 1500000 steps
ETITLE: TS BOND ANGLE DIHED IMPRP ELECT VDW BOUNDARY MISC KINETIC TOTAL TEMP POTENTIAL TOTALAVG TEMPAVG PRESSURE GPRESSURE VOLUME PRESSAVG GPRESSAVG
ENERGY: 0 1.9876 3.0415 3.1893 0.0000 -10773.5827 1487.5080 0.0000 0.0000 1772.8644 -7504.9918 299.8306 -9277.8563 -7504.9918 299.8306 242.4166 331.3420 30671.1794 242.4166 331.3420
ENERGY: 300000 3.5195 2.4062 5.1091 0.0000 -10828.6939 1486.4819 0.0000 0.0000 1775.2543 -7555.9228 300.2348 -9331.1771 -7588.4098 297.0325 7.8423 114.3215 30906.3284 -165.3977 -108.1850
ENERGY: 600000 1.2851 8.6320 2.7185 0.0000 -10861.6256 1496.4177 0.0000 0.0000 1790.6035 -7561.9687 302.8307 -9352.5722 -7563.3482 300.0565 466.4508 512.7725 30244.1422 -40.8004 32.6304
ENERGY: 900000 2.9914 4.3273 2.5078 0.0000 -10627.0415 1361.5681 0.0000 0.0000 1852.5337 -7403.1134 313.3044 -9255.6471 -7552.2012 299.8011 -653.7360 -654.8848 30583.7053 -79.7124 -6.7199
ENERGY: 1200000 1.4823 6.5938 1.0666 0.0000 -10888.3768 1505.2138 0.0000 0.0000 1778.8217 -7595.1988 300.8381 -9374.0204 -7555.7869 300.6906 315.5315 394.2692 30484.2444 18.9763 94.0789
ENERGY: 1500000 1.8239 2.6337 0.7098 0.0000 -10824.4502 1445.6591 0.0000 0.0000 1732.1181 -7641.5056 292.9395 -9373.6237 -7565.9469 299.6870 -221.7471 -168.8757 30357.5722 2.4974 75.6049
TCL: Running FEP window   7: Lambda1 0.3    Lambda2 0.35   [dLambda 0.04999999999999999]
TCL: Setting parameter firsttimestep to 0
TCL: Setting parameter alchLambda to 0.3
Info: NONBONDED TABLE R-SQUARED SPACING: 0.0625
Info: NONBONDED TABLE SIZE: 705 POINTS
TCL: Setting parameter alchLambda2 to 0.35
Info: NONBONDED TABLE R-SQUARED SPACING: 0.0625
Info: NONBONDED TABLE SIZE: 705 POINTS
TCL: Running for 1500000 steps
ETITLE: TS BOND ANGLE DIHED IMPRP ELECT VDW BOUNDARY MISC KINETIC TOTAL TEMP POTENTIAL TOTALAVG TEMPAVG PRESSURE GPRESSURE VOLUME PRESSAVG GPRESSAVG
ENERGY: 0 1.8239 2.6337 0.7098 0.0000 -10824.4521 1445.9059 0.0000 0.0000 1731.2221 -7642.1566 292.7880 -9373.3787 -7642.1566 292.7880 -251.2429 -161.3869 30357.5722 -251.2429 -161.3869
ENERGY: 300000 2.6617 9.1173 5.1211 0.0000 -10886.1975 1540.9515 0.0000 0.0000 1819.8896 -7508.4563 307.7836 -9328.3459 -7562.8166 302.7999 544.0509 606.8593 30659.2845 -46.2609 35.5766
ENERGY: 600000 4.5173 3.3607 1.4795 0.0000 -10663.3388 1399.5703 0.0000 0.0000 1800.4350 -7453.9761 304.4934 -9254.4111 -7531.0747 303.5141 -527.0413 -456.7232 30547.1304 -130.4411 -54.7839
ENERGY: 900000 3.5988 3.0874 3.2781 0.0000 -10751.0818 1380.5141 0.0000 0.0000 1762.3125 -7598.2907 298.0460 -9360.6033 -7553.2652 301.5090 -823.1816 -800.1125 30683.9568 -159.9602 -98.9418
ENERGY: 1200000 2.9796 2.3973 1.4785 0.0000 -10744.3570 1429.6708 0.0000 0.0000 1765.4254 -7542.4053 298.5725 -9307.8307 -7557.1939 299.5576 -211.0228 -181.5656 30717.9017 -137.9975 -88.9047
ENERGY: 1500000 2.5898 4.8833 2.8443 0.0000 -10714.7021 1373.5668 0.0000 0.0000 1751.9546 -7578.8633 296.2943 -9330.8179 -7556.6719 299.5988 -692.2578 -600.8061 30610.1282 -233.3003 -182.3114
TCL: Running FEP window   8: Lambda1 0.35   Lambda2 0.39999999999999997 [dLambda 0.04999999999999999]
TCL: Setting parameter firsttimestep to 0
TCL: Setting parameter alchLambda to 0.35
Info: NONBONDED TABLE R-SQUARED SPACING: 0.0625
Info: NONBONDED TABLE SIZE: 705 POINTS
TCL: Setting parameter alchLambda2 to 0.39999999999999997
Info: NONBONDED TABLE R-SQUARED SPACING: 0.0625
Info: NONBONDED TABLE SIZE: 705 POINTS
TCL: Running for 1500000 steps
ETITLE: TS BOND ANGLE DIHED IMPRP ELECT VDW BOUNDARY MISC KINETIC TOTAL TEMP POTENTIAL TOTALAVG TEMPAVG PRESSURE GPRESSURE VOLUME PRESSAVG GPRESSAVG
ENERGY: 0 2.5898 4.8833 2.8443 0.0000 -10714.7026 1373.4452 0.0000 0.0000 1751.0353 -7579.9047 296.1388 -9330.9400 -7579.9047 296.1388 -675.4933 -593.8921 30610.1282 -675.4933 -593.8921
ENERGY: 300000 3.1425 6.3214 1.0110 0.0000 -10751.8186 1468.3376 0.0000 0.0000 1854.6748 -7418.3314 313.6665 -9273.0061 -7538.6888 301.7151 228.6087 253.5256 30825.6888 -121.4682 -51.6104
ENERGY: 600000 4.4352 6.7518 1.0478 0.0000 -10755.5098 1447.4256 0.0000 0.0000 1773.4149 -7522.4345 299.9237 -9295.8494 -7547.0485 300.4031 -223.8874 -189.0994 31109.5951 27.8360 103.3901
ENERGY: 900000 1.3975 2.8448 1.1155 0.0000 -10753.8791 1436.2093 0.0000 0.0000 1743.6245 -7568.6874 294.8855 -9312.3119 -7550.3743 299.8921 -432.1749 -341.1843 30889.2062 -125.7165 -47.9716
ENERGY: 1200000 1.4055 5.2764 3.7091 0.0000 -10731.3849 1427.5972 0.0000 0.0000 1802.5090 -7490.8877 304.8441 -9293.3967 -7548.1460 299.7837 -406.8076 -287.1326 31025.2850 -66.3888 13.1108
ENERGY: 1500000 1.5425 6.3055 1.6904 0.0000 -10894.0450 1442.4392 0.0000 0.0000 1749.6073 -7692.4600 295.8973 -9442.0673 -7557.0706 299.6851 -216.3678 -136.1465 30258.7372 -124.9049 -46.6929
TCL: Running FEP window   9: Lambda1 0.39999999999999997 Lambda2 0.44999999999999996 [dLambda 0.04999999999999999]
TCL: Setting parameter firsttimestep to 0
TCL: Setting parameter alchLambda to 0.39999999999999997
Info: NONBONDED TABLE R-SQUARED SPACING: 0.0625
Info: NONBONDED TABLE SIZE: 705 POINTS
TCL: Setting parameter alchLambda2 to 0.44999999999999996
Info: NONBONDED TABLE R-SQUARED SPACING: 0.0625
Info: NONBONDED TABLE SIZE: 705 POINTS
TCL: Running for 1500000 steps
ETITLE: TS BOND ANGLE DIHED IMPRP ELECT VDW BOUNDARY MISC KINETIC TOTAL TEMP POTENTIAL TOTALAVG TEMPAVG PRESSURE GPRESSURE VOLUME PRESSAVG GPRESSAVG
ENERGY: 0 1.5425 6.3055 1.6904 0.0000 -10894.0446 1442.4649 0.0000 0.0000 1748.7024 -7693.3389 295.7443 -9442.0412 -7693.3389 295.7443 -215.0897 -133.1383 30258.7372 -215.0897 -133.1383
ENERGY: 300000 2.8226 6.2287 4.4598 0.0000 -10713.2908 1433.2746 0.0000 0.0000 1795.8310 -7470.6741 303.7148 -9266.5051 -7548.3064 299.6148 -96.4897 -85.5179 30813.3415 -154.0486 -104.1390
ENERGY: 600000 2.9274 3.7999 1.6279 0.0000 -10764.2602 1420.3485 0.0000 0.0000 1769.4862 -7566.0703 299.2593 -9335.5565 -7543.1301 300.5189 -188.8140 -203.3727 30262.9789 -104.5343 -51.8550
ENERGY: 900000 1.0247 4.6302 0.4703 0.0000 -10820.3370 1525.0494 0.0000 0.0000 1830.6206 -7458.5418 309.5984 -9289.1624 -7533.3398 302.4838 375.9547 479.4001 31219.6636 -60.4109 7.5920
ENERGY: 1200000 1.3593 1.8448 3.0250 0.0000 -10935.6263 1559.7730 0.0000 0.0000 1797.5240 -7572.1001 304.0011 -9369.6241 -7544.5833 300.9390 869.1014 926.7346 30258.4005 39.4105 106.4473
ENERGY: 1500000 3.1446 3.5443 2.7519 0.0000 -10712.3642 1443.1626 0.0000 0.0000 1794.8857 -7464.8752 303.5549 -9259.7609 -7540.4905 300.1382 0.9558 94.7573 30578.8196 41.0178 110.6599
TCL: Running FEP window  10: Lambda1 0.44999999999999996 Lambda2 0.49999999999999994 [dLambda 0.04999999999999999]
TCL: Setting parameter firsttimestep to 0
TCL: Setting parameter alchLambda to 0.44999999999999996
Info: NONBONDED TABLE R-SQUARED SPACING: 0.0625
Info: NONBONDED TABLE SIZE: 705 POINTS
TCL: Setting parameter alchLambda2 to 0.49999999999999994
Info: NONBONDED TABLE R-SQUARED SPACING: 0.0625
Info: NONBONDED TABLE SIZE: 705 POINTS
TCL: Running for 1500000 steps
ETITLE: TS BOND ANGLE DIHED IMPRP ELECT VDW BOUNDARY MISC KINETIC TOTAL TEMP POTENTIAL TOTALAVG TEMPAVG PRESSURE GPRESSURE VOLUME PRESSAVG GPRESSAVG
ENERGY: 0 3.1446 3.5443 2.7519 0.0000 -10712.3643 1443.8601 0.0000 0.0000 1794.0197 -7465.0438 303.4084 -9259.0635 -7465.0438 303.4084 21.7634 106.4299 30578.8196 21.7634 106.4299
ENERGY: 300000 2.9599 4.5685 1.7510 0.0000 -10879.0232 1515.1616 0.0000 0.0000 1748.2993 -7606.2829 295.6761 -9354.5822 -7565.7508 301.9811 253.2989 346.0049 30582.7114 38.2229 126.4481
ENERGY: 600000 0.7847 6.4363 2.6412 0.0000 -10701.4769 1419.7827 0.0000 0.0000 1826.5982 -7445.2338 308.9182 -9271.8320 -7540.0458 303.6178 86.9290 72.9715 30795.5734 117.6584 184.8626
ENERGY: 900000 2.7481 4.1873 2.0585 0.0000 -10745.3036 1390.7337 0.0000 0.0000 1748.4180 -7597.1579 295.6962 -9345.5759 -7555.1724 301.8273 -503.7613 -395.1968 30280.9728 7.2438 75.2890
ENERGY: 1200000 0.5270 1.5639 3.2466 0.0000 -10947.9244 1552.3111 0.0000 0.0000 1709.4260 -7680.8499 289.1018 -9390.2758 -7579.9729 299.9542 671.8640 682.5278 30254.1569 29.4073 94.9905
ENERGY: 1500000 1.5731 4.3656 2.6399 0.0000 -10953.8819 1452.6213 0.0000 0.0000 1756.8042 -7735.8777 297.1145 -9492.6820 -7576.2324 300.2934 -288.9982 -239.0841 30326.2534 18.7576 80.8036
TCL: Running FEP window  11: Lambda1 0.49999999999999994 Lambda2 0.5499999999999999 [dLambda 0.04999999999999999]
TCL: Setting parameter firsttimestep to 0
TCL: Setting parameter alchLambda to 0.49999999999999994
Info: NONBONDED TABLE R-SQUARED SPACING: 0.0625
Info: NONBONDED TABLE SIZE: 705 POINTS
TCL: Setting parameter alchLambda2 to 0.5499999999999999
Info: NONBONDED TABLE R-SQUARED SPACING: 0.0625
Info: NONBONDED TABLE SIZE: 705 POINTS
TCL: Running for 1500000 steps
ETITLE: TS BOND ANGLE DIHED IMPRP ELECT VDW BOUNDARY MISC KINETIC TOTAL TEMP POTENTIAL TOTALAVG TEMPAVG PRESSURE GPRESSURE VOLUME PRESSAVG GPRESSAVG
ENERGY: 0 1.5731 4.3656 2.6399 0.0000 -10953.8828 1452.6295 0.0000 0.0000 1755.9396 -7736.7351 296.9682 -9492.6747 -7736.7351 296.9682 -306.3215 -233.0389 30326.2534 -306.3215 -233.0389
ENERGY: 300000 1.6470 3.9016 1.7977 0.0000 -10820.7622 1533.7724 0.0000 0.0000 1762.0420 -7517.6015 298.0003 -9279.6434 -7617.6428 298.1911 758.7030 854.6359 30543.7085 29.9929 89.3770
ENERGY: 600000 4.7572 3.1148 1.2670 0.0000 -10656.9752 1360.0050 0.0000 0.0000 1788.7589 -7499.0722 302.5187 -9287.8311 -7572.7669 299.0618 -907.8275 -805.7168 30899.3945 106.5097 175.7811
ENERGY: 900000 4.5728 6.1645 2.2451 0.0000 -10896.5347 1529.4524 0.0000 0.0000 1735.5405 -7618.5594 293.5183 -9354.0999 -7571.0543 299.9550 278.8228 347.9838 30405.4648 129.3421 198.7170
ENERGY: 1200000 2.5329 3.3448 2.7607 0.0000 -10803.8519 1452.7176 0.0000 0.0000 1752.2416 -7590.2543 296.3428 -9342.4959 -7573.6838 299.6362 220.9391 265.7101 30068.9953 173.9802 245.4305
ENERGY: 1500000 2.0990 2.8851 2.9252 0.0000 -10821.8266 1448.1094 0.0000 0.0000 1788.4078 -7577.4002 302.4593 -9365.8080 -7573.8799 300.0171 -272.4290 -276.7502 31088.7876 115.0624 177.0756
TCL: Running FEP window  12: Lambda1 0.5499999999999999 Lambda2 0.6    [dLambda 0.050000000000000044]
TCL: Setting parameter firsttimestep to 0
TCL: Setting parameter alchLambda to 0.5499999999999999
Info: NONBONDED TABLE R-SQUARED SPACING: 0.0625
Info: NONBONDED TABLE SIZE: 705 POINTS
TCL: Setting parameter alchLambda2 to 0.6
Info: NONBONDED TABLE R-SQUARED SPACING: 0.0625
Info: NONBONDED TABLE SIZE: 705 POINTS
TCL: Running for 1500000 steps
ETITLE: TS BOND ANGLE DIHED IMPRP ELECT VDW BOUNDARY MISC KINETIC TOTAL TEMP POTENTIAL TOTALAVG TEMPAVG PRESSURE GPRESSURE VOLUME PRESSAVG GPRESSAVG
ENERGY: 0 2.0990 2.8851 2.9252 0.0000 -10821.6574 1447.7186 0.0000 0.0000 1787.5505 -7578.4790 302.3143 -9366.0295 -7578.4790 302.3143 -372.0589 -271.4671 31088.7876 -372.0589 -271.4671
ENERGY: 300000 2.4349 3.5971 3.6979 0.0000 -10699.8158 1387.6398 0.0000 0.0000 1815.1914 -7487.2548 306.9890 -9302.4461 -7569.6905 301.1504 -239.8872 -270.7751 30610.8983 -208.8163 -163.3869
ENERGY: 600000 2.4753 5.0680 1.0486 0.0000 -10985.7170 1568.2315 0.0000 0.0000 1728.7379 -7680.1556 292.3678 -9408.8936 -7589.6919 298.5305 658.8777 794.5709 30346.9394 -89.2012 -18.2953
ENERGY: 900000 2.2857 4.3464 4.1218 0.0000 -10643.6495 1319.2804 0.0000 0.0000 1796.2188 -7517.3964 303.7803 -9313.6152 -7579.4637 299.9744 -1054.3928 -957.4748 30741.9424 -84.5284 -15.7110
ENERGY: 1200000 2.4507 5.6620 2.1282 0.0000 -10782.7354 1461.8757 0.0000 0.0000 1735.6016 -7575.0172 293.5286 -9310.6188 -7578.1347 298.9720 248.7758 291.2944 30802.0314 -121.5480 -56.4857
ENERGY: 1500000 2.3449 1.1069 0.5692 0.0000 -10856.1773 1467.5155 0.0000 0.0000 1756.4316 -7628.2091 297.0515 -9384.6408 -7577.2968 298.9629 -100.7917 15.1572 30597.7566 -166.8884 -98.5959
TCL: Running FEP window  13: Lambda1 0.6    Lambda2 0.65   [dLambda 0.050000000000000044]
TCL: Setting parameter firsttimestep to 0
TCL: Setting parameter alchLambda to 0.6
Info: NONBONDED TABLE R-SQUARED SPACING: 0.0625
Info: NONBONDED TABLE SIZE: 705 POINTS
TCL: Setting parameter alchLambda2 to 0.65
Info: NONBONDED TABLE R-SQUARED SPACING: 0.0625
Info: NONBONDED TABLE SIZE: 705 POINTS
TCL: Running for 1500000 steps
ETITLE: TS BOND ANGLE DIHED IMPRP ELECT VDW BOUNDARY MISC KINETIC TOTAL TEMP POTENTIAL TOTALAVG TEMPAVG PRESSURE GPRESSURE VOLUME PRESSAVG GPRESSAVG
ENERGY: 0 2.3449 1.1069 0.5692 0.0000 -10856.5714 1468.5335 0.0000 0.0000 1755.5179 -7628.4990 296.8969 -9384.0169 -7628.4990 296.8969 -52.1600 32.5238 30597.7566 -52.1600 32.5238
ENERGY: 300000 2.1450 2.7506 1.1365 0.0000 -10722.1553 1386.3396 0.0000 0.0000 1760.6114 -7569.1722 297.7584 -9329.7836 -7607.2126 297.9834 -549.1255 -445.0577 30594.5910 -290.6861 -206.2941
ENERGY: 600000 0.6322 3.9572 1.3307 0.0000 -10775.2965 1447.7368 0.0000 0.0000 1747.3501 -7574.2896 295.5156 -9321.6397 -7600.3321 298.7722 -190.0371 -93.5952 30962.7312 -229.9997 -151.2360
ENERGY: 900000 1.2454 3.6651 1.1727 0.0000 -10887.1408 1426.3920 0.0000 0.0000 1752.8099 -7701.8558 296.4389 -9454.6657 -7597.6488 299.4000 -402.8201 -396.0662 30517.4426 -265.9057 -199.8347
ENERGY: 1200000 1.2609 6.4489 3.3409 0.0000 -10767.2878 1411.1141 0.0000 0.0000 1838.4939 -7506.6290 310.9300 -9345.1229 -7593.6216 299.8506 -144.9479 -66.7431 30407.7477 -311.4882 -239.0010
ENERGY: 1500000 4.0180 4.9591 1.3526 0.0000 -10824.8478 1397.1967 0.0000 0.0000 1775.0332 -7642.2881 300.1974 -9417.3213 -7583.3372 300.5992 -663.6172 -595.7966 30350.3443 -270.3645 -203.6345
TCL: Running FEP window  14: Lambda1 0.65   Lambda2 0.7000000000000001 [dLambda 0.050000000000000044]
TCL: Setting parameter firsttimestep to 0
TCL: Setting parameter alchLambda to 0.65
Info: NONBONDED TABLE R-SQUARED SPACING: 0.0625
Info: NONBONDED TABLE SIZE: 705 POINTS
TCL: Setting parameter alchLambda2 to 0.7000000000000001
Info: NONBONDED TABLE R-SQUARED SPACING: 0.0625
Info: NONBONDED TABLE SIZE: 705 POINTS
TCL: Running for 1500000 steps
ETITLE: TS BOND ANGLE DIHED IMPRP ELECT VDW BOUNDARY MISC KINETIC TOTAL TEMP POTENTIAL TOTALAVG TEMPAVG PRESSURE GPRESSURE VOLUME PRESSAVG GPRESSAVG
ENERGY: 0 4.0180 4.9591 1.3526 0.0000 -10825.8098 1397.0398 0.0000 0.0000 1774.1492 -7644.2911 300.0479 -9418.4403 -7644.2911 300.0479 -687.4445 -593.8066 30350.3443 -687.4445 -593.8066
ENERGY: 300000 0.8653 5.2542 1.8910 0.0000 -10801.1710 1509.8469 0.0000 0.0000 1830.5076 -7452.8060 309.5793 -9283.3136 -7547.8820 300.8986 772.7765 853.5539 30357.2095 210.9040 266.9420
ENERGY: 600000 3.6119 2.2724 4.8153 0.0000 -10722.3866 1420.8337 0.0000 0.0000 1775.0745 -7515.7788 300.2044 -9290.8533 -7538.6485 301.7416 -445.2637 -362.3947 31165.8957 -51.7607 1.2441
ENERGY: 900000 1.5445 4.2040 1.2292 0.0000 -11009.4324 1539.8503 0.0000 0.0000 1813.5045 -7649.1000 306.7037 -9462.6045 -7536.9321 302.5205 643.2948 611.7722 29876.9510 54.6519 99.9774
ENERGY: 1200000 3.0340 3.7350 3.7397 0.0000 -10713.7975 1412.5176 0.0000 0.0000 1773.0531 -7517.7180 299.8625 -9290.7712 -7536.9512 302.7302 -23.1386 -23.2069 30784.7574 35.7834 80.5536
ENERGY: 1500000 1.6871 2.3288 1.4480 0.0000 -10840.8490 1431.2967 0.0000 0.0000 1757.6508 -7646.4376 297.2576 -9404.0884 -7548.8675 301.9802 -284.1047 -181.3627 30412.1999 27.7209 77.9140
TCL: Running FEP window  15: Lambda1 0.7000000000000001 Lambda2 0.7500000000000001 [dLambda 0.050000000000000044]
TCL: Setting parameter firsttimestep to 0
TCL: Setting parameter alchLambda to 0.7000000000000001
Info: NONBONDED TABLE R-SQUARED SPACING: 0.0625
Info: NONBONDED TABLE SIZE: 705 POINTS
TCL: Setting parameter alchLambda2 to 0.7500000000000001
Info: NONBONDED TABLE R-SQUARED SPACING: 0.0625
Info: NONBONDED TABLE SIZE: 705 POINTS
TCL: Running for 1500000 steps
ETITLE: TS BOND ANGLE DIHED IMPRP ELECT VDW BOUNDARY MISC KINETIC TOTAL TEMP POTENTIAL TOTALAVG TEMPAVG PRESSURE GPRESSURE VOLUME PRESSAVG GPRESSAVG
ENERGY: 0 1.6871 2.3288 1.4480 0.0000 -10841.4142 1431.2963 0.0000 0.0000 1756.7840 -7647.8700 297.1110 -9404.6539 -7647.8700 297.1110 -257.7177 -172.0652 30412.1999 -257.7177 -172.0652
ENERGY: 300000 4.0414 3.4951 1.5200 0.0000 -10865.2859 1471.9031 0.0000 0.0000 1771.8648 -7612.4615 299.6616 -9384.3264 -7597.7822 299.1385 -90.9511 -25.2708 30512.7457 -117.7527 -33.0904
ENERGY: 600000 1.5009 2.1554 1.1826 0.0000 -10812.0023 1438.4511 0.0000 0.0000 1824.1492 -7544.5632 308.5040 -9368.7124 -7583.8732 299.8647 -15.9110 2.0872 30383.5548 -148.1537 -75.4028
ENERGY: 900000 4.7532 3.3168 2.1319 0.0000 -10873.1766 1495.5212 0.0000 0.0000 1863.8204 -7503.6330 315.2133 -9367.4534 -7566.6407 301.3012 238.7690 257.5321 30664.7261 -83.4303 -29.6213
ENERGY: 1200000 1.1499 3.8571 1.2695 0.0000 -10786.2222 1457.5270 0.0000 0.0000 1758.4201 -7563.9986 297.3878 -9322.4187 -7568.8363 300.6066 -63.8173 62.3259 30678.3433 -56.8375 0.9280
ENERGY: 1500000 2.4007 3.5454 3.6770 0.0000 -10787.9371 1439.9103 0.0000 0.0000 1799.3487 -7539.0550 304.3097 -9338.4037 -7562.6037 300.8157 -170.7637 -136.1427 30626.3993 -60.9222 -4.5399
TCL: Running FEP window  16: Lambda1 0.7500000000000001 Lambda2 0.8000000000000002 [dLambda 0.050000000000000044]
TCL: Setting parameter firsttimestep to 0
TCL: Setting parameter alchLambda to 0.7500000000000001
Info: NONBONDED TABLE R-SQUARED SPACING: 0.0625
Info: NONBONDED TABLE SIZE: 705 POINTS
TCL: Setting parameter alchLambda2 to 0.8000000000000002
Info: NONBONDED TABLE R-SQUARED SPACING: 0.0625
Info: NONBONDED TABLE SIZE: 705 POINTS
TCL: Running for 1500000 steps
ETITLE: TS BOND ANGLE DIHED IMPRP ELECT VDW BOUNDARY MISC KINETIC TOTAL TEMP POTENTIAL TOTALAVG TEMPAVG PRESSURE GPRESSURE VOLUME PRESSAVG GPRESSAVG
ENERGY: 0 2.4007 3.5454 3.6770 0.0000 -10788.3479 1439.6688 0.0000 0.0000 1798.4389 -7540.6170 304.1558 -9339.0559 -7540.6170 304.1558 -221.2057 -128.6982 30626.3993 -221.2057 -128.6982
ENERGY: 300000 0.6136 4.0300 2.3635 0.0000 -10723.9699 1385.6204 0.0000 0.0000 1727.1969 -7604.1455 292.1072 -9331.3423 -7571.8595 300.1544 -381.8000 -273.7699 30442.7068 -85.9974 1.1097
ENERGY: 600000 1.5839 3.8365 2.3859 0.0000 -10642.3763 1389.9931 0.0000 0.0000 1756.0737 -7488.5033 296.9909 -9244.5769 -7578.0178 298.4914 -329.7009 -318.6356 31018.5133 -101.3319 -39.1656
ENERGY: 900000 1.1409 4.6379 2.7433 0.0000 -10881.0451 1491.1632 0.0000 0.0000 1793.8573 -7587.5026 303.3810 -9381.3599 -7581.0478 299.1918 272.1845 382.3206 30340.0841 112.5880 181.9688
ENERGY: 1200000 1.7444 3.9282 2.0855 0.0000 -10857.1564 1507.6472 0.0000 0.0000 1821.9115 -7519.8396 308.1255 -9341.7510 -7565.8366 300.6396 326.5593 390.5349 30929.0639 146.6690 214.5392
ENERGY: 1500000 1.7460 5.1483 0.6265 0.0000 -10801.9021 1467.0666 0.0000 0.0000 1756.0985 -7571.2161 296.9951 -9327.3146 -7565.7881 300.3877 -115.0665 -10.8433 31118.0392 102.4263 174.9520
TCL: Running FEP window  17: Lambda1 0.8000000000000002 Lambda2 0.8500000000000002 [dLambda 0.050000000000000044]
TCL: Setting parameter firsttimestep to 0
TCL: Setting parameter alchLambda to 0.8000000000000002
Info: NONBONDED TABLE R-SQUARED SPACING: 0.0625
Info: NONBONDED TABLE SIZE: 705 POINTS
TCL: Setting parameter alchLambda2 to 0.8500000000000002
Info: NONBONDED TABLE R-SQUARED SPACING: 0.0625
Info: NONBONDED TABLE SIZE: 705 POINTS
TCL: Running for 1500000 steps
ETITLE: TS BOND ANGLE DIHED IMPRP ELECT VDW BOUNDARY MISC KINETIC TOTAL TEMP POTENTIAL TOTALAVG TEMPAVG PRESSURE GPRESSURE VOLUME PRESSAVG GPRESSAVG
ENERGY: 0 1.7460 5.1484 0.6265 0.0000 -10802.4915 1467.0672 0.0000 0.0000 1755.2148 -7572.6888 296.8457 -9327.9035 -7572.6888 296.8457 -88.7397 -3.6846 31118.0392 -88.7397 -3.6846
ENERGY: 300000 3.5929 3.5796 3.5430 0.0000 -10860.7544 1469.2788 0.0000 0.0000 1723.8564 -7656.9037 291.5423 -9380.7601 -7590.1009 296.2544 113.8114 195.6708 30331.2055 123.2726 172.2986
ENERGY: 600000 1.8356 2.9176 3.2050 0.0000 -10754.0352 1406.8937 0.0000 0.0000 1849.3111 -7489.8721 312.7594 -9339.1832 -7567.8035 299.8284 -472.6826 -359.2002 30990.0542 -100.2472 -42.2814
ENERGY: 900000 1.9457 2.7573 0.8572 0.0000 -10872.3250 1484.4573 0.0000 0.0000 1753.7067 -7628.6008 296.5906 -9382.3075 -7571.4401 299.3437 293.0829 361.0220 30282.8147 46.3535 95.0698
ENERGY: 1200000 1.7431 4.7215 5.7540 0.0000 -10837.9823 1434.9372 0.0000 0.0000 1776.4267 -7614.3998 300.4331 -9390.8265 -7570.9456 299.2209 -29.8900 13.0419 30006.7242 86.3354 133.8783
ENERGY: 1500000 1.2987 3.6262 2.0801 0.0000 -10709.1962 1414.6744 0.0000 0.0000 1810.1093 -7477.4074 306.1295 -9287.5168 -7568.9224 299.3448 -530.2709 -405.2994 31703.5640 84.4848 137.4292
TCL: Running FEP window  18: Lambda1 0.8500000000000002 Lambda2 0.9000000000000002 [dLambda 0.050000000000000044]
TCL: Setting parameter firsttimestep to 0
TCL: Setting parameter alchLambda to 0.8500000000000002
Info: NONBONDED TABLE R-SQUARED SPACING: 0.0625
Info: NONBONDED TABLE SIZE: 705 POINTS
TCL: Setting parameter alchLambda2 to 0.9000000000000002
Info: NONBONDED TABLE R-SQUARED SPACING: 0.0625
Info: NONBONDED TABLE SIZE: 705 POINTS
TCL: Running for 1500000 steps
ETITLE: TS BOND ANGLE DIHED IMPRP ELECT VDW BOUNDARY MISC KINETIC TOTAL TEMP POTENTIAL TOTALAVG TEMPAVG PRESSURE GPRESSURE VOLUME PRESSAVG GPRESSAVG
ENERGY: 0 1.2987 3.6262 2.0801 0.0000 -10709.2336 1414.4512 0.0000 0.0000 1809.2293 -7478.5482 305.9807 -9287.7774 -7478.5482 305.9807 -479.0866 -397.7945 31703.5640 -479.0866 -397.7945
ENERGY: 300000 3.1349 3.4750 1.6939 0.0000 -10929.9000 1525.0406 0.0000 0.0000 1776.8416 -7619.7140 300.5032 -9396.5557 -7542.2326 300.8662 490.1109 545.7922 30504.7776 90.5855 179.3643
ENERGY: 600000 3.1462 6.9954 3.3610 0.0000 -10670.3813 1310.2082 0.0000 0.0000 1778.5161 -7568.1543 300.7864 -9346.6704 -7520.6175 302.3386 -1129.9681 -1117.0701 30652.6195 -241.6354 -160.5703
ENERGY: 900000 1.8530 6.0940 0.6962 0.0000 -10998.0610 1574.2357 0.0000 0.0000 1751.7814 -7663.4007 296.2650 -9415.1821 -7543.9617 302.0576 1218.2580 1350.4421 29734.5712 48.9478 132.3058
ENERGY: 1200000 1.1675 4.8904 4.1058 0.0000 -10938.7017 1530.0676 0.0000 0.0000 1782.7134 -7615.7569 301.4963 -9398.4703 -7549.0680 302.3074 641.6093 759.6194 30089.3036 63.9115 138.4461
ENERGY: 1500000 3.5099 3.6172 5.0666 0.0000 -10810.9889 1419.5079 0.0000 0.0000 1768.9305 -7610.3569 299.1653 -9379.2874 -7551.3567 302.2968 -431.0616 -361.1708 30523.9684 12.7965 84.5093
TCL: Running FEP window  19: Lambda1 0.9000000000000002 Lambda2 0.9500000000000003 [dLambda 0.050000000000000044]
TCL: Setting parameter firsttimestep to 0
TCL: Setting parameter alchLambda to 0.9000000000000002
Info: NONBONDED TABLE R-SQUARED SPACING: 0.0625
Info: NONBONDED TABLE SIZE: 705 POINTS
TCL: Setting parameter alchLambda2 to 0.9500000000000003
Info: NONBONDED TABLE R-SQUARED SPACING: 0.0625
Info: NONBONDED TABLE SIZE: 705 POINTS
TCL: Running for 1500000 steps
ETITLE: TS BOND ANGLE DIHED IMPRP ELECT VDW BOUNDARY MISC KINETIC TOTAL TEMP POTENTIAL TOTALAVG TEMPAVG PRESSURE GPRESSURE VOLUME PRESSAVG GPRESSAVG
ENERGY: 0 3.5099 3.6172 5.0666 0.0000 -10811.5235 1419.1419 0.0000 0.0000 1768.0085 -7612.1795 299.0094 -9380.1880 -7612.1795 299.0094 -436.9402 -360.2983 30523.9684 -436.9402 -360.2983
ENERGY: 300000 2.3793 3.7966 3.3124 0.0000 -10781.9565 1467.6627 0.0000 0.0000 1782.6317 -7522.1738 301.4825 -9304.8055 -7535.3131 299.7553 105.9389 172.8851 30925.6666 -18.9905 34.5985
ENERGY: 600000 0.5713 4.4700 2.0657 0.0000 -10863.8821 1510.1815 0.0000 0.0000 1791.1961 -7555.3975 302.9309 -9346.5936 -7544.6535 299.8642 578.3365 627.4478 30456.2690 126.7364 181.2124
ENERGY: 900000 6.6126 4.0302 3.8658 0.0000 -10848.0944 1435.9936 0.0000 0.0000 1802.9856 -7594.6065 304.9248 -9397.5921 -7553.7400 300.6990 -584.0765 -462.0184 30760.9429 86.8980 139.3003
ENERGY: 1200000 1.8607 6.2898 1.6972 0.0000 -10817.0485 1441.6036 0.0000 0.0000 1841.4869 -7524.1104 311.4362 -9365.5973 -7561.5111 301.0662 -102.9493 -87.2359 30895.9266 33.3068 93.3771
ENERGY: 1500000 3.1745 2.2084 1.8052 0.0000 -10738.6638 1449.7872 0.0000 0.0000 1797.5456 -7484.1428 304.0047 -9281.6884 -7555.2480 301.3436 0.8197 80.6396 30812.5845 49.4991 110.3502
TCL: Running FEP window  20: Lambda1 0.9500000000000003 Lambda2 1.0    [dLambda 0.04999999999999971]
TCL: Setting parameter firsttimestep to 0
TCL: Setting parameter alchLambda to 0.9500000000000003
Info: NONBONDED TABLE R-SQUARED SPACING: 0.0625
Info: NONBONDED TABLE SIZE: 705 POINTS
TCL: Setting parameter alchLambda2 to 1.0
Info: NONBONDED TABLE R-SQUARED SPACING: 0.0625
Info: NONBONDED TABLE SIZE: 705 POINTS
TCL: Running for 1500000 steps
ETITLE: TS BOND ANGLE DIHED IMPRP ELECT VDW BOUNDARY MISC KINETIC TOTAL TEMP POTENTIAL TOTALAVG TEMPAVG PRESSURE GPRESSURE VOLUME PRESSAVG GPRESSAVG
ENERGY: 0 3.1745 2.2084 1.8052 0.0000 -10739.7721 1450.7045 0.0000 0.0000 1796.6814 -7485.1981 303.8586 -9281.8795 -7485.1981 303.8586 10.8633 99.3855 30812.5845 10.8633 99.3855
ENERGY: 300000 0.8686 5.9391 1.3672 0.0000 -10802.5081 1420.2875 0.0000 0.0000 1763.7948 -7610.2509 298.2967 -9374.0457 -7509.7263 304.0133 -250.9531 -146.4093 30524.0207 -154.1613 -56.5392
ENERGY: 600000 4.0327 8.4387 3.6104 0.0000 -10751.2393 1457.9774 0.0000 0.0000 1730.0015 -7547.1786 292.5815 -9277.1801 -7548.0146 299.8102 300.3299 370.2445 30433.8585 -125.3875 -31.9924
ENERGY: 900000 3.6602 5.1373 5.0969 0.0000 -10628.5539 1326.7429 0.0000 0.0000 1791.3199 -7496.5967 302.9518 -9287.9166 -7541.1382 299.2221 -1148.3866 -1122.4295 31352.2047 -140.8699 -59.5572
ENERGY: 1200000 1.9098 2.4575 7.3371 0.0000 -10821.6460 1463.7678 0.0000 0.0000 1810.4019 -7535.7719 306.1790 -9346.1739 -7541.8052 300.0742 144.5384 231.3338 30515.1897 -117.5903 -37.3347
ENERGY: 1500000 1.4200 6.1664 1.7722 0.0000 -10846.8854 1522.2375 0.0000 0.0000 1770.8676 -7544.4216 299.4929 -9315.2892 -7547.3315 299.9537 728.0939 810.7809 30657.6074 -49.5055 28.9638
TCL: Exiting due to exit command.
