Info: SIMULATION PARAMETERS:
Info: TIMESTEP               2
Info: NUMBER OF STEPS        0
Info: STEPS PER CYCLE        10
Info: PERIODIC CELL BASIS 1  32.8194 0 0
Info: PERIODIC CELL BASIS 2  0 33.4398 0
Info: PERIODIC CELL BASIS 3  0 0 27.7073
Info: PERIODIC CELL CENTER   0 0 0
Info: WRAPPING WATERS AROUND PERIODIC BOUNDARIES ON OUTPUT.
Info: WRAPPING ALL CLUSTERS AROUND PERIODIC BOUNDARIES ON OUTPUT.
Info: FIRST LDB TIMESTEP     50
Info: LAST LDB TIMESTEP     -1
Info: HOM BACKGROUND SCALING 1
Info: PME BACKGROUND SCALING 1
Info: MIN ATOMS PER PATCH    40
Info: EMPTY PATCH LOAD       40 ATOMS
Info: VELOCITY FILE          mobley_5371840_equil.vel
Info: CENTER OF MASS MOVING INITIALLY? NO
Info: DIELECTRIC             1
Info: EXCLUDE                SCALED ONE-FOUR
Info: 1-4 ELECTROSTATICS SCALED BY 0.833333
Info: MODIFIED 1-4 VDW PARAMETERS WILL BE USED
Info: DCD FILENAME           mobley_5371840_prod.dcd
Info: DCD FREQUENCY          100000
Info: DCD FIRST STEP         100000
Info: DCD FILE WILL CONTAIN UNIT CELL DATA
Info: XST FILENAME           mobley_5371840_prod.xst
Info: XST FREQUENCY          100000
Info: NO VELOCITY DCD OUTPUT
Info: NO FORCE DCD OUTPUT
Info: OUTPUT FILENAME        mobley_5371840_prod
Info: BINARY OUTPUT FILES WILL BE USED
Info: RESTART FILENAME       mobley_5371840_prod.restart
Info: RESTART FREQUENCY      100000
Info: BINARY RESTART FILES WILL BE USED
Info: CUTOFF                 9
Info: PAIRLIST DISTANCE      11
Info: PAIRLIST SHRINK RATE   0.01
Info: PAIRLIST GROW RATE     0.01
Info: PAIRLIST TRIGGER       0.3
Info: PAIRLISTS PER CYCLE    2
Info: PAIRLISTS ENABLED
Info: MARGIN                 2
Info: HYDROGEN GROUP CUTOFF  2.5
Info: PATCH DIMENSION        15.5
Info: ENERGY OUTPUT STEPS    100000
Info: ENERGY EVALUATION STEPS    100000
Info: OUTPUT ENERGY PRECISION 4
Info: CROSSTERM ENERGY INCLUDED IN DIHEDRAL
Info: TIMING OUTPUT STEPS    1000000
Info: PRESSURE OUTPUT STEPS  100000
Info: ALCHEMICAL FEP ON
Info: FEP CURRENT LAMBDA VALUE     0
Info: FEP COMPARISON LAMBDA VALUE  0.05
Info: FEP INTRA-ALCHEMICAL NON-BONDED INTERACTIONS WILL BE RETAINED
Info: FEP INTRA-ALCHEMICAL BONDED INTERACTIONS WILL BE RETAINED
Info: FEP VDW SHIFTING COEFFICIENT 5
Info: FEP ELEC. ACTIVE FOR ANNIHILATED PARTICLES BETWEEN LAMBDA = 0 AND LAMBDA = 0.5
Info: FEP ELEC. ACTIVE FOR EXNIHILATED PARTICLES BETWEEN LAMBDA = 0.5 AND LAMBDA = 1
Info: FEP VDW ACTIVE FOR ANNIHILATED PARTICLES BETWEEN LAMBDA = 0 AND LAMBDA = 1
Info: FEP VDW ACTIVE FOR EXNIHILATED PARTICLES BETWEEN LAMBDA = 0 AND LAMBDA = 1
Info: FEP BOND ACTIVE FOR ANNIHILATED PARTICLES BETWEEN LAMBDA = 1 AND LAMBDA = 1
Info: FEP BOND ACTIVE FOR EXNIHILATED PARTICLES BETWEEN LAMBDA = 0 AND LAMBDA = 0
Info: LANGEVIN DYNAMICS ACTIVE
Info: LANGEVIN TEMPERATURE   300
Info: LANGEVIN USING BBK INTEGRATOR
Info: LANGEVIN DAMPING COEFFICIENT IS 1 INVERSE PS
Info: LANGEVIN DYNAMICS APPLIED TO HYDROGENS
Info: LANGEVIN PISTON PRESSURE CONTROL ACTIVE
Info:        TARGET PRESSURE IS 1.01325 BAR
Info:     OSCILLATION PERIOD IS 50 FS
Info:             DECAY TIME IS 25 FS
Info:     PISTON TEMPERATURE IS 300 K
Info:       PRESSURE CONTROL IS GROUP-BASED
Info:    INITIAL STRAIN RATE IS -0.000592969 -0.000592969 -0.000592969
Info:       CELL FLUCTUATION IS ISOTROPIC
Info: PARTICLE MESH EWALD (PME) ACTIVE
Info: PME TOLERANCE               1e-06
Info: PME EWALD COEFFICIENT       0.348832
Info: PME INTERPOLATION ORDER     4
Info: PME GRID DIMENSIONS         36 36 28
Info: PME MAXIMUM GRID SPACING    1
Info: PME CALCULATION WILL BE PERFORMED ON GPU
Info: FULL ELECTROSTATIC EVALUATION FREQUENCY      2
Info: USING VERLET I (r-RESPA) MTS SCHEME.
Info: C1 SPLITTING OF LONG RANGE ELECTROSTATICS
Info: PLACING ATOMS IN PATCHES BY HYDROGEN GROUPS
Info: RIGID BONDS TO HYDROGEN : ALL
Info:         ERROR TOLERANCE : 1e-08
Info:          MAX ITERATIONS : 100
Info: RIGID WATER USING SETTLE ALGORITHM
Info: RANDOM NUMBER SEED     1743635060
Info: USE HYDROGEN BONDS?    NO
Info: Using AMBER format force field!
Info: AMBER PARM FILE        mobley_5371840.prmtop
Info: COORDINATE PDB         mobley_5371840.pdb
Info: Exclusions will be read from PARM file!
Info: SCNB (VDW SCALING)     2
Info: USING ARITHMETIC MEAN TO COMBINE L-J SIGMA PARAMETERS
Info: BINARY COORDINATES     mobley_5371840_equil.coor
Info: SUMMARY OF PARAMETERS:
Info: 6 BONDS
Info: 5 ANGLES
Info:   5 HARMONIC
Info:   0 COSINE-BASED
Info: 3 DIHEDRAL
Info: 0 IMPROPER
Info: 0 CROSSTERM
Info: 0 VDW
Info: 21 VDW_PAIRS
Info: 0 NBTHOLE_PAIRS
Info: To read alchdata from file: mobley_5371840.pdb
Info: To read alchflag data from column: 5
Info: STRUCTURE SUMMARY:
Info: 2977 ATOMS
Info: 2979 BONDS
Info: 38 ANGLES
Info: 68 DIHEDRALS
Info: 0 IMPROPERS
Info: 0 CROSSTERMS
Info: 3064 EXCLUSIONS
Info: 2962 RIGID BONDS
Info: ALCH: 0 ATOMS TO DISAPPEAR IN FINAL STATE
Info: ALCH: 22 ATOMS TO APPEAR IN FINAL STATE
Info: 5969 DEGREES OF FREEDOM
Info: 1000 HYDROGEN GROUPS
Info: 3 ATOMS IN LARGEST HYDROGEN GROUP
Info: 1000 MIGRATION GROUPS
Info: 3 ATOMS IN LARGEST MIGRATION GROUP
Info: TOTAL MASS = 17964.4 amu
Info: TOTAL CHARGE = -0.000200002 e
Info: MASS DENSITY = 0.981031 g/cm^3
Info: ATOM DENSITY = 0.0979016 atoms/A^3
Info: ADDED 0 IMPLICIT EXCLUSIONS
Info: NONBONDED TABLE R-SQUARED SPACING: 0.0625
Info: NONBONDED TABLE SIZE: 705 POINTS
Info: REDUCING NUMBER OF PATCHES TO IMPROVE LOAD BALANCE
Info: REMOVING COM VELOCITY -0.177757 0.0749879 0.0546275
Info: Use 3D box decompostion in PME FFT.
Info: Updated CUDA force table with 4096 elements.
Info: Updated CUDA LJ table with 6 x 6 elements.
Info: Found 23 unique exclusion lists needing 68 bytes
TCL: Running for 1500000 steps
ETITLE: TS BOND ANGLE DIHED IMPRP ELECT VDW BOUNDARY MISC KINETIC TOTAL TEMP POTENTIAL TOTALAVG TEMPAVG PRESSURE GPRESSURE VOLUME PRESSAVG GPRESSAVG
ENERGY: 0 5.9105 7.1813 4.4083 0.0000 -10744.3905 1466.6056 0.0000 0.0000 1819.9429 -7440.3419 306.8644 -9260.2847 -7440.3419 306.8644 165.7594 262.8421 30408.0837 165.7594 262.8421
ENERGY: 300000 3.3560 4.6423 3.2178 0.0000 -10645.5372 1324.9890 0.0000 0.0000 1769.9142 -7539.4179 298.4290 -9309.3321 -7501.8673 300.6067 -1083.9970 -970.3786 30571.5206 -362.9067 -288.5320
ENERGY: 600000 7.3212 10.9193 5.8993 0.0000 -10734.7741 1418.7513 0.0000 0.0000 1839.4691 -7452.4139 310.1568 -9291.8830 -7482.4811 301.2848 -287.1252 -289.9903 30585.8498 -420.6580 -351.2023
ENERGY: 900000 5.8719 5.4742 3.8687 0.0000 -10821.0911 1493.3004 0.0000 0.0000 1812.0381 -7500.5378 305.5316 -9312.5759 -7478.6683 303.5435 343.0135 423.6997 29855.7347 -317.8711 -255.6239
ENERGY: 1200000 2.0732 5.9493 2.2906 0.0000 -10797.7680 1441.1299 0.0000 0.0000 1783.1196 -7563.2054 300.6556 -9346.3250 -7492.3527 302.7112 -152.3638 -55.6202 30352.7377 -242.3638 -184.0231
ENERGY: 1500000 6.5603 7.1413 4.3198 0.0000 -10547.1153 1351.6519 0.0000 0.0000 1751.0897 -7426.3524 295.2550 -9177.4421 -7499.1832 301.8856 -767.0507 -740.3964 30809.7418 -309.9779 -251.9370
TCL: Running FEP window   2: Lambda1 0.05   Lambda2 0.1    [dLambda 0.05  ]
TCL: Setting parameter firsttimestep to 0
TCL: Setting parameter alchLambda to 0.05
Info: NONBONDED TABLE R-SQUARED SPACING: 0.0625
Info: NONBONDED TABLE SIZE: 705 POINTS
TCL: Setting parameter alchLambda2 to 0.1
Info: NONBONDED TABLE R-SQUARED SPACING: 0.0625
Info: NONBONDED TABLE SIZE: 705 POINTS
TCL: Running for 1500000 steps
ETITLE: TS BOND ANGLE DIHED IMPRP ELECT VDW BOUNDARY MISC KINETIC TOTAL TEMP POTENTIAL TOTALAVG TEMPAVG PRESSURE GPRESSURE VOLUME PRESSAVG GPRESSAVG
ENERGY: 0 6.5603 7.1413 4.3198 0.0000 -10547.1155 1358.2632 0.0000 0.0000 1750.2419 -7420.5890 295.1120 -9170.8309 -7420.5890 295.1120 -808.4842 -720.6631 30809.7418 -808.4842 -720.6631
ENERGY: 300000 4.7856 3.9132 6.1957 0.0000 -10876.0961 1538.0454 0.0000 0.0000 1816.0042 -7507.1520 306.2003 -9323.1562 -7455.3640 301.2184 277.9541 366.6267 30742.3536 -15.4105 49.0397
ENERGY: 600000 3.2277 4.8851 2.3228 0.0000 -10636.1277 1386.0040 0.0000 0.0000 1777.9565 -7461.7315 299.7850 -9239.6880 -7485.2208 301.9576 -458.6617 -431.8240 30604.8011 -217.0353 -154.1515
ENERGY: 900000 5.2738 4.1689 11.3731 0.0000 -10813.6385 1536.0060 0.0000 0.0000 1755.2023 -7501.6143 295.9484 -9256.8166 -7506.7789 299.0954 666.1813 751.6351 30596.0232 -90.9334 -30.9137
ENERGY: 1200000 8.7945 4.8433 5.6905 0.0000 -10655.9775 1359.2410 0.0000 0.0000 1794.7535 -7482.6547 302.6172 -9277.4082 -7500.3335 299.7609 -1189.8247 -1087.3327 30540.0888 -112.6827 -43.9088
ENERGY: 1500000 8.6254 6.4508 5.8826 0.0000 -10765.8939 1475.2522 0.0000 0.0000 1780.8095 -7488.8736 300.2661 -9269.6831 -7499.5053 299.1269 -113.7338 -63.3031 30654.2770 -48.7349 13.4018
TCL: Running FEP window   3: Lambda1 0.1    Lambda2 0.15000000000000002 [dLambda 0.05000000000000002]
TCL: Setting parameter firsttimestep to 0
TCL: Setting parameter alchLambda to 0.1
Info: NONBONDED TABLE R-SQUARED SPACING: 0.0625
Info: NONBONDED TABLE SIZE: 705 POINTS
TCL: Setting parameter alchLambda2 to 0.15000000000000002
Info: NONBONDED TABLE R-SQUARED SPACING: 0.0625
Info: NONBONDED TABLE SIZE: 705 POINTS
TCL: Running for 1500000 steps
ETITLE: TS BOND ANGLE DIHED IMPRP ELECT VDW BOUNDARY MISC KINETIC TOTAL TEMP POTENTIAL TOTALAVG TEMPAVG PRESSURE GPRESSURE VOLUME PRESSAVG GPRESSAVG
ENERGY: 0 8.6254 6.4508 5.8826 0.0000 -10765.8931 1478.9843 0.0000 0.0000 1779.9660 -7485.9841 300.1239 -9265.9501 -7485.9841 300.1239 -145.3913 -48.2206 30654.2770 -145.3913 -48.2206
ENERGY: 300000 7.8490 6.4941 2.7750 0.0000 -10655.8915 1444.1635 0.0000 0.0000 1757.0757 -7437.5343 296.2643 -9194.6100 -7483.4907 299.0998 -164.9438 -41.0412 30694.3415 129.3126 222.0231
ENERGY: 600000 5.6684 6.2433 4.6196 0.0000 -10676.3667 1430.3332 0.0000 0.0000 1767.0258 -7462.4763 297.9420 -9229.5022 -7470.3632 300.9748 219.3410 280.9362 30249.6035 98.0063 180.8042
ENERGY: 900000 9.5521 6.1882 10.7605 0.0000 -10618.5600 1360.6947 0.0000 0.0000 1826.7209 -7404.6436 308.0073 -9231.3645 -7467.8243 303.0346 -1073.6425 -1002.8454 30543.0835 -21.2357 52.1612
ENERGY: 1200000 7.1171 2.4945 6.4810 0.0000 -10689.7188 1366.0151 0.0000 0.0000 1784.5968 -7523.0142 300.9047 -9307.6111 -7479.1367 301.6176 -575.1397 -500.0127 30571.0336 -68.3772 8.1542
ENERGY: 1500000 4.4428 5.8428 6.4672 0.0000 -10729.2566 1395.0852 0.0000 0.0000 1780.8045 -7536.6141 300.2652 -9317.4186 -7488.4255 301.1637 -877.7592 -821.7614 30956.9150 -77.7906 -9.6359
TCL: Running FEP window   4: Lambda1 0.15000000000000002 Lambda2 0.2    [dLambda 0.04999999999999999]
TCL: Setting parameter firsttimestep to 0
TCL: Setting parameter alchLambda to 0.15000000000000002
Info: NONBONDED TABLE R-SQUARED SPACING: 0.0625
Info: NONBONDED TABLE SIZE: 705 POINTS
TCL: Setting parameter alchLambda2 to 0.2
Info: NONBONDED TABLE R-SQUARED SPACING: 0.0625
Info: NONBONDED TABLE SIZE: 705 POINTS
TCL: Running for 1500000 steps
ETITLE: TS BOND ANGLE DIHED IMPRP ELECT VDW BOUNDARY MISC KINETIC TOTAL TEMP POTENTIAL TOTALAVG TEMPAVG PRESSURE GPRESSURE VOLUME PRESSAVG GPRESSAVG
ENERGY: 0 4.4428 5.8428 6.4672 0.0000 -10729.2564 1395.9293 0.0000 0.0000 1779.8856 -7536.6887 300.1103 -9316.5743 -7536.6887 300.1103 -897.1664 -813.8182 30956.9150 -897.1664 -813.8182
ENERGY: 300000 5.0208 8.0659 4.5699 0.0000 -10729.1195 1457.0982 0.0000 0.0000 1755.2341 -7499.1305 295.9538 -9254.3646 -7479.3494 301.9288 239.9520 276.2904 30340.3135 -421.1799 -383.0583
ENERGY: 600000 8.3459 5.7319 8.1776 0.0000 -10716.9264 1461.4817 0.0000 0.0000 1780.8576 -7452.3317 300.2742 -9233.1893 -7496.7710 300.3268 63.0200 182.2360 30550.0562 -213.6475 -154.8622
ENERGY: 900000 5.0711 5.9754 4.4726 0.0000 -10751.5771 1451.9861 0.0000 0.0000 1758.4449 -7525.6270 296.4951 -9284.0719 -7504.6108 300.1505 -144.5776 -54.3228 30648.8896 -231.5758 -166.8712
ENERGY: 1200000 5.3642 4.7327 7.1721 0.0000 -10731.7241 1417.9898 0.0000 0.0000 1739.2160 -7557.2493 293.2529 -9296.4653 -7504.7130 298.9594 -293.3626 -183.1439 30170.0398 -178.5135 -108.0862
ENERGY: 1500000 3.8935 5.9414 5.7515 0.0000 -10831.5636 1499.8734 0.0000 0.0000 1781.3974 -7534.7064 300.3652 -9316.1038 -7523.8306 298.5307 98.6847 169.9381 30621.7363 -100.8364 -31.3668
TCL: Running FEP window   5: Lambda1 0.2    Lambda2 0.25   [dLambda 0.04999999999999999]
TCL: Setting parameter firsttimestep to 0
TCL: Setting parameter alchLambda to 0.2
Info: NONBONDED TABLE R-SQUARED SPACING: 0.0625
Info: NONBONDED TABLE SIZE: 705 POINTS
TCL: Setting parameter alchLambda2 to 0.25
Info: NONBONDED TABLE R-SQUARED SPACING: 0.0625
Info: NONBONDED TABLE SIZE: 705 POINTS
TCL: Running for 1500000 steps
ETITLE: TS BOND ANGLE DIHED IMPRP ELECT VDW BOUNDARY MISC KINETIC TOTAL TEMP POTENTIAL TOTALAVG TEMPAVG PRESSURE GPRESSURE VOLUME PRESSAVG GPRESSAVG
ENERGY: 0 3.8935 5.9414 5.7515 0.0000 -10831.5636 1499.6616 0.0000 0.0000 1780.5090 -7535.8066 300.2154 -9316.3157 -7535.8066 300.2154 80.2972 170.9176 30621.7363 80.2972 170.9176
ENERGY: 300000 4.6144 7.0009 4.7374 0.0000 -10691.5724 1380.9928 0.0000 0.0000 1768.3393 -7525.8875 298.1635 -9294.2268 -7498.0925 301.5580 -433.7212 -438.4639 30397.3463 61.6668 116.1177
ENERGY: 600000 6.2924 6.7088 5.9315 0.0000 -10929.4619 1545.9225 0.0000 0.0000 1765.0152 -7599.5915 297.6030 -9364.6067 -7500.4600 300.8487 313.2135 389.8439 30533.5113 -15.4393 39.3819
ENERGY: 900000 3.1389 8.4141 5.8636 0.0000 -10664.5965 1386.0561 0.0000 0.0000 1787.4865 -7473.6373 301.3919 -9261.1238 -7499.9037 300.3588 -118.0169 -43.5089 30157.8237 -33.9538 24.4132
ENERGY: 1200000 4.4980 1.9896 5.6835 0.0000 -10793.5060 1452.6929 0.0000 0.0000 1793.4215 -7535.2205 302.3926 -9328.6420 -7514.2860 300.9363 -22.4470 48.1209 29982.0546 -47.8220 19.5099
ENERGY: 1500000 7.3745 4.3106 4.4814 0.0000 -10806.5745 1449.6972 0.0000 0.0000 1744.2378 -7596.4729 294.0997 -9340.7108 -7527.9465 300.0045 -214.3539 -211.8312 30711.4904 -132.4008 -68.2684
TCL: Running FEP window   6: Lambda1 0.25   Lambda2 0.3    [dLambda 0.04999999999999999]
TCL: Setting parameter firsttimestep to 0
TCL: Setting parameter alchLambda to 0.25
Info: NONBONDED TABLE R-SQUARED SPACING: 0.0625
Info: NONBONDED TABLE SIZE: 705 POINTS
TCL: Setting parameter alchLambda2 to 0.3
Info: NONBONDED TABLE R-SQUARED SPACING: 0.0625
Info: NONBONDED TABLE SIZE: 705 POINTS
TCL: Running for 1500000 steps
ETITLE: TS BOND ANGLE DIHED IMPRP ELECT VDW BOUNDARY MISC KINETIC TOTAL TEMP POTENTIAL TOTALAVG TEMPAVG PRESSURE GPRESSURE VOLUME PRESSAVG GPRESSAVG
ENERGY: 0 7.3745 4.3106 4.4814 0.0000 -10806.5756 1450.1001 0.0000 0.0000 1743.3804 -7596.9286 293.9551 -9340.3090 -7596.9286 293.9551 -286.2399 -205.6700 30711.4904 -286.2399 -205.6700
ENERGY: 300000 3.4984 5.5818 6.0679 0.0000 -10767.3647 1464.5919 0.0000 0.0000 1732.2229 -7555.4018 292.0738 -9287.6247 -7552.0282 296.8383 -47.4670 24.2335 30786.6075 106.0500 190.6669
ENERGY: 600000 2.6797 5.3038 7.8342 0.0000 -10912.3134 1601.8487 0.0000 0.0000 1755.5576 -7539.0894 296.0083 -9294.6470 -7517.7056 298.6484 1242.5098 1343.0964 30159.4911 224.7657 294.6856
ENERGY: 900000 6.5617 8.1723 8.4591 0.0000 -10809.0054 1430.0114 0.0000 0.0000 1786.5449 -7569.2561 301.2331 -9355.8010 -7531.6462 299.3903 -203.3346 -79.9155 30072.3854 149.3095 215.2352
ENERGY: 1200000 5.4595 4.9899 6.4627 0.0000 -10774.9703 1481.5778 0.0000 0.0000 1776.8708 -7499.6097 299.6020 -9276.4804 -7519.0703 300.8656 156.7568 119.5998 30692.7812 72.1476 131.1201
ENERGY: 1500000 5.2425 8.0588 4.4978 0.0000 -10800.6090 1418.9240 0.0000 0.0000 1714.7847 -7649.1012 289.1335 -9363.8858 -7532.2053 299.3116 -637.8804 -581.5030 30724.0105 23.2776 82.5403
TCL: Running FEP window   7: Lambda1 0.3    Lambda2 0.35   [dLambda 0.04999999999999999]
TCL: Setting parameter firsttimestep to 0
TCL: Setting parameter alchLambda to 0.3
Info: NONBONDED TABLE R-SQUARED SPACING: 0.0625
Info: NONBONDED TABLE SIZE: 705 POINTS
TCL: Setting parameter alchLambda2 to 0.35
Info: NONBONDED TABLE R-SQUARED SPACING: 0.0625
Info: NONBONDED TABLE SIZE: 705 POINTS
TCL: Running for 1500000 steps
ETITLE: TS BOND ANGLE DIHED IMPRP ELECT VDW BOUNDARY MISC KINETIC TOTAL TEMP POTENTIAL TOTALAVG TEMPAVG PRESSURE GPRESSURE VOLUME PRESSAVG GPRESSAVG
ENERGY: 0 5.2426 8.0588 4.4978 0.0000 -10800.6082 1418.2586 0.0000 0.0000 1713.8262 -7650.7243 288.9719 -9364.5505 -7650.7243 288.9719 -647.4556 -579.1857 30724.0105 -647.4556 -579.1857
ENERGY: 300000 7.9653 5.8709 6.1619 0.0000 -10825.7499 1512.1643 0.0000 0.0000 1787.1546 -7506.4328 301.3359 -9293.5875 -7510.1856 301.2965 307.6821 354.7951 30289.3536 -158.6810 -104.3231
ENERGY: 600000 3.7080 7.5057 7.5460 0.0000 -10969.2941 1619.5399 0.0000 0.0000 1779.9912 -7551.0032 300.1281 -9330.9944 -7501.6279 301.9765 1269.4229 1337.4912 30060.7624 70.8345 123.0413
ENERGY: 900000 3.5703 4.0486 2.3177 0.0000 -10875.2348 1557.7352 0.0000 0.0000 1805.7581 -7501.8048 304.4727 -9307.5629 -7504.3622 302.4140 1045.1594 1042.1169 30314.2894 185.3526 233.8790
ENERGY: 1200000 3.8010 7.3830 4.4520 0.0000 -11023.6838 1555.8259 0.0000 0.0000 1734.4426 -7717.7793 292.4481 -9452.2219 -7519.9214 301.4428 231.0463 271.3784 30697.8380 165.0830 211.8670
ENERGY: 1500000 6.4075 5.1263 4.0622 0.0000 -10799.8286 1470.2861 0.0000 0.0000 1838.1473 -7475.7992 309.9339 -9313.9465 -7510.2909 302.0938 277.5366 379.1806 30386.3720 201.1832 249.5483
TCL: Running FEP window   8: Lambda1 0.35   Lambda2 0.39999999999999997 [dLambda 0.04999999999999999]
TCL: Setting parameter firsttimestep to 0
TCL: Setting parameter alchLambda to 0.35
Info: NONBONDED TABLE R-SQUARED SPACING: 0.0625
Info: NONBONDED TABLE SIZE: 705 POINTS
TCL: Setting parameter alchLambda2 to 0.39999999999999997
Info: NONBONDED TABLE R-SQUARED SPACING: 0.0625
Info: NONBONDED TABLE SIZE: 705 POINTS
TCL: Running for 1500000 steps
ETITLE: TS BOND ANGLE DIHED IMPRP ELECT VDW BOUNDARY MISC KINETIC TOTAL TEMP POTENTIAL TOTALAVG TEMPAVG PRESSURE GPRESSURE VOLUME PRESSAVG GPRESSAVG
ENERGY: 0 6.4075 5.1263 4.0622 0.0000 -10799.8280 1470.3641 0.0000 0.0000 1837.2607 -7476.6072 309.7844 -9313.8679 -7476.6072 309.7844 303.6865 387.9960 30386.3720 303.6865 387.9960
ENERGY: 300000 5.0300 6.7157 3.0780 0.0000 -10737.7637 1478.6818 0.0000 0.0000 1794.5192 -7449.7390 302.5777 -9244.2582 -7477.5016 302.7637 331.9554 425.5228 30631.9133 15.5686 85.9318
ENERGY: 600000 7.4618 4.6554 3.3675 0.0000 -10748.3748 1484.8801 0.0000 0.0000 1776.4801 -7471.5300 299.5361 -9248.0101 -7485.3352 299.9496 446.1778 533.7697 30634.9108 89.7340 158.9244
ENERGY: 900000 4.6777 6.5568 4.9639 0.0000 -10689.1881 1363.2589 0.0000 0.0000 1796.5427 -7513.1880 302.9189 -9309.7307 -7493.9694 300.9577 -947.8451 -975.7506 30862.1569 120.5787 181.4981
ENERGY: 1200000 6.0499 2.9018 4.9560 0.0000 -10783.1953 1467.1010 0.0000 0.0000 1775.2577 -7526.9289 299.3300 -9302.1866 -7495.7910 300.3244 -123.8021 -104.8138 31072.5900 105.4976 166.7286
ENERGY: 1500000 2.6857 8.8056 2.5072 0.0000 -10674.0498 1425.2813 0.0000 0.0000 1751.3243 -7483.4458 295.2945 -9234.7701 -7503.2727 300.2072 337.8908 375.8712 30486.5048 86.5650 145.0947
TCL: Running FEP window   9: Lambda1 0.39999999999999997 Lambda2 0.44999999999999996 [dLambda 0.04999999999999999]
TCL: Setting parameter firsttimestep to 0
TCL: Setting parameter alchLambda to 0.39999999999999997
Info: NONBONDED TABLE R-SQUARED SPACING: 0.0625
Info: NONBONDED TABLE SIZE: 705 POINTS
TCL: Setting parameter alchLambda2 to 0.44999999999999996
Info: NONBONDED TABLE R-SQUARED SPACING: 0.0625
Info: NONBONDED TABLE SIZE: 705 POINTS
TCL: Running for 1500000 steps
ETITLE: TS BOND ANGLE DIHED IMPRP ELECT VDW BOUNDARY MISC KINETIC TOTAL TEMP POTENTIAL TOTALAVG TEMPAVG PRESSURE GPRESSURE VOLUME PRESSAVG GPRESSAVG
ENERGY: 0 2.6857 8.8056 2.5072 0.0000 -10674.0504 1426.4581 0.0000 0.0000 1750.4517 -7483.1421 295.1474 -9233.5938 -7483.1421 295.1474 320.4559 393.1407 30486.5048 320.4559 393.1407
ENERGY: 300000 3.5386 5.5723 6.1082 0.0000 -10828.2645 1520.2055 0.0000 0.0000 1767.8141 -7525.0257 298.0749 -9292.8398 -7507.2265 297.2028 206.1246 319.3116 30924.4854 -132.4471 -65.0803
ENERGY: 600000 4.1260 4.3383 8.9093 0.0000 -10744.8859 1446.3320 0.0000 0.0000 1794.1896 -7486.9906 302.5221 -9281.1802 -7504.6458 298.8805 48.2381 60.3671 30419.3388 51.3023 94.1379
ENERGY: 900000 6.6636 7.0195 2.7775 0.0000 -10887.7310 1570.4684 0.0000 0.0000 1805.9474 -7494.8546 304.5046 -9300.8020 -7495.2022 299.7231 793.5061 837.9389 30563.8826 143.1690 196.7857
ENERGY: 1200000 3.5194 6.3493 7.0289 0.0000 -10616.9444 1387.2779 0.0000 0.0000 1822.6688 -7390.1000 307.3241 -9212.7688 -7492.0970 299.9375 -367.7640 -315.1092 31140.7176 110.7137 169.0267
ENERGY: 1500000 5.9602 4.7583 4.4821 0.0000 -10644.1137 1404.5389 0.0000 0.0000 1867.4237 -7356.9505 314.8703 -9224.3742 -7479.3858 300.8868 -172.9713 -94.0753 30799.1958 98.4638 155.8422
TCL: Running FEP window  10: Lambda1 0.44999999999999996 Lambda2 0.49999999999999994 [dLambda 0.04999999999999999]
TCL: Setting parameter firsttimestep to 0
TCL: Setting parameter alchLambda to 0.44999999999999996
Info: NONBONDED TABLE R-SQUARED SPACING: 0.0625
Info: NONBONDED TABLE SIZE: 705 POINTS
TCL: Setting parameter alchLambda2 to 0.49999999999999994
Info: NONBONDED TABLE R-SQUARED SPACING: 0.0625
Info: NONBONDED TABLE SIZE: 705 POINTS
TCL: Running for 1500000 steps
ETITLE: TS BOND ANGLE DIHED IMPRP ELECT VDW BOUNDARY MISC KINETIC TOTAL TEMP POTENTIAL TOTALAVG TEMPAVG PRESSURE GPRESSURE VOLUME PRESSAVG GPRESSAVG
ENERGY: 0 5.9602 4.7583 4.4821 0.0000 -10644.1141 1404.3972 0.0000 0.0000 1866.5107 -7358.0056 314.7163 -9224.5163 -7358.0056 314.7163 -172.3921 -89.8800 30799.1958 -172.3921 -89.8800
ENERGY: 300000 6.8923 6.9062 7.7892 0.0000 -10667.2939 1411.8106 0.0000 0.0000 1770.9206 -7462.9750 298.5987 -9233.8956 -7462.5590 302.9099 -258.8069 -187.7615 30838.6975 -204.2892 -124.7232
ENERGY: 600000 3.2033 5.1154 5.6019 0.0000 -10813.8209 1506.6593 0.0000 0.0000 1777.5878 -7515.6533 299.7229 -9293.2410 -7472.9256 303.3295 382.3228 437.6576 30537.1501 158.2572 233.9602
ENERGY: 900000 4.1478 4.2986 3.7060 0.0000 -10678.3971 1409.5086 0.0000 0.0000 1824.4372 -7432.2990 307.6222 -9256.7362 -7462.7261 304.5167 -102.1608 0.2560 30503.1191 42.5483 118.4143
ENERGY: 1200000 5.2754 7.9062 5.6374 0.0000 -10896.8170 1475.4819 0.0000 0.0000 1784.1596 -7618.3565 300.8309 -9402.5161 -7492.0132 303.0376 -288.9895 -182.3111 30611.8148 -7.5955 66.3591
ENERGY: 1500000 4.0243 4.6357 5.5718 0.0000 -10907.2977 1516.0998 0.0000 0.0000 1825.1223 -7551.8439 307.7377 -9376.9661 -7491.0336 303.1311 283.0463 311.0083 30282.8420 7.0921 78.5137
TCL: Running FEP window  11: Lambda1 0.49999999999999994 Lambda2 0.5499999999999999 [dLambda 0.04999999999999999]
TCL: Setting parameter firsttimestep to 0
TCL: Setting parameter alchLambda to 0.49999999999999994
Info: NONBONDED TABLE R-SQUARED SPACING: 0.0625
Info: NONBONDED TABLE SIZE: 705 POINTS
TCL: Setting parameter alchLambda2 to 0.5499999999999999
Info: NONBONDED TABLE R-SQUARED SPACING: 0.0625
Info: NONBONDED TABLE SIZE: 705 POINTS
TCL: Running for 1500000 steps
ETITLE: TS BOND ANGLE DIHED IMPRP ELECT VDW BOUNDARY MISC KINETIC TOTAL TEMP POTENTIAL TOTALAVG TEMPAVG PRESSURE GPRESSURE VOLUME PRESSAVG GPRESSAVG
ENERGY: 0 4.0243 4.6357 5.5718 0.0000 -10907.2987 1515.6794 0.0000 0.0000 1824.2714 -7553.1161 307.5943 -9377.3876 -7553.1161 307.5943 244.4832 317.1253 30282.8420 244.4832 317.1253
ENERGY: 300000 5.6942 3.1942 5.6174 0.0000 -10846.0835 1525.7930 0.0000 0.0000 1761.3898 -7544.3949 296.9917 -9305.7848 -7513.3838 301.9103 586.3413 614.6562 30530.2553 203.4127 259.0209
ENERGY: 600000 3.9328 6.7212 6.8796 0.0000 -10554.9466 1343.9202 0.0000 0.0000 1830.0240 -7363.4689 308.5642 -9193.4929 -7469.6229 302.3684 -530.8500 -462.4898 30653.8004 68.9949 116.5733
ENERGY: 900000 5.5980 3.6429 4.1728 0.0000 -10781.5406 1435.8882 0.0000 0.0000 1785.9677 -7546.2709 301.1358 -9332.2386 -7466.4544 302.7756 -251.8450 -138.2564 30650.9292 -37.4315 19.8672
ENERGY: 1200000 4.7323 4.8205 7.1582 0.0000 -10741.9687 1420.0163 0.0000 0.0000 1769.8357 -7535.4057 298.4158 -9305.2414 -7468.4181 302.4656 202.2262 198.0423 29971.6122 -65.1797 -16.8538
ENERGY: 1500000 8.0978 8.7219 4.8274 0.0000 -10781.2255 1458.3543 0.0000 0.0000 1742.4821 -7558.7420 293.8036 -9301.2241 -7477.2530 302.1139 80.0140 116.9387 30499.5283 -13.3555 30.1967
TCL: Running FEP window  12: Lambda1 0.5499999999999999 Lambda2 0.6    [dLambda 0.050000000000000044]
TCL: Setting parameter firsttimestep to 0
TCL: Setting parameter alchLambda to 0.5499999999999999
Info: NONBONDED TABLE R-SQUARED SPACING: 0.0625
Info: NONBONDED TABLE SIZE: 705 POINTS
TCL: Setting parameter alchLambda2 to 0.6
Info: NONBONDED TABLE R-SQUARED SPACING: 0.0625
Info: NONBONDED TABLE SIZE: 705 POINTS
TCL: Running for 1500000 steps
ETITLE: TS BOND ANGLE DIHED IMPRP ELECT VDW BOUNDARY MISC KINETIC TOTAL TEMP POTENTIAL TOTALAVG TEMPAVG PRESSURE GPRESSURE VOLUME PRESSAVG GPRESSAVG
ENERGY: 0 8.0978 8.7219 4.8274 0.0000 -10781.6672 1458.5881 0.0000 0.0000 1741.5906 -7559.8414 293.6533 -9301.4320 -7559.8414 293.6533 49.6857 124.6127 30499.5283 49.6857 124.6127
ENERGY: 300000 4.5280 5.5047 4.4256 0.0000 -10792.2294 1514.0136 0.0000 0.0000 1812.1544 -7451.6030 305.5512 -9263.7575 -7503.6695 296.8879 596.7043 629.7671 30341.5301 5.8140 60.5241
ENERGY: 600000 10.9706 7.3899 10.0067 0.0000 -10627.3556 1398.8202 0.0000 0.0000 1795.6538 -7404.5144 302.7690 -9200.1681 -7486.8794 299.2287 -93.0235 -101.2243 30481.7543 82.3927 104.1829
ENERGY: 900000 5.1366 3.4927 4.9801 0.0000 -10777.2834 1439.2502 0.0000 0.0000 1813.8261 -7510.5977 305.8331 -9324.4237 -7467.4149 300.0589 -64.3965 -24.3359 30357.4781 133.9247 161.0834
ENERGY: 1200000 2.3084 3.6705 5.1254 0.0000 -10818.9797 1475.4639 0.0000 0.0000 1828.2300 -7504.1814 308.2617 -9332.4114 -7472.0661 301.6867 190.3369 246.7004 30558.3848 171.3284 207.2590
ENERGY: 1500000 4.0777 6.9112 3.4384 0.0000 -10669.8846 1418.4690 0.0000 0.0000 1797.0940 -7439.8944 303.0118 -9236.9884 -7479.0406 301.0843 56.6052 133.5939 30664.1113 142.0105 177.2615
TCL: Running FEP window  13: Lambda1 0.6    Lambda2 0.65   [dLambda 0.050000000000000044]
TCL: Setting parameter firsttimestep to 0
TCL: Setting parameter alchLambda to 0.6
Info: NONBONDED TABLE R-SQUARED SPACING: 0.0625
Info: NONBONDED TABLE SIZE: 705 POINTS
TCL: Setting parameter alchLambda2 to 0.65
Info: NONBONDED TABLE R-SQUARED SPACING: 0.0625
Info: NONBONDED TABLE SIZE: 705 POINTS
TCL: Running for 1500000 steps
ETITLE: TS BOND ANGLE DIHED IMPRP ELECT VDW BOUNDARY MISC KINETIC TOTAL TEMP POTENTIAL TOTALAVG TEMPAVG PRESSURE GPRESSURE VOLUME PRESSAVG GPRESSAVG
ENERGY: 0 4.0777 6.9112 3.4384 0.0000 -10669.7707 1417.7212 0.0000 0.0000 1796.2100 -7441.4121 302.8628 -9237.6221 -7441.4121 302.8628 58.9196 140.4512 30664.1113 58.9196 140.4512
ENERGY: 300000 6.3592 4.3763 2.7704 0.0000 -10684.0929 1399.0811 0.0000 0.0000 1824.3460 -7447.1598 307.6069 -9271.5058 -7469.4860 302.0748 -338.2807 -272.9364 30646.4913 -297.5916 -214.3196
ENERGY: 600000 2.8979 6.2592 2.7031 0.0000 -10785.9203 1471.9831 0.0000 0.0000 1754.2735 -7547.8036 295.7918 -9302.0771 -7487.4341 301.3822 59.0173 116.2479 31025.2384 133.2654 203.9923
ENERGY: 900000 3.2499 6.5493 5.3875 0.0000 -10970.5093 1572.1690 0.0000 0.0000 1776.8170 -7606.3366 299.5929 -9383.1536 -7493.4355 301.7501 699.3122 768.5950 30207.4684 160.7015 235.3891
ENERGY: 1200000 5.3771 4.8734 5.7138 0.0000 -10665.6650 1354.8629 0.0000 0.0000 1728.4804 -7566.3574 291.4428 -9294.8378 -7505.6200 300.1569 -569.7004 -529.2615 30627.2694 52.9408 121.1254
ENERGY: 1500000 6.6076 6.6762 9.2279 0.0000 -10702.9656 1404.5987 0.0000 0.0000 1778.3673 -7497.4878 299.8543 -9275.8551 -7505.5409 300.1205 -277.2224 -261.4405 30638.7905 31.5451 98.1055
TCL: Running FEP window  14: Lambda1 0.65   Lambda2 0.7000000000000001 [dLambda 0.050000000000000044]
TCL: Setting parameter firsttimestep to 0
TCL: Setting parameter alchLambda to 0.65
Info: NONBONDED TABLE R-SQUARED SPACING: 0.0625
Info: NONBONDED TABLE SIZE: 705 POINTS
TCL: Setting parameter alchLambda2 to 0.7000000000000001
Info: NONBONDED TABLE R-SQUARED SPACING: 0.0625
Info: NONBONDED TABLE SIZE: 705 POINTS
TCL: Running for 1500000 steps
ETITLE: TS BOND ANGLE DIHED IMPRP ELECT VDW BOUNDARY MISC KINETIC TOTAL TEMP POTENTIAL TOTALAVG TEMPAVG PRESSURE GPRESSURE VOLUME PRESSAVG GPRESSAVG
ENERGY: 0 6.6077 6.6762 9.2279 0.0000 -10703.2377 1404.0514 0.0000 0.0000 1777.5038 -7499.1707 299.7087 -9276.6745 -7499.1707 299.7087 -324.2509 -256.8750 30638.7905 -324.2509 -256.8750
ENERGY: 300000 5.7488 8.9061 6.9040 0.0000 -10706.2374 1340.9066 0.0000 0.0000 1773.6141 -7570.1578 299.0528 -9343.7719 -7532.3767 298.0789 -1184.9662 -1074.2093 30867.1004 -454.6110 -401.8237
ENERGY: 600000 4.6795 5.8906 6.5960 0.0000 -10625.5298 1351.6892 0.0000 0.0000 1828.2758 -7428.3987 308.2695 -9256.6745 -7518.9018 299.7810 -722.9383 -656.7629 31023.3802 -507.3018 -456.3456
ENERGY: 900000 7.2063 6.3538 9.0158 0.0000 -10589.3986 1353.9820 0.0000 0.0000 1786.7771 -7426.0637 301.2723 -9212.8408 -7501.3306 300.7771 -742.5607 -658.2319 30937.3198 -545.4176 -489.9049
ENERGY: 1200000 5.8384 3.9961 6.3591 0.0000 -10687.9003 1411.3929 0.0000 0.0000 1785.0298 -7475.2841 300.9777 -9260.3139 -7507.0430 301.0798 -90.4110 -27.4594 30575.0319 -304.0269 -247.3985
ENERGY: 1500000 8.6071 6.0990 8.8003 0.0000 -10693.5809 1374.3408 0.0000 0.0000 1812.5776 -7483.1561 305.6226 -9295.7337 -7510.2837 299.7551 -894.4473 -879.7293 30816.8726 -303.1608 -249.2336
TCL: Running FEP window  15: Lambda1 0.7000000000000001 Lambda2 0.7500000000000001 [dLambda 0.050000000000000044]
TCL: Setting parameter firsttimestep to 0
TCL: Setting parameter alchLambda to 0.7000000000000001
Info: NONBONDED TABLE R-SQUARED SPACING: 0.0625
Info: NONBONDED TABLE SIZE: 705 POINTS
TCL: Setting parameter alchLambda2 to 0.7500000000000001
Info: NONBONDED TABLE R-SQUARED SPACING: 0.0625
Info: NONBONDED TABLE SIZE: 705 POINTS
TCL: Running for 1500000 steps
ETITLE: TS BOND ANGLE DIHED IMPRP ELECT VDW BOUNDARY MISC KINETIC TOTAL TEMP POTENTIAL TOTALAVG TEMPAVG PRESSURE GPRESSURE VOLUME PRESSAVG GPRESSAVG
ENERGY: 0 8.6071 6.0990 8.8003 0.0000 -10694.1381 1373.6984 0.0000 0.0000 1811.7338 -7485.1994 305.4803 -9296.9333 -7485.1994 305.4803 -943.3935 -875.2357 30816.8726 -943.3935 -875.2357
ENERGY: 300000 7.9143 6.2080 3.0817 0.0000 -10726.9550 1415.0977 0.0000 0.0000 1787.3103 -7507.3431 301.3622 -9294.6534 -7469.9166 303.1489 -599.4470 -477.9559 30623.9609 26.8685 115.8700
ENERGY: 600000 4.0632 4.7670 7.3551 0.0000 -10777.4843 1463.5859 0.0000 0.0000 1743.7446 -7553.9686 294.0165 -9297.7132 -7510.1947 299.8065 168.3243 246.1114 30530.0264 -170.6112 -101.1373
ENERGY: 900000 4.4755 2.8234 8.0705 0.0000 -10831.9587 1459.0780 0.0000 0.0000 1820.3376 -7537.1737 306.9310 -9357.5113 -7515.5116 300.5480 -0.3858 54.6832 30597.3245 -52.3114 9.1071
ENERGY: 1200000 4.9166 7.9025 4.1552 0.0000 -10838.3575 1488.0797 0.0000 0.0000 1836.6456 -7496.6579 309.6807 -9333.3034 -7505.8522 300.6665 -117.2185 -22.4126 30861.4758 -111.4573 -46.3503
ENERGY: 1500000 6.4196 4.1037 6.2225 0.0000 -10646.1891 1320.7392 0.0000 0.0000 1771.5896 -7537.1144 298.7115 -9308.7040 -7503.4403 301.1293 -815.2978 -812.4870 30182.1633 -170.7483 -114.6471
TCL: Running FEP window  16: Lambda1 0.7500000000000001 Lambda2 0.8000000000000002 [dLambda 0.050000000000000044]
TCL: Setting parameter firsttimestep to 0
TCL: Setting parameter alchLambda to 0.7500000000000001
Info: NONBONDED TABLE R-SQUARED SPACING: 0.0625
Info: NONBONDED TABLE SIZE: 705 POINTS
TCL: Setting parameter alchLambda2 to 0.8000000000000002
Info: NONBONDED TABLE R-SQUARED SPACING: 0.0625
Info: NONBONDED TABLE SIZE: 705 POINTS
TCL: Running for 1500000 steps
ETITLE: TS BOND ANGLE DIHED IMPRP ELECT VDW BOUNDARY MISC KINETIC TOTAL TEMP POTENTIAL TOTALAVG TEMPAVG PRESSURE GPRESSURE VOLUME PRESSAVG GPRESSAVG
ENERGY: 0 6.4196 4.1037 6.2225 0.0000 -10646.6103 1320.1471 0.0000 0.0000 1770.7669 -7538.9505 298.5728 -9309.7174 -7538.9505 298.5728 -876.1121 -808.5675 30182.1633 -876.1121 -808.5675
ENERGY: 300000 7.8961 5.5512 4.8072 0.0000 -10807.4345 1415.9891 0.0000 0.0000 1813.7002 -7559.4907 305.8118 -9373.1909 -7554.7522 297.6111 -561.4387 -504.9794 30549.4011 -246.1615 -188.9122
ENERGY: 600000 8.8055 5.0702 5.2712 0.0000 -10840.7742 1478.6506 0.0000 0.0000 1795.0108 -7547.9659 302.6606 -9342.9768 -7532.3072 299.1021 -59.8407 -7.4169 30533.2867 -160.2583 -117.7242
ENERGY: 900000 6.1883 4.9960 7.1114 0.0000 -10713.2300 1418.5445 0.0000 0.0000 1825.0287 -7451.3610 307.7220 -9276.3897 -7511.6035 300.8534 -327.7006 -286.2107 30931.5342 -238.8327 -187.8830
ENERGY: 1200000 7.0317 3.5559 9.2978 0.0000 -10779.3052 1458.5768 0.0000 0.0000 1749.6886 -7551.1545 295.0187 -9300.8430 -7506.1099 301.2369 6.3163 4.9368 30725.5972 -182.7979 -133.9219
ENERGY: 1500000 7.2313 4.6319 5.1027 0.0000 -10722.8883 1414.5155 0.0000 0.0000 1811.2586 -7480.1482 305.4002 -9291.4068 -7502.6927 301.5528 -267.9159 -266.4493 30587.7410 -160.7465 -112.8189
TCL: Running FEP window  17: Lambda1 0.8000000000000002 Lambda2 0.8500000000000002 [dLambda 0.050000000000000044]
TCL: Setting parameter firsttimestep to 0
TCL: Setting parameter alchLambda to 0.8000000000000002
Info: NONBONDED TABLE R-SQUARED SPACING: 0.0625
Info: NONBONDED TABLE SIZE: 705 POINTS
TCL: Setting parameter alchLambda2 to 0.8500000000000002
Info: NONBONDED TABLE R-SQUARED SPACING: 0.0625
Info: NONBONDED TABLE SIZE: 705 POINTS
TCL: Running for 1500000 steps
ETITLE: TS BOND ANGLE DIHED IMPRP ELECT VDW BOUNDARY MISC KINETIC TOTAL TEMP POTENTIAL TOTALAVG TEMPAVG PRESSURE GPRESSURE VOLUME PRESSAVG GPRESSAVG
ENERGY: 0 7.2313 4.6319 5.1027 0.0000 -10723.6785 1414.4279 0.0000 0.0000 1810.3635 -7481.9211 305.2492 -9292.2847 -7481.9211 305.2492 -334.0420 -252.0879 30587.7410 -334.0420 -252.0879
ENERGY: 300000 6.9667 3.4499 4.6981 0.0000 -10830.0939 1505.1674 0.0000 0.0000 1785.5032 -7524.3086 301.0575 -9309.8118 -7520.5322 301.8668 407.5030 448.9117 30421.1667 299.6732 358.9274
ENERGY: 600000 5.2097 4.5685 6.0538 0.0000 -10760.0165 1443.2313 0.0000 0.0000 1714.7491 -7586.2043 289.1275 -9300.9534 -7539.1716 300.4958 -88.0858 45.9627 30663.0579 80.6781 153.9467
ENERGY: 900000 2.4607 3.9467 4.3294 0.0000 -10711.7569 1459.2853 0.0000 0.0000 1840.3783 -7401.3564 310.3101 -9241.7347 -7515.9202 302.1167 329.8447 394.8418 30715.6785 144.2236 217.9466
ENERGY: 1200000 3.6689 5.4965 5.7585 0.0000 -10687.3666 1427.5959 0.0000 0.0000 1802.0767 -7442.7700 303.8520 -9244.8466 -7509.9549 301.6384 119.5782 216.5417 30646.1859 146.3787 221.1307
ENERGY: 1500000 5.5977 5.5671 4.9021 0.0000 -10829.7068 1478.9418 0.0000 0.0000 1772.3525 -7562.3457 298.8401 -9334.6981 -7511.3589 301.4821 102.6737 220.1615 30355.6918 86.6489 162.5348
TCL: Running FEP window  18: Lambda1 0.8500000000000002 Lambda2 0.9000000000000002 [dLambda 0.050000000000000044]
TCL: Setting parameter firsttimestep to 0
TCL: Setting parameter alchLambda to 0.8500000000000002
Info: NONBONDED TABLE R-SQUARED SPACING: 0.0625
Info: NONBONDED TABLE SIZE: 705 POINTS
TCL: Setting parameter alchLambda2 to 0.9000000000000002
Info: NONBONDED TABLE R-SQUARED SPACING: 0.0625
Info: NONBONDED TABLE SIZE: 705 POINTS
TCL: Running for 1500000 steps
ETITLE: TS BOND ANGLE DIHED IMPRP ELECT VDW BOUNDARY MISC KINETIC TOTAL TEMP POTENTIAL TOTALAVG TEMPAVG PRESSURE GPRESSURE VOLUME PRESSAVG GPRESSAVG
ENERGY: 0 5.5977 5.5671 4.9021 0.0000 -10830.3509 1478.5121 0.0000 0.0000 1771.4923 -7564.2795 298.6951 -9335.7719 -7564.2795 298.6951 151.7958 231.8394 30355.6918 151.7958 231.8394
ENERGY: 300000 5.5473 2.5488 3.1691 0.0000 -10800.7870 1447.3541 0.0000 0.0000 1791.0963 -7551.0713 302.0006 -9342.1677 -7541.1435 297.9415 -32.6594 73.2482 30410.2789 -153.9556 -61.9148
ENERGY: 600000 10.6436 3.3236 7.4660 0.0000 -10753.5874 1430.7749 0.0000 0.0000 1737.2428 -7564.1363 292.9202 -9301.3792 -7537.7581 296.9379 -134.9552 -100.8199 30627.0094 -182.9668 -100.2613
ENERGY: 900000 2.4539 6.4577 5.3995 0.0000 -10813.8224 1523.3550 0.0000 0.0000 1756.9457 -7519.2105 296.2424 -9276.1563 -7528.2247 297.8853 1000.2161 1120.0908 30158.3248 64.7421 152.6572
ENERGY: 1200000 6.9377 4.8490 4.2448 0.0000 -10791.7271 1468.3600 0.0000 0.0000 1753.5285 -7553.8072 295.6662 -9307.3356 -7529.1922 298.8090 45.3028 115.4935 30721.1014 170.5548 247.6999
ENERGY: 1500000 4.4110 6.0325 5.9337 0.0000 -10744.7971 1402.4104 0.0000 0.0000 1752.8103 -7573.1991 295.5451 -9326.0094 -7531.6796 298.6808 -177.3441 -104.5576 30277.9699 103.3285 183.5264
TCL: Running FEP window  19: Lambda1 0.9000000000000002 Lambda2 0.9500000000000003 [dLambda 0.050000000000000044]
TCL: Setting parameter firsttimestep to 0
TCL: Setting parameter alchLambda to 0.9000000000000002
Info: NONBONDED TABLE R-SQUARED SPACING: 0.0625
Info: NONBONDED TABLE SIZE: 705 POINTS
TCL: Setting parameter alchLambda2 to 0.9500000000000003
Info: NONBONDED TABLE R-SQUARED SPACING: 0.0625
Info: NONBONDED TABLE SIZE: 705 POINTS
TCL: Running for 1500000 steps
ETITLE: TS BOND ANGLE DIHED IMPRP ELECT VDW BOUNDARY MISC KINETIC TOTAL TEMP POTENTIAL TOTALAVG TEMPAVG PRESSURE GPRESSURE VOLUME PRESSAVG GPRESSAVG
ENERGY: 0 4.4110 6.0325 5.9337 0.0000 -10745.2542 1401.8273 0.0000 0.0000 1751.9286 -7575.1210 295.3964 -9327.0496 -7575.1210 295.3964 -172.9121 -92.3402 30277.9699 -172.9121 -92.3402
ENERGY: 300000 4.9496 3.4093 8.5397 0.0000 -10835.2130 1473.7026 0.0000 0.0000 1822.4733 -7522.1385 307.2911 -9344.6118 -7549.9680 300.0919 167.7741 202.6475 30618.3740 -50.7958 36.2626
ENERGY: 600000 8.9170 3.7513 5.9369 0.0000 -10743.8281 1391.6166 0.0000 0.0000 1867.2120 -7466.3944 314.8346 -9333.6064 -7542.9057 303.1840 -859.5846 -879.2311 31344.2939 4.6627 77.4052
ENERGY: 900000 8.3418 8.2372 5.1218 0.0000 -10775.8667 1433.6230 0.0000 0.0000 1756.9063 -7563.6366 296.2357 -9320.5429 -7543.1602 301.3881 -464.1776 -398.8223 31063.3234 -181.0638 -105.8484
ENERGY: 1200000 3.3007 5.8927 4.0783 0.0000 -10562.4741 1367.5941 0.0000 0.0000 1750.0597 -7431.5487 295.0813 -9181.6084 -7529.2724 299.9921 -358.1147 -268.8985 30759.7786 -86.7202 -22.6083
ENERGY: 1500000 4.9964 5.4689 6.2592 0.0000 -10660.9428 1408.3751 0.0000 0.0000 1839.0894 -7396.7538 310.0928 -9235.8432 -7514.9141 301.2627 -108.3080 -32.3387 30987.0422 -85.0241 -21.0752
TCL: Running FEP window  20: Lambda1 0.9500000000000003 Lambda2 1.0    [dLambda 0.04999999999999971]
TCL: Setting parameter firsttimestep to 0
TCL: Setting parameter alchLambda to 0.9500000000000003
Info: NONBONDED TABLE R-SQUARED SPACING: 0.0625
Info: NONBONDED TABLE SIZE: 705 POINTS
TCL: Setting parameter alchLambda2 to 1.0
Info: NONBONDED TABLE R-SQUARED SPACING: 0.0625
Info: NONBONDED TABLE SIZE: 705 POINTS
TCL: Running for 1500000 steps
ETITLE: TS BOND ANGLE DIHED IMPRP ELECT VDW BOUNDARY MISC KINETIC TOTAL TEMP POTENTIAL TOTALAVG TEMPAVG PRESSURE GPRESSURE VOLUME PRESSAVG GPRESSAVG
ENERGY: 0 4.9964 5.4689 6.2592 0.0000 -10661.2388 1407.4226 0.0000 0.0000 1838.1440 -7398.9478 309.9334 -9237.0918 -7398.9478 309.9334 -107.1429 -28.3662 30987.0422 -107.1429 -28.3662
ENERGY: 300000 5.1727 3.5431 3.1253 0.0000 -10680.2407 1397.6257 0.0000 0.0000 1755.8634 -7514.9106 296.0599 -9270.7740 -7459.1948 300.2937 -618.6394 -554.1116 31021.3819 -430.5013 -341.0519
ENERGY: 600000 4.9789 4.8810 6.5062 0.0000 -10592.8173 1347.1101 0.0000 0.0000 1787.6107 -7441.7304 301.4128 -9229.3411 -7473.7306 300.4030 -487.2646 -426.4944 30745.5829 -424.3235 -350.8676
ENERGY: 900000 3.7391 7.7904 5.8864 0.0000 -10632.5450 1359.8399 0.0000 0.0000 1853.5342 -7401.7551 312.5283 -9255.2893 -7477.0592 301.1517 -515.4177 -464.2165 30718.8636 -447.9321 -372.3724
ENERGY: 1200000 3.1061 7.7619 5.2532 0.0000 -10737.2942 1375.2836 0.0000 0.0000 1817.4729 -7528.4165 306.4480 -9345.8893 -7473.9795 302.0687 -893.9935 -838.8711 31019.0486 -345.0961 -273.1359
ENERGY: 1500000 3.6255 4.3001 7.0857 0.0000 -10823.8617 1487.1492 0.0000 0.0000 1744.3589 -7577.3424 294.1201 -9321.7013 -7484.1821 301.1209 172.2605 239.5851 30763.4866 -291.5952 -225.4831
TCL: Exiting due to exit command.
