Info: SIMULATION PARAMETERS:
Info: TIMESTEP               2
Info: NUMBER OF STEPS        0
Info: STEPS PER CYCLE        10
Info: PERIODIC CELL BASIS 1  31.1356 0 0
Info: PERIODIC CELL BASIS 2  0 30.4895 0
Info: PERIODIC CELL BASIS 3  0 0 32.2152
Info: PERIODIC CELL CENTER   0 0 0
Info: WRAPPING WATERS AROUND PERIODIC BOUNDARIES ON OUTPUT.
Info: WRAPPING ALL CLUSTERS AROUND PERIODIC BOUNDARIES ON OUTPUT.
Info: FIRST LDB TIMESTEP     50
Info: LAST LDB TIMESTEP     -1
Info: HOM BACKGROUND SCALING 1
Info: PME BACKGROUND SCALING 1
Info: MIN ATOMS PER PATCH    40
Info: EMPTY PATCH LOAD       40 ATOMS
Info: VELOCITY FILE          mobley_4291494_equil.vel
Info: CENTER OF MASS MOVING INITIALLY? NO
Info: DIELECTRIC             1
Info: EXCLUDE                SCALED ONE-FOUR
Info: 1-4 ELECTROSTATICS SCALED BY 0.833333
Info: MODIFIED 1-4 VDW PARAMETERS WILL BE USED
Info: DCD FILENAME           mobley_4291494_prod.dcd
Info: DCD FREQUENCY          100000
Info: DCD FIRST STEP         100000
Info: DCD FILE WILL CONTAIN UNIT CELL DATA
Info: XST FILENAME           mobley_4291494_prod.xst
Info: XST FREQUENCY          100000
Info: NO VELOCITY DCD OUTPUT
Info: NO FORCE DCD OUTPUT
Info: OUTPUT FILENAME        mobley_4291494_prod
Info: BINARY OUTPUT FILES WILL BE USED
Info: RESTART FILENAME       mobley_4291494_prod.restart
Info: RESTART FREQUENCY      100000
Info: BINARY RESTART FILES WILL BE USED
Info: CUTOFF                 9
Info: PAIRLIST DISTANCE      11
Info: PAIRLIST SHRINK RATE   0.01
Info: PAIRLIST GROW RATE     0.01
Info: PAIRLIST TRIGGER       0.3
Info: PAIRLISTS PER CYCLE    2
Info: PAIRLISTS ENABLED
Info: MARGIN                 2
Info: HYDROGEN GROUP CUTOFF  2.5
Info: PATCH DIMENSION        15.5
Info: ENERGY OUTPUT STEPS    100000
Info: ENERGY EVALUATION STEPS    100000
Info: OUTPUT ENERGY PRECISION 4
Info: CROSSTERM ENERGY INCLUDED IN DIHEDRAL
Info: TIMING OUTPUT STEPS    1000000
Info: PRESSURE OUTPUT STEPS  100000
Info: ALCHEMICAL FEP ON
Info: FEP CURRENT LAMBDA VALUE     1
Info: FEP COMPARISON LAMBDA VALUE  0.95
Info: FEP INTRA-ALCHEMICAL NON-BONDED INTERACTIONS WILL BE RETAINED
Info: FEP INTRA-ALCHEMICAL BONDED INTERACTIONS WILL BE RETAINED
Info: FEP VDW SHIFTING COEFFICIENT 5
Info: FEP ELEC. ACTIVE FOR ANNIHILATED PARTICLES BETWEEN LAMBDA = 0 AND LAMBDA = 0.5
Info: FEP ELEC. ACTIVE FOR EXNIHILATED PARTICLES BETWEEN LAMBDA = 0.5 AND LAMBDA = 1
Info: FEP VDW ACTIVE FOR ANNIHILATED PARTICLES BETWEEN LAMBDA = 0 AND LAMBDA = 1
Info: FEP VDW ACTIVE FOR EXNIHILATED PARTICLES BETWEEN LAMBDA = 0 AND LAMBDA = 1
Info: FEP BOND ACTIVE FOR ANNIHILATED PARTICLES BETWEEN LAMBDA = 1 AND LAMBDA = 1
Info: FEP BOND ACTIVE FOR EXNIHILATED PARTICLES BETWEEN LAMBDA = 0 AND LAMBDA = 0
Info: LANGEVIN DYNAMICS ACTIVE
Info: LANGEVIN TEMPERATURE   300
Info: LANGEVIN USING BBK INTEGRATOR
Info: LANGEVIN DAMPING COEFFICIENT IS 1 INVERSE PS
Info: LANGEVIN DYNAMICS APPLIED TO HYDROGENS
Info: LANGEVIN PISTON PRESSURE CONTROL ACTIVE
Info:        TARGET PRESSURE IS 1.01325 BAR
Info:     OSCILLATION PERIOD IS 50 FS
Info:             DECAY TIME IS 25 FS
Info:     PISTON TEMPERATURE IS 300 K
Info:       PRESSURE CONTROL IS GROUP-BASED
Info:    INITIAL STRAIN RATE IS -0.000415968 -0.000415968 -0.000415968
Info:       CELL FLUCTUATION IS ISOTROPIC
Info: PARTICLE MESH EWALD (PME) ACTIVE
Info: PME TOLERANCE               1e-06
Info: PME EWALD COEFFICIENT       0.348832
Info: PME INTERPOLATION ORDER     4
Info: PME GRID DIMENSIONS         32 32 36
Info: PME MAXIMUM GRID SPACING    1
Info: PME CALCULATION WILL BE PERFORMED ON GPU
Info: FULL ELECTROSTATIC EVALUATION FREQUENCY      2
Info: USING VERLET I (r-RESPA) MTS SCHEME.
Info: C1 SPLITTING OF LONG RANGE ELECTROSTATICS
Info: PLACING ATOMS IN PATCHES BY HYDROGEN GROUPS
Info: RIGID BONDS TO HYDROGEN : ALL
Info:         ERROR TOLERANCE : 1e-08
Info:          MAX ITERATIONS : 100
Info: RIGID WATER USING SETTLE ALGORITHM
Info: RANDOM NUMBER SEED     1743530305
Info: USE HYDROGEN BONDS?    NO
Info: Using AMBER format force field!
Info: AMBER PARM FILE        mobley_4291494.prmtop
Info: COORDINATE PDB         mobley_4291494.pdb
Info: Exclusions will be read from PARM file!
Info: SCNB (VDW SCALING)     2
Info: USING ARITHMETIC MEAN TO COMBINE L-J SIGMA PARAMETERS
Info: BINARY COORDINATES     mobley_4291494_equil.coor
Info: SUMMARY OF PARAMETERS:
Info: 7 BONDS
Info: 8 ANGLES
Info:   8 HARMONIC
Info:   0 COSINE-BASED
Info: 3 DIHEDRAL
Info: 0 IMPROPER
Info: 0 CROSSTERM
Info: 0 VDW
Info: 28 VDW_PAIRS
Info: 0 NBTHOLE_PAIRS
Info: To read alchdata from file: mobley_4291494.pdb
Info: To read alchflag data from column: 5
Info: STRUCTURE SUMMARY:
Info: 2960 ATOMS
Info: 2960 BONDS
Info: 16 ANGLES
Info: 25 DIHEDRALS
Info: 0 IMPROPERS
Info: 0 CROSSTERMS
Info: 2993 EXCLUSIONS
Info: 2953 RIGID BONDS
Info: ALCH: 0 ATOMS TO DISAPPEAR IN FINAL STATE
Info: ALCH: 11 ATOMS TO APPEAR IN FINAL STATE
Info: 5927 DEGREES OF FREEDOM
Info: 990 HYDROGEN GROUPS
Info: 3 ATOMS IN LARGEST HYDROGEN GROUP
Info: 990 MIGRATION GROUPS
Info: 3 ATOMS IN LARGEST MIGRATION GROUP
Info: TOTAL MASS = 17823.3 amu
Info: TOTAL CHARGE = 9.99942e-05 e
Info: MASS DENSITY = 0.967782 g/cm^3
Info: ATOM DENSITY = 0.0967883 atoms/A^3
Info: ADDED 0 IMPLICIT EXCLUSIONS
Info: NONBONDED TABLE R-SQUARED SPACING: 0.0625
Info: NONBONDED TABLE SIZE: 705 POINTS
Info: REMOVING COM VELOCITY -0.00610557 0.00451697 -0.11845
Info: Use 3D box decompostion in PME FFT.
Info: Updated CUDA force table with 4096 elements.
Info: Updated CUDA LJ table with 7 x 7 elements.
Info: Found 13 unique exclusion lists needing 24 bytes
TCL: Running for 1500000 steps
ETITLE: TS BOND ANGLE DIHED IMPRP ELECT VDW BOUNDARY MISC KINETIC TOTAL TEMP POTENTIAL TOTALAVG TEMPAVG PRESSURE GPRESSURE VOLUME PRESSAVG GPRESSAVG
ENERGY: 0 2.7232 2.6224 0.8268 0.0000 -10750.0354 1454.6851 0.0000 0.0000 1809.8108 -7479.3670 307.3185 -9289.1779 -7479.3670 307.3185 40.3495 118.4357 30582.2230 40.3495 118.4357
ENERGY: 300000 2.5354 5.1030 1.9242 0.0000 -10834.9657 1510.8730 0.0000 0.0000 1772.1572 -7542.3729 300.9246 -9314.5301 -7530.9772 301.6164 518.4619 595.8860 30458.3418 198.9957 242.4415
ENERGY: 600000 1.7169 1.5386 2.7655 0.0000 -10772.0815 1413.0584 0.0000 0.0000 1803.5791 -7549.4230 306.2603 -9353.0021 -7560.5484 300.0920 -97.8524 -33.7203 30355.0774 218.5955 276.0482
ENERGY: 900000 2.1150 5.3593 0.6210 0.0000 -10856.6609 1428.3067 0.0000 0.0000 1830.2563 -7590.0026 310.7902 -9420.2589 -7555.3921 301.8169 -317.7219 -297.8748 30555.5357 50.9615 108.2835
ENERGY: 1200000 1.8826 3.9021 0.8763 0.0000 -10815.9565 1480.0668 0.0000 0.0000 1808.4171 -7520.8115 307.0818 -9329.2286 -7555.6848 302.4724 193.4150 256.9903 30660.5631 15.3003 73.8959
ENERGY: 1500000 1.5831 3.3466 3.6237 0.0000 -10637.9224 1386.1858 0.0000 0.0000 1786.7822 -7456.4010 303.4080 -9243.1832 -7547.1943 301.7529 -386.6471 -308.8035 30793.8951 -24.5670 37.2509
TCL: Running FEP window   2: Lambda1 0.95   Lambda2 0.8999999999999999 [dLambda -0.050000000000000044]
TCL: Setting parameter firsttimestep to 0
TCL: Setting parameter alchLambda to 0.95
Info: NONBONDED TABLE R-SQUARED SPACING: 0.0625
Info: NONBONDED TABLE SIZE: 705 POINTS
TCL: Setting parameter alchLambda2 to 0.8999999999999999
Info: NONBONDED TABLE R-SQUARED SPACING: 0.0625
Info: NONBONDED TABLE SIZE: 705 POINTS
TCL: Running for 1500000 steps
ETITLE: TS BOND ANGLE DIHED IMPRP ELECT VDW BOUNDARY MISC KINETIC TOTAL TEMP POTENTIAL TOTALAVG TEMPAVG PRESSURE GPRESSURE VOLUME PRESSAVG GPRESSAVG
ENERGY: 0 1.5831 3.3466 3.6237 0.0000 -10637.0052 1386.3855 0.0000 0.0000 1785.9180 -7456.1483 303.2613 -9242.0664 -7456.1483 303.2613 -395.6702 -313.6833 30793.8951 -395.6702 -313.6833
ENERGY: 300000 2.0721 2.5043 4.9964 0.0000 -10773.1394 1462.8670 0.0000 0.0000 1783.6704 -7517.0292 302.8796 -9300.6995 -7496.8921 301.6783 287.5972 362.4533 30491.3687 -157.0320 -81.4205
ENERGY: 600000 2.4927 0.8404 2.8648 0.0000 -10824.0772 1511.4281 0.0000 0.0000 1702.0572 -7604.3939 289.0211 -9306.4511 -7512.5729 300.7168 785.0292 741.8749 30250.2283 231.7043 281.6992
ENERGY: 900000 2.5326 2.4154 0.7722 0.0000 -10769.9472 1457.6377 0.0000 0.0000 1776.1346 -7530.4547 301.6000 -9306.5892 -7520.1972 300.8122 468.6491 536.2476 30066.8238 122.4720 167.3191
ENERGY: 1200000 3.7395 4.1034 2.5284 0.0000 -10748.9251 1462.5432 0.0000 0.0000 1825.9256 -7450.0850 310.0549 -9276.0106 -7524.0830 300.4812 -23.4646 40.6239 31019.2203 60.1933 104.2076
ENERGY: 1500000 2.7632 3.8843 2.3898 0.0000 -10830.3011 1472.6719 0.0000 0.0000 1803.8539 -7544.7379 306.3069 -9348.5918 -7531.9746 300.9682 -80.4633 -21.0022 30543.4538 63.5504 112.1616
TCL: Running FEP window   3: Lambda1 0.8999999999999999 Lambda2 0.8499999999999999 [dLambda -0.050000000000000044]
TCL: Setting parameter firsttimestep to 0
TCL: Setting parameter alchLambda to 0.8999999999999999
Info: NONBONDED TABLE R-SQUARED SPACING: 0.0625
Info: NONBONDED TABLE SIZE: 705 POINTS
TCL: Setting parameter alchLambda2 to 0.8499999999999999
Info: NONBONDED TABLE R-SQUARED SPACING: 0.0625
Info: NONBONDED TABLE SIZE: 705 POINTS
TCL: Running for 1500000 steps
ETITLE: TS BOND ANGLE DIHED IMPRP ELECT VDW BOUNDARY MISC KINETIC TOTAL TEMP POTENTIAL TOTALAVG TEMPAVG PRESSURE GPRESSURE VOLUME PRESSAVG GPRESSAVG
ENERGY: 0 2.7632 3.8843 2.3898 0.0000 -10829.0536 1472.7484 0.0000 0.0000 1802.9876 -7544.2802 306.1598 -9347.2679 -7544.2802 306.1598 -104.2538 -27.5927 30543.4538 -104.2538 -27.5927
ENERGY: 300000 1.8827 2.8076 1.9692 0.0000 -10637.0844 1332.1524 0.0000 0.0000 1739.7825 -7558.4902 295.4272 -9298.2727 -7522.1472 300.3445 -1001.3556 -912.4691 30493.6625 -587.7722 -533.2007
ENERGY: 600000 0.6366 1.6840 4.4969 0.0000 -10733.1803 1393.5662 0.0000 0.0000 1779.9400 -7552.8565 302.2462 -9332.7966 -7535.3064 300.6479 -455.3837 -413.5408 30710.0939 -369.4379 -314.9095
ENERGY: 900000 3.2158 1.5935 3.1820 0.0000 -10795.5543 1503.3096 0.0000 0.0000 1711.2561 -7572.9973 290.5832 -9284.2534 -7550.3806 298.3510 719.7647 774.2709 30224.1862 -318.3381 -270.9604
ENERGY: 1200000 0.6224 2.3976 1.8977 0.0000 -10832.5862 1460.9785 0.0000 0.0000 1794.7063 -7571.9837 304.7536 -9366.6900 -7545.2679 299.2603 -132.9165 -91.6580 30777.2401 -268.8474 -220.9157
ENERGY: 1500000 3.9611 2.4245 0.7707 0.0000 -10637.9322 1385.1374 0.0000 0.0000 1746.3662 -7499.2723 296.5451 -9245.6385 -7546.1890 298.5942 -312.5928 -287.7984 30623.6775 -251.6739 -203.3075
TCL: Running FEP window   4: Lambda1 0.8499999999999999 Lambda2 0.7999999999999998 [dLambda -0.050000000000000044]
TCL: Setting parameter firsttimestep to 0
TCL: Setting parameter alchLambda to 0.8499999999999999
Info: NONBONDED TABLE R-SQUARED SPACING: 0.0625
Info: NONBONDED TABLE SIZE: 705 POINTS
TCL: Setting parameter alchLambda2 to 0.7999999999999998
Info: NONBONDED TABLE R-SQUARED SPACING: 0.0625
Info: NONBONDED TABLE SIZE: 705 POINTS
TCL: Running for 1500000 steps
ETITLE: TS BOND ANGLE DIHED IMPRP ELECT VDW BOUNDARY MISC KINETIC TOTAL TEMP POTENTIAL TOTALAVG TEMPAVG PRESSURE GPRESSURE VOLUME PRESSAVG GPRESSAVG
ENERGY: 0 3.9611 2.4245 0.7707 0.0000 -10637.0325 1383.7214 0.0000 0.0000 1745.4595 -7500.6952 296.3912 -9246.1547 -7500.6952 296.3912 -398.8961 -313.9644 30623.6775 -398.8961 -313.9644
ENERGY: 300000 3.8886 2.9534 1.0278 0.0000 -10699.1827 1358.9948 0.0000 0.0000 1776.5791 -7555.7389 301.6755 -9332.3181 -7564.3804 299.3027 -510.0791 -483.4148 30279.1958 -402.8259 -325.0565
ENERGY: 600000 1.5187 1.6660 4.0860 0.0000 -10763.3565 1421.7509 0.0000 0.0000 1806.3859 -7527.9489 306.7369 -9334.3349 -7547.3860 300.2518 -259.5435 -198.3772 30417.8796 -333.5259 -263.4262
ENERGY: 900000 2.1966 1.6729 5.9356 0.0000 -10656.4160 1392.5834 0.0000 0.0000 1774.1420 -7479.8856 301.2616 -9254.0276 -7527.3523 300.6268 -496.6517 -423.6587 30952.5582 -213.3707 -145.8004
ENERGY: 1200000 2.9242 3.6071 2.4926 0.0000 -10750.2011 1436.9577 0.0000 0.0000 1796.2134 -7508.0062 305.0095 -9304.2196 -7531.4976 300.6417 -69.2123 14.8137 30489.0225 -205.5152 -133.9031
ENERGY: 1500000 0.8057 1.2049 4.0058 0.0000 -10880.5194 1508.6986 0.0000 0.0000 1784.6631 -7581.1413 303.0482 -9365.8044 -7538.2714 300.7883 507.9054 630.7878 29993.2461 -162.7329 -89.9928
TCL: Running FEP window   5: Lambda1 0.7999999999999998 Lambda2 0.7499999999999998 [dLambda -0.050000000000000044]
TCL: Setting parameter firsttimestep to 0
TCL: Setting parameter alchLambda to 0.7999999999999998
Info: NONBONDED TABLE R-SQUARED SPACING: 0.0625
Info: NONBONDED TABLE SIZE: 705 POINTS
TCL: Setting parameter alchLambda2 to 0.7499999999999998
Info: NONBONDED TABLE R-SQUARED SPACING: 0.0625
Info: NONBONDED TABLE SIZE: 705 POINTS
TCL: Running for 1500000 steps
ETITLE: TS BOND ANGLE DIHED IMPRP ELECT VDW BOUNDARY MISC KINETIC TOTAL TEMP POTENTIAL TOTALAVG TEMPAVG PRESSURE GPRESSURE VOLUME PRESSAVG GPRESSAVG
ENERGY: 0 0.8057 1.2049 4.0058 0.0000 -10879.5351 1508.9124 0.0000 0.0000 1783.7975 -7580.8088 302.9012 -9364.6062 -7580.8088 302.9012 540.6357 629.4891 29993.2461 540.6357 629.4891
ENERGY: 300000 1.5609 3.7291 6.3714 0.0000 -10688.3473 1379.6873 0.0000 0.0000 1767.8941 -7529.1046 300.2007 -9296.9987 -7562.3904 298.7481 -263.1950 -276.6980 30340.0779 329.3705 373.3401
ENERGY: 600000 3.3630 1.2976 2.9771 0.0000 -10862.4823 1462.8648 0.0000 0.0000 1797.6589 -7594.3208 305.2550 -9391.9798 -7547.6142 299.0839 -375.2990 -258.3316 30625.3898 80.7442 135.0204
ENERGY: 900000 2.8755 2.6485 4.5356 0.0000 -10783.0037 1430.5083 0.0000 0.0000 1842.3544 -7500.0814 312.8446 -9342.4358 -7557.6488 299.1873 68.9489 153.3355 30181.3990 24.7085 79.3812
ENERGY: 1200000 1.5536 2.7989 3.0551 0.0000 -10733.9045 1377.1839 0.0000 0.0000 1760.8543 -7588.4587 299.0053 -9349.3130 -7552.9299 299.7089 -512.3446 -437.8301 30258.3950 -111.8959 -47.4903
ENERGY: 1500000 1.0525 2.1448 2.3676 0.0000 -10816.9184 1439.6339 0.0000 0.0000 1766.2383 -7605.4812 299.9195 -9371.7195 -7558.1385 299.7213 -334.7341 -261.8152 30544.4345 -70.2235 -4.3132
TCL: Running FEP window   6: Lambda1 0.7499999999999998 Lambda2 0.6999999999999997 [dLambda -0.050000000000000044]
TCL: Setting parameter firsttimestep to 0
TCL: Setting parameter alchLambda to 0.7499999999999998
Info: NONBONDED TABLE R-SQUARED SPACING: 0.0625
Info: NONBONDED TABLE SIZE: 705 POINTS
TCL: Setting parameter alchLambda2 to 0.6999999999999997
Info: NONBONDED TABLE R-SQUARED SPACING: 0.0625
Info: NONBONDED TABLE SIZE: 705 POINTS
TCL: Running for 1500000 steps
ETITLE: TS BOND ANGLE DIHED IMPRP ELECT VDW BOUNDARY MISC KINETIC TOTAL TEMP POTENTIAL TOTALAVG TEMPAVG PRESSURE GPRESSURE VOLUME PRESSAVG GPRESSAVG
ENERGY: 0 1.0525 2.1448 2.3676 0.0000 -10815.6453 1439.7633 0.0000 0.0000 1765.3598 -7604.9572 299.7704 -9370.3170 -7604.9572 299.7704 -344.9459 -266.0443 30544.4345 -344.9459 -266.0443
ENERGY: 300000 1.4766 0.7151 1.4237 0.0000 -10763.9551 1445.4991 0.0000 0.0000 1784.2994 -7530.5412 302.9864 -9314.8406 -7557.7467 298.3158 65.9128 57.0658 30648.9648 34.6625 77.3222
ENERGY: 600000 2.3375 1.5375 1.6580 0.0000 -10673.0561 1373.0108 0.0000 0.0000 1749.4352 -7545.0771 297.0662 -9294.5123 -7545.1166 299.0277 -535.8401 -458.8759 30380.5702 -4.7714 47.6142
ENERGY: 900000 0.8921 2.2330 2.2420 0.0000 -10831.3399 1540.6477 0.0000 0.0000 1783.1362 -7502.1889 302.7889 -9285.3250 -7548.2085 299.7922 847.9497 842.4872 30761.9560 -23.1341 25.8720
ENERGY: 1200000 2.7005 2.3583 1.5446 0.0000 -10686.4999 1385.2349 0.0000 0.0000 1760.8144 -7533.8472 298.9985 -9294.6616 -7536.1444 300.2086 -391.5789 -358.2697 30722.2555 -87.8829 -45.5604
ENERGY: 1500000 3.5264 2.4494 1.5811 0.0000 -10840.3650 1511.7410 0.0000 0.0000 1858.1737 -7462.8933 315.5308 -9321.0670 -7529.8285 301.5127 641.4338 760.8772 30176.0847 -67.2046 -17.9723
TCL: Running FEP window   7: Lambda1 0.6999999999999997 Lambda2 0.6499999999999997 [dLambda -0.050000000000000044]
TCL: Setting parameter firsttimestep to 0
TCL: Setting parameter alchLambda to 0.6999999999999997
Info: NONBONDED TABLE R-SQUARED SPACING: 0.0625
Info: NONBONDED TABLE SIZE: 705 POINTS
TCL: Setting parameter alchLambda2 to 0.6499999999999997
Info: NONBONDED TABLE R-SQUARED SPACING: 0.0625
Info: NONBONDED TABLE SIZE: 705 POINTS
TCL: Running for 1500000 steps
ETITLE: TS BOND ANGLE DIHED IMPRP ELECT VDW BOUNDARY MISC KINETIC TOTAL TEMP POTENTIAL TOTALAVG TEMPAVG PRESSURE GPRESSURE VOLUME PRESSAVG GPRESSAVG
ENERGY: 0 3.5264 2.4494 1.5811 0.0000 -10839.4985 1511.5519 0.0000 0.0000 1857.2607 -7463.1290 315.3758 -9320.3897 -7463.1290 315.3758 657.6747 753.4412 30176.0847 657.6747 753.4412
ENERGY: 300000 1.8383 1.1000 1.3454 0.0000 -10679.2243 1409.7552 0.0000 0.0000 1769.3594 -7495.8259 300.4495 -9265.1853 -7492.9676 306.6403 -85.5814 -28.1429 30473.9555 133.4719 169.6075
ENERGY: 600000 0.9062 3.0748 1.8573 0.0000 -10877.7039 1569.3567 0.0000 0.0000 1741.1087 -7561.4003 295.6524 -9302.5090 -7497.0648 304.4552 1266.5464 1300.3360 29953.5644 72.0462 115.5589
ENERGY: 900000 3.1373 3.1373 1.4345 0.0000 -10714.0510 1438.7876 0.0000 0.0000 1740.4872 -7527.0670 295.5468 -9267.5543 -7513.5334 302.3571 166.2574 244.5173 30179.6199 20.0281 75.2341
ENERGY: 1200000 2.0180 4.0883 0.5062 0.0000 -10563.2354 1330.7067 0.0000 0.0000 1747.4922 -7478.4239 296.7363 -9225.9161 -7511.9958 301.9909 -810.5449 -767.1935 30694.1102 -16.0525 39.9898
ENERGY: 1500000 2.9261 1.1506 2.7612 0.0000 -10905.2623 1536.6422 0.0000 0.0000 1737.8473 -7623.9348 295.0986 -9361.7821 -7523.8073 301.3369 442.0998 507.8863 30453.2581 98.9870 155.5601
TCL: Running FEP window   8: Lambda1 0.6499999999999997 Lambda2 0.5999999999999996 [dLambda -0.050000000000000044]
TCL: Setting parameter firsttimestep to 0
TCL: Setting parameter alchLambda to 0.6499999999999997
Info: NONBONDED TABLE R-SQUARED SPACING: 0.0625
Info: NONBONDED TABLE SIZE: 705 POINTS
TCL: Setting parameter alchLambda2 to 0.5999999999999996
Info: NONBONDED TABLE R-SQUARED SPACING: 0.0625
Info: NONBONDED TABLE SIZE: 705 POINTS
TCL: Running for 1500000 steps
ETITLE: TS BOND ANGLE DIHED IMPRP ELECT VDW BOUNDARY MISC KINETIC TOTAL TEMP POTENTIAL TOTALAVG TEMPAVG PRESSURE GPRESSURE VOLUME PRESSAVG GPRESSAVG
ENERGY: 0 2.9261 1.1506 2.7612 0.0000 -10904.7399 1537.2378 0.0000 0.0000 1736.9682 -7623.6960 294.9493 -9360.6643 -7623.6960 294.9493 422.7842 507.7872 30453.2581 422.7842 507.7872
ENERGY: 300000 1.5220 2.9491 5.5757 0.0000 -10755.0554 1450.3260 0.0000 0.0000 1747.6622 -7547.0203 296.7652 -9294.6826 -7552.1978 299.7874 136.7006 216.0240 30177.0655 74.3989 150.5035
ENERGY: 600000 2.7059 3.7011 2.5056 0.0000 -10811.4595 1511.3243 0.0000 0.0000 1729.9166 -7561.3060 293.7519 -9291.2226 -7531.4111 299.9538 396.2574 494.7689 30462.5962 65.4481 133.5318
ENERGY: 900000 1.5702 3.1208 3.2899 0.0000 -10792.6320 1504.5298 0.0000 0.0000 1797.0960 -7483.0254 305.1594 -9280.1213 -7518.8381 301.2746 597.7037 673.1629 30464.2416 -10.8446 53.7340
ENERGY: 1200000 0.8186 3.3694 1.2436 0.0000 -10610.8289 1409.2455 0.0000 0.0000 1766.7522 -7429.3997 300.0068 -9196.1519 -7501.1483 301.5880 -270.2901 -209.3447 31292.8372 -33.1376 26.8450
ENERGY: 1500000 0.9972 3.4885 2.6436 0.0000 -10694.1201 1449.7042 0.0000 0.0000 1728.0652 -7509.2213 293.4375 -9237.2865 -7510.5751 301.0985 122.7730 195.6556 30640.5848 -29.8423 32.9529
TCL: Running FEP window   9: Lambda1 0.5999999999999996 Lambda2 0.5499999999999996 [dLambda -0.050000000000000044]
TCL: Setting parameter firsttimestep to 0
TCL: Setting parameter alchLambda to 0.5999999999999996
Info: NONBONDED TABLE R-SQUARED SPACING: 0.0625
Info: NONBONDED TABLE SIZE: 705 POINTS
TCL: Setting parameter alchLambda2 to 0.5499999999999996
Info: NONBONDED TABLE R-SQUARED SPACING: 0.0625
Info: NONBONDED TABLE SIZE: 705 POINTS
TCL: Running for 1500000 steps
ETITLE: TS BOND ANGLE DIHED IMPRP ELECT VDW BOUNDARY MISC KINETIC TOTAL TEMP POTENTIAL TOTALAVG TEMPAVG PRESSURE GPRESSURE VOLUME PRESSAVG GPRESSAVG
ENERGY: 0 0.9972 3.4885 2.6436 0.0000 -10693.7524 1450.1168 0.0000 0.0000 1727.2007 -7509.3055 293.2907 -9236.5062 -7509.3055 293.2907 111.9215 192.6061 30640.5848 111.9215 192.6061
ENERGY: 300000 1.2450 2.0748 2.9524 0.0000 -10675.3225 1397.3700 0.0000 0.0000 1787.9627 -7483.7175 303.6085 -9271.6802 -7526.2187 300.0346 -113.4291 -33.6709 30379.8924 175.1498 252.8615
ENERGY: 600000 1.1851 2.3035 2.4436 0.0000 -10808.1101 1469.1377 0.0000 0.0000 1788.5426 -7544.4977 303.7070 -9333.0403 -7539.9944 299.7749 64.7377 150.8904 30570.1172 35.6332 126.0815
ENERGY: 900000 3.0164 1.9751 1.6998 0.0000 -10738.5051 1432.9549 0.0000 0.0000 1723.1714 -7575.6874 292.6065 -9298.8588 -7538.4993 298.3453 -320.2369 -255.0250 30565.2975 -67.5464 15.0964
ENERGY: 1200000 0.3998 2.2825 1.4225 0.0000 -10719.3315 1466.0250 0.0000 0.0000 1784.1074 -7465.0942 302.9538 -9249.2016 -7529.9074 298.5224 48.8275 75.4818 31192.9414 -146.4453 -69.5792
ENERGY: 1500000 1.5394 3.2465 2.9013 0.0000 -10717.1851 1407.6375 0.0000 0.0000 1830.1967 -7471.6637 310.7801 -9301.8604 -7529.4703 299.4898 -419.9529 -351.6592 30513.2929 -133.3567 -61.8612
TCL: Running FEP window  10: Lambda1 0.5499999999999996 Lambda2 0.4999999999999996 [dLambda -0.04999999999999999]
TCL: Setting parameter firsttimestep to 0
TCL: Setting parameter alchLambda to 0.5499999999999996
Info: NONBONDED TABLE R-SQUARED SPACING: 0.0625
Info: NONBONDED TABLE SIZE: 705 POINTS
TCL: Setting parameter alchLambda2 to 0.4999999999999996
Info: NONBONDED TABLE R-SQUARED SPACING: 0.0625
Info: NONBONDED TABLE SIZE: 705 POINTS
TCL: Running for 1500000 steps
ETITLE: TS BOND ANGLE DIHED IMPRP ELECT VDW BOUNDARY MISC KINETIC TOTAL TEMP POTENTIAL TOTALAVG TEMPAVG PRESSURE GPRESSURE VOLUME PRESSAVG GPRESSAVG
ENERGY: 0 1.5394 3.2465 2.9013 0.0000 -10716.6398 1407.7156 0.0000 0.0000 1829.3252 -7471.9116 310.6321 -9301.2368 -7471.9116 310.6321 -438.2323 -355.4786 30513.2929 -438.2323 -355.4786
ENERGY: 300000 2.2379 5.1975 2.1964 0.0000 -10772.2000 1434.3036 0.0000 0.0000 1786.8103 -7541.4544 303.4128 -9328.2647 -7486.2069 307.3863 -4.7603 51.1639 30165.4761 31.1766 89.0825
ENERGY: 600000 1.6906 3.1750 3.3387 0.0000 -10621.0405 1340.3513 0.0000 0.0000 1794.3240 -7478.1608 304.6887 -9272.4849 -7514.0511 303.3621 -696.1015 -646.2765 30540.0693 -249.8456 -187.1608
ENERGY: 900000 2.3706 2.2251 3.2269 0.0000 -10790.1599 1444.3809 0.0000 0.0000 1817.0367 -7520.9197 308.5455 -9337.9564 -7519.8069 301.8142 98.5735 119.8195 30120.8901 -225.2291 -157.6416
ENERGY: 1200000 1.8616 1.0510 1.9554 0.0000 -10800.6071 1486.8220 0.0000 0.0000 1798.8463 -7510.0707 305.4566 -9308.9170 -7515.9643 301.8961 14.0030 92.1833 30983.6939 -224.9338 -163.5384
ENERGY: 1500000 2.1843 3.1790 0.8646 0.0000 -10829.5011 1524.8179 0.0000 0.0000 1712.3103 -7586.1451 290.7622 -9298.4553 -7524.6745 300.4199 642.3746 632.2339 30352.5866 -147.9447 -92.4179
TCL: Running FEP window  11: Lambda1 0.4999999999999996 Lambda2 0.4499999999999996 [dLambda -0.04999999999999999]
TCL: Setting parameter firsttimestep to 0
TCL: Setting parameter alchLambda to 0.4999999999999996
Info: NONBONDED TABLE R-SQUARED SPACING: 0.0625
Info: NONBONDED TABLE SIZE: 705 POINTS
TCL: Setting parameter alchLambda2 to 0.4499999999999996
Info: NONBONDED TABLE R-SQUARED SPACING: 0.0625
Info: NONBONDED TABLE SIZE: 705 POINTS
TCL: Running for 1500000 steps
ETITLE: TS BOND ANGLE DIHED IMPRP ELECT VDW BOUNDARY MISC KINETIC TOTAL TEMP POTENTIAL TOTALAVG TEMPAVG PRESSURE GPRESSURE VOLUME PRESSAVG GPRESSAVG
ENERGY: 0 2.1843 3.1790 0.8646 0.0000 -10829.4332 1524.9059 0.0000 0.0000 1711.4098 -7586.8896 290.6093 -9298.2994 -7586.8896 290.6093 545.0585 625.4245 30352.5866 545.0585 625.4245
ENERGY: 300000 1.6715 1.3351 0.5637 0.0000 -10752.0775 1435.8614 0.0000 0.0000 1750.6245 -7562.0213 297.2682 -9312.6458 -7570.5916 294.4801 -294.6292 -196.0412 30403.9629 111.4684 173.8747
ENERGY: 600000 1.3590 3.1690 4.3887 0.0000 -10774.7791 1496.9511 0.0000 0.0000 1723.5657 -7545.3455 292.6734 -9268.9112 -7548.0192 296.5006 418.9082 496.2759 30482.0864 58.6524 120.8481
ENERGY: 900000 1.2309 1.6141 1.7679 0.0000 -10858.3051 1442.2425 0.0000 0.0000 1767.8000 -7643.6497 300.1847 -9411.4497 -7552.9263 299.0776 -263.1456 -180.3092 30369.3951 0.2591 69.2072
ENERGY: 1200000 1.3586 1.5857 3.6944 0.0000 -10745.5628 1515.0501 0.0000 0.0000 1787.8039 -7436.0702 303.5815 -9223.8741 -7542.0978 298.8770 1010.0257 1039.1532 30270.5278 2.0753 62.3971
ENERGY: 1500000 4.4379 1.1295 2.7674 0.0000 -10585.6606 1373.8678 0.0000 0.0000 1800.3050 -7403.1530 305.7043 -9203.4580 -7531.9572 299.7492 -307.9987 -317.9099 30772.2866 -43.5983 14.7887
TCL: Running FEP window  12: Lambda1 0.4499999999999996 Lambda2 0.39999999999999963 [dLambda -0.04999999999999999]
TCL: Setting parameter firsttimestep to 0
TCL: Setting parameter alchLambda to 0.4499999999999996
Info: NONBONDED TABLE R-SQUARED SPACING: 0.0625
Info: NONBONDED TABLE SIZE: 705 POINTS
TCL: Setting parameter alchLambda2 to 0.39999999999999963
Info: NONBONDED TABLE R-SQUARED SPACING: 0.0625
Info: NONBONDED TABLE SIZE: 705 POINTS
TCL: Running for 1500000 steps
ETITLE: TS BOND ANGLE DIHED IMPRP ELECT VDW BOUNDARY MISC KINETIC TOTAL TEMP POTENTIAL TOTALAVG TEMPAVG PRESSURE GPRESSURE VOLUME PRESSAVG GPRESSAVG
ENERGY: 0 4.4379 1.1295 2.7674 0.0000 -10585.6618 1373.1988 0.0000 0.0000 1799.4448 -7404.6834 305.5582 -9204.1282 -7404.6834 305.5582 -419.2581 -330.2921 30772.2866 -419.2581 -330.2921
ENERGY: 300000 1.7519 6.1639 2.5218 0.0000 -10758.5025 1437.6804 0.0000 0.0000 1736.5884 -7573.7961 294.8848 -9310.3846 -7495.1912 300.3774 -40.2317 -11.4911 30367.9889 -406.7920 -334.4236
ENERGY: 600000 1.9152 3.8297 3.3066 0.0000 -10737.6955 1478.6975 0.0000 0.0000 1732.9413 -7517.0051 294.2655 -9249.9465 -7499.5583 299.1143 99.2417 199.3719 30837.1305 -340.6997 -257.5677
ENERGY: 900000 0.8247 2.5676 2.9209 0.0000 -10791.5403 1468.7023 0.0000 0.0000 1766.1837 -7550.3412 299.9103 -9316.5250 -7521.8694 299.3632 150.5319 220.2549 30303.3293 -180.3482 -110.9366
ENERGY: 1200000 1.4247 2.4779 2.0248 0.0000 -10730.1903 1450.9452 0.0000 0.0000 1785.7941 -7487.5236 303.2403 -9273.3177 -7526.6058 300.2456 83.6336 166.5039 30404.0111 -107.7529 -45.1249
ENERGY: 1500000 1.9527 2.0492 1.9986 0.0000 -10794.6768 1527.9918 0.0000 0.0000 1783.4596 -7477.2250 302.8438 -9260.6846 -7523.8392 300.7376 884.4015 955.4811 30112.3642 -54.0891 8.5818
TCL: Running FEP window  13: Lambda1 0.39999999999999963 Lambda2 0.34999999999999964 [dLambda -0.04999999999999999]
TCL: Setting parameter firsttimestep to 0
TCL: Setting parameter alchLambda to 0.39999999999999963
Info: NONBONDED TABLE R-SQUARED SPACING: 0.0625
Info: NONBONDED TABLE SIZE: 705 POINTS
TCL: Setting parameter alchLambda2 to 0.34999999999999964
Info: NONBONDED TABLE R-SQUARED SPACING: 0.0625
Info: NONBONDED TABLE SIZE: 705 POINTS
TCL: Running for 1500000 steps
ETITLE: TS BOND ANGLE DIHED IMPRP ELECT VDW BOUNDARY MISC KINETIC TOTAL TEMP POTENTIAL TOTALAVG TEMPAVG PRESSURE GPRESSURE VOLUME PRESSAVG GPRESSAVG
ENERGY: 0 1.9527 2.0492 1.9986 0.0000 -10794.6769 1528.5251 0.0000 0.0000 1782.5223 -7477.6291 302.6847 -9260.1513 -7477.6291 302.6847 867.5960 954.8809 30112.3642 867.5960 954.8809
ENERGY: 300000 1.4189 2.5759 2.5434 0.0000 -10717.2256 1429.2227 0.0000 0.0000 1741.8010 -7539.6636 295.7699 -9281.4646 -7517.6293 300.1899 -255.6595 -167.0360 30602.3156 59.2177 144.5409
ENERGY: 600000 0.9774 2.1784 1.3727 0.0000 -10718.0266 1466.2709 0.0000 0.0000 1788.7283 -7458.4988 303.7385 -9247.2272 -7518.9162 300.0100 -0.1444 85.4397 31180.2413 67.9063 154.9999
ENERGY: 900000 2.7385 3.7013 4.2606 0.0000 -10839.5706 1553.7721 0.0000 0.0000 1749.0101 -7526.0879 296.9941 -9275.0980 -7518.2585 300.7620 769.9919 812.7483 30433.6399 157.4330 224.7986
ENERGY: 1200000 1.2199 5.0243 3.9993 0.0000 -10811.7135 1429.7215 0.0000 0.0000 1852.1718 -7519.5767 314.5116 -9371.7485 -7527.1272 301.3306 -118.5979 -59.1471 29877.7669 91.9646 155.4713
ENERGY: 1500000 1.1138 1.3179 1.7523 0.0000 -10650.5392 1357.6092 0.0000 0.0000 1765.2513 -7523.4947 299.7519 -9288.7460 -7530.5673 300.7709 -563.4808 -556.6738 30369.1646 32.1087 97.7420
TCL: Running FEP window  14: Lambda1 0.34999999999999964 Lambda2 0.29999999999999966 [dLambda -0.04999999999999999]
TCL: Setting parameter firsttimestep to 0
TCL: Setting parameter alchLambda to 0.34999999999999964
Info: NONBONDED TABLE R-SQUARED SPACING: 0.0625
Info: NONBONDED TABLE SIZE: 705 POINTS
TCL: Setting parameter alchLambda2 to 0.29999999999999966
Info: NONBONDED TABLE R-SQUARED SPACING: 0.0625
Info: NONBONDED TABLE SIZE: 705 POINTS
TCL: Running for 1500000 steps
ETITLE: TS BOND ANGLE DIHED IMPRP ELECT VDW BOUNDARY MISC KINETIC TOTAL TEMP POTENTIAL TOTALAVG TEMPAVG PRESSURE GPRESSURE VOLUME PRESSAVG GPRESSAVG
ENERGY: 0 1.1138 1.3179 1.7523 0.0000 -10650.5417 1357.6075 0.0000 0.0000 1764.3730 -7524.3771 299.6028 -9288.7502 -7524.3771 299.6028 -645.3457 -562.0680 30369.1646 -645.3457 -562.0680
ENERGY: 300000 0.7197 2.3154 1.0370 0.0000 -10898.6107 1468.3150 0.0000 0.0000 1786.6213 -7639.6023 303.3807 -9426.2236 -7564.8998 299.4574 -163.6755 -172.5618 30390.9906 -68.7569 -8.8535
ENERGY: 600000 2.7613 2.4060 2.4118 0.0000 -10757.1473 1432.5571 0.0000 0.0000 1794.1735 -7522.8376 304.6631 -9317.0111 -7551.4539 300.2503 -119.2758 -64.2640 30381.7725 -77.8289 -13.6097
ENERGY: 900000 1.0951 1.2583 1.8762 0.0000 -10914.2559 1504.6133 0.0000 0.0000 1769.0659 -7636.3470 300.3997 -9405.4130 -7552.3559 300.6581 -89.2026 -50.5001 30567.2560 -17.8271 56.6652
ENERGY: 1200000 0.9485 2.5288 1.8540 0.0000 -10564.1289 1356.5610 0.0000 0.0000 1785.8435 -7416.3931 303.2486 -9202.2366 -7528.4115 301.2083 -451.4923 -399.9872 30891.9852 -113.2710 -48.7100
ENERGY: 1500000 0.4456 3.5723 2.5979 0.0000 -10739.6990 1402.5785 0.0000 0.0000 1751.3318 -7579.1727 297.3883 -9330.5045 -7529.0861 301.1443 -291.9955 -227.9566 29999.4229 -64.2653 -4.1263
TCL: Running FEP window  15: Lambda1 0.29999999999999966 Lambda2 0.24999999999999967 [dLambda -0.04999999999999999]
TCL: Setting parameter firsttimestep to 0
TCL: Setting parameter alchLambda to 0.29999999999999966
Info: NONBONDED TABLE R-SQUARED SPACING: 0.0625
Info: NONBONDED TABLE SIZE: 705 POINTS
TCL: Setting parameter alchLambda2 to 0.24999999999999967
Info: NONBONDED TABLE R-SQUARED SPACING: 0.0625
Info: NONBONDED TABLE SIZE: 705 POINTS
TCL: Running for 1500000 steps
ETITLE: TS BOND ANGLE DIHED IMPRP ELECT VDW BOUNDARY MISC KINETIC TOTAL TEMP POTENTIAL TOTALAVG TEMPAVG PRESSURE GPRESSURE VOLUME PRESSAVG GPRESSAVG
ENERGY: 0 0.4456 3.5723 2.5979 0.0000 -10739.7001 1402.8885 0.0000 0.0000 1750.5056 -7579.6900 297.2480 -9330.1956 -7579.6900 297.2480 -332.3389 -233.0204 29999.4229 -332.3389 -233.0204
ENERGY: 300000 1.5777 1.0952 2.8540 0.0000 -10696.6617 1411.5448 0.0000 0.0000 1746.2514 -7533.3386 296.5256 -9279.5900 -7548.5227 297.6931 -322.1469 -300.3536 30657.2938 -146.9066 -117.1342
ENERGY: 600000 1.5503 1.8085 9.0480 0.0000 -10616.2018 1337.0369 0.0000 0.0000 1741.5875 -7525.1706 295.7337 -9266.7581 -7535.5578 298.8614 -885.2397 -817.2428 30607.4977 -267.7189 -219.8612
ENERGY: 900000 1.8164 3.6941 3.1810 0.0000 -10763.7917 1454.9847 0.0000 0.0000 1743.5283 -7556.5873 296.0632 -9300.1156 -7527.8604 299.8835 -187.2594 -142.4764 30854.9220 -246.8306 -200.3107
ENERGY: 1200000 1.5515 1.6187 1.5711 0.0000 -10645.1995 1403.4356 0.0000 0.0000 1788.9544 -7448.0682 303.7769 -9237.0226 -7527.5036 300.7842 -234.7010 -179.9068 30640.7938 -175.3443 -122.2034
ENERGY: 1500000 3.8932 2.4451 1.6135 0.0000 -10746.1416 1451.0043 0.0000 0.0000 1826.1185 -7461.0669 310.0876 -9287.1854 -7529.6912 301.4328 -130.1993 -63.1331 30650.7784 -164.0946 -110.4978
TCL: Running FEP window  16: Lambda1 0.24999999999999967 Lambda2 0.19999999999999968 [dLambda -0.04999999999999999]
TCL: Setting parameter firsttimestep to 0
TCL: Setting parameter alchLambda to 0.24999999999999967
Info: NONBONDED TABLE R-SQUARED SPACING: 0.0625
Info: NONBONDED TABLE SIZE: 705 POINTS
TCL: Setting parameter alchLambda2 to 0.19999999999999968
Info: NONBONDED TABLE R-SQUARED SPACING: 0.0625
Info: NONBONDED TABLE SIZE: 705 POINTS
TCL: Running for 1500000 steps
ETITLE: TS BOND ANGLE DIHED IMPRP ELECT VDW BOUNDARY MISC KINETIC TOTAL TEMP POTENTIAL TOTALAVG TEMPAVG PRESSURE GPRESSURE VOLUME PRESSAVG GPRESSAVG
ENERGY: 0 3.8932 2.4451 1.6135 0.0000 -10746.1416 1451.3923 0.0000 0.0000 1825.2843 -7461.5132 309.9460 -9286.7975 -7461.5132 309.9460 -135.0340 -61.7868 30650.7784 -135.0340 -61.7868
ENERGY: 300000 2.3686 2.4727 2.0470 0.0000 -10757.7378 1359.8250 0.0000 0.0000 1801.9865 -7589.0380 305.9898 -9391.0245 -7512.4020 304.0329 -829.5328 -706.9438 29932.8743 17.8635 97.5519
ENERGY: 600000 3.3099 3.8687 3.1865 0.0000 -10781.4925 1442.0722 0.0000 0.0000 1728.4930 -7600.5621 293.5101 -9329.0552 -7536.4689 301.5416 -247.9454 -232.5198 30726.1671 -97.9266 -24.7546
ENERGY: 900000 1.9355 1.7639 2.3831 0.0000 -10783.9483 1500.8519 0.0000 0.0000 1782.5391 -7494.4747 302.6875 -9277.0139 -7522.4763 301.6654 284.8890 338.4961 30822.0224 34.1887 102.9627
ENERGY: 1200000 1.0020 0.8653 1.3981 0.0000 -10769.6668 1453.9914 0.0000 0.0000 1735.1616 -7577.2485 294.6425 -9312.4101 -7520.5012 300.2743 368.3245 377.0354 30029.1885 70.4038 137.9334
ENERGY: 1500000 5.6368 2.7937 1.1176 0.0000 -10574.1520 1309.0982 0.0000 0.0000 1790.5090 -7464.9967 304.0409 -9255.5057 -7527.8203 299.5887 -1138.1259 -1090.3737 30660.4437 -16.8614 56.3195
TCL: Running FEP window  17: Lambda1 0.19999999999999968 Lambda2 0.1499999999999997 [dLambda -0.04999999999999999]
TCL: Setting parameter firsttimestep to 0
TCL: Setting parameter alchLambda to 0.19999999999999968
Info: NONBONDED TABLE R-SQUARED SPACING: 0.0625
Info: NONBONDED TABLE SIZE: 705 POINTS
TCL: Setting parameter alchLambda2 to 0.1499999999999997
Info: NONBONDED TABLE R-SQUARED SPACING: 0.0625
Info: NONBONDED TABLE SIZE: 705 POINTS
TCL: Running for 1500000 steps
ETITLE: TS BOND ANGLE DIHED IMPRP ELECT VDW BOUNDARY MISC KINETIC TOTAL TEMP POTENTIAL TOTALAVG TEMPAVG PRESSURE GPRESSURE VOLUME PRESSAVG GPRESSAVG
ENERGY: 0 5.6368 2.7937 1.1176 0.0000 -10574.1533 1309.4195 0.0000 0.0000 1789.5817 -7465.6041 303.8834 -9255.1858 -7465.6041 303.8834 -1174.0274 -1090.7926 30660.4437 -1174.0274 -1090.7926
ENERGY: 300000 1.0777 3.7901 1.3633 0.0000 -10759.9167 1485.6583 0.0000 0.0000 1698.3672 -7569.6601 288.3946 -9268.0273 -7506.2993 301.0008 125.7077 152.8811 30901.1386 -162.7838 -98.7151
ENERGY: 600000 1.0192 2.7451 0.9463 0.0000 -10814.2996 1505.9835 0.0000 0.0000 1811.2714 -7492.3341 307.5665 -9303.6055 -7526.8587 301.3382 621.3768 604.5045 30199.3158 -71.6681 -22.8966
ENERGY: 900000 2.4674 2.3470 2.5203 0.0000 -10571.9070 1327.2391 0.0000 0.0000 1765.0017 -7472.3315 299.7096 -9237.3332 -7519.4185 301.4849 -1099.2672 -1038.9998 31138.6581 -86.4416 -42.3708
ENERGY: 1200000 1.6333 2.5891 0.7117 0.0000 -10773.5545 1443.8715 0.0000 0.0000 1755.0370 -7569.7119 298.0175 -9324.7489 -7538.1839 300.5648 59.2722 65.5845 29996.9040 -47.5845 1.9627
ENERGY: 1500000 2.5494 2.1717 1.7527 0.0000 -10858.0728 1533.8602 0.0000 0.0000 1711.9539 -7605.7848 290.7017 -9317.7387 -7539.4553 300.9214 719.3430 754.6771 30281.4935 21.0988 71.6692
TCL: Running FEP window  18: Lambda1 0.1499999999999997 Lambda2 0.09999999999999969 [dLambda -0.05 ]
TCL: Setting parameter firsttimestep to 0
TCL: Setting parameter alchLambda to 0.1499999999999997
Info: NONBONDED TABLE R-SQUARED SPACING: 0.0625
Info: NONBONDED TABLE SIZE: 705 POINTS
TCL: Setting parameter alchLambda2 to 0.09999999999999969
Info: NONBONDED TABLE R-SQUARED SPACING: 0.0625
Info: NONBONDED TABLE SIZE: 705 POINTS
TCL: Running for 1500000 steps
ETITLE: TS BOND ANGLE DIHED IMPRP ELECT VDW BOUNDARY MISC KINETIC TOTAL TEMP POTENTIAL TOTALAVG TEMPAVG PRESSURE GPRESSURE VOLUME PRESSAVG GPRESSAVG
ENERGY: 0 2.5494 2.1717 1.7527 0.0000 -10858.0730 1533.0269 0.0000 0.0000 1711.0907 -7607.4816 290.5551 -9318.5723 -7607.4816 290.5551 661.7163 747.9023 30281.4935 661.7163 747.9023
ENERGY: 300000 0.9740 0.7298 2.9417 0.0000 -10592.2748 1351.2946 0.0000 0.0000 1714.9838 -7521.3509 291.2162 -9236.3346 -7584.0249 293.0321 -816.8371 -766.3315 30680.1388 47.5857 101.9616
ENERGY: 600000 2.4509 1.0457 1.2403 0.0000 -10848.5159 1505.4735 0.0000 0.0000 1792.5729 -7545.7326 304.3913 -9338.3055 -7582.0516 295.1695 264.4579 314.2776 30392.5669 -49.6467 14.1343
ENERGY: 900000 4.1768 3.1153 1.7507 0.0000 -10615.5697 1338.3924 0.0000 0.0000 1731.4143 -7536.7201 294.0062 -9268.1345 -7580.8444 294.8490 -938.8251 -871.8004 30287.8876 -101.4183 -35.4513
ENERGY: 1200000 8.4798 4.6425 3.2119 0.0000 -10779.4987 1421.4488 0.0000 0.0000 1796.5027 -7545.2130 305.0586 -9341.7158 -7572.8274 296.1489 -562.4267 -510.5202 30410.6167 -140.7967 -74.7759
ENERGY: 1500000 1.4578 1.6755 1.4634 0.0000 -10881.4189 1567.4970 0.0000 0.0000 1712.0340 -7597.2910 290.7153 -9309.3250 -7564.3051 296.4038 768.7914 844.2133 30473.2635 -83.3517 -17.8683
TCL: Running FEP window  19: Lambda1 0.09999999999999969 Lambda2 0.049999999999999684 [dLambda -0.05 ]
TCL: Setting parameter firsttimestep to 0
TCL: Setting parameter alchLambda to 0.09999999999999969
Info: NONBONDED TABLE R-SQUARED SPACING: 0.0625
Info: NONBONDED TABLE SIZE: 705 POINTS
TCL: Setting parameter alchLambda2 to 0.049999999999999684
Info: NONBONDED TABLE R-SQUARED SPACING: 0.0625
Info: NONBONDED TABLE SIZE: 705 POINTS
TCL: Running for 1500000 steps
ETITLE: TS BOND ANGLE DIHED IMPRP ELECT VDW BOUNDARY MISC KINETIC TOTAL TEMP POTENTIAL TOTALAVG TEMPAVG PRESSURE GPRESSURE VOLUME PRESSAVG GPRESSAVG
ENERGY: 0 1.4578 1.6755 1.4634 0.0000 -10881.4186 1567.3280 0.0000 0.0000 1711.1269 -7598.3669 290.5612 -9309.4938 -7598.3669 290.5612 745.4309 838.3168 30473.2635 745.4309 838.3168
ENERGY: 300000 2.8268 3.5428 2.3472 0.0000 -10744.3306 1452.3305 0.0000 0.0000 1765.8344 -7517.4489 299.8510 -9283.2833 -7544.7802 297.1547 110.0860 208.1548 30358.7320 213.8925 286.2714
ENERGY: 600000 1.9249 2.4696 2.8629 0.0000 -10780.9362 1512.2964 0.0000 0.0000 1760.7648 -7500.6176 298.9901 -9261.3823 -7533.2421 298.6776 673.1078 642.2313 30572.4289 0.6681 59.1857
ENERGY: 900000 2.7423 1.7229 1.5632 0.0000 -10875.2458 1509.0660 0.0000 0.0000 1815.1046 -7545.0468 308.2174 -9360.1514 -7540.0701 299.0307 321.3874 419.1371 30185.1004 119.0669 190.2732
ENERGY: 1200000 2.6402 3.2982 2.4634 0.0000 -10783.2573 1431.2266 0.0000 0.0000 1760.9754 -7582.6535 299.0259 -9343.6290 -7535.4110 299.0654 -296.8484 -216.0450 30457.2569 56.8741 123.6730
ENERGY: 1500000 0.4355 3.7790 2.7265 0.0000 -10787.6013 1454.0229 0.0000 0.0000 1718.7345 -7607.9029 291.8531 -9326.6374 -7530.9644 299.5012 -128.3740 -79.8185 30415.5506 -28.5446 35.9584
TCL: Running FEP window  20: Lambda1 0.049999999999999684 Lambda2 0.0    [dLambda -0.049999999999999684]
TCL: Setting parameter firsttimestep to 0
TCL: Setting parameter alchLambda to 0.049999999999999684
Info: NONBONDED TABLE R-SQUARED SPACING: 0.0625
Info: NONBONDED TABLE SIZE: 705 POINTS
TCL: Setting parameter alchLambda2 to 0.0
Info: NONBONDED TABLE R-SQUARED SPACING: 0.0625
Info: NONBONDED TABLE SIZE: 705 POINTS
TCL: Running for 1500000 steps
ETITLE: TS BOND ANGLE DIHED IMPRP ELECT VDW BOUNDARY MISC KINETIC TOTAL TEMP POTENTIAL TOTALAVG TEMPAVG PRESSURE GPRESSURE VOLUME PRESSAVG GPRESSAVG
ENERGY: 0 0.4355 3.7790 2.7265 0.0000 -10787.6011 1453.6374 0.0000 0.0000 1717.8735 -7609.1491 291.7069 -9327.0226 -7609.1491 291.7069 -168.6021 -83.7725 30415.5506 -168.6021 -83.7725
ENERGY: 300000 1.2617 1.7764 2.1792 0.0000 -10754.4046 1390.7980 0.0000 0.0000 1753.0460 -7605.3434 297.6794 -9358.3894 -7595.6657 295.4111 -544.5697 -479.6509 30341.4178 -164.1128 -82.2920
ENERGY: 600000 1.7223 2.1194 7.5045 0.0000 -10661.2456 1389.7786 0.0000 0.0000 1743.8604 -7516.2603 296.1196 -9260.1207 -7561.1883 296.3695 -254.0721 -223.8346 30565.4817 -21.5248 43.2696
ENERGY: 900000 4.1402 2.6002 1.3123 0.0000 -10743.5347 1460.3325 0.0000 0.0000 1768.6569 -7506.4926 300.3302 -9275.1495 -7547.2801 297.5563 205.8082 308.4632 30086.3829 39.5247 104.6529
ENERGY: 1200000 3.7056 2.2029 1.6659 0.0000 -10793.5477 1468.5394 0.0000 0.0000 1717.8379 -7599.5960 291.7008 -9317.4339 -7562.1636 296.6078 124.6432 179.6760 29988.5489 84.5467 153.1164
ENERGY: 1500000 1.6002 1.1818 2.3447 0.0000 -10667.7630 1387.6962 0.0000 0.0000 1764.3292 -7510.6108 299.5954 -9274.9400 -7555.6414 296.5928 -484.8378 -450.8988 30540.9305 58.3825 122.1395
TCL: Exiting due to exit command.
