Info: SIMULATION PARAMETERS:
Info: TIMESTEP               2
Info: NUMBER OF STEPS        0
Info: STEPS PER CYCLE        10
Info: PERIODIC CELL BASIS 1  31.605 0 0
Info: PERIODIC CELL BASIS 2  0 31.1832 0
Info: PERIODIC CELL BASIS 3  0 0 30.7808
Info: PERIODIC CELL CENTER   0 0 0
Info: WRAPPING WATERS AROUND PERIODIC BOUNDARIES ON OUTPUT.
Info: WRAPPING ALL CLUSTERS AROUND PERIODIC BOUNDARIES ON OUTPUT.
Info: FIRST LDB TIMESTEP     50
Info: LAST LDB TIMESTEP     -1
Info: HOM BACKGROUND SCALING 1
Info: PME BACKGROUND SCALING 1
Info: MIN ATOMS PER PATCH    40
Info: EMPTY PATCH LOAD       40 ATOMS
Info: VELOCITY FILE          mobley_7769613_equil.vel
Info: CENTER OF MASS MOVING INITIALLY? NO
Info: DIELECTRIC             1
Info: EXCLUDE                SCALED ONE-FOUR
Info: 1-4 ELECTROSTATICS SCALED BY 0.833333
Info: MODIFIED 1-4 VDW PARAMETERS WILL BE USED
Info: DCD FILENAME           mobley_7769613_prod.dcd
Info: DCD FREQUENCY          100000
Info: DCD FIRST STEP         100000
Info: DCD FILE WILL CONTAIN UNIT CELL DATA
Info: XST FILENAME           mobley_7769613_prod.xst
Info: XST FREQUENCY          100000
Info: NO VELOCITY DCD OUTPUT
Info: NO FORCE DCD OUTPUT
Info: OUTPUT FILENAME        mobley_7769613_prod
Info: BINARY OUTPUT FILES WILL BE USED
Info: RESTART FILENAME       mobley_7769613_prod.restart
Info: RESTART FREQUENCY      100000
Info: BINARY RESTART FILES WILL BE USED
Info: CUTOFF                 9
Info: PAIRLIST DISTANCE      11
Info: PAIRLIST SHRINK RATE   0.01
Info: PAIRLIST GROW RATE     0.01
Info: PAIRLIST TRIGGER       0.3
Info: PAIRLISTS PER CYCLE    2
Info: PAIRLISTS ENABLED
Info: MARGIN                 2
Info: HYDROGEN GROUP CUTOFF  2.5
Info: PATCH DIMENSION        15.5
Info: ENERGY OUTPUT STEPS    100000
Info: ENERGY EVALUATION STEPS    100000
Info: OUTPUT ENERGY PRECISION 4
Info: CROSSTERM ENERGY INCLUDED IN DIHEDRAL
Info: TIMING OUTPUT STEPS    1000000
Info: PRESSURE OUTPUT STEPS  100000
Info: ALCHEMICAL FEP ON
Info: FEP CURRENT LAMBDA VALUE     0
Info: FEP COMPARISON LAMBDA VALUE  0.05
Info: FEP INTRA-ALCHEMICAL NON-BONDED INTERACTIONS WILL BE RETAINED
Info: FEP INTRA-ALCHEMICAL BONDED INTERACTIONS WILL BE RETAINED
Info: FEP VDW SHIFTING COEFFICIENT 5
Info: FEP ELEC. ACTIVE FOR ANNIHILATED PARTICLES BETWEEN LAMBDA = 0 AND LAMBDA = 0.5
Info: FEP ELEC. ACTIVE FOR EXNIHILATED PARTICLES BETWEEN LAMBDA = 0.5 AND LAMBDA = 1
Info: FEP VDW ACTIVE FOR ANNIHILATED PARTICLES BETWEEN LAMBDA = 0 AND LAMBDA = 1
Info: FEP VDW ACTIVE FOR EXNIHILATED PARTICLES BETWEEN LAMBDA = 0 AND LAMBDA = 1
Info: FEP BOND ACTIVE FOR ANNIHILATED PARTICLES BETWEEN LAMBDA = 1 AND LAMBDA = 1
Info: FEP BOND ACTIVE FOR EXNIHILATED PARTICLES BETWEEN LAMBDA = 0 AND LAMBDA = 0
Info: LANGEVIN DYNAMICS ACTIVE
Info: LANGEVIN TEMPERATURE   300
Info: LANGEVIN USING BBK INTEGRATOR
Info: LANGEVIN DAMPING COEFFICIENT IS 1 INVERSE PS
Info: LANGEVIN DYNAMICS APPLIED TO HYDROGENS
Info: LANGEVIN PISTON PRESSURE CONTROL ACTIVE
Info:        TARGET PRESSURE IS 1.01325 BAR
Info:     OSCILLATION PERIOD IS 50 FS
Info:             DECAY TIME IS 25 FS
Info:     PISTON TEMPERATURE IS 300 K
Info:       PRESSURE CONTROL IS GROUP-BASED
Info:    INITIAL STRAIN RATE IS -0.000234418 -0.000234418 -0.000234418
Info:       CELL FLUCTUATION IS ISOTROPIC
Info: PARTICLE MESH EWALD (PME) ACTIVE
Info: PME TOLERANCE               1e-06
Info: PME EWALD COEFFICIENT       0.348832
Info: PME INTERPOLATION ORDER     4
Info: PME GRID DIMENSIONS         32 32 32
Info: PME MAXIMUM GRID SPACING    1
Info: PME CALCULATION WILL BE PERFORMED ON GPU
Info: FULL ELECTROSTATIC EVALUATION FREQUENCY      2
Info: USING VERLET I (r-RESPA) MTS SCHEME.
Info: C1 SPLITTING OF LONG RANGE ELECTROSTATICS
Info: PLACING ATOMS IN PATCHES BY HYDROGEN GROUPS
Info: RIGID BONDS TO HYDROGEN : ALL
Info:         ERROR TOLERANCE : 1e-08
Info:          MAX ITERATIONS : 100
Info: RIGID WATER USING SETTLE ALGORITHM
Info: RANDOM NUMBER SEED     1743568820
Info: USE HYDROGEN BONDS?    NO
Info: Using AMBER format force field!
Info: AMBER PARM FILE        mobley_7769613.prmtop
Info: COORDINATE PDB         mobley_7769613.pdb
Info: Exclusions will be read from PARM file!
Info: SCNB (VDW SCALING)     2
Info: USING ARITHMETIC MEAN TO COMBINE L-J SIGMA PARAMETERS
Info: BINARY COORDINATES     mobley_7769613_equil.coor
Info: SUMMARY OF PARAMETERS:
Info: 5 BONDS
Info: 4 ANGLES
Info:   4 HARMONIC
Info:   0 COSINE-BASED
Info: 3 DIHEDRAL
Info: 0 IMPROPER
Info: 0 CROSSTERM
Info: 0 VDW
Info: 15 VDW_PAIRS
Info: 0 NBTHOLE_PAIRS
Info: To read alchdata from file: mobley_7769613.pdb
Info: To read alchflag data from column: 5
Info: STRUCTURE SUMMARY:
Info: 2942 ATOMS
Info: 2941 BONDS
Info: 24 ANGLES
Info: 36 DIHEDRALS
Info: 0 IMPROPERS
Info: 0 CROSSTERMS
Info: 2992 EXCLUSIONS
Info: 2937 RIGID BONDS
Info: ALCH: 0 ATOMS TO DISAPPEAR IN FINAL STATE
Info: ALCH: 14 ATOMS TO APPEAR IN FINAL STATE
Info: 5889 DEGREES OF FREEDOM
Info: 981 HYDROGEN GROUPS
Info: 4 ATOMS IN LARGEST HYDROGEN GROUP
Info: 981 MIGRATION GROUPS
Info: 4 ATOMS IN LARGEST MIGRATION GROUP
Info: TOTAL MASS = 17720.6 amu
Info: TOTAL CHARGE = 0.00040001 e
Info: MASS DENSITY = 0.970023 g/cm^3
Info: ATOM DENSITY = 0.096981 atoms/A^3
Info: ADDED 0 IMPLICIT EXCLUSIONS
Info: NONBONDED TABLE R-SQUARED SPACING: 0.0625
Info: NONBONDED TABLE SIZE: 705 POINTS
Info: REDUCING NUMBER OF PATCHES TO IMPROVE LOAD BALANCE
Info: REMOVING COM VELOCITY -0.0122245 -0.138825 0.00362742
Info: Use 3D box decompostion in PME FFT.
Info: Updated CUDA force table with 4096 elements.
Info: Updated CUDA LJ table with 5 x 5 elements.
Info: Found 17 unique exclusion lists needing 36 bytes
TCL: Running for 1500000 steps
ETITLE: TS BOND ANGLE DIHED IMPRP ELECT VDW BOUNDARY MISC KINETIC TOTAL TEMP POTENTIAL TOTALAVG TEMPAVG PRESSURE GPRESSURE VOLUME PRESSAVG GPRESSAVG
ENERGY: 0 1.4935 5.1100 5.8017 0.0000 -10655.5105 1441.2058 0.0000 0.0000 1809.1176 -7392.7819 309.1830 -9201.8995 -7392.7819 309.1830 72.9287 159.6946 30335.8457 72.9287 159.6946
ENERGY: 300000 0.3043 5.7146 5.8323 0.0000 -10678.0979 1406.9576 0.0000 0.0000 1747.2348 -7512.0543 298.6071 -9259.2891 -7438.3335 300.7378 -310.5931 -270.8068 30369.4867 -118.0293 -84.5605
ENERGY: 600000 1.3874 8.0612 5.5033 0.0000 -10701.8488 1401.6891 0.0000 0.0000 1756.4552 -7528.7526 300.1829 -9285.2078 -7454.3946 299.8653 -374.7691 -332.0443 29839.7875 -352.2434 -313.0654
ENERGY: 900000 0.5140 4.7643 5.9164 0.0000 -10655.8041 1413.8541 0.0000 0.0000 1766.6255 -7464.1300 301.9210 -9230.7554 -7450.6786 299.9521 -12.8638 -32.3361 29995.4771 -258.2895 -215.7289
ENERGY: 1200000 0.9793 9.7891 5.0205 0.0000 -10517.1603 1356.4138 0.0000 0.0000 1777.2711 -7367.6866 303.7404 -9144.9577 -7440.3129 301.1086 -450.5761 -472.3629 30490.9160 -184.6675 -146.9944
ENERGY: 1500000 0.5717 4.6781 6.0639 0.0000 -10619.0487 1393.9581 0.0000 0.0000 1730.7223 -7483.0546 295.7851 -9213.7769 -7443.3042 301.1466 -453.7899 -310.4159 30129.6497 -240.7152 -199.4430
TCL: Running FEP window   2: Lambda1 0.05   Lambda2 0.1    [dLambda 0.05  ]
TCL: Setting parameter firsttimestep to 0
TCL: Setting parameter alchLambda to 0.05
Info: NONBONDED TABLE R-SQUARED SPACING: 0.0625
Info: NONBONDED TABLE SIZE: 705 POINTS
TCL: Setting parameter alchLambda2 to 0.1
Info: NONBONDED TABLE R-SQUARED SPACING: 0.0625
Info: NONBONDED TABLE SIZE: 705 POINTS
TCL: Running for 1500000 steps
ETITLE: TS BOND ANGLE DIHED IMPRP ELECT VDW BOUNDARY MISC KINETIC TOTAL TEMP POTENTIAL TOTALAVG TEMPAVG PRESSURE GPRESSURE VOLUME PRESSAVG GPRESSAVG
ENERGY: 0 0.5717 4.6781 6.0639 0.0000 -10619.0476 1395.2928 0.0000 0.0000 1729.8010 -7482.6402 295.6276 -9212.4412 -7482.6402 295.6276 -391.9715 -306.7885 30129.6497 -391.9715 -306.7885
ENERGY: 300000 0.4935 6.3290 5.5824 0.0000 -10689.2973 1467.6054 0.0000 0.0000 1806.6865 -7402.6006 308.7675 -9209.2870 -7442.6899 303.3418 207.2178 298.0616 30085.2632 103.6231 154.1178
ENERGY: 600000 3.5618 5.9494 5.2051 0.0000 -10573.8965 1402.8739 0.0000 0.0000 1769.7115 -7386.5948 302.4484 -9156.3063 -7431.0605 300.9614 -78.8645 -51.7209 30379.3678 127.3549 173.3734
ENERGY: 900000 0.4948 5.9850 5.6124 0.0000 -10667.1369 1443.9209 0.0000 0.0000 1761.0482 -7450.0756 300.9678 -9211.1238 -7438.9165 301.1002 53.4687 177.2369 29992.2716 93.3851 147.4005
ENERGY: 1200000 2.3255 8.0554 6.4284 0.0000 -10584.3328 1358.0100 0.0000 0.0000 1766.3114 -7443.2021 301.8673 -9209.5135 -7448.9564 300.7717 -692.2522 -571.2933 30294.6350 37.9521 95.2171
ENERGY: 1500000 0.3848 5.5188 7.0715 0.0000 -10636.0591 1481.8321 0.0000 0.0000 1793.2537 -7347.9982 306.4718 -9141.2519 -7437.4135 301.3196 466.1170 553.9631 30316.8540 47.1843 106.6665
TCL: Running FEP window   3: Lambda1 0.1    Lambda2 0.15000000000000002 [dLambda 0.05000000000000002]
TCL: Setting parameter firsttimestep to 0
TCL: Setting parameter alchLambda to 0.1
Info: NONBONDED TABLE R-SQUARED SPACING: 0.0625
Info: NONBONDED TABLE SIZE: 705 POINTS
TCL: Setting parameter alchLambda2 to 0.15000000000000002
Info: NONBONDED TABLE R-SQUARED SPACING: 0.0625
Info: NONBONDED TABLE SIZE: 705 POINTS
TCL: Running for 1500000 steps
ETITLE: TS BOND ANGLE DIHED IMPRP ELECT VDW BOUNDARY MISC KINETIC TOTAL TEMP POTENTIAL TOTALAVG TEMPAVG PRESSURE GPRESSURE VOLUME PRESSAVG GPRESSAVG
ENERGY: 0 0.3848 5.5188 7.0715 0.0000 -10636.0579 1482.0556 0.0000 0.0000 1792.3967 -7348.6304 306.3254 -9141.0272 -7348.6304 306.3254 477.1359 557.8471 30316.8540 477.1359 557.8471
ENERGY: 300000 0.4395 7.7884 6.5037 0.0000 -10744.5949 1457.5933 0.0000 0.0000 1702.2243 -7570.0457 290.9147 -9272.2700 -7462.2004 297.6337 -110.7212 -33.3260 30138.2122 274.6311 325.6688
ENERGY: 600000 0.4973 6.2304 5.2674 0.0000 -10647.7713 1419.7504 0.0000 0.0000 1766.9932 -7449.0327 301.9838 -9216.0260 -7465.5121 297.1424 -41.2542 -8.2888 30027.5282 210.4454 261.2946
ENERGY: 900000 0.7324 5.1209 5.5152 0.0000 -10567.1545 1341.1656 0.0000 0.0000 1758.7005 -7455.9199 300.5666 -9214.6204 -7466.6190 297.9477 -622.1674 -576.9670 30163.7845 28.6573 79.4488
ENERGY: 1200000 0.7241 7.3714 5.7099 0.0000 -10611.0752 1425.1209 0.0000 0.0000 1754.8395 -7417.3093 299.9067 -9172.1488 -7460.6690 297.6417 -102.1480 -62.9956 30445.2039 111.5670 159.7621
ENERGY: 1500000 0.0574 6.6952 7.0537 0.0000 -10780.0784 1473.6154 0.0000 0.0000 1782.0453 -7510.6113 304.5563 -9292.6566 -7458.9522 298.6523 -208.6177 -159.4374 30576.9471 -3.1495 45.5440
TCL: Running FEP window   4: Lambda1 0.15000000000000002 Lambda2 0.2    [dLambda 0.04999999999999999]
TCL: Setting parameter firsttimestep to 0
TCL: Setting parameter alchLambda to 0.15000000000000002
Info: NONBONDED TABLE R-SQUARED SPACING: 0.0625
Info: NONBONDED TABLE SIZE: 705 POINTS
TCL: Setting parameter alchLambda2 to 0.2
Info: NONBONDED TABLE R-SQUARED SPACING: 0.0625
Info: NONBONDED TABLE SIZE: 705 POINTS
TCL: Running for 1500000 steps
ETITLE: TS BOND ANGLE DIHED IMPRP ELECT VDW BOUNDARY MISC KINETIC TOTAL TEMP POTENTIAL TOTALAVG TEMPAVG PRESSURE GPRESSURE VOLUME PRESSAVG GPRESSAVG
ENERGY: 0 0.0574 6.6952 7.0537 0.0000 -10780.0779 1474.1852 0.0000 0.0000 1781.1281 -7510.9583 304.3995 -9292.0863 -7510.9583 304.3995 -235.1332 -152.0987 30576.9471 -235.1332 -152.0987
ENERGY: 300000 1.2635 4.9462 5.0837 0.0000 -10592.0836 1370.4810 0.0000 0.0000 1763.6933 -7446.6160 301.4199 -9210.3092 -7459.8786 300.2292 -491.9887 -481.5562 30051.0693 -465.1959 -410.0253
ENERGY: 600000 1.3752 5.7719 6.8642 0.0000 -10780.9337 1505.3163 0.0000 0.0000 1785.2964 -7476.3097 305.1119 -9261.6061 -7472.7179 300.0132 214.1443 313.9362 30348.1971 -147.1838 -70.9398
ENERGY: 900000 0.9457 5.1806 5.5790 0.0000 -10534.5510 1419.0015 0.0000 0.0000 1757.9665 -7345.8776 300.4412 -9103.8441 -7463.4466 299.2493 121.6569 195.2965 30476.6693 -237.6761 -162.2019
ENERGY: 1200000 0.8388 7.1137 5.2393 0.0000 -10741.4469 1431.2112 0.0000 0.0000 1822.1361 -7474.9079 311.4079 -9297.0440 -7462.8493 300.6785 -338.7691 -251.7970 30382.6486 -163.4494 -84.2977
ENERGY: 1500000 0.8088 8.7485 6.0203 0.0000 -10703.7939 1412.8523 0.0000 0.0000 1770.5559 -7504.8081 302.5927 -9275.3640 -7464.3860 300.7555 -254.1285 -172.1066 30087.9589 -119.9701 -38.6830
TCL: Running FEP window   5: Lambda1 0.2    Lambda2 0.25   [dLambda 0.04999999999999999]
TCL: Setting parameter firsttimestep to 0
TCL: Setting parameter alchLambda to 0.2
Info: NONBONDED TABLE R-SQUARED SPACING: 0.0625
Info: NONBONDED TABLE SIZE: 705 POINTS
TCL: Setting parameter alchLambda2 to 0.25
Info: NONBONDED TABLE R-SQUARED SPACING: 0.0625
Info: NONBONDED TABLE SIZE: 705 POINTS
TCL: Running for 1500000 steps
ETITLE: TS BOND ANGLE DIHED IMPRP ELECT VDW BOUNDARY MISC KINETIC TOTAL TEMP POTENTIAL TOTALAVG TEMPAVG PRESSURE GPRESSURE VOLUME PRESSAVG GPRESSAVG
ENERGY: 0 0.8088 8.7485 6.0203 0.0000 -10703.7926 1413.3646 0.0000 0.0000 1769.6815 -7505.1689 302.4433 -9274.8504 -7505.1689 302.4433 -254.5658 -167.8904 30087.9589 -254.5658 -167.8904
ENERGY: 300000 0.9973 7.9176 5.7575 0.0000 -10802.4075 1493.0534 0.0000 0.0000 1704.3041 -7590.3777 291.2701 -9294.6818 -7537.1034 297.6588 67.3545 153.2811 30209.7765 -257.0157 -187.5528
ENERGY: 600000 1.1303 3.1836 6.6629 0.0000 -10683.2673 1464.4894 0.0000 0.0000 1729.5560 -7478.2452 295.5857 -9207.8011 -7499.3189 298.6593 34.6053 99.7788 30530.7588 -111.9830 -49.1743
ENERGY: 900000 1.3169 3.6356 4.9378 0.0000 -10719.9477 1448.3025 0.0000 0.0000 1765.5364 -7496.2184 301.7349 -9261.7548 -7482.3291 298.5333 -112.7379 -6.8440 30127.7989 -216.0464 -152.4139
ENERGY: 1200000 2.1381 7.0256 5.4333 0.0000 -10823.7299 1628.3195 0.0000 0.0000 1789.2289 -7391.5845 305.7840 -9180.8134 -7465.5908 299.7962 1820.4808 1861.2371 29958.4795 -20.7395 45.0955
ENERGY: 1500000 0.8434 5.6953 5.5685 0.0000 -10462.2092 1277.5254 0.0000 0.0000 1749.4496 -7423.1270 298.9856 -9172.5766 -7460.9115 299.5825 -1244.7110 -1235.7977 30778.1070 -23.5795 40.7853
TCL: Running FEP window   6: Lambda1 0.25   Lambda2 0.3    [dLambda 0.04999999999999999]
TCL: Setting parameter firsttimestep to 0
TCL: Setting parameter alchLambda to 0.25
Info: NONBONDED TABLE R-SQUARED SPACING: 0.0625
Info: NONBONDED TABLE SIZE: 705 POINTS
TCL: Setting parameter alchLambda2 to 0.3
Info: NONBONDED TABLE R-SQUARED SPACING: 0.0625
Info: NONBONDED TABLE SIZE: 705 POINTS
TCL: Running for 1500000 steps
ETITLE: TS BOND ANGLE DIHED IMPRP ELECT VDW BOUNDARY MISC KINETIC TOTAL TEMP POTENTIAL TOTALAVG TEMPAVG PRESSURE GPRESSURE VOLUME PRESSAVG GPRESSAVG
ENERGY: 0 0.8434 5.6953 5.5685 0.0000 -10462.2087 1277.7485 0.0000 0.0000 1748.5648 -7423.7883 298.8344 -9172.3530 -7423.7883 298.8344 -1316.4365 -1231.3341 30778.1070 -1316.4365 -1231.3341
ENERGY: 300000 2.0907 6.3399 5.4887 0.0000 -10490.0394 1320.7454 0.0000 0.0000 1821.9452 -7333.4294 311.3753 -9155.3747 -7450.9287 298.6056 -818.2567 -802.7017 30559.1713 -426.6056 -402.9664
ENERGY: 600000 0.3878 5.6400 5.2750 0.0000 -10518.0136 1363.6697 0.0000 0.0000 1763.9141 -7379.1270 301.4576 -9143.0411 -7421.2603 303.0207 -397.2610 -335.7413 30246.5754 -272.4224 -219.8029
ENERGY: 900000 0.9740 4.7430 5.5284 0.0000 -10731.2461 1478.1120 0.0000 0.0000 1728.4434 -7513.4452 295.3956 -9241.8887 -7450.0602 300.9514 172.6113 222.2778 30432.6853 -100.5709 -40.7363
ENERGY: 1200000 1.3919 4.2627 5.0978 0.0000 -10700.0034 1449.0940 0.0000 0.0000 1776.6440 -7463.5129 303.6332 -9240.1570 -7457.1036 301.3513 -120.8826 -96.4849 30725.4142 -16.6518 36.1673
ENERGY: 1500000 1.6309 6.0813 6.3167 0.0000 -10564.0613 1380.1400 0.0000 0.0000 1707.6262 -7462.2661 291.8379 -9169.8924 -7456.1131 300.5499 -591.4260 -534.1628 30622.2827 -66.7152 -7.8870
TCL: Running FEP window   7: Lambda1 0.3    Lambda2 0.35   [dLambda 0.04999999999999999]
TCL: Setting parameter firsttimestep to 0
TCL: Setting parameter alchLambda to 0.3
Info: NONBONDED TABLE R-SQUARED SPACING: 0.0625
Info: NONBONDED TABLE SIZE: 705 POINTS
TCL: Setting parameter alchLambda2 to 0.35
Info: NONBONDED TABLE R-SQUARED SPACING: 0.0625
Info: NONBONDED TABLE SIZE: 705 POINTS
TCL: Running for 1500000 steps
ETITLE: TS BOND ANGLE DIHED IMPRP ELECT VDW BOUNDARY MISC KINETIC TOTAL TEMP POTENTIAL TOTALAVG TEMPAVG PRESSURE GPRESSURE VOLUME PRESSAVG GPRESSAVG
ENERGY: 0 1.6310 6.0813 6.3167 0.0000 -10564.0604 1380.5003 0.0000 0.0000 1706.7220 -7462.8091 291.6833 -9169.5311 -7462.8091 291.6833 -602.1270 -527.7058 30622.2827 -602.1270 -527.7058
ENERGY: 300000 0.8990 9.3283 5.2304 0.0000 -10676.3328 1478.7652 0.0000 0.0000 1766.2486 -7415.8613 301.8566 -9182.1100 -7419.4280 302.5691 590.0924 601.2169 30021.1714 -68.1166 -10.8668
ENERGY: 600000 0.8862 2.5587 5.6938 0.0000 -10693.5825 1422.5330 0.0000 0.0000 1707.5423 -7554.3685 291.8235 -9261.9108 -7468.2069 298.7592 -497.4142 -403.3363 30683.0628 -60.3701 4.2340
ENERGY: 900000 0.2257 8.4408 5.7456 0.0000 -10767.6671 1549.5872 0.0000 0.0000 1798.1746 -7405.4932 307.3128 -9203.6678 -7449.3006 300.6530 635.0136 715.0190 30596.0201 12.8957 77.2432
ENERGY: 1200000 0.3222 4.3368 5.6788 0.0000 -10578.8424 1357.0645 0.0000 0.0000 1709.3001 -7502.1400 292.1239 -9211.4402 -7455.1811 299.7952 -721.3276 -705.7334 30566.9326 -112.9722 -52.1656
ENERGY: 1500000 2.5521 5.1546 5.2060 0.0000 -10730.0350 1483.2638 0.0000 0.0000 1770.1270 -7463.7315 302.5194 -9233.8585 -7465.4535 299.7207 283.0645 350.9197 30267.0355 -56.2688 2.1308
TCL: Running FEP window   8: Lambda1 0.35   Lambda2 0.39999999999999997 [dLambda 0.04999999999999999]
TCL: Setting parameter firsttimestep to 0
TCL: Setting parameter alchLambda to 0.35
Info: NONBONDED TABLE R-SQUARED SPACING: 0.0625
Info: NONBONDED TABLE SIZE: 705 POINTS
TCL: Setting parameter alchLambda2 to 0.39999999999999997
Info: NONBONDED TABLE R-SQUARED SPACING: 0.0625
Info: NONBONDED TABLE SIZE: 705 POINTS
TCL: Running for 1500000 steps
ETITLE: TS BOND ANGLE DIHED IMPRP ELECT VDW BOUNDARY MISC KINETIC TOTAL TEMP POTENTIAL TOTALAVG TEMPAVG PRESSURE GPRESSURE VOLUME PRESSAVG GPRESSAVG
ENERGY: 0 2.5521 5.1546 5.2060 0.0000 -10730.0363 1483.9796 0.0000 0.0000 1769.1802 -7463.9638 302.3576 -9233.1440 -7463.9638 302.3576 294.4117 362.3769 30267.0355 294.4117 362.3769
ENERGY: 300000 1.3283 4.6193 5.4383 0.0000 -10758.5379 1515.2508 0.0000 0.0000 1758.7379 -7473.1633 300.5730 -9231.9012 -7485.0185 301.7033 804.2448 958.8974 29928.1331 511.6614 595.9217
ENERGY: 600000 1.3326 6.2090 6.4867 0.0000 -10605.7379 1409.3877 0.0000 0.0000 1757.4918 -7424.8301 300.3600 -9182.3219 -7467.2718 302.8195 -353.9309 -257.9273 30394.4620 227.8268 296.1216
ENERGY: 900000 0.1720 5.0150 5.1658 0.0000 -10754.0567 1466.9908 0.0000 0.0000 1753.2704 -7523.4427 299.6386 -9276.7130 -7463.9255 303.1908 223.5732 271.1748 30118.6337 235.1879 301.3506
ENERGY: 1200000 0.4066 4.5902 5.8155 0.0000 -10793.8223 1584.6310 0.0000 0.0000 1776.2271 -7422.1518 303.5619 -9198.3789 -7468.0330 303.1555 1301.9718 1344.1940 29818.9648 398.6539 463.9429
ENERGY: 1500000 0.0734 8.1088 6.0411 0.0000 -10806.1019 1599.6911 0.0000 0.0000 1688.4430 -7503.7446 288.5594 -9192.1876 -7480.3538 301.1480 1359.9291 1419.7020 30053.6028 395.9415 460.8236
TCL: Running FEP window   9: Lambda1 0.39999999999999997 Lambda2 0.44999999999999996 [dLambda 0.04999999999999999]
TCL: Setting parameter firsttimestep to 0
TCL: Setting parameter alchLambda to 0.39999999999999997
Info: NONBONDED TABLE R-SQUARED SPACING: 0.0625
Info: NONBONDED TABLE SIZE: 705 POINTS
TCL: Setting parameter alchLambda2 to 0.44999999999999996
Info: NONBONDED TABLE R-SQUARED SPACING: 0.0625
Info: NONBONDED TABLE SIZE: 705 POINTS
TCL: Running for 1500000 steps
ETITLE: TS BOND ANGLE DIHED IMPRP ELECT VDW BOUNDARY MISC KINETIC TOTAL TEMP POTENTIAL TOTALAVG TEMPAVG PRESSURE GPRESSURE VOLUME PRESSAVG GPRESSAVG
ENERGY: 0 0.0734 8.1087 6.0411 0.0000 -10806.1019 1600.2830 0.0000 0.0000 1687.6143 -7503.9815 288.4178 -9191.5958 -7503.9815 288.4178 1349.3530 1432.4200 30053.6028 1349.3530 1432.4200
ENERGY: 300000 0.7723 5.9748 5.0669 0.0000 -10765.3658 1468.0177 0.0000 0.0000 1749.3781 -7536.1560 298.9734 -9285.5341 -7533.3486 295.4422 104.8191 110.1655 30064.2324 450.3591 498.2759
ENERGY: 600000 2.1822 6.0707 5.3707 0.0000 -10582.0690 1362.9024 0.0000 0.0000 1753.9724 -7451.5707 299.7585 -9205.5430 -7511.4152 297.5109 -704.8343 -657.1126 30543.9758 138.4842 185.1449
ENERGY: 900000 1.6106 8.7873 5.3394 0.0000 -10637.6641 1418.9417 0.0000 0.0000 1797.8284 -7405.1567 307.2537 -9202.9851 -7481.6223 298.5260 0.4785 90.0889 29932.8815 -23.5500 37.3333
ENERGY: 1200000 0.4752 14.0113 5.7114 0.0000 -10661.3789 1413.8593 0.0000 0.0000 1718.2290 -7509.0927 293.6499 -9227.3218 -7477.9892 298.5042 27.0467 73.0114 29649.4417 -169.4440 -108.2615
ENERGY: 1500000 0.7114 7.3578 5.1353 0.0000 -10778.1533 1516.4976 0.0000 0.0000 1685.5692 -7562.8819 288.0683 -9248.4511 -7477.4289 298.4128 572.7484 682.7737 29869.0362 -108.8661 -41.7324
TCL: Running FEP window  10: Lambda1 0.44999999999999996 Lambda2 0.49999999999999994 [dLambda 0.04999999999999999]
TCL: Setting parameter firsttimestep to 0
TCL: Setting parameter alchLambda to 0.44999999999999996
Info: NONBONDED TABLE R-SQUARED SPACING: 0.0625
Info: NONBONDED TABLE SIZE: 705 POINTS
TCL: Setting parameter alchLambda2 to 0.49999999999999994
Info: NONBONDED TABLE R-SQUARED SPACING: 0.0625
Info: NONBONDED TABLE SIZE: 705 POINTS
TCL: Running for 1500000 steps
ETITLE: TS BOND ANGLE DIHED IMPRP ELECT VDW BOUNDARY MISC KINETIC TOTAL TEMP POTENTIAL TOTALAVG TEMPAVG PRESSURE GPRESSURE VOLUME PRESSAVG GPRESSAVG
ENERGY: 0 0.7114 7.3578 5.1353 0.0000 -10778.1530 1516.5546 0.0000 0.0000 1684.7257 -7563.6681 287.9241 -9248.3938 -7563.6681 287.9241 610.8451 690.9660 29869.0362 610.8451 690.9660
ENERGY: 300000 1.4367 6.7312 5.5404 0.0000 -10468.1289 1353.5303 0.0000 0.0000 1748.7962 -7352.0940 298.8739 -9100.8903 -7456.0881 297.5857 -492.3879 -392.2758 30618.8889 101.8741 176.7698
ENERGY: 600000 0.4325 8.0247 5.2587 0.0000 -10838.0064 1515.9807 0.0000 0.0000 1761.0530 -7547.2568 300.9687 -9308.3098 -7471.2733 299.1597 822.2005 885.0059 29550.9646 87.0640 148.9319
ENERGY: 900000 1.2527 6.4509 5.2094 0.0000 -10587.5963 1377.6196 0.0000 0.0000 1792.7029 -7404.3608 306.3777 -9197.0637 -7462.4513 300.4233 -313.9819 -291.4532 30517.7252 148.6669 201.9296
ENERGY: 1200000 0.3057 4.3274 6.7835 0.0000 -10688.0831 1425.2863 0.0000 0.0000 1782.2200 -7469.1602 304.5861 -9251.3802 -7463.0444 300.3213 -155.0448 -93.0371 30193.6911 3.0935 65.8885
ENERGY: 1500000 1.6189 5.1655 5.0736 0.0000 -10484.8133 1297.0505 0.0000 0.0000 1739.9382 -7435.9665 297.3601 -9175.9047 -7461.2196 299.7426 -1075.6467 -1031.4076 30667.7483 -100.7099 -43.5140
TCL: Running FEP window  11: Lambda1 0.49999999999999994 Lambda2 0.5499999999999999 [dLambda 0.04999999999999999]
TCL: Setting parameter firsttimestep to 0
TCL: Setting parameter alchLambda to 0.49999999999999994
Info: NONBONDED TABLE R-SQUARED SPACING: 0.0625
Info: NONBONDED TABLE SIZE: 705 POINTS
TCL: Setting parameter alchLambda2 to 0.5499999999999999
Info: NONBONDED TABLE R-SQUARED SPACING: 0.0625
Info: NONBONDED TABLE SIZE: 705 POINTS
TCL: Running for 1500000 steps
ETITLE: TS BOND ANGLE DIHED IMPRP ELECT VDW BOUNDARY MISC KINETIC TOTAL TEMP POTENTIAL TOTALAVG TEMPAVG PRESSURE GPRESSURE VOLUME PRESSAVG GPRESSAVG
ENERGY: 0 1.6189 5.1655 5.0736 0.0000 -10484.8138 1297.1689 0.0000 0.0000 1739.0451 -7436.7417 297.2074 -9175.7868 -7436.7417 297.2074 -1094.9490 -1022.7817 30667.7483 -1094.9490 -1022.7817
ENERGY: 300000 2.2777 6.9780 5.5917 0.0000 -10612.4027 1407.5903 0.0000 0.0000 1737.8180 -7452.1470 296.9977 -9189.9651 -7427.9307 300.6748 -267.1470 -240.5794 30488.4129 -418.4347 -365.2232
ENERGY: 600000 0.8621 6.4598 5.6099 0.0000 -10685.0059 1467.9107 0.0000 0.0000 1743.7655 -7460.3979 298.0142 -9204.1634 -7430.5906 300.2297 116.4934 242.1324 30517.2780 -108.3325 -40.2634
ENERGY: 900000 0.6309 6.2498 5.2680 0.0000 -10710.8390 1425.6515 0.0000 0.0000 1769.8793 -7503.1595 302.4771 -9273.0388 -7441.0612 300.6899 -61.3226 6.8732 30053.5681 -80.6415 -18.2234
ENERGY: 1200000 2.7138 5.1771 5.3478 0.0000 -10934.7438 1587.2532 0.0000 0.0000 1760.0187 -7574.2331 300.7919 -9334.2518 -7463.8891 300.3638 998.0874 1111.4970 29925.3632 -18.0649 48.6758
ENERGY: 1500000 1.6327 5.0415 5.4325 0.0000 -10623.8358 1393.2788 0.0000 0.0000 1755.7362 -7462.7142 300.0600 -9218.4504 -7468.7339 300.1707 -467.0940 -415.6665 30349.9121 -160.9766 -94.1398
TCL: Running FEP window  12: Lambda1 0.5499999999999999 Lambda2 0.6    [dLambda 0.050000000000000044]
TCL: Setting parameter firsttimestep to 0
TCL: Setting parameter alchLambda to 0.5499999999999999
Info: NONBONDED TABLE R-SQUARED SPACING: 0.0625
Info: NONBONDED TABLE SIZE: 705 POINTS
TCL: Setting parameter alchLambda2 to 0.6
Info: NONBONDED TABLE R-SQUARED SPACING: 0.0625
Info: NONBONDED TABLE SIZE: 705 POINTS
TCL: Running for 1500000 steps
ETITLE: TS BOND ANGLE DIHED IMPRP ELECT VDW BOUNDARY MISC KINETIC TOTAL TEMP POTENTIAL TOTALAVG TEMPAVG PRESSURE GPRESSURE VOLUME PRESSAVG GPRESSAVG
ENERGY: 0 1.6327 5.0415 5.4325 0.0000 -10623.8154 1393.6416 0.0000 0.0000 1754.8431 -7463.2241 299.9074 -9218.0672 -7463.2241 299.9074 -492.6143 -408.3632 30349.9121 -492.6143 -408.3632
ENERGY: 300000 1.4512 2.9725 5.8318 0.0000 -10753.4587 1503.8216 0.0000 0.0000 1777.8051 -7461.5764 303.8316 -9239.3815 -7461.0703 297.9471 833.4308 824.1186 29845.3624 -125.8060 -70.8812
ENERGY: 600000 0.2956 4.6336 5.0697 0.0000 -10699.2952 1431.0793 0.0000 0.0000 1729.2602 -7528.9569 295.5352 -9258.2170 -7465.9471 298.2283 -250.0003 -206.8700 30518.6529 60.4956 115.4087
ENERGY: 900000 2.4534 9.5778 6.6519 0.0000 -10565.8592 1427.4411 0.0000 0.0000 1686.3582 -7433.3768 288.2031 -9119.7350 -7470.5732 297.1675 -0.2428 36.9793 30449.8222 -65.7101 -9.7569
ENERGY: 1200000 0.3773 4.2561 5.6101 0.0000 -10638.6526 1393.6533 0.0000 0.0000 1764.0696 -7470.6862 301.4842 -9234.7558 -7478.2614 298.1768 -698.6109 -611.5011 31013.6654 -68.7427 -12.9716
ENERGY: 1500000 2.4627 8.1345 6.0480 0.0000 -10458.5460 1313.2726 0.0000 0.0000 1808.3667 -7320.2614 309.0547 -9128.6281 -7465.7634 298.7497 -879.3581 -904.9285 31091.6800 -88.7855 -42.8835
TCL: Running FEP window  13: Lambda1 0.6    Lambda2 0.65   [dLambda 0.050000000000000044]
TCL: Setting parameter firsttimestep to 0
TCL: Setting parameter alchLambda to 0.6
Info: NONBONDED TABLE R-SQUARED SPACING: 0.0625
Info: NONBONDED TABLE SIZE: 705 POINTS
TCL: Setting parameter alchLambda2 to 0.65
Info: NONBONDED TABLE R-SQUARED SPACING: 0.0625
Info: NONBONDED TABLE SIZE: 705 POINTS
TCL: Running for 1500000 steps
ETITLE: TS BOND ANGLE DIHED IMPRP ELECT VDW BOUNDARY MISC KINETIC TOTAL TEMP POTENTIAL TOTALAVG TEMPAVG PRESSURE GPRESSURE VOLUME PRESSAVG GPRESSAVG
ENERGY: 0 2.4627 8.1345 6.0480 0.0000 -10458.5715 1313.3056 0.0000 0.0000 1807.4847 -7321.1360 308.9039 -9128.6207 -7321.1360 308.9039 -968.5843 -899.4300 31091.6800 -968.5843 -899.4300
ENERGY: 300000 0.5207 6.8573 5.5449 0.0000 -10640.4534 1384.3491 0.0000 0.0000 1723.3594 -7519.8219 294.5267 -9243.1813 -7418.3395 303.5246 -414.3242 -360.4212 30171.3812 -270.6645 -211.1378
ENERGY: 600000 0.9448 8.4913 6.0057 0.0000 -10638.0511 1454.5861 0.0000 0.0000 1726.1099 -7441.9133 294.9968 -9168.0231 -7451.0833 300.9749 152.0649 156.5493 30421.4168 -294.7902 -233.9260
ENERGY: 900000 1.3729 3.9123 5.4617 0.0000 -10558.4764 1427.2205 0.0000 0.0000 1743.5209 -7376.9881 297.9724 -9120.5090 -7454.5913 299.3348 231.0518 334.9955 30496.2848 -249.6789 -174.2994
ENERGY: 1200000 0.9576 6.9833 5.5640 0.0000 -10589.9402 1451.5195 0.0000 0.0000 1708.0350 -7416.8808 291.9077 -9124.9158 -7452.9859 299.2846 160.7443 234.5706 30644.9313 -262.3266 -189.5327
ENERGY: 1500000 0.6969 5.7677 5.4765 0.0000 -10702.4652 1440.7898 0.0000 0.0000 1742.4815 -7507.2528 297.7947 -9249.7343 -7456.5568 299.2989 -19.9290 52.2761 30253.5886 -284.6439 -210.4409
TCL: Running FEP window  14: Lambda1 0.65   Lambda2 0.7000000000000001 [dLambda 0.050000000000000044]
TCL: Setting parameter firsttimestep to 0
TCL: Setting parameter alchLambda to 0.65
Info: NONBONDED TABLE R-SQUARED SPACING: 0.0625
Info: NONBONDED TABLE SIZE: 705 POINTS
TCL: Setting parameter alchLambda2 to 0.7000000000000001
Info: NONBONDED TABLE R-SQUARED SPACING: 0.0625
Info: NONBONDED TABLE SIZE: 705 POINTS
TCL: Running for 1500000 steps
ETITLE: TS BOND ANGLE DIHED IMPRP ELECT VDW BOUNDARY MISC KINETIC TOTAL TEMP POTENTIAL TOTALAVG TEMPAVG PRESSURE GPRESSURE VOLUME PRESSAVG GPRESSAVG
ENERGY: 0 0.6970 5.7677 5.4765 0.0000 -10702.2981 1440.6192 0.0000 0.0000 1741.5877 -7508.1500 297.6420 -9249.7377 -7508.1500 297.6420 -20.9502 57.0316 30253.5886 -20.9502 57.0316
ENERGY: 300000 2.5687 3.8126 5.1470 0.0000 -10589.6027 1379.6249 0.0000 0.0000 1777.0652 -7421.3843 303.7052 -9198.4495 -7480.7335 302.0744 -512.7830 -413.0893 30658.5101 -144.0647 -81.0676
ENERGY: 600000 0.4032 7.6296 5.8066 0.0000 -10508.5565 1363.7590 0.0000 0.0000 1797.5850 -7333.3731 307.2121 -9130.9581 -7443.2600 303.0300 -503.0738 -436.3975 30888.1873 -103.5611 -51.1279
ENERGY: 900000 0.4273 7.1624 6.1006 0.0000 -10691.1412 1439.1023 0.0000 0.0000 1743.1541 -7495.1946 297.9097 -9238.3487 -7458.0542 300.9297 -239.7287 -131.7687 30590.9632 -56.9463 4.9417
ENERGY: 1200000 1.3663 5.9859 5.2592 0.0000 -10548.2233 1352.7534 0.0000 0.0000 1784.7043 -7398.1541 305.0107 -9182.8584 -7457.1912 301.0180 -798.1728 -655.6082 30735.0413 -104.7902 -41.8824
ENERGY: 1500000 1.5103 4.4761 4.9971 0.0000 -10751.1118 1518.8652 0.0000 0.0000 1785.3424 -7435.9206 305.1198 -9221.2630 -7447.8793 302.0237 932.0303 1076.4984 29934.7454 -81.4387 -13.3354
TCL: Running FEP window  15: Lambda1 0.7000000000000001 Lambda2 0.7500000000000001 [dLambda 0.050000000000000044]
TCL: Setting parameter firsttimestep to 0
TCL: Setting parameter alchLambda to 0.7000000000000001
Info: NONBONDED TABLE R-SQUARED SPACING: 0.0625
Info: NONBONDED TABLE SIZE: 705 POINTS
TCL: Setting parameter alchLambda2 to 0.7500000000000001
Info: NONBONDED TABLE R-SQUARED SPACING: 0.0625
Info: NONBONDED TABLE SIZE: 705 POINTS
TCL: Running for 1500000 steps
ETITLE: TS BOND ANGLE DIHED IMPRP ELECT VDW BOUNDARY MISC KINETIC TOTAL TEMP POTENTIAL TOTALAVG TEMPAVG PRESSURE GPRESSURE VOLUME PRESSAVG GPRESSAVG
ENERGY: 0 1.5103 4.4761 4.9971 0.0000 -10751.4166 1519.3161 0.0000 0.0000 1784.4658 -7436.6512 304.9700 -9221.1170 -7436.6512 304.9700 994.7281 1090.1527 29934.7454 994.7281 1090.1527
ENERGY: 300000 0.3435 9.0812 6.1287 0.0000 -10577.1739 1393.4946 0.0000 0.0000 1722.8439 -7445.2821 294.4386 -9168.1260 -7479.1054 298.2575 -126.7475 -56.9482 30109.7432 -48.3360 35.0020
ENERGY: 600000 0.2448 3.1159 6.1865 0.0000 -10629.0195 1368.4146 0.0000 0.0000 1729.9237 -7521.1340 295.6486 -9251.0577 -7465.8065 297.5608 -579.9624 -507.2698 30364.4141 -70.0179 -9.8115
ENERGY: 900000 1.7395 3.8836 5.6370 0.0000 -10614.6593 1445.5998 0.0000 0.0000 1779.5791 -7378.2204 304.1348 -9157.7995 -7460.4739 298.0974 238.1671 283.1541 30335.7257 50.3408 106.7831
ENERGY: 1200000 1.2036 4.0531 5.4698 0.0000 -10670.8968 1487.9168 0.0000 0.0000 1732.9830 -7439.2705 296.1714 -9172.2535 -7460.2360 298.2021 757.8546 730.0128 30010.0390 36.9846 87.2878
ENERGY: 1500000 1.1298 5.9786 5.8166 0.0000 -10682.4358 1470.3789 0.0000 0.0000 1741.1308 -7458.0011 297.5639 -9199.1319 -7458.6423 298.5411 360.1392 408.6287 30285.3955 63.5386 120.4611
TCL: Running FEP window  16: Lambda1 0.7500000000000001 Lambda2 0.8000000000000002 [dLambda 0.050000000000000044]
TCL: Setting parameter firsttimestep to 0
TCL: Setting parameter alchLambda to 0.7500000000000001
Info: NONBONDED TABLE R-SQUARED SPACING: 0.0625
Info: NONBONDED TABLE SIZE: 705 POINTS
TCL: Setting parameter alchLambda2 to 0.8000000000000002
Info: NONBONDED TABLE R-SQUARED SPACING: 0.0625
Info: NONBONDED TABLE SIZE: 705 POINTS
TCL: Running for 1500000 steps
ETITLE: TS BOND ANGLE DIHED IMPRP ELECT VDW BOUNDARY MISC KINETIC TOTAL TEMP POTENTIAL TOTALAVG TEMPAVG PRESSURE GPRESSURE VOLUME PRESSAVG GPRESSAVG
ENERGY: 0 1.1298 5.9786 5.8166 0.0000 -10682.6394 1470.3222 0.0000 0.0000 1740.2528 -7459.1395 297.4138 -9199.3923 -7459.1395 297.4138 351.7194 416.6162 30285.3955 351.7194 416.6162
ENERGY: 300000 1.3901 3.4421 8.0747 0.0000 -10675.7395 1403.8470 0.0000 0.0000 1774.7858 -7484.1997 303.3156 -9258.9855 -7487.1606 300.2723 -360.6014 -315.4762 30739.1527 -67.8543 -11.4480
ENERGY: 600000 1.0609 5.6496 5.5133 0.0000 -10665.9560 1432.3242 0.0000 0.0000 1811.6674 -7409.7405 309.6188 -9221.4080 -7459.7645 301.1347 -73.1232 -7.4218 30589.3266 -56.6163 20.1227
ENERGY: 900000 1.0356 8.2545 5.9533 0.0000 -10650.6405 1348.6764 0.0000 0.0000 1751.2413 -7535.4794 299.2918 -9286.7207 -7457.0786 300.3809 -1154.9458 -1090.7576 30726.7236 -253.0910 -184.3644
ENERGY: 1200000 0.3582 10.0764 5.5856 0.0000 -10553.1799 1399.6264 0.0000 0.0000 1777.4225 -7360.1109 303.7662 -9137.5334 -7448.1099 300.7211 105.4605 148.6710 30308.8677 -272.3523 -205.5527
ENERGY: 1500000 2.3192 10.6643 5.5267 0.0000 -10629.6777 1436.6255 0.0000 0.0000 1774.9270 -7399.6150 303.3398 -9174.5421 -7445.0818 301.0901 184.7721 243.9852 29951.2894 -261.3338 -188.2984
TCL: Running FEP window  17: Lambda1 0.8000000000000002 Lambda2 0.8500000000000002 [dLambda 0.050000000000000044]
TCL: Setting parameter firsttimestep to 0
TCL: Setting parameter alchLambda to 0.8000000000000002
Info: NONBONDED TABLE R-SQUARED SPACING: 0.0625
Info: NONBONDED TABLE SIZE: 705 POINTS
TCL: Setting parameter alchLambda2 to 0.8500000000000002
Info: NONBONDED TABLE R-SQUARED SPACING: 0.0625
Info: NONBONDED TABLE SIZE: 705 POINTS
TCL: Running for 1500000 steps
ETITLE: TS BOND ANGLE DIHED IMPRP ELECT VDW BOUNDARY MISC KINETIC TOTAL TEMP POTENTIAL TOTALAVG TEMPAVG PRESSURE GPRESSURE VOLUME PRESSAVG GPRESSAVG
ENERGY: 0 2.3192 10.6643 5.5267 0.0000 -10630.0112 1436.9740 0.0000 0.0000 1774.0532 -7400.4738 303.1904 -9174.5271 -7400.4738 303.1904 167.4135 258.8262 29951.2894 167.4135 258.8262
ENERGY: 300000 1.3802 6.6290 5.2488 0.0000 -10624.6728 1463.5039 0.0000 0.0000 1759.0199 -7388.8911 300.6212 -9147.9110 -7439.0491 298.9576 353.4118 487.0768 30386.3854 289.1969 365.6007
ENERGY: 600000 3.6249 7.2895 5.6614 0.0000 -10608.5400 1357.3895 0.0000 0.0000 1770.1011 -7464.4735 302.5150 -9234.5746 -7434.9666 301.3727 -836.7251 -726.5539 30363.0151 27.3607 84.6819
ENERGY: 900000 1.1297 7.9061 6.5770 0.0000 -10898.7074 1588.7933 0.0000 0.0000 1838.8285 -7455.4729 314.2607 -9294.3014 -7444.7555 302.3028 1648.2919 1640.1410 29457.0633 138.2505 192.2917
ENERGY: 1200000 0.1897 7.2544 5.7133 0.0000 -10599.9886 1378.0544 0.0000 0.0000 1720.2347 -7488.5422 293.9927 -9208.7769 -7455.0301 301.1319 -394.8418 -378.2963 30418.9973 41.6108 92.5231
ENERGY: 1500000 1.9526 5.7276 5.1994 0.0000 -10708.2254 1394.7735 0.0000 0.0000 1749.4048 -7551.1676 298.9779 -9300.5724 -7475.4339 300.0496 -615.3180 -479.0583 30171.5721 88.3497 143.4825
TCL: Running FEP window  18: Lambda1 0.8500000000000002 Lambda2 0.9000000000000002 [dLambda 0.050000000000000044]
TCL: Setting parameter firsttimestep to 0
TCL: Setting parameter alchLambda to 0.8500000000000002
Info: NONBONDED TABLE R-SQUARED SPACING: 0.0625
Info: NONBONDED TABLE SIZE: 705 POINTS
TCL: Setting parameter alchLambda2 to 0.9000000000000002
Info: NONBONDED TABLE R-SQUARED SPACING: 0.0625
Info: NONBONDED TABLE SIZE: 705 POINTS
TCL: Running for 1500000 steps
ETITLE: TS BOND ANGLE DIHED IMPRP ELECT VDW BOUNDARY MISC KINETIC TOTAL TEMP POTENTIAL TOTALAVG TEMPAVG PRESSURE GPRESSURE VOLUME PRESSAVG GPRESSAVG
ENERGY: 0 1.9526 5.7276 5.1994 0.0000 -10708.4841 1394.7084 0.0000 0.0000 1748.4971 -7552.3991 298.8228 -9300.8962 -7552.3991 298.8228 -558.2908 -470.3786 30171.5721 -558.2908 -470.3786
ENERGY: 300000 3.8097 5.5285 5.5876 0.0000 -10541.4213 1350.0014 0.0000 0.0000 1787.4027 -7389.0915 305.4719 -9176.4941 -7488.8874 303.1347 -615.4938 -560.2064 30267.7149 -293.6663 -222.0347
ENERGY: 600000 1.9406 9.7301 5.0912 0.0000 -10663.8878 1441.3423 0.0000 0.0000 1775.5845 -7430.1990 303.4521 -9205.7835 -7472.0788 304.1812 -43.5643 12.3241 30763.3991 -13.2210 49.7770
ENERGY: 900000 1.0934 5.0646 5.1483 0.0000 -10582.7979 1345.6567 0.0000 0.0000 1778.1116 -7447.7233 303.8840 -9225.8349 -7475.5270 302.2440 -838.5328 -714.9475 30466.8603 -168.4540 -108.5365
ENERGY: 1200000 1.1023 4.9019 5.2441 0.0000 -10670.9668 1444.0569 0.0000 0.0000 1771.0596 -7444.6020 302.6788 -9215.6615 -7471.0188 301.9325 -8.9523 68.6522 30571.9805 -142.9294 -82.1137
ENERGY: 1500000 1.6017 5.6873 5.0650 0.0000 -10686.5518 1443.5236 0.0000 0.0000 1768.9014 -7461.7728 302.3100 -9230.6742 -7467.1055 302.5659 273.3940 316.7947 29936.0171 -52.2969 7.4099
TCL: Running FEP window  19: Lambda1 0.9000000000000002 Lambda2 0.9500000000000003 [dLambda 0.050000000000000044]
TCL: Setting parameter firsttimestep to 0
TCL: Setting parameter alchLambda to 0.9000000000000002
Info: NONBONDED TABLE R-SQUARED SPACING: 0.0625
Info: NONBONDED TABLE SIZE: 705 POINTS
TCL: Setting parameter alchLambda2 to 0.9500000000000003
Info: NONBONDED TABLE R-SQUARED SPACING: 0.0625
Info: NONBONDED TABLE SIZE: 705 POINTS
TCL: Running for 1500000 steps
ETITLE: TS BOND ANGLE DIHED IMPRP ELECT VDW BOUNDARY MISC KINETIC TOTAL TEMP POTENTIAL TOTALAVG TEMPAVG PRESSURE GPRESSURE VOLUME PRESSAVG GPRESSAVG
ENERGY: 0 1.6017 5.6873 5.0650 0.0000 -10686.7558 1443.4862 0.0000 0.0000 1768.0133 -7462.9023 302.1582 -9230.9156 -7462.9023 302.1582 230.0320 325.5024 29936.0171 230.0320 325.5024
ENERGY: 300000 0.9990 4.0515 6.7264 0.0000 -10688.3626 1484.9150 0.0000 0.0000 1770.2010 -7421.4696 302.5321 -9191.6706 -7439.5973 302.6156 453.8542 511.2976 30292.6976 136.1731 181.6198
ENERGY: 600000 1.4887 4.0724 5.1598 0.0000 -10599.4197 1349.6494 0.0000 0.0000 1774.4998 -7464.5496 303.2667 -9239.0494 -7443.3069 301.1643 -734.9357 -715.5129 30403.0121 -131.5104 -75.9692
ENERGY: 900000 1.5148 5.2866 5.3050 0.0000 -10686.0834 1453.3133 0.0000 0.0000 1779.2848 -7441.3790 304.0845 -9220.6638 -7460.1358 299.9654 41.0957 40.3861 30599.0395 -155.3523 -101.9525
ENERGY: 1200000 0.6792 6.7830 5.3422 0.0000 -10826.4129 1536.4326 0.0000 0.0000 1762.6993 -7514.4765 301.2500 -9277.1759 -7453.4088 300.0124 747.8848 701.3638 30077.5459 -30.4223 16.4029
ENERGY: 1500000 3.0634 4.4074 5.0948 0.0000 -10712.4342 1500.4677 0.0000 0.0000 1788.5301 -7410.8708 305.6646 -9199.4009 -7455.3891 300.3776 633.9824 635.1625 30330.8383 -0.9572 41.1645
TCL: Running FEP window  20: Lambda1 0.9500000000000003 Lambda2 1.0    [dLambda 0.04999999999999971]
TCL: Setting parameter firsttimestep to 0
TCL: Setting parameter alchLambda to 0.9500000000000003
Info: NONBONDED TABLE R-SQUARED SPACING: 0.0625
Info: NONBONDED TABLE SIZE: 705 POINTS
TCL: Setting parameter alchLambda2 to 1.0
Info: NONBONDED TABLE R-SQUARED SPACING: 0.0625
Info: NONBONDED TABLE SIZE: 705 POINTS
TCL: Running for 1500000 steps
ETITLE: TS BOND ANGLE DIHED IMPRP ELECT VDW BOUNDARY MISC KINETIC TOTAL TEMP POTENTIAL TOTALAVG TEMPAVG PRESSURE GPRESSURE VOLUME PRESSAVG GPRESSAVG
ENERGY: 0 3.0634 4.4074 5.0948 0.0000 -10712.7358 1500.2349 0.0000 0.0000 1787.6278 -7412.3074 305.5104 -9199.9353 -7412.3074 305.5104 571.5629 641.2978 30330.8383 571.5629 641.2978
ENERGY: 300000 0.6364 6.7195 5.3417 0.0000 -10630.8345 1395.3388 0.0000 0.0000 1730.4588 -7492.3394 295.7400 -9222.7981 -7466.4239 298.3927 -271.3751 -235.8439 30275.6209 -341.1762 -305.0110
ENERGY: 600000 0.6617 5.4485 5.7353 0.0000 -10585.8629 1430.5256 0.0000 0.0000 1701.1431 -7442.3487 290.7299 -9143.4918 -7450.1586 298.4617 132.7258 222.6616 30285.3549 -204.1627 -152.7629
ENERGY: 900000 1.3245 6.4043 5.6001 0.0000 -10537.3114 1412.1952 0.0000 0.0000 1709.1688 -7402.6186 292.1015 -9111.7874 -7444.9483 298.7211 141.4967 215.6410 30154.5626 -105.0240 -52.5103
ENERGY: 1200000 0.9771 5.1578 5.5401 0.0000 -10611.4984 1471.8844 0.0000 0.0000 1722.2832 -7405.6557 294.3428 -9127.9389 -7444.9459 297.4708 315.6669 385.6237 31045.2661 -98.3097 -42.1219
ENERGY: 1500000 0.8974 6.8123 5.5343 0.0000 -10686.1489 1418.0948 0.0000 0.0000 1751.8005 -7503.0095 299.3874 -9254.8101 -7451.2511 298.2193 -187.9894 -129.4690 30339.3142 -92.4142 -37.0471
TCL: Exiting due to exit command.
