Info: SIMULATION PARAMETERS:
Info: TIMESTEP               2
Info: NUMBER OF STEPS        0
Info: STEPS PER CYCLE        10
Info: PERIODIC CELL BASIS 1  32.5444 0 0
Info: PERIODIC CELL BASIS 2  0 33.9432 0
Info: PERIODIC CELL BASIS 3  0 0 27.4752
Info: PERIODIC CELL CENTER   0 0 0
Info: WRAPPING WATERS AROUND PERIODIC BOUNDARIES ON OUTPUT.
Info: WRAPPING ALL CLUSTERS AROUND PERIODIC BOUNDARIES ON OUTPUT.
Info: FIRST LDB TIMESTEP     50
Info: LAST LDB TIMESTEP     -1
Info: HOM BACKGROUND SCALING 1
Info: PME BACKGROUND SCALING 1
Info: MIN ATOMS PER PATCH    40
Info: EMPTY PATCH LOAD       40 ATOMS
Info: VELOCITY FILE          mobley_3976574_equil.vel
Info: CENTER OF MASS MOVING INITIALLY? NO
Info: DIELECTRIC             1
Info: EXCLUDE                SCALED ONE-FOUR
Info: 1-4 ELECTROSTATICS SCALED BY 0.833333
Info: MODIFIED 1-4 VDW PARAMETERS WILL BE USED
Info: DCD FILENAME           mobley_3976574_prod.dcd
Info: DCD FREQUENCY          100000
Info: DCD FIRST STEP         100000
Info: DCD FILE WILL CONTAIN UNIT CELL DATA
Info: XST FILENAME           mobley_3976574_prod.xst
Info: XST FREQUENCY          100000
Info: NO VELOCITY DCD OUTPUT
Info: NO FORCE DCD OUTPUT
Info: OUTPUT FILENAME        mobley_3976574_prod
Info: BINARY OUTPUT FILES WILL BE USED
Info: RESTART FILENAME       mobley_3976574_prod.restart
Info: RESTART FREQUENCY      100000
Info: BINARY RESTART FILES WILL BE USED
Info: CUTOFF                 9
Info: PAIRLIST DISTANCE      11
Info: PAIRLIST SHRINK RATE   0.01
Info: PAIRLIST GROW RATE     0.01
Info: PAIRLIST TRIGGER       0.3
Info: PAIRLISTS PER CYCLE    2
Info: PAIRLISTS ENABLED
Info: MARGIN                 2
Info: HYDROGEN GROUP CUTOFF  2.5
Info: PATCH DIMENSION        15.5
Info: ENERGY OUTPUT STEPS    100000
Info: ENERGY EVALUATION STEPS    100000
Info: OUTPUT ENERGY PRECISION 4
Info: CROSSTERM ENERGY INCLUDED IN DIHEDRAL
Info: TIMING OUTPUT STEPS    1000000
Info: PRESSURE OUTPUT STEPS  100000
Info: ALCHEMICAL FEP ON
Info: FEP CURRENT LAMBDA VALUE     1
Info: FEP COMPARISON LAMBDA VALUE  0.95
Info: FEP INTRA-ALCHEMICAL NON-BONDED INTERACTIONS WILL BE RETAINED
Info: FEP INTRA-ALCHEMICAL BONDED INTERACTIONS WILL BE RETAINED
Info: FEP VDW SHIFTING COEFFICIENT 5
Info: FEP ELEC. ACTIVE FOR ANNIHILATED PARTICLES BETWEEN LAMBDA = 0 AND LAMBDA = 0.5
Info: FEP ELEC. ACTIVE FOR EXNIHILATED PARTICLES BETWEEN LAMBDA = 0.5 AND LAMBDA = 1
Info: FEP VDW ACTIVE FOR ANNIHILATED PARTICLES BETWEEN LAMBDA = 0 AND LAMBDA = 1
Info: FEP VDW ACTIVE FOR EXNIHILATED PARTICLES BETWEEN LAMBDA = 0 AND LAMBDA = 1
Info: FEP BOND ACTIVE FOR ANNIHILATED PARTICLES BETWEEN LAMBDA = 1 AND LAMBDA = 1
Info: FEP BOND ACTIVE FOR EXNIHILATED PARTICLES BETWEEN LAMBDA = 0 AND LAMBDA = 0
Info: LANGEVIN DYNAMICS ACTIVE
Info: LANGEVIN TEMPERATURE   300
Info: LANGEVIN USING BBK INTEGRATOR
Info: LANGEVIN DAMPING COEFFICIENT IS 1 INVERSE PS
Info: LANGEVIN DYNAMICS APPLIED TO HYDROGENS
Info: LANGEVIN PISTON PRESSURE CONTROL ACTIVE
Info:        TARGET PRESSURE IS 1.01325 BAR
Info:     OSCILLATION PERIOD IS 50 FS
Info:             DECAY TIME IS 25 FS
Info:     PISTON TEMPERATURE IS 300 K
Info:       PRESSURE CONTROL IS GROUP-BASED
Info:    INITIAL STRAIN RATE IS -0.000375353 -0.000375353 -0.000375353
Info:       CELL FLUCTUATION IS ISOTROPIC
Info: PARTICLE MESH EWALD (PME) ACTIVE
Info: PME TOLERANCE               1e-06
Info: PME EWALD COEFFICIENT       0.348832
Info: PME INTERPOLATION ORDER     4
Info: PME GRID DIMENSIONS         36 36 28
Info: PME MAXIMUM GRID SPACING    1
Info: PME CALCULATION WILL BE PERFORMED ON GPU
Info: FULL ELECTROSTATIC EVALUATION FREQUENCY      2
Info: USING VERLET I (r-RESPA) MTS SCHEME.
Info: C1 SPLITTING OF LONG RANGE ELECTROSTATICS
Info: PLACING ATOMS IN PATCHES BY HYDROGEN GROUPS
Info: RIGID BONDS TO HYDROGEN : ALL
Info:         ERROR TOLERANCE : 1e-08
Info:          MAX ITERATIONS : 100
Info: RIGID WATER USING SETTLE ALGORITHM
Info: RANDOM NUMBER SEED     1744157976
Info: USE HYDROGEN BONDS?    NO
Info: Using AMBER format force field!
Info: AMBER PARM FILE        mobley_3976574.prmtop
Info: COORDINATE PDB         mobley_3976574.pdb
Info: Exclusions will be read from PARM file!
Info: SCNB (VDW SCALING)     2
Info: USING ARITHMETIC MEAN TO COMBINE L-J SIGMA PARAMETERS
Info: BINARY COORDINATES     mobley_3976574_equil.coor
Info: SUMMARY OF PARAMETERS:
Info: 6 BONDS
Info: 5 ANGLES
Info:   5 HARMONIC
Info:   0 COSINE-BASED
Info: 3 DIHEDRAL
Info: 0 IMPROPER
Info: 0 CROSSTERM
Info: 0 VDW
Info: 21 VDW_PAIRS
Info: 0 NBTHOLE_PAIRS
Info: To read alchdata from file: mobley_3976574.pdb
Info: To read alchflag data from column: 5
Info: STRUCTURE SUMMARY:
Info: 2989 ATOMS
Info: 2991 BONDS
Info: 38 ANGLES
Info: 68 DIHEDRALS
Info: 0 IMPROPERS
Info: 0 CROSSTERMS
Info: 3076 EXCLUSIONS
Info: 2970 RIGID BONDS
Info: ALCH: 0 ATOMS TO DISAPPEAR IN FINAL STATE
Info: ALCH: 22 ATOMS TO APPEAR IN FINAL STATE
Info: 5997 DEGREES OF FREEDOM
Info: 1008 HYDROGEN GROUPS
Info: 3 ATOMS IN LARGEST HYDROGEN GROUP
Info: 1008 MIGRATION GROUPS
Info: 3 ATOMS IN LARGEST MIGRATION GROUP
Info: TOTAL MASS = 18174.2 amu
Info: TOTAL CHARGE = -9.99793e-05 e
Info: MASS DENSITY = 0.994365 g/cm^3
Info: ATOM DENSITY = 0.0984819 atoms/A^3
Info: ADDED 0 IMPLICIT EXCLUSIONS
Info: NONBONDED TABLE R-SQUARED SPACING: 0.0625
Info: NONBONDED TABLE SIZE: 705 POINTS
Info: REDUCING NUMBER OF PATCHES TO IMPROVE LOAD BALANCE
Info: REMOVING COM VELOCITY 0.00276086 -0.0609681 -0.0467724
Info: Use 3D box decompostion in PME FFT.
Info: Updated CUDA force table with 4096 elements.
Info: Updated CUDA LJ table with 6 x 6 elements.
Info: Found 24 unique exclusion lists needing 68 bytes
TCL: Running for 1500000 steps
ETITLE: TS BOND ANGLE DIHED IMPRP ELECT VDW BOUNDARY MISC KINETIC TOTAL TEMP POTENTIAL TOTALAVG TEMPAVG PRESSURE GPRESSURE VOLUME PRESSAVG GPRESSAVG
ENERGY: 0 4.5077 3.9261 3.3989 0.0000 -10867.2160 1524.0620 0.0000 0.0000 1793.2154 -7538.1059 300.9462 -9331.3213 -7538.1059 300.9462 810.8663 896.0406 30350.7448 810.8663 896.0406
ENERGY: 300000 5.4379 7.3096 2.2745 0.0000 -10752.1915 1409.8958 0.0000 0.0000 1791.0025 -7536.2714 300.5748 -9327.2739 -7516.0167 299.1479 -260.8831 -205.7226 31042.3636 36.3202 108.1316
ENERGY: 600000 4.4285 4.5535 3.9974 0.0000 -10881.2009 1477.7265 0.0000 0.0000 1858.3768 -7532.1183 311.8819 -9390.4951 -7533.4441 300.5572 520.2887 567.1287 30266.1197 135.0606 202.8976
ENERGY: 900000 7.6247 3.1744 6.3198 0.0000 -10786.7476 1390.9196 0.0000 0.0000 1836.7607 -7541.9484 308.2541 -9378.7091 -7540.0056 301.1893 -652.4990 -605.4258 31367.1235 20.0554 82.6265
ENERGY: 1200000 4.6157 5.8431 5.5977 0.0000 -10846.2245 1465.3474 0.0000 0.0000 1842.5811 -7522.2395 309.2309 -9364.8206 -7539.3047 301.9458 251.9456 315.4140 30868.3714 -3.4495 59.8331
ENERGY: 1500000 5.3815 6.6021 7.5365 0.0000 -10859.5548 1435.9724 0.0000 0.0000 1818.6295 -7585.4327 305.2113 -9404.0622 -7539.3750 302.3904 -452.2538 -406.7122 31035.8651 -55.2705 4.9874
TCL: Running FEP window   2: Lambda1 0.95   Lambda2 0.8999999999999999 [dLambda -0.050000000000000044]
TCL: Setting parameter firsttimestep to 0
TCL: Setting parameter alchLambda to 0.95
Info: NONBONDED TABLE R-SQUARED SPACING: 0.0625
Info: NONBONDED TABLE SIZE: 705 POINTS
TCL: Setting parameter alchLambda2 to 0.8999999999999999
Info: NONBONDED TABLE R-SQUARED SPACING: 0.0625
Info: NONBONDED TABLE SIZE: 705 POINTS
TCL: Running for 1500000 steps
ETITLE: TS BOND ANGLE DIHED IMPRP ELECT VDW BOUNDARY MISC KINETIC TOTAL TEMP POTENTIAL TOTALAVG TEMPAVG PRESSURE GPRESSURE VOLUME PRESSAVG GPRESSAVG
ENERGY: 0 5.3815 6.6021 7.5365 0.0000 -10859.0304 1436.1408 0.0000 0.0000 1817.6959 -7585.6736 305.0546 -9403.3695 -7585.6736 305.0546 -501.8912 -424.8650 31035.8651 -501.8912 -424.8650
ENERGY: 300000 4.0600 2.8662 9.3083 0.0000 -10911.2700 1528.9243 0.0000 0.0000 1746.0816 -7620.0295 293.0359 -9366.1111 -7546.3404 298.8936 439.3222 465.9408 31226.8125 -66.4599 -11.7277
ENERGY: 600000 9.1855 2.8216 6.1047 0.0000 -10789.4279 1488.1924 0.0000 0.0000 1809.0008 -7474.1230 303.5953 -9283.1238 -7526.5420 300.2159 182.7393 263.0695 31042.5301 -55.7117 1.2197
ENERGY: 900000 8.6726 2.7656 1.8504 0.0000 -10831.4058 1507.3252 0.0000 0.0000 1745.2769 -7565.5151 292.9009 -9310.7920 -7522.6669 299.2875 521.1572 609.9349 30711.4419 -49.8629 12.2842
ENERGY: 1200000 8.3452 3.5920 2.9858 0.0000 -10626.6518 1318.0870 0.0000 0.0000 1763.4919 -7530.1499 295.9578 -9293.6418 -7518.6375 300.1425 -1077.3507 -970.8206 30904.8381 -67.7753 -16.2995
ENERGY: 1500000 9.1862 3.1850 5.5347 0.0000 -10774.3481 1433.8607 0.0000 0.0000 1795.1223 -7527.4592 301.2662 -9322.5815 -7522.9008 300.1324 57.5739 121.8674 30934.7057 -24.3802 25.1730
TCL: Running FEP window   3: Lambda1 0.8999999999999999 Lambda2 0.8499999999999999 [dLambda -0.050000000000000044]
TCL: Setting parameter firsttimestep to 0
TCL: Setting parameter alchLambda to 0.8999999999999999
Info: NONBONDED TABLE R-SQUARED SPACING: 0.0625
Info: NONBONDED TABLE SIZE: 705 POINTS
TCL: Setting parameter alchLambda2 to 0.8499999999999999
Info: NONBONDED TABLE R-SQUARED SPACING: 0.0625
Info: NONBONDED TABLE SIZE: 705 POINTS
TCL: Running for 1500000 steps
ETITLE: TS BOND ANGLE DIHED IMPRP ELECT VDW BOUNDARY MISC KINETIC TOTAL TEMP POTENTIAL TOTALAVG TEMPAVG PRESSURE GPRESSURE VOLUME PRESSAVG GPRESSAVG
ENERGY: 0 9.1862 3.1850 5.5347 0.0000 -10774.1379 1434.1870 0.0000 0.0000 1794.2398 -7527.8052 301.1181 -9322.0450 -7527.8052 301.1181 13.6991 108.5683 30934.7057 13.6991 108.5683
ENERGY: 300000 9.1905 5.1239 5.7965 0.0000 -10707.4371 1437.4444 0.0000 0.0000 1835.0063 -7414.8754 307.9597 -9249.8817 -7485.8203 305.4411 -78.7431 9.9669 30913.0606 -308.2666 -245.9839
ENERGY: 600000 9.9529 6.8700 4.8684 0.0000 -10924.8649 1507.2677 0.0000 0.0000 1680.9252 -7714.9806 282.1011 -9395.9058 -7558.2385 300.1677 -189.5566 -132.5223 31185.2666 -230.0182 -171.8136
ENERGY: 900000 6.8855 5.9489 3.9952 0.0000 -10831.1731 1368.4074 0.0000 0.0000 1770.4999 -7675.4361 297.1339 -9445.9360 -7573.9946 298.3313 -1223.9639 -1153.5757 31084.6545 -356.8370 -288.4504
ENERGY: 1200000 9.3923 7.8911 8.0355 0.0000 -10832.7958 1404.2237 0.0000 0.0000 1851.8191 -7551.4340 310.7813 -9403.2531 -7561.7598 300.4995 -412.0620 -337.6636 30949.6327 -250.4636 -185.0389
ENERGY: 1500000 8.9561 8.5403 6.6497 0.0000 -10770.2834 1417.4787 0.0000 0.0000 1786.4845 -7542.1740 299.8165 -9328.6585 -7565.4004 299.7646 -270.7735 -233.6302 30718.2044 -148.6617 -95.0970
TCL: Running FEP window   4: Lambda1 0.8499999999999999 Lambda2 0.7999999999999998 [dLambda -0.050000000000000044]
TCL: Setting parameter firsttimestep to 0
TCL: Setting parameter alchLambda to 0.8499999999999999
Info: NONBONDED TABLE R-SQUARED SPACING: 0.0625
Info: NONBONDED TABLE SIZE: 705 POINTS
TCL: Setting parameter alchLambda2 to 0.7999999999999998
Info: NONBONDED TABLE R-SQUARED SPACING: 0.0625
Info: NONBONDED TABLE SIZE: 705 POINTS
TCL: Running for 1500000 steps
ETITLE: TS BOND ANGLE DIHED IMPRP ELECT VDW BOUNDARY MISC KINETIC TOTAL TEMP POTENTIAL TOTALAVG TEMPAVG PRESSURE GPRESSURE VOLUME PRESSAVG GPRESSAVG
ENERGY: 0 8.9561 8.5403 6.6497 0.0000 -10770.0689 1418.5428 0.0000 0.0000 1785.5815 -7541.7984 299.6650 -9327.3799 -7541.7984 299.6650 -317.9659 -237.5129 30718.2044 -317.9659 -237.5129
ENERGY: 300000 5.0380 6.7996 4.5963 0.0000 -10827.9915 1415.3206 0.0000 0.0000 1752.1854 -7644.0514 294.0603 -9396.2369 -7587.6615 297.7410 -335.7690 -227.0563 31097.5909 -82.3512 14.2018
ENERGY: 600000 8.3119 4.4562 10.3232 0.0000 -10814.9575 1455.8743 0.0000 0.0000 1821.3840 -7514.6079 305.6735 -9335.9918 -7566.8841 299.1295 -53.3416 39.3816 30711.7239 -156.0304 -61.7340
ENERGY: 900000 5.1701 4.7291 4.7391 0.0000 -10742.0148 1436.5820 0.0000 0.0000 1790.3121 -7500.4824 300.4589 -9290.7945 -7555.2278 299.7941 -9.7078 12.4457 31129.3142 -126.4579 -41.5813
ENERGY: 1200000 5.0350 1.7546 8.6021 0.0000 -10729.8740 1461.4161 0.0000 0.0000 1816.5035 -7436.5627 304.8545 -9253.0662 -7538.8849 300.6560 377.8750 430.9302 30946.7202 25.0080 101.8858
ENERGY: 1500000 5.1392 3.9859 8.2731 0.0000 -10782.7809 1461.8153 0.0000 0.0000 1839.8538 -7463.7135 308.7732 -9303.5674 -7537.7195 300.9293 -97.2388 -23.8765 31325.0991 -24.0761 49.6654
TCL: Running FEP window   5: Lambda1 0.7999999999999998 Lambda2 0.7499999999999998 [dLambda -0.050000000000000044]
TCL: Setting parameter firsttimestep to 0
TCL: Setting parameter alchLambda to 0.7999999999999998
Info: NONBONDED TABLE R-SQUARED SPACING: 0.0625
Info: NONBONDED TABLE SIZE: 705 POINTS
TCL: Setting parameter alchLambda2 to 0.7499999999999998
Info: NONBONDED TABLE R-SQUARED SPACING: 0.0625
Info: NONBONDED TABLE SIZE: 705 POINTS
TCL: Running for 1500000 steps
ETITLE: TS BOND ANGLE DIHED IMPRP ELECT VDW BOUNDARY MISC KINETIC TOTAL TEMP POTENTIAL TOTALAVG TEMPAVG PRESSURE GPRESSURE VOLUME PRESSAVG GPRESSAVG
ENERGY: 0 5.1392 3.9859 8.2731 0.0000 -10782.8698 1462.6688 0.0000 0.0000 1838.9662 -7463.8366 308.6243 -9302.8028 -7463.8366 308.6243 -109.8299 -31.0994 31325.0991 -109.8299 -31.0994
ENERGY: 300000 4.7724 4.4136 7.8735 0.0000 -10776.3066 1378.8407 0.0000 0.0000 1778.8739 -7601.5326 298.5393 -9380.4064 -7546.9930 300.8915 -562.8597 -467.1714 30652.4527 -170.9934 -105.9431
ENERGY: 600000 6.2939 4.0843 3.9229 0.0000 -10697.1079 1383.7362 0.0000 0.0000 1782.9728 -7516.0979 299.2272 -9299.0707 -7552.8293 299.0413 -265.6459 -188.7690 30760.5448 23.8106 76.2401
ENERGY: 900000 6.2262 6.3642 7.3221 0.0000 -10850.7652 1532.9882 0.0000 0.0000 1783.6429 -7514.2215 299.3397 -9297.8645 -7545.5940 299.5202 525.6911 537.0125 31277.0108 53.2377 101.4720
ENERGY: 1200000 8.6230 6.9238 6.1241 0.0000 -10652.0397 1377.5152 0.0000 0.0000 1850.0032 -7402.8504 310.4766 -9252.8537 -7533.1788 300.3945 -600.9940 -509.0065 31279.2453 2.2159 50.5735
ENERGY: 1500000 8.4125 5.3946 4.7937 0.0000 -10930.7162 1463.6963 0.0000 0.0000 1729.5265 -7718.8927 290.2576 -9448.4192 -7547.7885 299.7687 -302.8216 -167.7306 30833.3208 -60.7993 1.0799
TCL: Running FEP window   6: Lambda1 0.7499999999999998 Lambda2 0.6999999999999997 [dLambda -0.050000000000000044]
TCL: Setting parameter firsttimestep to 0
TCL: Setting parameter alchLambda to 0.7499999999999998
Info: NONBONDED TABLE R-SQUARED SPACING: 0.0625
Info: NONBONDED TABLE SIZE: 705 POINTS
TCL: Setting parameter alchLambda2 to 0.6999999999999997
Info: NONBONDED TABLE R-SQUARED SPACING: 0.0625
Info: NONBONDED TABLE SIZE: 705 POINTS
TCL: Running for 1500000 steps
ETITLE: TS BOND ANGLE DIHED IMPRP ELECT VDW BOUNDARY MISC KINETIC TOTAL TEMP POTENTIAL TOTALAVG TEMPAVG PRESSURE GPRESSURE VOLUME PRESSAVG GPRESSAVG
ENERGY: 0 8.4125 5.3946 4.7937 0.0000 -10930.5034 1464.2072 0.0000 0.0000 1728.6504 -7719.0451 290.1105 -9447.6954 -7719.0451 290.1105 -271.2154 -180.2280 30833.3208 -271.2154 -180.2280
ENERGY: 300000 5.4620 5.1007 6.7744 0.0000 -10758.3769 1441.9381 0.0000 0.0000 1787.7476 -7511.3542 300.0285 -9299.1018 -7582.5660 298.0200 -194.0532 -65.2362 31047.2148 -266.7932 -172.7691
ENERGY: 600000 7.7236 3.9012 6.9435 0.0000 -10791.7318 1450.6730 0.0000 0.0000 1820.3832 -7502.1073 305.5056 -9322.4905 -7552.8278 299.4210 27.6161 105.7336 30722.2366 -153.4314 -78.1367
ENERGY: 900000 9.2088 5.3066 5.5206 0.0000 -10860.9910 1530.2728 0.0000 0.0000 1737.5527 -7573.1294 291.6046 -9310.6821 -7536.8032 300.3037 511.3070 544.6373 31080.3916 100.7563 161.7511
ENERGY: 1200000 3.7273 5.8301 3.2064 0.0000 -10719.5505 1408.9284 0.0000 0.0000 1747.0347 -7550.8235 293.1959 -9297.8582 -7544.4661 299.6311 -24.3224 -11.9136 30950.6281 52.6641 112.4903
ENERGY: 1500000 4.1439 5.2865 8.6653 0.0000 -10821.1805 1479.3324 0.0000 0.0000 1788.1549 -7535.5976 300.0969 -9323.7525 -7540.3001 299.9124 394.6734 426.1661 30689.4096 71.3578 132.7619
TCL: Running FEP window   7: Lambda1 0.6999999999999997 Lambda2 0.6499999999999997 [dLambda -0.050000000000000044]
TCL: Setting parameter firsttimestep to 0
TCL: Setting parameter alchLambda to 0.6999999999999997
Info: NONBONDED TABLE R-SQUARED SPACING: 0.0625
Info: NONBONDED TABLE SIZE: 705 POINTS
TCL: Setting parameter alchLambda2 to 0.6499999999999997
Info: NONBONDED TABLE R-SQUARED SPACING: 0.0625
Info: NONBONDED TABLE SIZE: 705 POINTS
TCL: Running for 1500000 steps
ETITLE: TS BOND ANGLE DIHED IMPRP ELECT VDW BOUNDARY MISC KINETIC TOTAL TEMP POTENTIAL TOTALAVG TEMPAVG PRESSURE GPRESSURE VOLUME PRESSAVG GPRESSAVG
ENERGY: 0 4.1439 5.2865 8.6653 0.0000 -10820.8758 1480.1883 0.0000 0.0000 1787.2916 -7535.3002 299.9520 -9322.5919 -7535.3002 299.9520 329.1695 418.1229 30689.4096 329.1695 418.1229
ENERGY: 300000 6.9583 5.9876 4.8143 0.0000 -10645.0669 1363.7226 0.0000 0.0000 1811.8784 -7451.7057 304.0783 -9263.5841 -7533.7849 297.9229 -839.5507 -804.7370 31488.2326 -306.9065 -259.2163
ENERGY: 600000 4.2379 5.9015 5.2731 0.0000 -10711.9930 1406.3130 0.0000 0.0000 1817.4735 -7472.7940 305.0173 -9290.2675 -7519.0532 299.8409 -50.9454 34.2744 30742.5026 -162.7233 -122.9075
ENERGY: 900000 5.6234 5.7454 6.5283 0.0000 -10691.1275 1435.7250 0.0000 0.0000 1768.3321 -7469.1734 296.7701 -9237.5055 -7528.6479 298.5379 -76.2424 -21.8953 30878.8022 -18.3753 27.4512
ENERGY: 1200000 6.2684 4.7328 6.9384 0.0000 -10702.9183 1390.8067 0.0000 0.0000 1806.0006 -7488.1713 303.0918 -9294.1719 -7520.3275 299.9886 -613.6218 -565.1235 31375.1161 -69.0244 -17.4808
ENERGY: 1500000 4.2118 7.6501 5.3073 0.0000 -10740.4793 1431.2720 0.0000 0.0000 1760.4370 -7531.6011 295.4451 -9292.0381 -7527.2812 298.8531 144.4390 196.4522 30732.2029 -77.3651 -29.1637
TCL: Running FEP window   8: Lambda1 0.6499999999999997 Lambda2 0.5999999999999996 [dLambda -0.050000000000000044]
TCL: Setting parameter firsttimestep to 0
TCL: Setting parameter alchLambda to 0.6499999999999997
Info: NONBONDED TABLE R-SQUARED SPACING: 0.0625
Info: NONBONDED TABLE SIZE: 705 POINTS
TCL: Setting parameter alchLambda2 to 0.5999999999999996
Info: NONBONDED TABLE R-SQUARED SPACING: 0.0625
Info: NONBONDED TABLE SIZE: 705 POINTS
TCL: Running for 1500000 steps
ETITLE: TS BOND ANGLE DIHED IMPRP ELECT VDW BOUNDARY MISC KINETIC TOTAL TEMP POTENTIAL TOTALAVG TEMPAVG PRESSURE GPRESSURE VOLUME PRESSAVG GPRESSAVG
ENERGY: 0 4.2118 7.6501 5.3073 0.0000 -10740.1666 1431.3406 0.0000 0.0000 1759.5545 -7532.1023 295.2970 -9291.6568 -7532.1023 295.2970 89.0254 180.3564 30732.2029 89.0254 180.3564
ENERGY: 300000 4.4029 6.6711 6.7630 0.0000 -10730.7242 1423.5603 0.0000 0.0000 1765.1862 -7524.1406 296.2422 -9289.3268 -7488.5362 299.0119 -486.7428 -397.5766 31479.3166 -541.2280 -475.6027
ENERGY: 600000 7.4479 5.6273 6.7083 0.0000 -10953.1983 1559.4884 0.0000 0.0000 1800.9452 -7572.9812 302.2434 -9373.9264 -7508.2970 300.6932 1003.2042 1097.5542 30489.8230 -222.0164 -157.7299
ENERGY: 900000 7.5875 6.1069 9.1504 0.0000 -10802.4235 1456.8965 0.0000 0.0000 1752.9255 -7569.7566 294.1845 -9322.6822 -7528.1309 299.7756 158.5503 165.8544 30811.2568 -83.5049 -29.5237
ENERGY: 1200000 6.0000 5.4245 5.5957 0.0000 -10687.5949 1387.3336 0.0000 0.0000 1829.7506 -7453.4904 307.0777 -9283.2411 -7524.6300 300.6545 -543.7758 -453.7738 31213.5154 -98.2218 -42.5362
ENERGY: 1500000 8.0065 5.9813 4.7268 0.0000 -10734.5644 1419.7027 0.0000 0.0000 1855.8965 -7440.2506 311.4656 -9296.1470 -7518.3304 301.6146 -115.4091 -61.6256 30858.7910 -109.7747 -56.8926
TCL: Running FEP window   9: Lambda1 0.5999999999999996 Lambda2 0.5499999999999996 [dLambda -0.050000000000000044]
TCL: Setting parameter firsttimestep to 0
TCL: Setting parameter alchLambda to 0.5999999999999996
Info: NONBONDED TABLE R-SQUARED SPACING: 0.0625
Info: NONBONDED TABLE SIZE: 705 POINTS
TCL: Setting parameter alchLambda2 to 0.5499999999999996
Info: NONBONDED TABLE R-SQUARED SPACING: 0.0625
Info: NONBONDED TABLE SIZE: 705 POINTS
TCL: Running for 1500000 steps
ETITLE: TS BOND ANGLE DIHED IMPRP ELECT VDW BOUNDARY MISC KINETIC TOTAL TEMP POTENTIAL TOTALAVG TEMPAVG PRESSURE GPRESSURE VOLUME PRESSAVG GPRESSAVG
ENERGY: 0 8.0065 5.9813 4.7268 0.0000 -10734.7304 1420.4345 0.0000 0.0000 1855.0043 -7440.5770 311.3159 -9295.5813 -7440.5770 311.3159 -149.8206 -72.2129 30858.7910 -149.8206 -72.2129
ENERGY: 300000 9.6069 6.2972 6.0020 0.0000 -10647.2521 1343.8962 0.0000 0.0000 1814.3558 -7467.0940 304.4940 -9281.4499 -7451.3280 307.7852 -801.9220 -680.6017 30802.4019 263.4214 345.7404
ENERGY: 600000 13.0956 5.4504 7.6216 0.0000 -10944.8713 1531.1981 0.0000 0.0000 1790.3440 -7597.1615 300.4643 -9387.5056 -7463.9011 305.8198 619.4301 648.5826 30578.4070 281.6677 350.2859
ENERGY: 900000 10.8237 3.7745 5.8270 0.0000 -10824.5393 1478.1467 0.0000 0.0000 1813.7231 -7512.2443 304.3879 -9325.9674 -7494.9278 303.3923 236.3922 294.2681 30304.9205 118.7910 169.5869
ENERGY: 1200000 4.3879 5.0083 6.5282 0.0000 -10687.7432 1369.8110 0.0000 0.0000 1809.4820 -7492.5257 303.6761 -9302.0077 -7498.2272 302.7157 -757.2382 -731.3936 31605.1083 33.6513 84.4167
ENERGY: 1500000 5.1624 5.2085 6.3319 0.0000 -10836.4360 1503.5122 0.0000 0.0000 1797.7241 -7518.4969 301.7028 -9316.2209 -7494.0353 303.7942 101.2214 174.2890 31172.4972 -25.5830 30.1950
TCL: Running FEP window  10: Lambda1 0.5499999999999996 Lambda2 0.4999999999999996 [dLambda -0.04999999999999999]
TCL: Setting parameter firsttimestep to 0
TCL: Setting parameter alchLambda to 0.5499999999999996
Info: NONBONDED TABLE R-SQUARED SPACING: 0.0625
Info: NONBONDED TABLE SIZE: 705 POINTS
TCL: Setting parameter alchLambda2 to 0.4999999999999996
Info: NONBONDED TABLE R-SQUARED SPACING: 0.0625
Info: NONBONDED TABLE SIZE: 705 POINTS
TCL: Running for 1500000 steps
ETITLE: TS BOND ANGLE DIHED IMPRP ELECT VDW BOUNDARY MISC KINETIC TOTAL TEMP POTENTIAL TOTALAVG TEMPAVG PRESSURE GPRESSURE VOLUME PRESSAVG GPRESSAVG
ENERGY: 0 5.1624 5.2085 6.3319 0.0000 -10836.5874 1504.0691 0.0000 0.0000 1796.8323 -7518.9831 301.5532 -9315.8154 -7518.9831 301.5532 104.7480 168.9788 31172.4972 104.7480 168.9788
ENERGY: 300000 7.3067 6.3276 6.8974 0.0000 -10823.5220 1476.1443 0.0000 0.0000 1823.9388 -7502.9071 306.1023 -9326.8459 -7520.2735 301.9002 290.3923 302.8614 30682.5756 176.1639 236.4052
ENERGY: 600000 6.0189 4.7009 3.4938 0.0000 -10656.0704 1372.4090 0.0000 0.0000 1796.0956 -7473.3523 301.4295 -9269.4479 -7503.6230 302.0737 -719.9277 -681.7954 31067.9484 50.3485 117.0004
ENERGY: 900000 5.5078 4.9478 5.7562 0.0000 -10884.6583 1491.9790 0.0000 0.0000 1796.2460 -7580.2216 301.4548 -9376.4676 -7532.2338 301.3842 475.3025 575.2245 30502.7307 -31.9433 31.7536
ENERGY: 1200000 8.4093 5.4516 4.8079 0.0000 -10607.4241 1324.1792 0.0000 0.0000 1791.4304 -7473.1457 300.6466 -9264.5761 -7527.7286 300.6015 -740.3019 -629.1475 31188.0796 -16.4901 46.1376
ENERGY: 1500000 2.8971 2.9882 6.7566 0.0000 -10936.7953 1499.3960 0.0000 0.0000 1808.4392 -7616.3183 303.5011 -9424.7574 -7537.4037 301.3661 136.4506 204.1493 30914.8909 40.0621 101.8875
TCL: Running FEP window  11: Lambda1 0.4999999999999996 Lambda2 0.4499999999999996 [dLambda -0.04999999999999999]
TCL: Setting parameter firsttimestep to 0
TCL: Setting parameter alchLambda to 0.4999999999999996
Info: NONBONDED TABLE R-SQUARED SPACING: 0.0625
Info: NONBONDED TABLE SIZE: 705 POINTS
TCL: Setting parameter alchLambda2 to 0.4499999999999996
Info: NONBONDED TABLE R-SQUARED SPACING: 0.0625
Info: NONBONDED TABLE SIZE: 705 POINTS
TCL: Running for 1500000 steps
ETITLE: TS BOND ANGLE DIHED IMPRP ELECT VDW BOUNDARY MISC KINETIC TOTAL TEMP POTENTIAL TOTALAVG TEMPAVG PRESSURE GPRESSURE VOLUME PRESSAVG GPRESSAVG
ENERGY: 0 2.8971 2.9882 6.7566 0.0000 -10937.1397 1499.5754 0.0000 0.0000 1807.5833 -7617.3390 303.3574 -9424.9223 -7617.3390 303.3574 118.2362 191.3372 30914.8909 118.2362 191.3372
ENERGY: 300000 7.0942 4.5613 4.2720 0.0000 -10689.1946 1392.4553 0.0000 0.0000 1796.7906 -7484.0213 301.5462 -9280.8119 -7545.8986 301.0828 -423.5129 -371.8378 30924.8432 -137.1699 -70.9095
ENERGY: 600000 8.7063 5.2507 6.4525 0.0000 -10864.7759 1450.9568 0.0000 0.0000 1829.6098 -7563.7998 307.0540 -9393.4096 -7529.5069 301.1750 -348.2370 -303.8905 30670.5198 -239.0438 -184.4159
ENERGY: 900000 9.0681 4.8876 5.8255 0.0000 -10880.4331 1538.0913 0.0000 0.0000 1827.1251 -7495.4355 306.6370 -9322.5606 -7516.9994 301.7224 659.2357 689.5755 30738.5361 -94.9897 -35.7200
ENERGY: 1200000 4.9390 5.1917 4.4379 0.0000 -10659.7184 1373.8236 0.0000 0.0000 1779.6650 -7491.6613 298.6721 -9271.3263 -7521.0540 301.3897 -454.1025 -325.8112 30773.4979 -190.0900 -117.7300
ENERGY: 1500000 5.8867 4.8566 3.4702 0.0000 -10773.2144 1465.7187 0.0000 0.0000 1827.9748 -7465.3073 306.7797 -9293.2821 -7517.7347 301.5041 328.5640 395.4122 30784.6300 -84.0062 -17.5470
TCL: Running FEP window  12: Lambda1 0.4499999999999996 Lambda2 0.39999999999999963 [dLambda -0.04999999999999999]
TCL: Setting parameter firsttimestep to 0
TCL: Setting parameter alchLambda to 0.4499999999999996
Info: NONBONDED TABLE R-SQUARED SPACING: 0.0625
Info: NONBONDED TABLE SIZE: 705 POINTS
TCL: Setting parameter alchLambda2 to 0.39999999999999963
Info: NONBONDED TABLE R-SQUARED SPACING: 0.0625
Info: NONBONDED TABLE SIZE: 705 POINTS
TCL: Running for 1500000 steps
ETITLE: TS BOND ANGLE DIHED IMPRP ELECT VDW BOUNDARY MISC KINETIC TOTAL TEMP POTENTIAL TOTALAVG TEMPAVG PRESSURE GPRESSURE VOLUME PRESSAVG GPRESSAVG
ENERGY: 0 5.8867 4.8566 3.4702 0.0000 -10773.2159 1466.3898 0.0000 0.0000 1827.1113 -7465.5012 306.6347 -9292.6125 -7465.5012 306.6347 313.6844 390.2218 30784.6300 313.6844 390.2218
ENERGY: 300000 6.6943 6.8439 7.2169 0.0000 -10743.8291 1387.5246 0.0000 0.0000 1832.2505 -7503.2989 307.4972 -9335.5493 -7526.8593 301.3631 -453.2612 -466.8896 30614.2930 47.7550 114.7396
ENERGY: 600000 5.4974 5.3000 4.6046 0.0000 -10827.5096 1464.8854 0.0000 0.0000 1762.3790 -7584.8432 295.7710 -9347.2222 -7560.3614 300.3458 323.4775 323.7592 30511.7529 68.7498 102.3301
ENERGY: 900000 5.6584 5.3728 7.6846 0.0000 -10744.1950 1414.8796 0.0000 0.0000 1796.2755 -7514.3241 301.4597 -9310.5996 -7543.0157 301.8419 -459.5057 -378.6614 30900.2844 43.2432 87.7756
ENERGY: 1200000 5.9041 3.8735 4.5102 0.0000 -10898.7033 1496.9370 0.0000 0.0000 1745.1942 -7642.2843 292.8870 -9387.4784 -7548.9407 300.9462 94.7918 192.7274 30868.0887 47.1509 92.3615
ENERGY: 1500000 8.8379 5.7180 3.9807 0.0000 -10480.2248 1288.1314 0.0000 0.0000 1808.9855 -7364.5713 303.5928 -9173.5568 -7537.0713 300.5069 -1218.2562 -1197.1614 31601.0512 -56.0027 -9.8258
TCL: Running FEP window  13: Lambda1 0.39999999999999963 Lambda2 0.34999999999999964 [dLambda -0.04999999999999999]
TCL: Setting parameter firsttimestep to 0
TCL: Setting parameter alchLambda to 0.39999999999999963
Info: NONBONDED TABLE R-SQUARED SPACING: 0.0625
Info: NONBONDED TABLE SIZE: 705 POINTS
TCL: Setting parameter alchLambda2 to 0.34999999999999964
Info: NONBONDED TABLE R-SQUARED SPACING: 0.0625
Info: NONBONDED TABLE SIZE: 705 POINTS
TCL: Running for 1500000 steps
ETITLE: TS BOND ANGLE DIHED IMPRP ELECT VDW BOUNDARY MISC KINETIC TOTAL TEMP POTENTIAL TOTALAVG TEMPAVG PRESSURE GPRESSURE VOLUME PRESSAVG GPRESSAVG
ENERGY: 0 8.8378 5.7179 3.9807 0.0000 -10480.2243 1288.5652 0.0000 0.0000 1808.0676 -7365.0549 303.4387 -9173.1225 -7365.0549 303.4387 -1281.0928 -1202.8911 31601.0512 -1281.0928 -1202.8911
ENERGY: 300000 9.2366 6.7134 4.3320 0.0000 -10867.3620 1452.9551 0.0000 0.0000 1816.3572 -7577.7676 304.8299 -9394.1248 -7472.4425 302.3856 29.1218 46.5149 30616.5988 -346.6159 -284.2728
ENERGY: 600000 7.9729 6.4565 2.8466 0.0000 -10795.8253 1497.8547 0.0000 0.0000 1792.6420 -7488.0527 300.8499 -9280.6947 -7482.6930 301.0599 435.2584 437.7447 30441.8320 -149.5871 -108.6716
ENERGY: 900000 3.4341 4.9184 9.9391 0.0000 -10815.0597 1490.2328 0.0000 0.0000 1762.5128 -7544.0225 295.7935 -9306.5353 -7512.7536 299.0302 139.4888 235.5835 31193.4874 -201.0248 -145.2505
ENERGY: 1200000 12.1636 5.8725 8.3663 0.0000 -10873.8866 1515.5972 0.0000 0.0000 1781.7827 -7550.1044 299.0275 -9331.8870 -7522.8118 298.9935 10.7066 100.4135 30909.6671 -76.4342 -15.3709
ENERGY: 1500000 4.3443 9.7328 3.7681 0.0000 -10682.6531 1411.1643 0.0000 0.0000 1770.4077 -7483.2358 297.1185 -9253.6435 -7510.4162 300.4950 -214.2661 -183.1565 31006.8329 -56.9008 0.3849
TCL: Running FEP window  14: Lambda1 0.34999999999999964 Lambda2 0.29999999999999966 [dLambda -0.04999999999999999]
TCL: Setting parameter firsttimestep to 0
TCL: Setting parameter alchLambda to 0.34999999999999964
Info: NONBONDED TABLE R-SQUARED SPACING: 0.0625
Info: NONBONDED TABLE SIZE: 705 POINTS
TCL: Setting parameter alchLambda2 to 0.29999999999999966
Info: NONBONDED TABLE R-SQUARED SPACING: 0.0625
Info: NONBONDED TABLE SIZE: 705 POINTS
TCL: Running for 1500000 steps
ETITLE: TS BOND ANGLE DIHED IMPRP ELECT VDW BOUNDARY MISC KINETIC TOTAL TEMP POTENTIAL TOTALAVG TEMPAVG PRESSURE GPRESSURE VOLUME PRESSAVG GPRESSAVG
ENERGY: 0 4.3443 9.7328 3.7681 0.0000 -10682.6525 1412.1794 0.0000 0.0000 1769.5141 -7483.1138 296.9685 -9252.6279 -7483.1138 296.9685 -253.0695 -186.6194 31006.8329 -253.0695 -186.6194
ENERGY: 300000 6.1634 2.9588 11.9851 0.0000 -10813.9313 1444.5575 0.0000 0.0000 1811.7112 -7536.5552 304.0502 -9348.2665 -7534.7282 297.5501 -197.5621 -144.7040 30718.0624 -274.3963 -217.7017
ENERGY: 600000 6.2931 3.6450 8.4770 0.0000 -10858.7650 1468.0497 0.0000 0.0000 1793.0049 -7579.2953 300.9108 -9372.3002 -7541.1492 298.2923 102.7146 176.0327 30394.2150 -251.5425 -191.4066
ENERGY: 900000 12.3335 7.3663 7.2331 0.0000 -10842.5173 1476.5842 0.0000 0.0000 1783.5026 -7555.4977 299.3161 -9339.0003 -7534.5755 298.8266 -139.5033 -81.3952 30621.9853 -114.3137 -58.5776
ENERGY: 1200000 5.6724 3.6543 6.2503 0.0000 -10687.4783 1409.5822 0.0000 0.0000 1748.0733 -7514.2457 293.3702 -9262.3191 -7543.2887 297.8151 -301.9082 -190.9735 30733.8033 -43.3496 20.4462
ENERGY: 1500000 5.8244 7.5293 6.0994 0.0000 -10699.8152 1388.8910 0.0000 0.0000 1833.2368 -7458.2343 307.6627 -9291.4711 -7523.3976 299.2600 -429.4091 -379.7359 30869.7445 -60.4079 0.5840
TCL: Running FEP window  15: Lambda1 0.29999999999999966 Lambda2 0.24999999999999967 [dLambda -0.04999999999999999]
TCL: Setting parameter firsttimestep to 0
TCL: Setting parameter alchLambda to 0.29999999999999966
Info: NONBONDED TABLE R-SQUARED SPACING: 0.0625
Info: NONBONDED TABLE SIZE: 705 POINTS
TCL: Setting parameter alchLambda2 to 0.24999999999999967
Info: NONBONDED TABLE R-SQUARED SPACING: 0.0625
Info: NONBONDED TABLE SIZE: 705 POINTS
TCL: Running for 1500000 steps
ETITLE: TS BOND ANGLE DIHED IMPRP ELECT VDW BOUNDARY MISC KINETIC TOTAL TEMP POTENTIAL TOTALAVG TEMPAVG PRESSURE GPRESSURE VOLUME PRESSAVG GPRESSAVG
ENERGY: 0 5.8244 7.5293 6.0994 0.0000 -10699.8161 1389.3094 0.0000 0.0000 1832.3622 -7458.6914 307.5160 -9291.0536 -7458.6914 307.5160 -473.7144 -385.0932 30869.7445 -473.7144 -385.0932
ENERGY: 300000 8.8577 6.4941 5.1963 0.0000 -10708.3515 1396.3099 0.0000 0.0000 1792.5524 -7498.9412 300.8349 -9291.4936 -7521.7443 300.1164 -609.0187 -577.4590 31009.8182 -363.3944 -315.1379
ENERGY: 600000 9.8010 3.3865 7.8196 0.0000 -10900.9960 1525.5151 0.0000 0.0000 1779.4871 -7574.9867 298.6422 -9354.4737 -7534.3798 299.0665 410.4841 506.8334 30513.7711 -87.5017 -23.4194
ENERGY: 900000 9.3062 5.9052 4.5415 0.0000 -10658.8680 1420.8445 0.0000 0.0000 1851.1382 -7367.1323 310.6670 -9218.2705 -7500.5053 300.3885 255.1097 315.9542 31036.9089 -18.8131 43.6374
ENERGY: 1200000 5.8391 4.2263 3.7649 0.0000 -10763.3653 1486.7691 0.0000 0.0000 1817.6043 -7445.1617 305.0392 -9262.7660 -7507.3659 300.9013 227.2453 250.9830 31397.4446 -24.1463 31.6551
ENERGY: 1500000 5.4798 8.3263 4.6444 0.0000 -10835.6156 1430.1912 0.0000 0.0000 1757.2494 -7629.7245 294.9102 -9386.9739 -7515.5427 300.3580 -444.0716 -294.8998 30881.2023 -166.1987 -100.6750
TCL: Running FEP window  16: Lambda1 0.24999999999999967 Lambda2 0.19999999999999968 [dLambda -0.04999999999999999]
TCL: Setting parameter firsttimestep to 0
TCL: Setting parameter alchLambda to 0.24999999999999967
Info: NONBONDED TABLE R-SQUARED SPACING: 0.0625
Info: NONBONDED TABLE SIZE: 705 POINTS
TCL: Setting parameter alchLambda2 to 0.19999999999999968
Info: NONBONDED TABLE R-SQUARED SPACING: 0.0625
Info: NONBONDED TABLE SIZE: 705 POINTS
TCL: Running for 1500000 steps
ETITLE: TS BOND ANGLE DIHED IMPRP ELECT VDW BOUNDARY MISC KINETIC TOTAL TEMP POTENTIAL TOTALAVG TEMPAVG PRESSURE GPRESSURE VOLUME PRESSAVG GPRESSAVG
ENERGY: 0 5.4798 8.3263 4.6444 0.0000 -10835.6148 1430.7067 0.0000 0.0000 1756.3892 -7630.0684 294.7658 -9386.4576 -7630.0684 294.7658 -389.9079 -301.5440 30881.2023 -389.9079 -301.5440
ENERGY: 300000 8.6211 8.7603 5.8102 0.0000 -10733.9320 1449.7981 0.0000 0.0000 1797.4634 -7463.4788 301.6591 -9260.9422 -7536.3106 301.1028 -276.4468 -243.7531 31209.4568 -22.6180 41.4976
ENERGY: 600000 5.7562 4.9713 6.1129 0.0000 -10852.0834 1491.7763 0.0000 0.0000 1742.0429 -7601.4238 292.3581 -9343.4667 -7545.4502 299.8506 464.6693 510.9773 30421.6244 46.1470 112.9127
ENERGY: 900000 6.8037 4.1223 5.6374 0.0000 -10694.9903 1416.8493 0.0000 0.0000 1828.5408 -7433.0368 306.8746 -9261.5776 -7541.2402 300.4135 -239.0596 -194.3153 30700.1788 -95.6084 -39.8958
ENERGY: 1200000 6.5648 4.0512 5.5069 0.0000 -10862.1717 1475.6000 0.0000 0.0000 1766.9450 -7603.5037 296.5373 -9370.4488 -7550.1267 299.5216 50.4341 142.4152 30666.7354 -112.7272 -56.7731
ENERGY: 1500000 5.3643 3.3118 5.0105 0.0000 -10873.0485 1504.6183 0.0000 0.0000 1794.4259 -7560.3177 301.1493 -9354.7436 -7545.9284 299.5568 24.2417 127.1656 30930.7889 -143.1154 -82.7686
TCL: Running FEP window  17: Lambda1 0.19999999999999968 Lambda2 0.1499999999999997 [dLambda -0.04999999999999999]
TCL: Setting parameter firsttimestep to 0
TCL: Setting parameter alchLambda to 0.19999999999999968
Info: NONBONDED TABLE R-SQUARED SPACING: 0.0625
Info: NONBONDED TABLE SIZE: 705 POINTS
TCL: Setting parameter alchLambda2 to 0.1499999999999997
Info: NONBONDED TABLE R-SQUARED SPACING: 0.0625
Info: NONBONDED TABLE SIZE: 705 POINTS
TCL: Running for 1500000 steps
ETITLE: TS BOND ANGLE DIHED IMPRP ELECT VDW BOUNDARY MISC KINETIC TOTAL TEMP POTENTIAL TOTALAVG TEMPAVG PRESSURE GPRESSURE VOLUME PRESSAVG GPRESSAVG
ENERGY: 0 5.3643 3.3118 5.0105 0.0000 -10873.0473 1504.6757 0.0000 0.0000 1793.5447 -7561.1403 301.0014 -9354.6850 -7561.1403 301.0014 32.1108 116.3344 30930.7889 32.1108 116.3344
ENERGY: 300000 10.7634 6.4663 6.5058 0.0000 -10843.1193 1451.6841 0.0000 0.0000 1830.8023 -7536.8974 307.2542 -9367.6997 -7525.9422 301.7186 -495.3340 -429.2199 30923.3113 -261.8807 -173.9593
ENERGY: 600000 6.3861 3.2327 4.7292 0.0000 -10907.4651 1540.0756 0.0000 0.0000 1787.1235 -7565.9181 299.9238 -9353.0416 -7515.8096 300.9888 615.4909 626.6988 30311.3303 -132.6970 -70.1574
ENERGY: 900000 6.0831 2.6823 5.0596 0.0000 -10804.7413 1429.7927 0.0000 0.0000 1823.5120 -7537.6115 306.0307 -9361.1235 -7518.7573 301.0938 -362.8798 -335.6656 30712.5265 -190.6953 -130.0928
ENERGY: 1200000 8.3528 7.5682 8.9185 0.0000 -10718.6368 1384.4701 0.0000 0.0000 1800.2411 -7509.0861 302.1252 -9309.3272 -7530.1767 300.8137 -907.0092 -863.7241 31158.9398 -192.1992 -132.0295
ENERGY: 1500000 8.6295 4.5660 6.3103 0.0000 -10619.7930 1381.1487 0.0000 0.0000 1779.6532 -7439.4852 298.6701 -9219.1385 -7512.7026 301.4432 -387.0372 -358.5453 30872.6759 -164.2567 -105.0971
TCL: Running FEP window  18: Lambda1 0.1499999999999997 Lambda2 0.09999999999999969 [dLambda -0.05 ]
TCL: Setting parameter firsttimestep to 0
TCL: Setting parameter alchLambda to 0.1499999999999997
Info: NONBONDED TABLE R-SQUARED SPACING: 0.0625
Info: NONBONDED TABLE SIZE: 705 POINTS
TCL: Setting parameter alchLambda2 to 0.09999999999999969
Info: NONBONDED TABLE R-SQUARED SPACING: 0.0625
Info: NONBONDED TABLE SIZE: 705 POINTS
TCL: Running for 1500000 steps
ETITLE: TS BOND ANGLE DIHED IMPRP ELECT VDW BOUNDARY MISC KINETIC TOTAL TEMP POTENTIAL TOTALAVG TEMPAVG PRESSURE GPRESSURE VOLUME PRESSAVG GPRESSAVG
ENERGY: 0 8.6295 4.5660 6.3103 0.0000 -10619.7931 1380.9826 0.0000 0.0000 1778.7817 -7440.5229 298.5238 -9219.3046 -7440.5229 298.5238 -448.9411 -364.1145 30872.6759 -448.9411 -364.1145
ENERGY: 300000 14.4914 4.0082 4.4296 0.0000 -10584.0761 1337.5999 0.0000 0.0000 1786.2698 -7437.2773 299.7805 -9223.5471 -7485.3155 299.6387 -1330.7886 -1263.2533 31098.4647 -560.7814 -495.2372
ENERGY: 600000 6.0563 7.5788 4.7090 0.0000 -10938.7916 1537.6572 0.0000 0.0000 1828.0512 -7554.7391 306.7925 -9382.7903 -7516.3977 301.2316 805.1960 860.0457 30327.4097 -332.6422 -267.0577
ENERGY: 900000 6.8631 5.0133 5.1112 0.0000 -10821.1860 1473.0439 0.0000 0.0000 1755.6229 -7575.5315 294.6372 -9331.1544 -7526.6842 300.1973 -28.3947 2.8485 30956.2040 -274.5045 -215.4900
ENERGY: 1200000 6.0263 3.6601 5.8079 0.0000 -10602.7223 1321.5238 0.0000 0.0000 1800.3987 -7465.3055 302.1517 -9265.7042 -7519.6470 299.8950 -940.3357 -901.2213 30627.4198 -351.3158 -296.5074
ENERGY: 1500000 4.5382 6.8277 6.0593 0.0000 -10870.2681 1573.5215 0.0000 0.0000 1792.2887 -7487.0327 300.7906 -9279.3213 -7517.2763 299.8564 896.6555 1002.9717 30941.0726 -182.5191 -122.0983
TCL: Running FEP window  19: Lambda1 0.09999999999999969 Lambda2 0.049999999999999684 [dLambda -0.05 ]
TCL: Setting parameter firsttimestep to 0
TCL: Setting parameter alchLambda to 0.09999999999999969
Info: NONBONDED TABLE R-SQUARED SPACING: 0.0625
Info: NONBONDED TABLE SIZE: 705 POINTS
TCL: Setting parameter alchLambda2 to 0.049999999999999684
Info: NONBONDED TABLE R-SQUARED SPACING: 0.0625
Info: NONBONDED TABLE SIZE: 705 POINTS
TCL: Running for 1500000 steps
ETITLE: TS BOND ANGLE DIHED IMPRP ELECT VDW BOUNDARY MISC KINETIC TOTAL TEMP POTENTIAL TOTALAVG TEMPAVG PRESSURE GPRESSURE VOLUME PRESSAVG GPRESSAVG
ENERGY: 0 4.5382 6.8277 6.0593 0.0000 -10870.2681 1573.9730 0.0000 0.0000 1791.3914 -7487.4784 300.6400 -9278.8698 -7487.4784 300.6400 911.5509 1000.5832 30941.0726 911.5509 1000.5832
ENERGY: 300000 8.6279 4.8641 6.5792 0.0000 -10693.2773 1465.1196 0.0000 0.0000 1777.0656 -7431.0208 298.2358 -9208.0863 -7455.0035 299.1498 723.0997 760.4834 30384.8617 272.2091 341.1142
ENERGY: 600000 5.4312 5.0369 5.0457 0.0000 -10793.1004 1475.7495 0.0000 0.0000 1754.4697 -7547.3674 294.4437 -9301.8372 -7487.0058 299.2182 -56.5452 15.4155 30869.3785 -26.4311 40.3466
ENERGY: 900000 7.4518 5.2180 10.7864 0.0000 -10813.2604 1473.5492 0.0000 0.0000 1804.8766 -7511.3783 302.9032 -9316.2550 -7499.4467 298.5049 -112.8758 -110.8983 30653.1333 -153.9113 -83.8075
ENERGY: 1200000 10.8950 4.8341 5.2116 0.0000 -10840.2272 1477.8491 0.0000 0.0000 1744.9265 -7596.5109 292.8421 -9341.4374 -7504.2053 298.8367 -199.2267 -200.9995 31103.5463 -107.3316 -45.5167
ENERGY: 1500000 2.1560 5.0942 3.3252 0.0000 -10707.8605 1378.0031 0.0000 0.0000 1738.6513 -7580.6308 291.7889 -9319.2821 -7502.9745 299.2323 -688.5418 -581.2896 30908.3420 -181.7677 -118.2741
TCL: Running FEP window  20: Lambda1 0.049999999999999684 Lambda2 0.0    [dLambda -0.049999999999999684]
TCL: Setting parameter firsttimestep to 0
TCL: Setting parameter alchLambda to 0.049999999999999684
Info: NONBONDED TABLE R-SQUARED SPACING: 0.0625
Info: NONBONDED TABLE SIZE: 705 POINTS
TCL: Setting parameter alchLambda2 to 0.0
Info: NONBONDED TABLE R-SQUARED SPACING: 0.0625
Info: NONBONDED TABLE SIZE: 705 POINTS
TCL: Running for 1500000 steps
ETITLE: TS BOND ANGLE DIHED IMPRP ELECT VDW BOUNDARY MISC KINETIC TOTAL TEMP POTENTIAL TOTALAVG TEMPAVG PRESSURE GPRESSURE VOLUME PRESSAVG GPRESSAVG
ENERGY: 0 2.1560 5.0942 3.3252 0.0000 -10707.8618 1377.4909 0.0000 0.0000 1737.7989 -7581.9966 291.6459 -9319.7955 -7581.9966 291.6459 -666.3842 -587.6517 30908.3420 -666.3842 -587.6517
ENERGY: 300000 10.0613 4.6987 7.8798 0.0000 -10933.6289 1520.1996 0.0000 0.0000 1821.5703 -7569.2193 305.7048 -9390.7896 -7546.8537 298.9659 22.6550 79.1514 30564.2566 -240.7802 -183.8844
ENERGY: 600000 5.4500 3.6073 5.2039 0.0000 -10833.3599 1506.0855 0.0000 0.0000 1792.3933 -7520.6198 300.8082 -9313.0131 -7543.2025 297.2314 180.4712 294.8000 30743.8182 -124.8307 -64.6993
ENERGY: 900000 2.9865 4.3828 5.3791 0.0000 -10814.6794 1451.4496 0.0000 0.0000 1754.8395 -7595.6420 294.5057 -9350.4815 -7564.4639 295.8318 -99.5319 -114.8553 30853.7592 -191.8372 -133.5309
ENERGY: 1200000 5.7465 5.0094 8.1344 0.0000 -10897.4247 1475.9715 0.0000 0.0000 1810.4861 -7592.0767 303.8446 -9402.5628 -7554.9778 297.1002 -83.8697 -79.7024 30428.0281 -173.9741 -122.4229
ENERGY: 1500000 7.0207 2.6856 5.5502 0.0000 -10955.8568 1544.7562 0.0000 0.0000 1763.1088 -7632.7352 295.8935 -9395.8440 -7570.3277 296.1323 588.1189 675.9365 30266.6903 -144.9551 -87.0252
TCL: Exiting due to exit command.
