Info: SIMULATION PARAMETERS:
Info: TIMESTEP               2
Info: NUMBER OF STEPS        0
Info: STEPS PER CYCLE        10
Info: PERIODIC CELL BASIS 1  30.9779 0 0
Info: PERIODIC CELL BASIS 2  0 31.3328 0
Info: PERIODIC CELL BASIS 3  0 0 31.5389
Info: PERIODIC CELL CENTER   0 0 0
Info: WRAPPING WATERS AROUND PERIODIC BOUNDARIES ON OUTPUT.
Info: WRAPPING ALL CLUSTERS AROUND PERIODIC BOUNDARIES ON OUTPUT.
Info: FIRST LDB TIMESTEP     50
Info: LAST LDB TIMESTEP     -1
Info: HOM BACKGROUND SCALING 1
Info: PME BACKGROUND SCALING 1
Info: MIN ATOMS PER PATCH    40
Info: EMPTY PATCH LOAD       40 ATOMS
Info: VELOCITY FILE          mobley_6266306_equil.vel
Info: CENTER OF MASS MOVING INITIALLY? NO
Info: DIELECTRIC             1
Info: EXCLUDE                SCALED ONE-FOUR
Info: 1-4 ELECTROSTATICS SCALED BY 0.833333
Info: MODIFIED 1-4 VDW PARAMETERS WILL BE USED
Info: DCD FILENAME           mobley_6266306_prod.dcd
Info: DCD FREQUENCY          100000
Info: DCD FIRST STEP         100000
Info: DCD FILE WILL CONTAIN UNIT CELL DATA
Info: XST FILENAME           mobley_6266306_prod.xst
Info: XST FREQUENCY          100000
Info: NO VELOCITY DCD OUTPUT
Info: NO FORCE DCD OUTPUT
Info: OUTPUT FILENAME        mobley_6266306_prod
Info: BINARY OUTPUT FILES WILL BE USED
Info: RESTART FILENAME       mobley_6266306_prod.restart
Info: RESTART FREQUENCY      100000
Info: BINARY RESTART FILES WILL BE USED
Info: CUTOFF                 9
Info: PAIRLIST DISTANCE      11
Info: PAIRLIST SHRINK RATE   0.01
Info: PAIRLIST GROW RATE     0.01
Info: PAIRLIST TRIGGER       0.3
Info: PAIRLISTS PER CYCLE    2
Info: PAIRLISTS ENABLED
Info: MARGIN                 2
Info: HYDROGEN GROUP CUTOFF  2.5
Info: PATCH DIMENSION        15.5
Info: ENERGY OUTPUT STEPS    100000
Info: ENERGY EVALUATION STEPS    100000
Info: OUTPUT ENERGY PRECISION 4
Info: CROSSTERM ENERGY INCLUDED IN DIHEDRAL
Info: TIMING OUTPUT STEPS    1000000
Info: PRESSURE OUTPUT STEPS  100000
Info: ALCHEMICAL FEP ON
Info: FEP CURRENT LAMBDA VALUE     1
Info: FEP COMPARISON LAMBDA VALUE  0.95
Info: FEP INTRA-ALCHEMICAL NON-BONDED INTERACTIONS WILL BE RETAINED
Info: FEP INTRA-ALCHEMICAL BONDED INTERACTIONS WILL BE RETAINED
Info: FEP VDW SHIFTING COEFFICIENT 5
Info: FEP ELEC. ACTIVE FOR ANNIHILATED PARTICLES BETWEEN LAMBDA = 0 AND LAMBDA = 0.5
Info: FEP ELEC. ACTIVE FOR EXNIHILATED PARTICLES BETWEEN LAMBDA = 0.5 AND LAMBDA = 1
Info: FEP VDW ACTIVE FOR ANNIHILATED PARTICLES BETWEEN LAMBDA = 0 AND LAMBDA = 1
Info: FEP VDW ACTIVE FOR EXNIHILATED PARTICLES BETWEEN LAMBDA = 0 AND LAMBDA = 1
Info: FEP BOND ACTIVE FOR ANNIHILATED PARTICLES BETWEEN LAMBDA = 1 AND LAMBDA = 1
Info: FEP BOND ACTIVE FOR EXNIHILATED PARTICLES BETWEEN LAMBDA = 0 AND LAMBDA = 0
Info: LANGEVIN DYNAMICS ACTIVE
Info: LANGEVIN TEMPERATURE   300
Info: LANGEVIN USING BBK INTEGRATOR
Info: LANGEVIN DAMPING COEFFICIENT IS 1 INVERSE PS
Info: LANGEVIN DYNAMICS APPLIED TO HYDROGENS
Info: LANGEVIN PISTON PRESSURE CONTROL ACTIVE
Info:        TARGET PRESSURE IS 1.01325 BAR
Info:     OSCILLATION PERIOD IS 50 FS
Info:             DECAY TIME IS 25 FS
Info:     PISTON TEMPERATURE IS 300 K
Info:       PRESSURE CONTROL IS GROUP-BASED
Info:    INITIAL STRAIN RATE IS 0.000372272 0.000372272 0.000372272
Info:       CELL FLUCTUATION IS ISOTROPIC
Info: PARTICLE MESH EWALD (PME) ACTIVE
Info: PME TOLERANCE               1e-06
Info: PME EWALD COEFFICIENT       0.348832
Info: PME INTERPOLATION ORDER     4
Info: PME GRID DIMENSIONS         32 32 32
Info: PME MAXIMUM GRID SPACING    1
Info: PME CALCULATION WILL BE PERFORMED ON GPU
Info: FULL ELECTROSTATIC EVALUATION FREQUENCY      2
Info: USING VERLET I (r-RESPA) MTS SCHEME.
Info: C1 SPLITTING OF LONG RANGE ELECTROSTATICS
Info: PLACING ATOMS IN PATCHES BY HYDROGEN GROUPS
Info: RIGID BONDS TO HYDROGEN : ALL
Info:         ERROR TOLERANCE : 1e-08
Info:          MAX ITERATIONS : 100
Info: RIGID WATER USING SETTLE ALGORITHM
Info: RANDOM NUMBER SEED     1743532314
Info: USE HYDROGEN BONDS?    NO
Info: Using AMBER format force field!
Info: AMBER PARM FILE        mobley_6266306.prmtop
Info: COORDINATE PDB         mobley_6266306.pdb
Info: Exclusions will be read from PARM file!
Info: SCNB (VDW SCALING)     2
Info: USING ARITHMETIC MEAN TO COMBINE L-J SIGMA PARAMETERS
Info: BINARY COORDINATES     mobley_6266306_equil.coor
Info: SUMMARY OF PARAMETERS:
Info: 7 BONDS
Info: 9 ANGLES
Info:   9 HARMONIC
Info:   0 COSINE-BASED
Info: 3 DIHEDRAL
Info: 0 IMPROPER
Info: 0 CROSSTERM
Info: 0 VDW
Info: 28 VDW_PAIRS
Info: 0 NBTHOLE_PAIRS
Info: To read alchdata from file: mobley_6266306.pdb
Info: To read alchflag data from column: 5
Info: STRUCTURE SUMMARY:
Info: 2975 ATOMS
Info: 2975 BONDS
Info: 21 ANGLES
Info: 32 DIHEDRALS
Info: 0 IMPROPERS
Info: 0 CROSSTERMS
Info: 3013 EXCLUSIONS
Info: 2971 RIGID BONDS
Info: ALCH: 0 ATOMS TO DISAPPEAR IN FINAL STATE
Info: ALCH: 11 ATOMS TO APPEAR IN FINAL STATE
Info: 5954 DEGREES OF FREEDOM
Info: 992 HYDROGEN GROUPS
Info: 3 ATOMS IN LARGEST HYDROGEN GROUP
Info: 992 MIGRATION GROUPS
Info: 3 ATOMS IN LARGEST MIGRATION GROUP
Info: TOTAL MASS = 17856.9 amu
Info: TOTAL CHARGE = -4.47035e-08 e
Info: MASS DENSITY = 0.968651 g/cm^3
Info: ATOM DENSITY = 0.0971826 atoms/A^3
Info: ADDED 0 IMPLICIT EXCLUSIONS
Info: NONBONDED TABLE R-SQUARED SPACING: 0.0625
Info: NONBONDED TABLE SIZE: 705 POINTS
Info: REMOVING COM VELOCITY -0.0368139 -0.0827048 0.208141
Info: Use 3D box decompostion in PME FFT.
Info: Updated CUDA force table with 4096 elements.
Info: Updated CUDA LJ table with 7 x 7 elements.
Info: Found 14 unique exclusion lists needing 24 bytes
TCL: Running for 1500000 steps
ETITLE: TS BOND ANGLE DIHED IMPRP ELECT VDW BOUNDARY MISC KINETIC TOTAL TEMP POTENTIAL TOTALAVG TEMPAVG PRESSURE GPRESSURE VOLUME PRESSAVG GPRESSAVG
ENERGY: 0 0.4663 42.4619 10.0385 0.0000 -10743.9192 1384.0895 0.0000 0.0000 1795.5714 -7511.2916 303.5178 -9306.8630 -7511.2916 303.5178 -543.4438 -445.0713 30612.4631 -543.4438 -445.0713
ENERGY: 300000 0.2646 31.8971 11.9945 0.0000 -10899.0253 1563.3842 0.0000 0.0000 1825.3983 -7466.0866 308.5597 -9291.4849 -7538.5184 298.3936 864.2264 872.4499 30579.4753 221.6292 293.6358
ENERGY: 600000 1.1725 36.3964 10.8000 0.0000 -10720.8292 1417.8989 0.0000 0.0000 1766.2734 -7488.2881 298.5654 -9254.5614 -7525.6649 300.6933 -270.0909 -185.9321 30841.8255 -2.6503 64.8210
ENERGY: 900000 0.7103 37.6247 11.2407 0.0000 -10675.8796 1337.8307 0.0000 0.0000 1692.0666 -7596.4067 286.0217 -9288.4733 -7532.0432 300.4196 -841.4054 -740.0592 30365.8490 -87.6104 -20.9982
ENERGY: 1200000 1.3671 36.8421 11.3918 0.0000 -10813.5379 1536.9169 0.0000 0.0000 1756.6335 -7470.3865 296.9359 -9227.0200 -7527.3549 298.9352 914.3436 882.7363 30535.6742 91.6691 148.1017
ENERGY: 1500000 2.1913 31.9866 11.1048 0.0000 -10882.7273 1442.1273 0.0000 0.0000 1809.3853 -7585.9320 305.8529 -9395.3173 -7533.1867 299.0598 -442.3221 -415.5237 30691.6068 18.9802 74.7308
TCL: Running FEP window   2: Lambda1 0.95   Lambda2 0.8999999999999999 [dLambda -0.050000000000000044]
TCL: Setting parameter firsttimestep to 0
TCL: Setting parameter alchLambda to 0.95
Info: NONBONDED TABLE R-SQUARED SPACING: 0.0625
Info: NONBONDED TABLE SIZE: 705 POINTS
TCL: Setting parameter alchLambda2 to 0.8999999999999999
Info: NONBONDED TABLE R-SQUARED SPACING: 0.0625
Info: NONBONDED TABLE SIZE: 705 POINTS
TCL: Running for 1500000 steps
ETITLE: TS BOND ANGLE DIHED IMPRP ELECT VDW BOUNDARY MISC KINETIC TOTAL TEMP POTENTIAL TOTALAVG TEMPAVG PRESSURE GPRESSURE VOLUME PRESSAVG GPRESSAVG
ENERGY: 0 2.1913 31.9866 11.1048 0.0000 -10881.1123 1441.4354 0.0000 0.0000 1808.5016 -7585.8926 305.7035 -9394.3942 -7585.8926 305.7035 -495.5711 -429.3223 30691.6068 -495.5711 -429.3223
ENERGY: 300000 0.0696 34.2569 12.0784 0.0000 -10811.6541 1476.4421 0.0000 0.0000 1757.4831 -7531.3240 297.0795 -9288.8071 -7526.6265 300.5734 226.8770 287.5357 30483.7108 163.0394 224.8799
ENERGY: 600000 0.4883 34.3516 11.0284 0.0000 -10757.7268 1367.3142 0.0000 0.0000 1711.4168 -7633.1276 289.2926 -9344.5443 -7520.2130 299.5125 -595.0934 -475.5655 30230.2045 60.2673 128.3754
ENERGY: 900000 1.0607 36.3098 10.8246 0.0000 -10782.9434 1477.6998 0.0000 0.0000 1797.8016 -7459.2468 303.8948 -9257.0484 -7528.4218 300.1348 264.5417 347.9718 30486.2946 5.6339 79.4528
ENERGY: 1200000 0.1917 39.1096 10.8115 0.0000 -10789.7316 1443.2046 0.0000 0.0000 1792.4846 -7503.9295 302.9961 -9296.4141 -7528.2362 300.1918 -153.0663 -96.3781 30730.7644 34.8607 102.1875
ENERGY: 1500000 0.8768 35.5058 11.1759 0.0000 -10743.3562 1366.7399 0.0000 0.0000 1766.0070 -7563.0509 298.5204 -9329.0579 -7519.3779 300.6113 -683.4824 -629.5671 30599.6425 -56.1346 10.1313
TCL: Running FEP window   3: Lambda1 0.8999999999999999 Lambda2 0.8499999999999999 [dLambda -0.050000000000000044]
TCL: Setting parameter firsttimestep to 0
TCL: Setting parameter alchLambda to 0.8999999999999999
Info: NONBONDED TABLE R-SQUARED SPACING: 0.0625
Info: NONBONDED TABLE SIZE: 705 POINTS
TCL: Setting parameter alchLambda2 to 0.8499999999999999
Info: NONBONDED TABLE R-SQUARED SPACING: 0.0625
Info: NONBONDED TABLE SIZE: 705 POINTS
TCL: Running for 1500000 steps
ETITLE: TS BOND ANGLE DIHED IMPRP ELECT VDW BOUNDARY MISC KINETIC TOTAL TEMP POTENTIAL TOTALAVG TEMPAVG PRESSURE GPRESSURE VOLUME PRESSAVG GPRESSAVG
ENERGY: 0 0.8768 35.5058 11.1759 0.0000 -10741.8556 1366.2855 0.0000 0.0000 1765.1566 -7562.8551 298.3766 -9328.0117 -7562.8551 298.3766 -708.5344 -638.2966 30599.6425 -708.5344 -638.2966
ENERGY: 300000 0.5739 35.6149 10.8991 0.0000 -10921.9556 1523.9744 0.0000 0.0000 1748.4423 -7602.4510 295.5513 -9350.8933 -7576.3255 299.0641 249.2272 342.5522 30647.6908 10.1933 81.4584
ENERGY: 600000 0.4321 33.6350 11.3740 0.0000 -10657.2342 1430.0774 0.0000 0.0000 1748.5681 -7433.1476 295.5726 -9181.7157 -7544.5054 299.0324 -134.3582 -44.2833 31214.8613 -148.7964 -92.8674
ENERGY: 900000 2.3339 33.3593 10.2208 0.0000 -10898.3111 1549.9672 0.0000 0.0000 1757.7158 -7544.7141 297.1189 -9302.4299 -7552.7399 297.5931 472.7728 570.7395 30829.1155 -136.8555 -74.9868
ENERGY: 1200000 1.1012 31.8618 12.3431 0.0000 -10872.9237 1482.2072 0.0000 0.0000 1789.5846 -7555.8259 302.5059 -9345.4105 -7558.8674 297.6802 202.6825 305.6309 30449.2352 -126.4914 -63.8131
ENERGY: 1500000 3.8316 33.6691 12.0979 0.0000 -10707.0079 1388.0265 0.0000 0.0000 1761.7585 -7507.6244 297.8022 -9269.3829 -7549.4202 298.2481 -262.2447 -215.2798 30135.8588 -128.2071 -64.9036
TCL: Running FEP window   4: Lambda1 0.8499999999999999 Lambda2 0.7999999999999998 [dLambda -0.050000000000000044]
TCL: Setting parameter firsttimestep to 0
TCL: Setting parameter alchLambda to 0.8499999999999999
Info: NONBONDED TABLE R-SQUARED SPACING: 0.0625
Info: NONBONDED TABLE SIZE: 705 POINTS
TCL: Setting parameter alchLambda2 to 0.7999999999999998
Info: NONBONDED TABLE R-SQUARED SPACING: 0.0625
Info: NONBONDED TABLE SIZE: 705 POINTS
TCL: Running for 1500000 steps
ETITLE: TS BOND ANGLE DIHED IMPRP ELECT VDW BOUNDARY MISC KINETIC TOTAL TEMP POTENTIAL TOTALAVG TEMPAVG PRESSURE GPRESSURE VOLUME PRESSAVG GPRESSAVG
ENERGY: 0 3.8316 33.6691 12.0979 0.0000 -10705.6746 1387.2117 0.0000 0.0000 1760.8730 -7507.9914 297.6525 -9268.8644 -7507.9914 297.6525 -312.7485 -229.3039 30135.8588 -312.7485 -229.3039
ENERGY: 300000 0.9613 31.7749 11.7891 0.0000 -10754.0340 1430.1379 0.0000 0.0000 1775.7073 -7503.6636 300.1601 -9279.3709 -7476.4394 303.2181 -385.1378 -335.8899 31203.3982 -278.1556 -213.3889
ENERGY: 600000 1.2213 32.6051 11.8588 0.0000 -10749.3264 1462.4362 0.0000 0.0000 1785.7484 -7455.4566 301.8574 -9241.2050 -7510.9868 299.1223 126.6086 166.9297 30673.0807 -107.8729 -53.6636
ENERGY: 900000 0.9401 36.2381 9.4111 0.0000 -10718.4888 1388.0697 0.0000 0.0000 1800.0555 -7483.7743 304.2758 -9283.8298 -7525.9224 299.9539 -435.2525 -374.0610 30562.1149 -53.4762 5.8259
ENERGY: 1200000 1.1430 31.5349 12.0904 0.0000 -10779.8050 1406.7788 0.0000 0.0000 1749.2429 -7579.0149 295.6866 -9328.2578 -7526.1609 300.9031 -426.1347 -417.4532 30564.8620 -30.5480 16.5338
ENERGY: 1500000 0.3785 33.0671 12.3847 0.0000 -10795.7864 1440.4319 0.0000 0.0000 1817.0538 -7492.4705 307.1492 -9309.5243 -7532.4311 301.1732 153.0014 203.2602 30419.7556 53.6188 107.5017
TCL: Running FEP window   5: Lambda1 0.7999999999999998 Lambda2 0.7499999999999998 [dLambda -0.050000000000000044]
TCL: Setting parameter firsttimestep to 0
TCL: Setting parameter alchLambda to 0.7999999999999998
Info: NONBONDED TABLE R-SQUARED SPACING: 0.0625
Info: NONBONDED TABLE SIZE: 705 POINTS
TCL: Setting parameter alchLambda2 to 0.7499999999999998
Info: NONBONDED TABLE R-SQUARED SPACING: 0.0625
Info: NONBONDED TABLE SIZE: 705 POINTS
TCL: Running for 1500000 steps
ETITLE: TS BOND ANGLE DIHED IMPRP ELECT VDW BOUNDARY MISC KINETIC TOTAL TEMP POTENTIAL TOTALAVG TEMPAVG PRESSURE GPRESSURE VOLUME PRESSAVG GPRESSAVG
ENERGY: 0 0.3785 33.0671 12.3847 0.0000 -10794.1758 1440.2313 0.0000 0.0000 1816.1603 -7491.9539 306.9981 -9308.1142 -7491.9539 306.9981 122.8104 197.7951 30419.7556 122.8104 197.7951
ENERGY: 300000 3.1588 34.1262 12.1160 0.0000 -10742.5766 1378.5822 0.0000 0.0000 1779.7286 -7534.8649 300.8398 -9314.5935 -7524.3726 302.5063 -573.2747 -518.9395 30573.0349 -8.1995 75.0734
ENERGY: 600000 1.4327 36.0504 11.4867 0.0000 -10716.3479 1379.7635 0.0000 0.0000 1784.5609 -7503.0536 301.6567 -9287.6145 -7506.2242 300.4291 -636.5320 -538.9532 30744.7202 3.8417 91.6311
ENERGY: 900000 1.7912 33.6919 11.9500 0.0000 -10809.3171 1428.6312 0.0000 0.0000 1704.3859 -7628.8669 288.1041 -9333.2528 -7523.0321 298.7452 -380.3732 -316.2100 30454.7059 -64.7235 10.1994
ENERGY: 1200000 1.2665 31.6719 11.4748 0.0000 -10850.7346 1487.7447 0.0000 0.0000 1786.3089 -7532.2678 301.9521 -9318.5767 -7529.3653 298.6428 105.0600 176.7725 30598.5338 -82.7559 -14.2160
ENERGY: 1500000 2.0158 31.6429 12.1250 0.0000 -10876.1820 1515.8898 0.0000 0.0000 1782.7469 -7531.7616 301.3500 -9314.5085 -7525.4619 299.9095 393.5741 490.8057 30365.7032 -94.5935 -23.1856
TCL: Running FEP window   6: Lambda1 0.7499999999999998 Lambda2 0.6999999999999997 [dLambda -0.050000000000000044]
TCL: Setting parameter firsttimestep to 0
TCL: Setting parameter alchLambda to 0.7499999999999998
Info: NONBONDED TABLE R-SQUARED SPACING: 0.0625
Info: NONBONDED TABLE SIZE: 705 POINTS
TCL: Setting parameter alchLambda2 to 0.6999999999999997
Info: NONBONDED TABLE R-SQUARED SPACING: 0.0625
Info: NONBONDED TABLE SIZE: 705 POINTS
TCL: Running for 1500000 steps
ETITLE: TS BOND ANGLE DIHED IMPRP ELECT VDW BOUNDARY MISC KINETIC TOTAL TEMP POTENTIAL TOTALAVG TEMPAVG PRESSURE GPRESSURE VOLUME PRESSAVG GPRESSAVG
ENERGY: 0 2.0158 31.6429 12.1250 0.0000 -10874.5768 1514.4042 0.0000 0.0000 1781.8703 -7532.5186 301.2019 -9314.3889 -7532.5186 301.2019 382.3237 470.8011 30365.7032 382.3237 470.8011
ENERGY: 300000 0.8123 35.2852 10.8794 0.0000 -10678.2521 1418.4143 0.0000 0.0000 1777.6076 -7435.2532 300.4813 -9212.8609 -7492.0383 301.8150 -204.0511 -182.0961 30908.1217 109.0652 146.5195
ENERGY: 600000 0.8013 33.8313 11.2635 0.0000 -10810.3939 1499.7792 0.0000 0.0000 1720.6206 -7544.0979 290.8484 -9264.7185 -7516.6530 298.3258 531.0444 552.7099 30388.9281 17.8798 55.4391
ENERGY: 900000 0.3527 33.6524 12.2678 0.0000 -10705.2523 1444.5035 0.0000 0.0000 1766.0831 -7448.3928 298.5332 -9214.4759 -7509.9640 299.4357 -47.7713 46.1335 30917.4565 -19.3216 19.9622
ENERGY: 1200000 1.6079 37.8869 11.7584 0.0000 -10856.8600 1469.3494 0.0000 0.0000 1816.0818 -7520.1756 306.9849 -9336.2574 -7503.7187 301.0374 365.1429 442.3278 30167.8051 38.1197 83.0683
ENERGY: 1500000 0.1526 37.0101 11.4929 0.0000 -10801.5893 1456.6433 0.0000 0.0000 1788.5074 -7507.7830 302.3238 -9296.2904 -7506.3935 300.9198 141.7362 132.2189 30524.7936 41.8375 87.2116
TCL: Running FEP window   7: Lambda1 0.6999999999999997 Lambda2 0.6499999999999997 [dLambda -0.050000000000000044]
TCL: Setting parameter firsttimestep to 0
TCL: Setting parameter alchLambda to 0.6999999999999997
Info: NONBONDED TABLE R-SQUARED SPACING: 0.0625
Info: NONBONDED TABLE SIZE: 705 POINTS
TCL: Setting parameter alchLambda2 to 0.6499999999999997
Info: NONBONDED TABLE R-SQUARED SPACING: 0.0625
Info: NONBONDED TABLE SIZE: 705 POINTS
TCL: Running for 1500000 steps
ETITLE: TS BOND ANGLE DIHED IMPRP ELECT VDW BOUNDARY MISC KINETIC TOTAL TEMP POTENTIAL TOTALAVG TEMPAVG PRESSURE GPRESSURE VOLUME PRESSAVG GPRESSAVG
ENERGY: 0 0.1526 37.0101 11.4929 0.0000 -10800.3783 1456.4132 0.0000 0.0000 1787.6369 -7507.6726 302.1766 -9295.3095 -7507.6726 302.1766 36.1668 127.7114 30524.7936 36.1668 127.7114
ENERGY: 300000 2.3230 32.9205 11.9181 0.0000 -10739.0802 1456.4640 0.0000 0.0000 1763.8298 -7471.6248 298.1523 -9235.4546 -7518.7917 298.7856 57.2065 144.2331 30644.6824 -104.2081 -23.6037
ENERGY: 600000 1.2153 38.2424 8.6344 0.0000 -10944.4062 1503.9964 0.0000 0.0000 1796.2675 -7596.0502 303.6355 -9392.3177 -7517.1928 298.6933 351.7049 394.4233 30055.1945 103.0951 167.7666
ENERGY: 900000 1.1378 33.3634 12.1426 0.0000 -10842.7344 1471.7591 0.0000 0.0000 1826.5888 -7497.7428 308.7609 -9324.3316 -7506.3772 300.4646 21.2093 124.0277 30449.9286 37.0166 110.1827
ENERGY: 1200000 1.0537 34.8042 12.2856 0.0000 -10785.9261 1439.2929 0.0000 0.0000 1700.0215 -7598.4681 287.3664 -9298.4896 -7504.3081 299.5038 -221.9287 -153.7468 30762.7055 -11.8258 59.6337
ENERGY: 1500000 1.0884 32.2557 11.5680 0.0000 -10606.5652 1375.4049 0.0000 0.0000 1747.5589 -7438.6892 295.4020 -9186.2482 -7500.8347 299.5984 -370.4787 -352.7333 30888.4219 17.5418 76.2851
TCL: Running FEP window   8: Lambda1 0.6499999999999997 Lambda2 0.5999999999999996 [dLambda -0.050000000000000044]
TCL: Setting parameter firsttimestep to 0
TCL: Setting parameter alchLambda to 0.6499999999999997
Info: NONBONDED TABLE R-SQUARED SPACING: 0.0625
Info: NONBONDED TABLE SIZE: 705 POINTS
TCL: Setting parameter alchLambda2 to 0.5999999999999996
Info: NONBONDED TABLE R-SQUARED SPACING: 0.0625
Info: NONBONDED TABLE SIZE: 705 POINTS
TCL: Running for 1500000 steps
ETITLE: TS BOND ANGLE DIHED IMPRP ELECT VDW BOUNDARY MISC KINETIC TOTAL TEMP POTENTIAL TOTALAVG TEMPAVG PRESSURE GPRESSURE VOLUME PRESSAVG GPRESSAVG
ENERGY: 0 1.0884 32.2557 11.5680 0.0000 -10605.0500 1374.7118 0.0000 0.0000 1746.6731 -7438.7529 295.2522 -9185.4260 -7438.7529 295.2522 -449.1398 -362.0472 30888.4219 -449.1398 -362.0472
ENERGY: 300000 1.2773 35.3007 10.0713 0.0000 -10851.2524 1508.0491 0.0000 0.0000 1807.7889 -7488.7651 305.5830 -9296.5540 -7516.6569 299.0570 567.7425 629.0417 30347.8624 -267.8637 -198.9538
ENERGY: 600000 0.7083 37.6493 9.2651 0.0000 -10736.8395 1388.7889 0.0000 0.0000 1806.6055 -7493.8225 305.3830 -9300.4280 -7510.5979 300.9131 -828.3059 -803.0467 31402.7639 -451.5604 -385.2674
ENERGY: 900000 1.2286 33.7256 10.5042 0.0000 -10727.5675 1410.2674 0.0000 0.0000 1781.5547 -7490.2869 301.1485 -9271.8416 -7511.7849 300.6376 -354.0400 -245.3456 30646.4775 -400.5564 -326.2347
ENERGY: 1200000 0.8936 35.0692 11.3113 0.0000 -10932.4958 1529.5543 0.0000 0.0000 1705.9651 -7649.7022 288.3711 -9355.6673 -7535.1045 298.1918 189.4710 223.8317 30845.6404 -309.4456 -238.1167
ENERGY: 1500000 1.7942 32.6777 11.8360 0.0000 -10762.7133 1385.8445 0.0000 0.0000 1788.7791 -7541.7817 302.3697 -9330.5609 -7532.7335 298.6610 -555.4022 -483.3230 30723.3570 -290.4812 -216.7159
TCL: Running FEP window   9: Lambda1 0.5999999999999996 Lambda2 0.5499999999999996 [dLambda -0.050000000000000044]
TCL: Setting parameter firsttimestep to 0
TCL: Setting parameter alchLambda to 0.5999999999999996
Info: NONBONDED TABLE R-SQUARED SPACING: 0.0625
Info: NONBONDED TABLE SIZE: 705 POINTS
TCL: Setting parameter alchLambda2 to 0.5499999999999996
Info: NONBONDED TABLE R-SQUARED SPACING: 0.0625
Info: NONBONDED TABLE SIZE: 705 POINTS
TCL: Running for 1500000 steps
ETITLE: TS BOND ANGLE DIHED IMPRP ELECT VDW BOUNDARY MISC KINETIC TOTAL TEMP POTENTIAL TOTALAVG TEMPAVG PRESSURE GPRESSURE VOLUME PRESSAVG GPRESSAVG
ENERGY: 0 1.7942 32.6777 11.8360 0.0000 -10761.7137 1385.9000 0.0000 0.0000 1787.8796 -7541.6261 302.2177 -9329.5058 -7541.6261 302.2177 -579.4114 -485.6073 30723.3570 -579.4114 -485.6073
ENERGY: 300000 0.3858 34.5944 11.6041 0.0000 -10724.2568 1445.5154 0.0000 0.0000 1786.8688 -7445.2883 302.0468 -9232.1571 -7481.7079 304.3799 -169.3407 -87.7219 31333.5369 -595.7233 -531.3023
ENERGY: 600000 1.3449 31.9834 11.7464 0.0000 -10811.0186 1490.0851 0.0000 0.0000 1850.8887 -7424.9701 312.8685 -9275.8587 -7468.8192 305.7564 277.1276 264.3794 30815.0851 -370.8184 -325.7554
ENERGY: 900000 0.5351 33.3904 11.0696 0.0000 -10771.8175 1398.4374 0.0000 0.0000 1821.0234 -7507.3616 307.8202 -9328.3849 -7485.9301 304.3659 -673.5984 -585.7193 30846.2063 -418.8685 -367.1528
ENERGY: 1200000 0.5890 34.8696 12.1116 0.0000 -10772.1372 1435.5830 0.0000 0.0000 1747.1239 -7541.8600 295.3284 -9288.9839 -7498.1994 302.0793 -206.0366 -136.4197 30582.8629 -337.4214 -278.1060
ENERGY: 1500000 0.4941 34.7308 11.7191 0.0000 -10692.1484 1422.5116 0.0000 0.0000 1814.1215 -7408.5714 306.6535 -9222.6929 -7487.6334 302.6868 -413.7426 -377.5443 31243.3492 -260.3662 -197.9102
TCL: Running FEP window  10: Lambda1 0.5499999999999996 Lambda2 0.4999999999999996 [dLambda -0.04999999999999999]
TCL: Setting parameter firsttimestep to 0
TCL: Setting parameter alchLambda to 0.5499999999999996
Info: NONBONDED TABLE R-SQUARED SPACING: 0.0625
Info: NONBONDED TABLE SIZE: 705 POINTS
TCL: Setting parameter alchLambda2 to 0.4999999999999996
Info: NONBONDED TABLE R-SQUARED SPACING: 0.0625
Info: NONBONDED TABLE SIZE: 705 POINTS
TCL: Running for 1500000 steps
ETITLE: TS BOND ANGLE DIHED IMPRP ELECT VDW BOUNDARY MISC KINETIC TOTAL TEMP POTENTIAL TOTALAVG TEMPAVG PRESSURE GPRESSURE VOLUME PRESSAVG GPRESSAVG
ENERGY: 0 0.4941 34.7308 11.7191 0.0000 -10692.0733 1422.7185 0.0000 0.0000 1813.2135 -7409.1973 306.5000 -9222.4109 -7409.1973 306.5000 -462.1508 -378.8114 31243.3492 -462.1508 -378.8114
ENERGY: 300000 0.6411 32.5081 12.2061 0.0000 -10767.6303 1532.0203 0.0000 0.0000 1758.2553 -7431.9995 297.2101 -9190.2548 -7475.1713 301.0964 1053.2550 1129.6290 30397.7942 196.7310 256.7459
ENERGY: 600000 0.4187 33.4344 11.3558 0.0000 -10688.8445 1377.0959 0.0000 0.0000 1796.2948 -7470.2449 303.6401 -9266.5397 -7467.3689 302.2391 -563.1502 -535.4549 30995.9363 6.9355 50.9806
ENERGY: 900000 2.1675 30.2747 12.6247 0.0000 -10789.0906 1476.7774 0.0000 0.0000 1753.3711 -7513.8752 296.3844 -9267.2463 -7484.3890 300.1290 66.7393 80.3883 30706.3330 67.3608 109.5110
ENERGY: 1200000 0.5508 32.1492 10.8778 0.0000 -10800.5233 1422.5155 0.0000 0.0000 1709.2971 -7625.1329 288.9343 -9334.4300 -7508.9781 299.2658 -426.3522 -367.7582 30452.1198 52.3609 98.2065
ENERGY: 1500000 1.5941 32.4519 12.2627 0.0000 -10765.3966 1481.6178 0.0000 0.0000 1754.8611 -7482.6090 296.6363 -9237.4701 -7511.6368 298.8837 317.4845 374.5931 30615.2909 136.9461 185.0599
TCL: Running FEP window  11: Lambda1 0.4999999999999996 Lambda2 0.4499999999999996 [dLambda -0.04999999999999999]
TCL: Setting parameter firsttimestep to 0
TCL: Setting parameter alchLambda to 0.4999999999999996
Info: NONBONDED TABLE R-SQUARED SPACING: 0.0625
Info: NONBONDED TABLE SIZE: 705 POINTS
TCL: Setting parameter alchLambda2 to 0.4499999999999996
Info: NONBONDED TABLE R-SQUARED SPACING: 0.0625
Info: NONBONDED TABLE SIZE: 705 POINTS
TCL: Running for 1500000 steps
ETITLE: TS BOND ANGLE DIHED IMPRP ELECT VDW BOUNDARY MISC KINETIC TOTAL TEMP POTENTIAL TOTALAVG TEMPAVG PRESSURE GPRESSURE VOLUME PRESSAVG GPRESSAVG
ENERGY: 0 1.5941 32.4519 12.2627 0.0000 -10765.8365 1481.1383 0.0000 0.0000 1753.9810 -7484.4085 296.4875 -9238.3895 -7484.4085 296.4875 280.9815 363.8997 30615.2909 280.9815 363.8997
ENERGY: 300000 1.8077 34.4625 11.1897 0.0000 -10820.0747 1519.3309 0.0000 0.0000 1791.8198 -7461.4641 302.8837 -9253.2839 -7474.4712 301.2997 758.1300 789.0194 30532.3175 274.4439 339.8888
ENERGY: 600000 0.9844 33.5935 12.1535 0.0000 -10904.0310 1471.8478 0.0000 0.0000 1763.0047 -7622.4471 298.0129 -9385.4518 -7498.3965 300.8962 -139.6837 -52.0065 30437.9311 171.3096 231.3842
ENERGY: 900000 0.1805 34.8294 12.2748 0.0000 -10798.3753 1478.6053 0.0000 0.0000 1751.7709 -7520.7144 296.1139 -9272.4853 -7511.0496 300.0918 254.3844 316.2988 30515.9614 74.8026 142.0398
ENERGY: 1200000 0.2191 37.9705 11.3202 0.0000 -10906.5953 1545.9793 0.0000 0.0000 1745.2242 -7565.8819 295.0073 -9311.1062 -7523.6396 299.5251 914.1220 985.6759 29760.4602 90.7548 152.0830
ENERGY: 1500000 0.6302 33.0369 11.8927 0.0000 -10732.7269 1381.8026 0.0000 0.0000 1757.9751 -7547.3895 297.1627 -9305.3646 -7522.4059 299.9832 -284.0382 -207.6948 30119.4806 -13.0502 53.2931
TCL: Running FEP window  12: Lambda1 0.4499999999999996 Lambda2 0.39999999999999963 [dLambda -0.04999999999999999]
TCL: Setting parameter firsttimestep to 0
TCL: Setting parameter alchLambda to 0.4499999999999996
Info: NONBONDED TABLE R-SQUARED SPACING: 0.0625
Info: NONBONDED TABLE SIZE: 705 POINTS
TCL: Setting parameter alchLambda2 to 0.39999999999999963
Info: NONBONDED TABLE R-SQUARED SPACING: 0.0625
Info: NONBONDED TABLE SIZE: 705 POINTS
TCL: Running for 1500000 steps
ETITLE: TS BOND ANGLE DIHED IMPRP ELECT VDW BOUNDARY MISC KINETIC TOTAL TEMP POTENTIAL TOTALAVG TEMPAVG PRESSURE GPRESSURE VOLUME PRESSAVG GPRESSAVG
ENERGY: 0 0.6302 33.0369 11.8927 0.0000 -10732.7271 1381.7004 0.0000 0.0000 1757.0594 -7548.4076 297.0079 -9305.4670 -7548.4076 297.0079 -293.7677 -211.4883 30119.4806 -293.7677 -211.4883
ENERGY: 300000 1.3516 32.8250 12.2532 0.0000 -10777.6337 1381.7952 0.0000 0.0000 1736.3187 -7613.0900 293.5020 -9349.4087 -7543.6266 294.7116 -974.0267 -868.9437 30930.6692 -366.9311 -303.9389
ENERGY: 600000 0.3798 36.7768 11.0531 0.0000 -10794.4640 1437.5461 0.0000 0.0000 1777.0890 -7531.6193 300.3936 -9308.7084 -7556.8247 295.9049 -96.9441 11.5938 30335.0880 -181.0095 -109.6147
ENERGY: 900000 1.1121 35.5928 10.6312 0.0000 -10669.1806 1432.4567 0.0000 0.0000 1757.1547 -7432.2331 297.0240 -9189.3878 -7540.8223 297.0846 107.5694 89.7462 30557.6890 -79.4889 -25.6521
ENERGY: 1200000 1.0248 33.4623 12.1053 0.0000 -10874.7146 1446.5869 0.0000 0.0000 1797.9698 -7583.5654 303.9233 -9381.5352 -7531.3408 298.2175 -246.7013 -176.8835 30233.2014 -97.5198 -39.3809
ENERGY: 1500000 2.2057 34.2280 10.0585 0.0000 -10655.8863 1377.5013 0.0000 0.0000 1759.4144 -7472.4783 297.4060 -9231.8927 -7521.6316 299.1818 -404.4245 -348.9795 30474.5921 -129.4664 -72.9231
TCL: Running FEP window  13: Lambda1 0.39999999999999963 Lambda2 0.34999999999999964 [dLambda -0.04999999999999999]
TCL: Setting parameter firsttimestep to 0
TCL: Setting parameter alchLambda to 0.39999999999999963
Info: NONBONDED TABLE R-SQUARED SPACING: 0.0625
Info: NONBONDED TABLE SIZE: 705 POINTS
TCL: Setting parameter alchLambda2 to 0.34999999999999964
Info: NONBONDED TABLE R-SQUARED SPACING: 0.0625
Info: NONBONDED TABLE SIZE: 705 POINTS
TCL: Running for 1500000 steps
ETITLE: TS BOND ANGLE DIHED IMPRP ELECT VDW BOUNDARY MISC KINETIC TOTAL TEMP POTENTIAL TOTALAVG TEMPAVG PRESSURE GPRESSURE VOLUME PRESSAVG GPRESSAVG
ENERGY: 0 2.2057 34.2280 10.0585 0.0000 -10655.8869 1377.8006 0.0000 0.0000 1758.5053 -7473.0889 297.2523 -9231.5941 -7473.0889 297.2523 -446.8507 -349.4480 30474.5921 -446.8507 -349.4480
ENERGY: 300000 1.5760 33.9436 11.7441 0.0000 -10729.6575 1379.5733 0.0000 0.0000 1801.5220 -7501.2985 304.5237 -9302.8206 -7508.7388 299.4356 -363.0559 -295.8951 30249.9612 -216.2631 -150.0106
ENERGY: 600000 0.8131 38.5898 11.6309 0.0000 -10779.1413 1447.5121 0.0000 0.0000 1761.8032 -7518.7922 297.8098 -9280.5954 -7526.3585 299.3348 -144.0362 -142.1748 30818.0026 -223.3166 -162.6177
ENERGY: 900000 0.9368 35.3672 9.3254 0.0000 -10876.9499 1494.8490 0.0000 0.0000 1795.3591 -7541.1123 303.4820 -9336.4714 -7522.9738 299.8480 -4.5276 18.8820 30778.9932 -255.3547 -198.1385
ENERGY: 1200000 0.3741 31.0466 12.0890 0.0000 -10735.2583 1389.4440 0.0000 0.0000 1762.6889 -7539.6158 297.9595 -9302.3046 -7525.5591 299.5899 -604.3283 -514.7874 30435.9722 -253.3372 -197.2477
ENERGY: 1500000 1.9256 37.2893 11.5795 0.0000 -10824.8112 1446.4617 0.0000 0.0000 1766.5400 -7561.0151 298.6105 -9327.5551 -7528.0390 299.6169 18.9305 78.8848 30600.1537 -204.6314 -150.1562
TCL: Running FEP window  14: Lambda1 0.34999999999999964 Lambda2 0.29999999999999966 [dLambda -0.04999999999999999]
TCL: Setting parameter firsttimestep to 0
TCL: Setting parameter alchLambda to 0.34999999999999964
Info: NONBONDED TABLE R-SQUARED SPACING: 0.0625
Info: NONBONDED TABLE SIZE: 705 POINTS
TCL: Setting parameter alchLambda2 to 0.29999999999999966
Info: NONBONDED TABLE R-SQUARED SPACING: 0.0625
Info: NONBONDED TABLE SIZE: 705 POINTS
TCL: Running for 1500000 steps
ETITLE: TS BOND ANGLE DIHED IMPRP ELECT VDW BOUNDARY MISC KINETIC TOTAL TEMP POTENTIAL TOTALAVG TEMPAVG PRESSURE GPRESSURE VOLUME PRESSAVG GPRESSAVG
ENERGY: 0 1.9256 37.2893 11.5795 0.0000 -10824.8110 1446.6978 0.0000 0.0000 1765.6650 -7561.6538 298.4626 -9327.3187 -7561.6538 298.4626 10.4346 79.4032 30600.1537 10.4346 79.4032
ENERGY: 300000 1.8130 36.2414 10.3768 0.0000 -10754.8480 1475.5510 0.0000 0.0000 1790.4442 -7440.4216 302.6512 -9230.8658 -7475.9318 304.6995 343.0200 371.6698 30673.7974 62.3140 112.5674
ENERGY: 600000 0.7997 31.2437 12.2866 0.0000 -10771.1918 1447.0831 0.0000 0.0000 1807.4464 -7472.3323 305.5252 -9279.7787 -7473.3065 302.8590 -33.9929 55.0956 30529.0819 71.7586 127.8001
ENERGY: 900000 0.8063 34.6346 11.8659 0.0000 -10886.6339 1459.1255 0.0000 0.0000 1791.3495 -7588.8522 302.8042 -9380.2017 -7473.2414 304.1471 -121.5699 -54.3106 30126.2547 31.8460 90.5222
ENERGY: 1200000 2.3649 34.2016 10.5183 0.0000 -10753.4424 1430.5009 0.0000 0.0000 1712.9159 -7562.9408 289.5460 -9275.8567 -7497.8798 302.0379 -275.0049 -194.0324 30563.8164 33.8066 96.2588
ENERGY: 1500000 1.8844 31.0671 12.1460 0.0000 -10693.1500 1354.3300 0.0000 0.0000 1788.0657 -7505.6568 302.2491 -9293.7225 -7497.9968 301.4507 -995.1070 -952.5035 31043.4558 -37.1395 23.8554
TCL: Running FEP window  15: Lambda1 0.29999999999999966 Lambda2 0.24999999999999967 [dLambda -0.04999999999999999]
TCL: Setting parameter firsttimestep to 0
TCL: Setting parameter alchLambda to 0.29999999999999966
Info: NONBONDED TABLE R-SQUARED SPACING: 0.0625
Info: NONBONDED TABLE SIZE: 705 POINTS
TCL: Setting parameter alchLambda2 to 0.24999999999999967
Info: NONBONDED TABLE R-SQUARED SPACING: 0.0625
Info: NONBONDED TABLE SIZE: 705 POINTS
TCL: Running for 1500000 steps
ETITLE: TS BOND ANGLE DIHED IMPRP ELECT VDW BOUNDARY MISC KINETIC TOTAL TEMP POTENTIAL TOTALAVG TEMPAVG PRESSURE GPRESSURE VOLUME PRESSAVG GPRESSAVG
ENERGY: 0 1.8844 31.0671 12.1460 0.0000 -10693.1524 1354.2911 0.0000 0.0000 1787.2361 -7506.5278 302.1089 -9293.7638 -7506.5278 302.1089 -1044.0212 -953.6706 31043.4558 -1044.0212 -953.6706
ENERGY: 300000 2.6323 36.5763 11.9839 0.0000 -10733.2497 1433.5419 0.0000 0.0000 1746.3644 -7502.1510 295.2001 -9248.5154 -7495.6237 299.7023 -217.1513 -158.0702 30904.7428 -448.7389 -409.2886
ENERGY: 600000 1.0937 34.4375 11.0241 0.0000 -10841.4640 1546.2707 0.0000 0.0000 1782.9506 -7465.6875 301.3845 -9248.6380 -7471.5277 302.0084 599.8982 610.5497 30822.3206 -45.6825 -4.7646
ENERGY: 900000 4.1170 30.5156 12.3945 0.0000 -10771.4052 1452.3368 0.0000 0.0000 1822.8915 -7449.1497 308.1360 -9272.0412 -7480.1495 301.8562 -116.4842 -72.1282 31046.3253 -44.2944 -1.7393
ENERGY: 1200000 0.5782 36.3869 11.0476 0.0000 -10677.7310 1382.7621 0.0000 0.0000 1782.5994 -7464.3567 301.3251 -9246.9562 -7483.8493 301.7122 -250.2192 -239.7853 30274.7443 -38.1494 9.5688
ENERGY: 1500000 1.1093 33.6855 11.4798 0.0000 -10872.4254 1529.1041 0.0000 0.0000 1730.5796 -7566.4672 292.5318 -9297.0468 -7496.0389 300.6610 483.2286 476.2882 30391.4119 -45.4803 1.2908
TCL: Running FEP window  16: Lambda1 0.24999999999999967 Lambda2 0.19999999999999968 [dLambda -0.04999999999999999]
TCL: Setting parameter firsttimestep to 0
TCL: Setting parameter alchLambda to 0.24999999999999967
Info: NONBONDED TABLE R-SQUARED SPACING: 0.0625
Info: NONBONDED TABLE SIZE: 705 POINTS
TCL: Setting parameter alchLambda2 to 0.19999999999999968
Info: NONBONDED TABLE R-SQUARED SPACING: 0.0625
Info: NONBONDED TABLE SIZE: 705 POINTS
TCL: Running for 1500000 steps
ETITLE: TS BOND ANGLE DIHED IMPRP ELECT VDW BOUNDARY MISC KINETIC TOTAL TEMP POTENTIAL TOTALAVG TEMPAVG PRESSURE GPRESSURE VOLUME PRESSAVG GPRESSAVG
ENERGY: 0 1.1093 33.6855 11.4798 0.0000 -10872.4234 1528.5382 0.0000 0.0000 1729.6835 -7567.9272 292.3804 -9297.6108 -7567.9272 292.3804 379.1203 471.1609 30391.4119 379.1203 471.1609
ENERGY: 300000 0.3208 34.6954 11.9396 0.0000 -10790.3687 1403.4291 0.0000 0.0000 1752.2366 -7587.7471 296.1927 -9339.9837 -7543.5171 297.2477 -546.4914 -451.6147 30463.2933 67.9764 142.7669
ENERGY: 600000 0.9664 33.1611 12.0610 0.0000 -10840.4319 1519.1912 0.0000 0.0000 1766.6920 -7508.3602 298.6362 -9275.0522 -7526.6929 298.7556 511.7911 547.8578 30516.4087 176.4702 248.4513
ENERGY: 900000 2.5937 31.2798 11.6402 0.0000 -10678.1654 1392.3973 0.0000 0.0000 1816.5896 -7423.6648 307.0707 -9240.2544 -7519.2509 299.7999 -340.9529 -268.8523 30792.7472 -42.8826 29.2649
ENERGY: 1200000 0.5401 32.5023 12.5390 0.0000 -10653.4902 1423.7858 0.0000 0.0000 1710.6959 -7473.4273 289.1707 -9184.1231 -7518.8362 298.4012 -87.8260 -29.1363 30971.2122 -75.3844 -8.0775
ENERGY: 1500000 1.4254 31.1504 12.2288 0.0000 -10759.1939 1416.5061 0.0000 0.0000 1808.2347 -7489.6486 305.6584 -9297.8833 -7512.9256 299.6627 -243.6154 -194.5901 30485.5919 -111.9703 -41.3359
TCL: Running FEP window  17: Lambda1 0.19999999999999968 Lambda2 0.1499999999999997 [dLambda -0.04999999999999999]
TCL: Setting parameter firsttimestep to 0
TCL: Setting parameter alchLambda to 0.19999999999999968
Info: NONBONDED TABLE R-SQUARED SPACING: 0.0625
Info: NONBONDED TABLE SIZE: 705 POINTS
TCL: Setting parameter alchLambda2 to 0.1499999999999997
Info: NONBONDED TABLE R-SQUARED SPACING: 0.0625
Info: NONBONDED TABLE SIZE: 705 POINTS
TCL: Running for 1500000 steps
ETITLE: TS BOND ANGLE DIHED IMPRP ELECT VDW BOUNDARY MISC KINETIC TOTAL TEMP POTENTIAL TOTALAVG TEMPAVG PRESSURE GPRESSURE VOLUME PRESSAVG GPRESSAVG
ENERGY: 0 1.4254 31.1504 12.2288 0.0000 -10759.1939 1416.7422 0.0000 0.0000 1807.3704 -7490.2768 305.5123 -9297.6472 -7490.2768 305.5123 -269.8245 -193.0912 30485.5919 -269.8245 -193.0912
ENERGY: 300000 0.9888 31.3424 11.6092 0.0000 -10779.5193 1411.6498 0.0000 0.0000 1827.9246 -7496.0044 308.9867 -9323.9290 -7506.0006 302.3385 -277.5698 -273.9229 30594.1066 -56.3048 -8.0911
ENERGY: 600000 3.5064 28.8531 12.3017 0.0000 -10822.8297 1413.2957 0.0000 0.0000 1751.1486 -7613.7242 296.0088 -9364.8728 -7534.3608 301.0185 -730.5865 -712.7800 30596.7559 65.7042 121.4547
ENERGY: 900000 2.1932 30.0431 12.3428 0.0000 -10814.2561 1457.4924 0.0000 0.0000 1818.0878 -7494.0967 307.3240 -9312.1845 -7514.0784 302.0229 -140.7746 -88.5836 30670.8169 -48.9869 13.3897
ENERGY: 1200000 1.0849 32.2830 12.2497 0.0000 -10713.8486 1322.3422 0.0000 0.0000 1763.0496 -7582.8393 298.0205 -9345.8889 -7519.9485 300.5314 -1028.1781 -954.6008 30317.5656 -132.8844 -70.1319
ENERGY: 1500000 2.4967 32.5261 11.2692 0.0000 -10861.4286 1421.5164 0.0000 0.0000 1719.3318 -7674.2885 290.6305 -9393.6202 -7528.5112 300.0982 -464.6979 -368.0211 30458.4724 -115.7962 -48.9099
TCL: Running FEP window  18: Lambda1 0.1499999999999997 Lambda2 0.09999999999999969 [dLambda -0.05 ]
TCL: Setting parameter firsttimestep to 0
TCL: Setting parameter alchLambda to 0.1499999999999997
Info: NONBONDED TABLE R-SQUARED SPACING: 0.0625
Info: NONBONDED TABLE SIZE: 705 POINTS
TCL: Setting parameter alchLambda2 to 0.09999999999999969
Info: NONBONDED TABLE R-SQUARED SPACING: 0.0625
Info: NONBONDED TABLE SIZE: 705 POINTS
TCL: Running for 1500000 steps
ETITLE: TS BOND ANGLE DIHED IMPRP ELECT VDW BOUNDARY MISC KINETIC TOTAL TEMP POTENTIAL TOTALAVG TEMPAVG PRESSURE GPRESSURE VOLUME PRESSAVG GPRESSAVG
ENERGY: 0 2.4967 32.5261 11.2692 0.0000 -10861.4268 1421.5058 0.0000 0.0000 1718.4459 -7675.1830 290.4808 -9393.6290 -7675.1830 290.4808 -449.0515 -370.5898 30458.4724 -449.0515 -370.5898
ENERGY: 300000 0.8198 31.6712 12.1813 0.0000 -10711.3861 1380.6114 0.0000 0.0000 1768.5597 -7517.5428 298.9519 -9286.1025 -7554.2150 297.2022 -519.5595 -480.8130 30787.3652 -329.3633 -301.4090
ENERGY: 600000 0.8408 34.7163 11.3983 0.0000 -10947.6182 1542.1437 0.0000 0.0000 1747.5364 -7610.9826 295.3982 -9358.5190 -7546.9109 297.4208 449.2798 520.4381 30456.4679 -194.6732 -149.9009
ENERGY: 900000 1.1302 35.6289 9.6572 0.0000 -10695.3455 1356.1049 0.0000 0.0000 1709.0873 -7583.7370 288.8988 -9292.8243 -7553.5311 295.7314 -593.1410 -637.5116 30379.8427 -267.9059 -237.5387
ENERGY: 1200000 2.3878 37.6358 10.6808 0.0000 -10801.8556 1420.3499 0.0000 0.0000 1754.8745 -7575.9267 296.6386 -9330.8012 -7547.3754 296.6366 -185.8398 -164.3338 30112.0678 -232.8639 -200.8308
ENERGY: 1500000 1.3778 38.9863 11.0428 0.0000 -10810.0896 1444.3373 0.0000 0.0000 1768.6604 -7545.6850 298.9689 -9314.3454 -7539.3113 296.9523 -309.3561 -246.3531 30583.6960 -240.4426 -207.3439
TCL: Running FEP window  19: Lambda1 0.09999999999999969 Lambda2 0.049999999999999684 [dLambda -0.05 ]
TCL: Setting parameter firsttimestep to 0
TCL: Setting parameter alchLambda to 0.09999999999999969
Info: NONBONDED TABLE R-SQUARED SPACING: 0.0625
Info: NONBONDED TABLE SIZE: 705 POINTS
TCL: Setting parameter alchLambda2 to 0.049999999999999684
Info: NONBONDED TABLE R-SQUARED SPACING: 0.0625
Info: NONBONDED TABLE SIZE: 705 POINTS
TCL: Running for 1500000 steps
ETITLE: TS BOND ANGLE DIHED IMPRP ELECT VDW BOUNDARY MISC KINETIC TOTAL TEMP POTENTIAL TOTALAVG TEMPAVG PRESSURE GPRESSURE VOLUME PRESSAVG GPRESSAVG
ENERGY: 0 1.3778 38.9863 11.0428 0.0000 -10810.0889 1444.3275 0.0000 0.0000 1767.8013 -7546.5532 298.8237 -9314.3545 -7546.5532 298.8237 -342.6508 -248.7308 30583.6960 -342.6508 -248.7308
ENERGY: 300000 0.9532 36.4334 11.3847 0.0000 -10915.8261 1523.2908 0.0000 0.0000 1794.6529 -7549.1110 303.3626 -9343.7640 -7571.7381 299.6913 673.3761 685.7680 29990.8596 -134.6369 -78.0573
ENERGY: 600000 3.4810 33.4202 11.7742 0.0000 -10756.8834 1378.5857 0.0000 0.0000 1774.6156 -7555.0067 299.9755 -9329.6224 -7551.7156 297.7853 -548.5222 -514.3614 30305.9909 -347.9211 -301.3382
ENERGY: 900000 1.6504 31.0528 12.3521 0.0000 -10664.9149 1377.1817 0.0000 0.0000 1787.6106 -7455.0674 302.1722 -9242.6780 -7533.6134 299.4167 -246.0955 -192.1619 30202.5287 -296.1131 -246.9176
ENERGY: 1200000 1.1224 34.3480 12.2467 0.0000 -10628.5658 1340.1154 0.0000 0.0000 1723.9296 -7516.8037 291.4077 -9240.7334 -7533.0458 299.0901 -842.9038 -808.1817 30692.9912 -309.5183 -261.8046
ENERGY: 1500000 0.3712 31.4046 12.2644 0.0000 -10784.8845 1436.8143 0.0000 0.0000 1778.4020 -7525.6280 300.6156 -9304.0299 -7522.1548 300.0261 -165.3435 -88.1616 30304.0189 -302.9335 -253.0619
TCL: Running FEP window  20: Lambda1 0.049999999999999684 Lambda2 0.0    [dLambda -0.049999999999999684]
TCL: Setting parameter firsttimestep to 0
TCL: Setting parameter alchLambda to 0.049999999999999684
Info: NONBONDED TABLE R-SQUARED SPACING: 0.0625
Info: NONBONDED TABLE SIZE: 705 POINTS
TCL: Setting parameter alchLambda2 to 0.0
Info: NONBONDED TABLE R-SQUARED SPACING: 0.0625
Info: NONBONDED TABLE SIZE: 705 POINTS
TCL: Running for 1500000 steps
ETITLE: TS BOND ANGLE DIHED IMPRP ELECT VDW BOUNDARY MISC KINETIC TOTAL TEMP POTENTIAL TOTALAVG TEMPAVG PRESSURE GPRESSURE VOLUME PRESSAVG GPRESSAVG
ENERGY: 0 0.3712 31.4046 12.2644 0.0000 -10784.8841 1436.9563 0.0000 0.0000 1777.5194 -7526.3681 300.4664 -9303.8876 -7526.3681 300.4664 -167.6695 -89.4367 30304.0189 -167.6695 -89.4367
ENERGY: 300000 3.4647 35.0225 9.9044 0.0000 -10827.6437 1492.8716 0.0000 0.0000 1793.7872 -7492.5932 303.2163 -9286.3804 -7537.6560 300.4241 317.2159 378.5802 30382.9716 -158.4174 -100.3857
ENERGY: 600000 4.5893 37.3063 9.6621 0.0000 -10698.3050 1437.9186 0.0000 0.0000 1729.8901 -7478.9386 292.4153 -9208.8288 -7529.3791 298.9260 -249.2372 -157.1334 30790.6179 -60.8116 -12.4523
ENERGY: 900000 0.2068 34.6707 11.8852 0.0000 -10873.8020 1516.0457 0.0000 0.0000 1824.3663 -7486.6273 308.3852 -9310.9936 -7522.0540 300.6023 530.1578 604.6130 30148.0385 20.3914 68.6284
ENERGY: 1200000 1.3418 32.9473 12.0960 0.0000 -10969.3929 1584.0711 0.0000 0.0000 1788.3580 -7550.5788 302.2985 -9338.9367 -7528.3803 300.0960 845.8622 889.1687 30356.7192 21.0576 69.9564
ENERGY: 1500000 0.7412 34.5292 10.8197 0.0000 -10643.3182 1368.2487 0.0000 0.0000 1742.5311 -7486.4482 294.5521 -9228.9793 -7520.2489 299.9103 -584.5787 -565.4076 30512.4897 17.9404 72.2446
TCL: Exiting due to exit command.
