Info: SIMULATION PARAMETERS:
Info: TIMESTEP               2
Info: NUMBER OF STEPS        0
Info: STEPS PER CYCLE        10
Info: PERIODIC CELL BASIS 1  30.1606 0 0
Info: PERIODIC CELL BASIS 2  0 31.5467 0
Info: PERIODIC CELL BASIS 3  0 0 31.6507
Info: PERIODIC CELL CENTER   0 0 0
Info: WRAPPING WATERS AROUND PERIODIC BOUNDARIES ON OUTPUT.
Info: WRAPPING ALL CLUSTERS AROUND PERIODIC BOUNDARIES ON OUTPUT.
Info: FIRST LDB TIMESTEP     50
Info: LAST LDB TIMESTEP     -1
Info: HOM BACKGROUND SCALING 1
Info: PME BACKGROUND SCALING 1
Info: MIN ATOMS PER PATCH    40
Info: EMPTY PATCH LOAD       40 ATOMS
Info: VELOCITY FILE          mobley_1036761_equil.vel
Info: CENTER OF MASS MOVING INITIALLY? NO
Info: DIELECTRIC             1
Info: EXCLUDE                SCALED ONE-FOUR
Info: 1-4 ELECTROSTATICS SCALED BY 0.833333
Info: MODIFIED 1-4 VDW PARAMETERS WILL BE USED
Info: DCD FILENAME           mobley_1036761_prod.dcd
Info: DCD FREQUENCY          100000
Info: DCD FIRST STEP         100000
Info: DCD FILE WILL CONTAIN UNIT CELL DATA
Info: XST FILENAME           mobley_1036761_prod.xst
Info: XST FREQUENCY          100000
Info: NO VELOCITY DCD OUTPUT
Info: NO FORCE DCD OUTPUT
Info: OUTPUT FILENAME        mobley_1036761_prod
Info: BINARY OUTPUT FILES WILL BE USED
Info: RESTART FILENAME       mobley_1036761_prod.restart
Info: RESTART FREQUENCY      100000
Info: BINARY RESTART FILES WILL BE USED
Info: CUTOFF                 9
Info: PAIRLIST DISTANCE      11
Info: PAIRLIST SHRINK RATE   0.01
Info: PAIRLIST GROW RATE     0.01
Info: PAIRLIST TRIGGER       0.3
Info: PAIRLISTS PER CYCLE    2
Info: PAIRLISTS ENABLED
Info: MARGIN                 2
Info: HYDROGEN GROUP CUTOFF  2.5
Info: PATCH DIMENSION        15.5
Info: ENERGY OUTPUT STEPS    100000
Info: ENERGY EVALUATION STEPS    100000
Info: OUTPUT ENERGY PRECISION 4
Info: CROSSTERM ENERGY INCLUDED IN DIHEDRAL
Info: TIMING OUTPUT STEPS    1000000
Info: PRESSURE OUTPUT STEPS  100000
Info: ALCHEMICAL FEP ON
Info: FEP CURRENT LAMBDA VALUE     1
Info: FEP COMPARISON LAMBDA VALUE  0.95
Info: FEP INTRA-ALCHEMICAL NON-BONDED INTERACTIONS WILL BE RETAINED
Info: FEP INTRA-ALCHEMICAL BONDED INTERACTIONS WILL BE RETAINED
Info: FEP VDW SHIFTING COEFFICIENT 5
Info: FEP ELEC. ACTIVE FOR ANNIHILATED PARTICLES BETWEEN LAMBDA = 0 AND LAMBDA = 0.5
Info: FEP ELEC. ACTIVE FOR EXNIHILATED PARTICLES BETWEEN LAMBDA = 0.5 AND LAMBDA = 1
Info: FEP VDW ACTIVE FOR ANNIHILATED PARTICLES BETWEEN LAMBDA = 0 AND LAMBDA = 1
Info: FEP VDW ACTIVE FOR EXNIHILATED PARTICLES BETWEEN LAMBDA = 0 AND LAMBDA = 1
Info: FEP BOND ACTIVE FOR ANNIHILATED PARTICLES BETWEEN LAMBDA = 1 AND LAMBDA = 1
Info: FEP BOND ACTIVE FOR EXNIHILATED PARTICLES BETWEEN LAMBDA = 0 AND LAMBDA = 0
Info: LANGEVIN DYNAMICS ACTIVE
Info: LANGEVIN TEMPERATURE   300
Info: LANGEVIN USING BBK INTEGRATOR
Info: LANGEVIN DAMPING COEFFICIENT IS 1 INVERSE PS
Info: LANGEVIN DYNAMICS APPLIED TO HYDROGENS
Info: LANGEVIN PISTON PRESSURE CONTROL ACTIVE
Info:        TARGET PRESSURE IS 1.01325 BAR
Info:     OSCILLATION PERIOD IS 50 FS
Info:             DECAY TIME IS 25 FS
Info:     PISTON TEMPERATURE IS 300 K
Info:       PRESSURE CONTROL IS GROUP-BASED
Info:    INITIAL STRAIN RATE IS 0.000423365 0.000423365 0.000423365
Info:       CELL FLUCTUATION IS ISOTROPIC
Info: PARTICLE MESH EWALD (PME) ACTIVE
Info: PME TOLERANCE               1e-06
Info: PME EWALD COEFFICIENT       0.348832
Info: PME INTERPOLATION ORDER     4
Info: PME GRID DIMENSIONS         32 32 32
Info: PME MAXIMUM GRID SPACING    1
Info: PME CALCULATION WILL BE PERFORMED ON GPU
Info: FULL ELECTROSTATIC EVALUATION FREQUENCY      2
Info: USING VERLET I (r-RESPA) MTS SCHEME.
Info: C1 SPLITTING OF LONG RANGE ELECTROSTATICS
Info: PLACING ATOMS IN PATCHES BY HYDROGEN GROUPS
Info: RIGID BONDS TO HYDROGEN : ALL
Info:         ERROR TOLERANCE : 1e-08
Info:          MAX ITERATIONS : 100
Info: RIGID WATER USING SETTLE ALGORITHM
Info: RANDOM NUMBER SEED     1743631435
Info: USE HYDROGEN BONDS?    NO
Info: Using AMBER format force field!
Info: AMBER PARM FILE        mobley_1036761.prmtop
Info: COORDINATE PDB         mobley_1036761.pdb
Info: Exclusions will be read from PARM file!
Info: SCNB (VDW SCALING)     2
Info: USING ARITHMETIC MEAN TO COMBINE L-J SIGMA PARAMETERS
Info: BINARY COORDINATES     mobley_1036761_equil.coor
Info: SUMMARY OF PARAMETERS:
Info: 7 BONDS
Info: 8 ANGLES
Info:   8 HARMONIC
Info:   0 COSINE-BASED
Info: 7 DIHEDRAL
Info: 0 IMPROPER
Info: 0 CROSSTERM
Info: 0 VDW
Info: 28 VDW_PAIRS
Info: 0 NBTHOLE_PAIRS
Info: To read alchdata from file: mobley_1036761.pdb
Info: To read alchflag data from column: 5
Info: STRUCTURE SUMMARY:
Info: 2954 ATOMS
Info: 2954 BONDS
Info: 39 ANGLES
Info: 72 DIHEDRALS
Info: 0 IMPROPERS
Info: 0 CROSSTERMS
Info: 3050 EXCLUSIONS
Info: 2947 RIGID BONDS
Info: ALCH: 0 ATOMS TO DISAPPEAR IN FINAL STATE
Info: ALCH: 20 ATOMS TO APPEAR IN FINAL STATE
Info: 5915 DEGREES OF FREEDOM
Info: 985 HYDROGEN GROUPS
Info: 3 ATOMS IN LARGEST HYDROGEN GROUP
Info: 985 MIGRATION GROUPS
Info: 3 ATOMS IN LARGEST MIGRATION GROUP
Info: TOTAL MASS = 17718.8 amu
Info: TOTAL CHARGE = 0.000100009 e
Info: MASS DENSITY = 0.977049 g/cm^3
Info: ATOM DENSITY = 0.0980918 atoms/A^3
Info: ADDED 0 IMPLICIT EXCLUSIONS
Info: NONBONDED TABLE R-SQUARED SPACING: 0.0625
Info: NONBONDED TABLE SIZE: 705 POINTS
Info: REMOVING COM VELOCITY 0.00238865 -0.0690565 -0.0213437
Info: Use 3D box decompostion in PME FFT.
Info: Updated CUDA force table with 4096 elements.
Info: Updated CUDA LJ table with 7 x 7 elements.
Info: Found 23 unique exclusion lists needing 68 bytes
TCL: Running for 1500000 steps
ETITLE: TS BOND ANGLE DIHED IMPRP ELECT VDW BOUNDARY MISC KINETIC TOTAL TEMP POTENTIAL TOTALAVG TEMPAVG PRESSURE GPRESSURE VOLUME PRESSAVG GPRESSAVG
ENERGY: 0 2.7905 2.9144 3.5212 0.0000 -10743.9063 1402.7369 0.0000 0.0000 1790.1176 -7541.8257 304.5911 -9331.9433 -7541.8257 304.5911 -308.2736 -214.0567 30114.6543 -308.2736 -214.0567
ENERGY: 300000 3.0327 8.9129 3.3840 0.0000 -10789.3090 1507.8427 0.0000 0.0000 1804.8110 -7461.3257 307.0912 -9266.1367 -7507.6393 303.1920 427.1584 484.7394 30479.4393 242.3076 313.6403
ENERGY: 600000 1.7216 10.9363 3.2061 0.0000 -10611.5581 1444.2775 0.0000 0.0000 1730.7840 -7420.6327 294.4954 -9151.4166 -7484.2647 299.9783 202.1799 197.3982 30921.7107 159.9673 208.6451
ENERGY: 900000 2.2653 10.4230 5.8234 0.0000 -10727.8997 1431.6932 0.0000 0.0000 1770.3517 -7507.3430 301.2279 -9277.6947 -7487.4897 300.1867 -95.4076 -58.3066 30507.1010 170.2466 222.8820
ENERGY: 1200000 3.6437 6.7023 3.5268 0.0000 -10815.7834 1520.2920 0.0000 0.0000 1795.5215 -7486.0972 305.5106 -9281.6186 -7490.8194 300.1205 552.4199 562.7183 30236.2584 183.6321 228.1724
ENERGY: 1500000 1.3848 7.2243 3.1741 0.0000 -10622.1050 1400.8875 0.0000 0.0000 1834.5954 -7374.8390 312.1591 -9209.4345 -7485.9934 300.9100 -114.4376 -54.5252 30625.3255 169.8982 219.9784
TCL: Running FEP window   2: Lambda1 0.95   Lambda2 0.8999999999999999 [dLambda -0.050000000000000044]
TCL: Setting parameter firsttimestep to 0
TCL: Setting parameter alchLambda to 0.95
Info: NONBONDED TABLE R-SQUARED SPACING: 0.0625
Info: NONBONDED TABLE SIZE: 705 POINTS
TCL: Setting parameter alchLambda2 to 0.8999999999999999
Info: NONBONDED TABLE R-SQUARED SPACING: 0.0625
Info: NONBONDED TABLE SIZE: 705 POINTS
TCL: Running for 1500000 steps
ETITLE: TS BOND ANGLE DIHED IMPRP ELECT VDW BOUNDARY MISC KINETIC TOTAL TEMP POTENTIAL TOTALAVG TEMPAVG PRESSURE GPRESSURE VOLUME PRESSAVG GPRESSAVG
ENERGY: 0 1.3848 7.2242 3.1741 0.0000 -10621.0573 1401.4950 0.0000 0.0000 1833.7187 -7374.0606 312.0099 -9207.7792 -7374.0606 312.0099 -142.5239 -57.2339 30625.3255 -142.5239 -57.2339
ENERGY: 300000 3.1684 11.2997 3.4066 0.0000 -10571.7024 1414.6537 0.0000 0.0000 1751.3750 -7387.7990 297.9990 -9139.1741 -7446.0676 300.0899 -354.6365 -359.9564 31160.2689 -315.2323 -237.5379
ENERGY: 600000 0.7813 6.4973 3.6899 0.0000 -10577.4348 1348.1467 0.0000 0.0000 1750.8141 -7467.5055 297.9035 -9218.3196 -7456.4877 299.9046 -363.2614 -316.5938 30151.1499 -329.3241 -258.3760
ENERGY: 900000 1.1052 14.8781 5.0419 0.0000 -10796.9759 1534.5680 0.0000 0.0000 1767.8711 -7473.5116 300.8058 -9241.3827 -7462.7606 299.3930 857.5535 887.7325 30153.0293 -148.2593 -84.9294
ENERGY: 1200000 3.1942 9.0789 3.3035 0.0000 -10666.0551 1385.1353 0.0000 0.0000 1799.8525 -7465.4908 306.2475 -9265.3433 -7461.6964 299.6527 -535.6084 -398.9208 30357.0375 -250.5414 -180.9463
ENERGY: 1500000 0.9573 8.4832 4.2968 0.0000 -10598.0267 1398.8380 0.0000 0.0000 1826.7512 -7358.7002 310.8243 -9185.4513 -7455.3872 299.7643 -73.0069 -48.4326 30361.7669 -178.0671 -104.9838
TCL: Running FEP window   3: Lambda1 0.8999999999999999 Lambda2 0.8499999999999999 [dLambda -0.050000000000000044]
TCL: Setting parameter firsttimestep to 0
TCL: Setting parameter alchLambda to 0.8999999999999999
Info: NONBONDED TABLE R-SQUARED SPACING: 0.0625
Info: NONBONDED TABLE SIZE: 705 POINTS
TCL: Setting parameter alchLambda2 to 0.8499999999999999
Info: NONBONDED TABLE R-SQUARED SPACING: 0.0625
Info: NONBONDED TABLE SIZE: 705 POINTS
TCL: Running for 1500000 steps
ETITLE: TS BOND ANGLE DIHED IMPRP ELECT VDW BOUNDARY MISC KINETIC TOTAL TEMP POTENTIAL TOTALAVG TEMPAVG PRESSURE GPRESSURE VOLUME PRESSAVG GPRESSAVG
ENERGY: 0 0.9573 8.4832 4.2968 0.0000 -10596.8242 1398.9786 0.0000 0.0000 1825.9028 -7358.2055 310.6800 -9184.1083 -7358.2055 310.6800 -142.3215 -56.5190 30361.7669 -142.3215 -56.5190
ENERGY: 300000 0.8970 8.8063 3.2069 0.0000 -10697.4006 1376.1422 0.0000 0.0000 1709.7327 -7598.6155 290.9135 -9308.3482 -7498.3910 301.1842 -830.3947 -787.3206 30760.1902 -561.8179 -502.1592
ENERGY: 600000 3.9818 9.9433 7.3311 0.0000 -10749.5562 1517.9743 0.0000 0.0000 1769.1943 -7441.1315 301.0310 -9210.3257 -7478.7507 300.8229 608.5161 665.4762 30235.4091 -503.2958 -453.4173
ENERGY: 900000 2.0812 7.7343 3.2335 0.0000 -10645.8260 1384.3584 0.0000 0.0000 1734.3399 -7514.0786 295.1004 -9248.4184 -7481.9662 299.7776 -575.0721 -487.5557 30520.1514 -437.6074 -379.6173
ENERGY: 1200000 1.5085 9.2926 3.8475 0.0000 -10728.5312 1463.1989 0.0000 0.0000 1772.6677 -7478.0161 301.6220 -9250.6838 -7470.4598 301.1815 562.6369 573.2394 29937.9509 -233.4972 -178.5347
ENERGY: 1500000 3.2984 6.5870 5.1317 0.0000 -10629.1141 1427.6196 0.0000 0.0000 1783.7840 -7402.6934 303.5134 -9186.4774 -7462.7556 301.0520 41.4227 125.8531 30675.6071 -119.0740 -64.4476
TCL: Running FEP window   4: Lambda1 0.8499999999999999 Lambda2 0.7999999999999998 [dLambda -0.050000000000000044]
TCL: Setting parameter firsttimestep to 0
TCL: Setting parameter alchLambda to 0.8499999999999999
Info: NONBONDED TABLE R-SQUARED SPACING: 0.0625
Info: NONBONDED TABLE SIZE: 705 POINTS
TCL: Setting parameter alchLambda2 to 0.7999999999999998
Info: NONBONDED TABLE R-SQUARED SPACING: 0.0625
Info: NONBONDED TABLE SIZE: 705 POINTS
TCL: Running for 1500000 steps
ETITLE: TS BOND ANGLE DIHED IMPRP ELECT VDW BOUNDARY MISC KINETIC TOTAL TEMP POTENTIAL TOTALAVG TEMPAVG PRESSURE GPRESSURE VOLUME PRESSAVG GPRESSAVG
ENERGY: 0 3.2984 6.5870 5.1317 0.0000 -10627.2851 1425.8655 0.0000 0.0000 1782.9198 -7403.4826 303.3664 -9186.4025 -7403.4826 303.3664 20.4125 95.5205 30675.6071 20.4125 95.5205
ENERGY: 300000 2.1672 9.5543 3.5777 0.0000 -10713.7413 1395.2892 0.0000 0.0000 1767.7663 -7535.3866 300.7880 -9303.1529 -7474.4327 302.9400 -503.0749 -439.9759 30306.4448 -211.5935 -143.4571
ENERGY: 600000 1.1156 7.7682 4.3818 0.0000 -10813.0936 1511.0395 0.0000 0.0000 1785.1404 -7503.6480 303.7442 -9288.7885 -7477.5007 304.0679 470.5830 523.1869 30309.2101 -110.6578 -40.8473
ENERGY: 900000 1.5618 10.5221 3.7187 0.0000 -10838.1425 1511.3544 0.0000 0.0000 1832.4893 -7478.4962 311.8007 -9310.9855 -7474.7020 303.8699 723.1894 794.7503 29909.7844 14.6986 81.2652
ENERGY: 1200000 2.9144 10.6871 3.5007 0.0000 -10643.2979 1426.7021 0.0000 0.0000 1746.9074 -7452.5862 297.2388 -9199.4935 -7476.5861 302.7318 129.2202 161.1951 30060.1815 -31.4933 36.7747
ENERGY: 1500000 2.9974 12.8843 3.1903 0.0000 -10681.1648 1496.0592 0.0000 0.0000 1755.6770 -7410.3567 298.7310 -9166.0336 -7466.3063 302.4707 458.2393 405.5597 30987.1803 48.3379 113.4653
TCL: Running FEP window   5: Lambda1 0.7999999999999998 Lambda2 0.7499999999999998 [dLambda -0.050000000000000044]
TCL: Setting parameter firsttimestep to 0
TCL: Setting parameter alchLambda to 0.7999999999999998
Info: NONBONDED TABLE R-SQUARED SPACING: 0.0625
Info: NONBONDED TABLE SIZE: 705 POINTS
TCL: Setting parameter alchLambda2 to 0.7499999999999998
Info: NONBONDED TABLE R-SQUARED SPACING: 0.0625
Info: NONBONDED TABLE SIZE: 705 POINTS
TCL: Running for 1500000 steps
ETITLE: TS BOND ANGLE DIHED IMPRP ELECT VDW BOUNDARY MISC KINETIC TOTAL TEMP POTENTIAL TOTALAVG TEMPAVG PRESSURE GPRESSURE VOLUME PRESSAVG GPRESSAVG
ENERGY: 0 2.9974 12.8843 3.1903 0.0000 -10679.9998 1496.1617 0.0000 0.0000 1754.7634 -7410.0028 298.5755 -9164.7661 -7410.0028 298.5755 322.5437 399.2200 30987.1803 322.5437 399.2200
ENERGY: 300000 3.3491 6.4192 2.8787 0.0000 -10630.6760 1358.2371 0.0000 0.0000 1717.1038 -7542.6881 292.1677 -9259.7919 -7422.2009 299.5084 -877.5232 -807.8816 30603.4825 -469.8555 -418.0242
ENERGY: 600000 0.9265 8.0614 5.7222 0.0000 -10608.0413 1430.0650 0.0000 0.0000 1785.1657 -7378.1005 303.7485 -9163.2662 -7432.4303 297.9125 253.0734 285.8827 30436.8417 -333.9097 -288.5499
ENERGY: 900000 3.2912 9.6917 4.0813 0.0000 -10737.4735 1407.3736 0.0000 0.0000 1798.1138 -7514.9219 305.9516 -9313.0357 -7457.3790 298.1141 -278.6325 -205.0625 30025.0736 -141.9071 -90.0361
ENERGY: 1200000 0.4048 11.4656 3.3562 0.0000 -10551.3926 1375.1097 0.0000 0.0000 1815.6676 -7345.3888 308.9385 -9161.0564 -7463.1258 298.8544 -293.4911 -254.3521 30841.8337 -77.6901 -29.3940
ENERGY: 1500000 2.0895 10.1065 3.1813 0.0000 -10634.0361 1346.5062 0.0000 0.0000 1777.0192 -7495.1334 302.3624 -9272.1526 -7461.6847 299.3268 -949.7379 -925.1264 30626.1906 -63.1780 -15.4857
TCL: Running FEP window   6: Lambda1 0.7499999999999998 Lambda2 0.6999999999999997 [dLambda -0.050000000000000044]
TCL: Setting parameter firsttimestep to 0
TCL: Setting parameter alchLambda to 0.7499999999999998
Info: NONBONDED TABLE R-SQUARED SPACING: 0.0625
Info: NONBONDED TABLE SIZE: 705 POINTS
TCL: Setting parameter alchLambda2 to 0.6999999999999997
Info: NONBONDED TABLE R-SQUARED SPACING: 0.0625
Info: NONBONDED TABLE SIZE: 705 POINTS
TCL: Running for 1500000 steps
ETITLE: TS BOND ANGLE DIHED IMPRP ELECT VDW BOUNDARY MISC KINETIC TOTAL TEMP POTENTIAL TOTALAVG TEMPAVG PRESSURE GPRESSURE VOLUME PRESSAVG GPRESSAVG
ENERGY: 0 2.0895 10.1065 3.1813 0.0000 -10632.6045 1345.8054 0.0000 0.0000 1776.1689 -7495.2529 302.2177 -9271.4218 -7495.2529 302.2177 -1013.1762 -943.0002 30626.1906 -1013.1762 -943.0002
ENERGY: 300000 2.2394 5.0750 3.4371 0.0000 -10774.3630 1471.7219 0.0000 0.0000 1788.1863 -7503.7032 304.2625 -9291.8895 -7467.7532 299.0322 134.0206 219.0658 30335.0953 -240.4130 -167.6922
ENERGY: 600000 1.6627 12.5028 3.6645 0.0000 -10765.8919 1453.0741 0.0000 0.0000 1759.3104 -7535.6774 299.3492 -9294.9878 -7477.7528 299.0299 124.4130 213.6290 30057.2301 -124.6577 -59.2681
ENERGY: 900000 2.1040 12.5582 4.9819 0.0000 -10579.4581 1345.0104 0.0000 0.0000 1743.4385 -7471.3651 296.6486 -9214.8036 -7458.5437 300.0752 -686.7231 -667.9742 30425.5234 -104.4330 -46.0374
ENERGY: 1200000 1.9518 8.9762 6.0431 0.0000 -10727.3239 1405.4696 0.0000 0.0000 1785.0027 -7519.8805 303.7208 -9304.8832 -7462.4641 300.6320 -537.7327 -529.9982 30504.7854 -98.6405 -45.9411
ENERGY: 1500000 5.0527 7.6845 3.0871 0.0000 -10714.0161 1414.8660 0.0000 0.0000 1738.6540 -7544.6718 295.8345 -9283.3258 -7466.1219 300.0903 -350.2925 -188.3574 30210.1419 -178.9568 -115.2965
TCL: Running FEP window   7: Lambda1 0.6999999999999997 Lambda2 0.6499999999999997 [dLambda -0.050000000000000044]
TCL: Setting parameter firsttimestep to 0
TCL: Setting parameter alchLambda to 0.6999999999999997
Info: NONBONDED TABLE R-SQUARED SPACING: 0.0625
Info: NONBONDED TABLE SIZE: 705 POINTS
TCL: Setting parameter alchLambda2 to 0.6499999999999997
Info: NONBONDED TABLE R-SQUARED SPACING: 0.0625
Info: NONBONDED TABLE SIZE: 705 POINTS
TCL: Running for 1500000 steps
ETITLE: TS BOND ANGLE DIHED IMPRP ELECT VDW BOUNDARY MISC KINETIC TOTAL TEMP POTENTIAL TOTALAVG TEMPAVG PRESSURE GPRESSURE VOLUME PRESSAVG GPRESSAVG
ENERGY: 0 5.0527 7.6845 3.0871 0.0000 -10712.8458 1415.2995 0.0000 0.0000 1737.7911 -7543.9310 295.6877 -9281.7221 -7543.9310 295.6877 -281.0489 -189.2727 30210.1419 -281.0489 -189.2727
ENERGY: 300000 2.3148 6.5742 3.9114 0.0000 -10769.9290 1483.5922 0.0000 0.0000 1736.7270 -7536.8094 295.5066 -9273.5364 -7521.3947 300.7778 453.4457 522.5915 29869.8002 27.5303 91.0364
ENERGY: 600000 2.2515 5.6668 3.4566 0.0000 -10578.8804 1363.5022 0.0000 0.0000 1720.4729 -7483.5304 292.7409 -9204.0033 -7497.8520 298.4138 -1009.7711 -930.7651 31373.0754 -81.1172 -11.3275
ENERGY: 900000 3.3689 7.3843 3.8223 0.0000 -10611.9982 1324.0489 0.0000 0.0000 1731.3913 -7541.9825 294.5987 -9273.3738 -7504.9110 297.3599 -1318.8914 -1271.4125 30805.2372 -119.4264 -66.4974
ENERGY: 1200000 1.3552 7.8825 3.0491 0.0000 -10733.6269 1412.6332 0.0000 0.0000 1832.3382 -7476.3688 311.7750 -9308.7070 -7504.0143 299.0764 -290.1194 -224.4265 30341.8456 -102.7274 -45.9367
ENERGY: 1500000 0.8614 9.5978 4.0814 0.0000 -10578.4231 1338.4562 0.0000 0.0000 1778.5845 -7446.8417 302.6287 -9225.4262 -7499.4107 299.4398 -661.4961 -649.1627 30790.1177 -157.9348 -105.5919
TCL: Running FEP window   8: Lambda1 0.6499999999999997 Lambda2 0.5999999999999996 [dLambda -0.050000000000000044]
TCL: Setting parameter firsttimestep to 0
TCL: Setting parameter alchLambda to 0.6499999999999997
Info: NONBONDED TABLE R-SQUARED SPACING: 0.0625
Info: NONBONDED TABLE SIZE: 705 POINTS
TCL: Setting parameter alchLambda2 to 0.5999999999999996
Info: NONBONDED TABLE R-SQUARED SPACING: 0.0625
Info: NONBONDED TABLE SIZE: 705 POINTS
TCL: Running for 1500000 steps
ETITLE: TS BOND ANGLE DIHED IMPRP ELECT VDW BOUNDARY MISC KINETIC TOTAL TEMP POTENTIAL TOTALAVG TEMPAVG PRESSURE GPRESSURE VOLUME PRESSAVG GPRESSAVG
ENERGY: 0 0.8614 9.5978 4.0814 0.0000 -10577.7661 1339.0018 0.0000 0.0000 1777.6939 -7446.5298 302.4772 -9224.2237 -7446.5298 302.4772 -726.5900 -645.5007 30790.1177 -726.5900 -645.5007
ENERGY: 300000 3.2463 8.6719 4.2636 0.0000 -10742.6030 1466.8143 0.0000 0.0000 1715.1096 -7544.4973 291.8284 -9259.6070 -7489.2920 300.4298 -133.9695 -67.9292 30889.3929 -54.4354 30.9980
ENERGY: 600000 1.6861 11.9079 3.6123 0.0000 -10609.0717 1387.0152 0.0000 0.0000 1764.7237 -7440.1264 300.2703 -9204.8501 -7485.5361 300.1478 -153.4073 -111.9933 29985.0804 -98.9616 -7.0631
ENERGY: 900000 2.4341 6.9597 4.1451 0.0000 -10809.7701 1529.9936 0.0000 0.0000 1734.2298 -7532.0077 295.0817 -9266.2375 -7493.3959 299.9169 462.3316 565.4816 30648.8985 25.8431 102.3032
ENERGY: 1200000 1.1241 5.5674 3.1647 0.0000 -10932.5102 1612.1177 0.0000 0.0000 1792.1738 -7518.3625 304.9410 -9310.5363 -7489.8222 299.7294 1519.7357 1544.9854 29891.4968 60.0665 127.5571
ENERGY: 1500000 1.6925 12.3436 4.9342 0.0000 -10666.8870 1440.8249 0.0000 0.0000 1754.1323 -7452.9595 298.4681 -9207.0918 -7485.6283 300.0576 178.4236 223.0369 30389.4131 28.4024 95.3023
TCL: Running FEP window   9: Lambda1 0.5999999999999996 Lambda2 0.5499999999999996 [dLambda -0.050000000000000044]
TCL: Setting parameter firsttimestep to 0
TCL: Setting parameter alchLambda to 0.5999999999999996
Info: NONBONDED TABLE R-SQUARED SPACING: 0.0625
Info: NONBONDED TABLE SIZE: 705 POINTS
TCL: Setting parameter alchLambda2 to 0.5499999999999996
Info: NONBONDED TABLE R-SQUARED SPACING: 0.0625
Info: NONBONDED TABLE SIZE: 705 POINTS
TCL: Running for 1500000 steps
ETITLE: TS BOND ANGLE DIHED IMPRP ELECT VDW BOUNDARY MISC KINETIC TOTAL TEMP POTENTIAL TOTALAVG TEMPAVG PRESSURE GPRESSURE VOLUME PRESSAVG GPRESSAVG
ENERGY: 0 1.6925 12.3436 4.9342 0.0000 -10665.2641 1440.8901 0.0000 0.0000 1753.2742 -7452.1295 298.3221 -9205.4037 -7452.1295 298.3221 139.9282 218.1860 30389.4131 139.9282 218.1860
ENERGY: 300000 2.4910 8.4515 2.9877 0.0000 -10613.7741 1356.1631 0.0000 0.0000 1804.9589 -7438.7219 307.1164 -9243.6808 -7475.6953 301.1193 -557.7457 -543.8443 30531.0954 -107.5390 -75.9807
ENERGY: 600000 3.2658 11.2129 4.4300 0.0000 -10522.8757 1370.0795 0.0000 0.0000 1735.9509 -7397.9365 295.3746 -9133.8875 -7473.8857 298.6989 -352.2551 -252.4359 30229.4824 -138.6336 -86.6384
ENERGY: 900000 1.6265 7.5717 4.1386 0.0000 -10635.4718 1420.7284 0.0000 0.0000 1771.2100 -7430.1965 301.3739 -9201.4065 -7473.4594 298.8658 -86.8786 -39.8497 30622.2836 -19.3274 32.8944
ENERGY: 1200000 5.9964 7.4902 4.1485 0.0000 -10597.7555 1392.3387 0.0000 0.0000 1726.2777 -7461.5039 293.7286 -9187.7816 -7472.4145 298.7590 -249.3734 -254.7520 30447.0111 -107.4036 -57.7283
ENERGY: 1500000 0.7194 9.7844 3.8717 0.0000 -10712.9434 1457.5669 0.0000 0.0000 1754.0582 -7486.9428 298.4555 -9241.0010 -7467.9235 299.0069 259.7954 301.1423 30137.0505 -49.1741 -2.0348
TCL: Running FEP window  10: Lambda1 0.5499999999999996 Lambda2 0.4999999999999996 [dLambda -0.04999999999999999]
TCL: Setting parameter firsttimestep to 0
TCL: Setting parameter alchLambda to 0.5499999999999996
Info: NONBONDED TABLE R-SQUARED SPACING: 0.0625
Info: NONBONDED TABLE SIZE: 705 POINTS
TCL: Setting parameter alchLambda2 to 0.4999999999999996
Info: NONBONDED TABLE R-SQUARED SPACING: 0.0625
Info: NONBONDED TABLE SIZE: 705 POINTS
TCL: Running for 1500000 steps
ETITLE: TS BOND ANGLE DIHED IMPRP ELECT VDW BOUNDARY MISC KINETIC TOTAL TEMP POTENTIAL TOTALAVG TEMPAVG PRESSURE GPRESSURE VOLUME PRESSAVG GPRESSAVG
ENERGY: 0 0.7194 9.7844 3.8717 0.0000 -10713.0286 1457.6677 0.0000 0.0000 1753.2154 -7487.7700 298.3121 -9240.9854 -7487.7700 298.3121 203.5137 293.9265 30137.0505 203.5137 293.9265
ENERGY: 300000 2.3586 8.7854 3.4856 0.0000 -10666.8058 1435.4090 0.0000 0.0000 1743.2887 -7473.4785 296.6231 -9216.7672 -7473.2658 297.3119 -241.2048 -136.0246 30633.3634 -184.7013 -96.4471
ENERGY: 600000 2.4811 10.4246 3.8894 0.0000 -10534.5308 1311.5721 0.0000 0.0000 1752.8428 -7453.3208 298.2487 -9206.1636 -7482.3130 296.6834 -1102.7079 -1066.7182 30959.1382 -198.8876 -139.5852
ENERGY: 900000 1.3948 11.7727 3.9039 0.0000 -10844.4234 1565.3190 0.0000 0.0000 1810.5178 -7451.5152 308.0622 -9262.0330 -7475.6675 297.7314 1199.7716 1215.7552 29991.6919 14.1880 63.4556
ENERGY: 1200000 1.3130 6.4208 4.4463 0.0000 -10663.8587 1409.9006 0.0000 0.0000 1712.2268 -7529.5512 291.3379 -9241.7780 -7480.0161 297.7917 -157.2033 -177.2689 30489.1478 36.5138 72.7441
ENERGY: 1500000 2.1428 13.4066 5.8044 0.0000 -10709.3190 1429.2251 0.0000 0.0000 1806.3566 -7452.3835 307.3542 -9258.7401 -7483.8607 298.7868 43.1342 51.2696 29985.7142 -21.7200 15.9509
TCL: Running FEP window  11: Lambda1 0.4999999999999996 Lambda2 0.4499999999999996 [dLambda -0.04999999999999999]
TCL: Setting parameter firsttimestep to 0
TCL: Setting parameter alchLambda to 0.4999999999999996
Info: NONBONDED TABLE R-SQUARED SPACING: 0.0625
Info: NONBONDED TABLE SIZE: 705 POINTS
TCL: Setting parameter alchLambda2 to 0.4499999999999996
Info: NONBONDED TABLE R-SQUARED SPACING: 0.0625
Info: NONBONDED TABLE SIZE: 705 POINTS
TCL: Running for 1500000 steps
ETITLE: TS BOND ANGLE DIHED IMPRP ELECT VDW BOUNDARY MISC KINETIC TOTAL TEMP POTENTIAL TOTALAVG TEMPAVG PRESSURE GPRESSURE VOLUME PRESSAVG GPRESSAVG
ENERGY: 0 2.1428 13.4066 5.8044 0.0000 -10708.1620 1429.2943 0.0000 0.0000 1805.4879 -7452.0260 307.2064 -9257.5139 -7452.0260 307.2064 -44.3484 52.0941 29985.7142 -44.3484 52.0941
ENERGY: 300000 2.9401 7.7131 3.7487 0.0000 -10869.0560 1497.3604 0.0000 0.0000 1738.0066 -7619.2872 295.7243 -9357.2938 -7499.3474 302.8228 342.2827 384.0047 29846.7024 7.5866 78.5679
ENERGY: 600000 1.1190 9.6004 4.5678 0.0000 -10612.9614 1447.6156 0.0000 0.0000 1836.2263 -7313.8323 312.4366 -9150.0586 -7473.8225 301.8256 430.1428 524.8179 30444.0925 149.4371 228.1671
ENERGY: 900000 2.7714 8.2483 3.8699 0.0000 -10708.3904 1466.5102 0.0000 0.0000 1770.7074 -7456.2831 301.2884 -9226.9906 -7481.5420 301.1034 198.1549 245.7448 30431.0984 85.4677 165.3876
ENERGY: 1200000 3.9040 13.3068 3.9746 0.0000 -10573.9301 1407.9351 0.0000 0.0000 1783.0999 -7361.7097 303.3970 -9144.8096 -7477.9108 300.7445 -288.1147 -199.5260 30506.9606 42.0246 123.9502
ENERGY: 1500000 2.8638 8.4199 3.3929 0.0000 -10635.2985 1394.9659 0.0000 0.0000 1801.5230 -7424.1330 306.5317 -9225.6560 -7464.6556 302.0336 -388.0927 -341.9847 30303.6663 43.3297 118.3333
TCL: Running FEP window  12: Lambda1 0.4499999999999996 Lambda2 0.39999999999999963 [dLambda -0.04999999999999999]
TCL: Setting parameter firsttimestep to 0
TCL: Setting parameter alchLambda to 0.4499999999999996
Info: NONBONDED TABLE R-SQUARED SPACING: 0.0625
Info: NONBONDED TABLE SIZE: 705 POINTS
TCL: Setting parameter alchLambda2 to 0.39999999999999963
Info: NONBONDED TABLE R-SQUARED SPACING: 0.0625
Info: NONBONDED TABLE SIZE: 705 POINTS
TCL: Running for 1500000 steps
ETITLE: TS BOND ANGLE DIHED IMPRP ELECT VDW BOUNDARY MISC KINETIC TOTAL TEMP POTENTIAL TOTALAVG TEMPAVG PRESSURE GPRESSURE VOLUME PRESSAVG GPRESSAVG
ENERGY: 0 2.8638 8.4199 3.3929 0.0000 -10635.2983 1395.0418 0.0000 0.0000 1800.7078 -7424.8722 306.3930 -9225.5800 -7424.8722 306.3930 -440.3016 -348.5883 30303.6663 -440.3016 -348.5883
ENERGY: 300000 3.4799 9.0082 4.8715 0.0000 -10637.2508 1385.3373 0.0000 0.0000 1776.5257 -7458.0282 302.2784 -9234.5539 -7436.5770 302.4529 -463.9995 -364.8512 30299.3342 -404.5955 -322.6285
ENERGY: 600000 2.0254 10.8657 3.4032 0.0000 -10594.9713 1328.5325 0.0000 0.0000 1765.0551 -7485.0894 300.3267 -9250.1445 -7471.3646 300.2501 -997.5610 -896.7021 30251.5863 -618.1748 -552.1506
ENERGY: 900000 2.9470 7.0114 3.6736 0.0000 -10608.4560 1430.5846 0.0000 0.0000 1786.0907 -7378.1486 303.9059 -9164.2394 -7467.4264 299.1215 221.0457 329.2758 30223.4216 -550.5559 -468.6221
ENERGY: 1200000 2.3683 10.3387 3.9089 0.0000 -10664.6812 1366.4636 0.0000 0.0000 1735.1049 -7546.4968 295.2306 -9281.6016 -7476.7550 298.4598 -792.2674 -750.0433 30397.2023 -426.5873 -360.1096
ENERGY: 1500000 1.9288 11.1665 3.3947 0.0000 -10784.5949 1514.2829 0.0000 0.0000 1775.8073 -7478.0147 302.1562 -9253.8220 -7471.2107 299.0076 613.9885 637.5812 30258.1790 -370.1494 -309.4953
TCL: Running FEP window  13: Lambda1 0.39999999999999963 Lambda2 0.34999999999999964 [dLambda -0.04999999999999999]
TCL: Setting parameter firsttimestep to 0
TCL: Setting parameter alchLambda to 0.39999999999999963
Info: NONBONDED TABLE R-SQUARED SPACING: 0.0625
Info: NONBONDED TABLE SIZE: 705 POINTS
TCL: Setting parameter alchLambda2 to 0.34999999999999964
Info: NONBONDED TABLE R-SQUARED SPACING: 0.0625
Info: NONBONDED TABLE SIZE: 705 POINTS
TCL: Running for 1500000 steps
ETITLE: TS BOND ANGLE DIHED IMPRP ELECT VDW BOUNDARY MISC KINETIC TOTAL TEMP POTENTIAL TOTALAVG TEMPAVG PRESSURE GPRESSURE VOLUME PRESSAVG GPRESSAVG
ENERGY: 0 1.9288 11.1665 3.3947 0.0000 -10784.5945 1514.6659 0.0000 0.0000 1774.9293 -7478.5094 302.0068 -9253.4387 -7478.5094 302.0068 560.1669 638.9929 30258.1790 560.1669 638.9929
ENERGY: 300000 2.4811 8.3724 3.0673 0.0000 -10598.4550 1375.6798 0.0000 0.0000 1673.7528 -7535.1016 284.7915 -9208.8544 -7501.8931 296.3259 -758.2430 -689.0364 30859.8736 19.4148 74.0191
ENERGY: 600000 1.3029 9.8581 3.4988 0.0000 -10707.0196 1438.4493 0.0000 0.0000 1729.6107 -7524.2997 294.2958 -9253.9104 -7489.6518 297.1966 -83.1383 16.1157 30365.0915 -84.7838 -21.7786
ENERGY: 900000 3.4438 13.1126 4.7000 0.0000 -10602.3885 1347.5595 0.0000 0.0000 1802.7306 -7430.8420 306.7372 -9233.5726 -7484.7171 299.1007 -685.5344 -549.6407 30421.9269 -145.1999 -78.0557
ENERGY: 1200000 2.9376 12.0710 3.7867 0.0000 -10623.8975 1412.3323 0.0000 0.0000 1774.9996 -7417.7703 302.0187 -9192.7699 -7476.4978 299.8254 -160.0303 -147.5974 30570.5917 -163.1218 -104.3292
ENERGY: 1500000 1.4795 7.4227 3.6617 0.0000 -10766.9565 1462.6503 0.0000 0.0000 1808.8733 -7482.8690 307.7824 -9291.7423 -7480.1864 299.8656 -240.9871 -155.3200 30689.3204 -150.1443 -92.6162
TCL: Running FEP window  14: Lambda1 0.34999999999999964 Lambda2 0.29999999999999966 [dLambda -0.04999999999999999]
TCL: Setting parameter firsttimestep to 0
TCL: Setting parameter alchLambda to 0.34999999999999964
Info: NONBONDED TABLE R-SQUARED SPACING: 0.0625
Info: NONBONDED TABLE SIZE: 705 POINTS
TCL: Setting parameter alchLambda2 to 0.29999999999999966
Info: NONBONDED TABLE R-SQUARED SPACING: 0.0625
Info: NONBONDED TABLE SIZE: 705 POINTS
TCL: Running for 1500000 steps
ETITLE: TS BOND ANGLE DIHED IMPRP ELECT VDW BOUNDARY MISC KINETIC TOTAL TEMP POTENTIAL TOTALAVG TEMPAVG PRESSURE GPRESSURE VOLUME PRESSAVG GPRESSAVG
ENERGY: 0 1.4795 7.4227 3.6617 0.0000 -10766.9578 1462.6747 0.0000 0.0000 1807.9902 -7483.7290 307.6321 -9291.7192 -7483.7290 307.6321 -250.9537 -160.6777 30689.3204 -250.9537 -160.6777
ENERGY: 300000 1.3303 9.3554 4.2637 0.0000 -10700.9630 1466.0850 0.0000 0.0000 1822.2640 -7397.6647 310.0608 -9219.9287 -7480.9633 300.9477 196.2360 239.0617 30323.9204 -221.8957 -140.4700
ENERGY: 600000 2.6497 7.5081 3.9342 0.0000 -10659.9831 1431.0850 0.0000 0.0000 1740.2526 -7474.5535 296.1065 -9214.8060 -7483.0236 298.6194 189.1966 239.1017 30056.5246 -235.8461 -165.3461
ENERGY: 900000 1.7413 6.8117 3.5666 0.0000 -10867.8015 1560.4079 0.0000 0.0000 1778.2169 -7517.0571 302.5662 -9295.2740 -7478.6912 298.9616 670.4994 709.7504 30655.3699 -212.6939 -145.1328
ENERGY: 1200000 1.4217 6.4325 3.0910 0.0000 -10800.7046 1539.0233 0.0000 0.0000 1764.3436 -7486.3925 300.2056 -9250.7361 -7474.1753 299.1643 990.9004 1062.4796 29896.7600 -69.9243 -12.2791
ENERGY: 1500000 0.5444 5.8712 3.5896 0.0000 -10611.8771 1378.4392 0.0000 0.0000 1741.7946 -7481.6381 296.3689 -9223.4327 -7483.3836 299.3723 -521.5059 -452.5012 30544.3658 -90.3217 -28.5829
TCL: Running FEP window  15: Lambda1 0.29999999999999966 Lambda2 0.24999999999999967 [dLambda -0.04999999999999999]
TCL: Setting parameter firsttimestep to 0
TCL: Setting parameter alchLambda to 0.29999999999999966
Info: NONBONDED TABLE R-SQUARED SPACING: 0.0625
Info: NONBONDED TABLE SIZE: 705 POINTS
TCL: Setting parameter alchLambda2 to 0.24999999999999967
Info: NONBONDED TABLE R-SQUARED SPACING: 0.0625
Info: NONBONDED TABLE SIZE: 705 POINTS
TCL: Running for 1500000 steps
ETITLE: TS BOND ANGLE DIHED IMPRP ELECT VDW BOUNDARY MISC KINETIC TOTAL TEMP POTENTIAL TOTALAVG TEMPAVG PRESSURE GPRESSURE VOLUME PRESSAVG GPRESSAVG
ENERGY: 0 0.5444 5.8712 3.5896 0.0000 -10611.8765 1378.7568 0.0000 0.0000 1740.9440 -7482.1705 296.2241 -9223.1145 -7482.1705 296.2241 -536.1430 -456.1660 30544.3658 -536.1430 -456.1660
ENERGY: 300000 1.1868 11.3269 4.4933 0.0000 -10568.7493 1323.0814 0.0000 0.0000 1727.3917 -7501.2692 293.9182 -9228.6609 -7512.5111 298.4588 -703.7476 -668.1038 30131.6625 -109.1833 -36.6660
ENERGY: 600000 5.0757 7.2332 4.5572 0.0000 -10682.4233 1457.1672 0.0000 0.0000 1733.2562 -7475.1339 294.9160 -9208.3901 -7490.8120 297.5266 -18.0774 118.3635 30246.8455 -43.5152 23.8333
ENERGY: 900000 2.0940 7.3902 3.2388 0.0000 -10591.9038 1371.6682 0.0000 0.0000 1757.6638 -7449.8488 299.0690 -9207.5126 -7480.6401 298.0770 -516.0661 -396.9358 30512.9537 -32.6266 40.7447
ENERGY: 1200000 0.9389 9.0690 4.4758 0.0000 -10617.9341 1380.1694 0.0000 0.0000 1739.3370 -7483.9439 295.9507 -9223.2809 -7479.8250 298.6439 -532.8220 -423.3679 30264.8273 -77.3674 2.5433
ENERGY: 1500000 1.0704 10.3737 4.2688 0.0000 -10836.5645 1552.5251 0.0000 0.0000 1724.5385 -7543.7881 293.4327 -9268.3266 -7485.7129 298.6825 766.6273 806.1457 30093.7516 -52.1707 20.4648
TCL: Running FEP window  16: Lambda1 0.24999999999999967 Lambda2 0.19999999999999968 [dLambda -0.04999999999999999]
TCL: Setting parameter firsttimestep to 0
TCL: Setting parameter alchLambda to 0.24999999999999967
Info: NONBONDED TABLE R-SQUARED SPACING: 0.0625
Info: NONBONDED TABLE SIZE: 705 POINTS
TCL: Setting parameter alchLambda2 to 0.19999999999999968
Info: NONBONDED TABLE R-SQUARED SPACING: 0.0625
Info: NONBONDED TABLE SIZE: 705 POINTS
TCL: Running for 1500000 steps
ETITLE: TS BOND ANGLE DIHED IMPRP ELECT VDW BOUNDARY MISC KINETIC TOTAL TEMP POTENTIAL TOTALAVG TEMPAVG PRESSURE GPRESSURE VOLUME PRESSAVG GPRESSAVG
ENERGY: 0 1.0704 10.3737 4.2688 0.0000 -10836.5648 1552.7822 0.0000 0.0000 1723.6796 -7544.3902 293.2866 -9268.0698 -7544.3902 293.2866 710.4769 804.5345 30093.7516 710.4769 804.5345
ENERGY: 300000 2.6182 6.9553 3.7175 0.0000 -10705.8439 1447.2830 0.0000 0.0000 1766.4450 -7478.8249 300.5632 -9245.2698 -7522.4875 299.4692 449.3247 548.3071 29489.8953 234.4921 322.4514
ENERGY: 600000 3.6602 9.2326 3.1887 0.0000 -10801.7033 1521.3214 0.0000 0.0000 1806.6017 -7457.6988 307.3959 -9264.3005 -7505.7304 300.9291 295.6779 353.8406 30677.0899 11.9663 100.9336
ENERGY: 900000 4.4351 11.4457 3.8006 0.0000 -10552.9775 1336.5685 0.0000 0.0000 1784.6129 -7412.1147 303.6545 -9196.7276 -7488.1520 301.4113 -699.6093 -638.0748 30109.4388 -47.7133 31.8425
ENERGY: 1200000 3.0052 8.4269 4.4355 0.0000 -10730.2972 1453.6295 0.0000 0.0000 1796.9090 -7463.8911 305.7467 -9260.8001 -7485.1392 301.8599 15.7740 108.3329 30177.4785 -58.0738 27.9264
ENERGY: 1500000 2.6192 9.6419 2.9504 0.0000 -10762.8363 1544.6165 0.0000 0.0000 1737.5164 -7465.4920 295.6409 -9203.0085 -7485.1666 301.7014 811.9773 955.3646 30012.7054 3.8029 96.4914
TCL: Running FEP window  17: Lambda1 0.19999999999999968 Lambda2 0.1499999999999997 [dLambda -0.04999999999999999]
TCL: Setting parameter firsttimestep to 0
TCL: Setting parameter alchLambda to 0.19999999999999968
Info: NONBONDED TABLE R-SQUARED SPACING: 0.0625
Info: NONBONDED TABLE SIZE: 705 POINTS
TCL: Setting parameter alchLambda2 to 0.1499999999999997
Info: NONBONDED TABLE R-SQUARED SPACING: 0.0625
Info: NONBONDED TABLE SIZE: 705 POINTS
TCL: Running for 1500000 steps
ETITLE: TS BOND ANGLE DIHED IMPRP ELECT VDW BOUNDARY MISC KINETIC TOTAL TEMP POTENTIAL TOTALAVG TEMPAVG PRESSURE GPRESSURE VOLUME PRESSAVG GPRESSAVG
ENERGY: 0 2.6192 9.6419 2.9504 0.0000 -10762.8370 1544.6973 0.0000 0.0000 1736.6223 -7466.3060 295.4888 -9202.9283 -7466.3060 295.4888 876.5204 955.5018 30012.7054 876.5204 955.5018
ENERGY: 300000 1.6021 14.0233 3.6168 0.0000 -10727.0661 1447.4174 0.0000 0.0000 1759.6775 -7500.7290 299.4117 -9260.4064 -7457.2488 297.6863 73.6863 192.4105 30119.2572 114.6566 197.4188
ENERGY: 600000 2.5908 13.3981 3.1381 0.0000 -10718.7848 1455.0630 0.0000 0.0000 1788.1159 -7456.4790 304.2505 -9244.5948 -7466.7067 299.2405 318.9672 428.4099 29987.1853 92.3763 174.9073
ENERGY: 900000 1.8530 11.7846 3.3575 0.0000 -10744.5712 1434.6801 0.0000 0.0000 1756.9367 -7535.9593 298.9453 -9292.8960 -7485.4040 299.8521 -63.6865 -36.2585 30106.9292 -25.1209 42.6415
ENERGY: 1200000 2.8319 8.3929 3.9874 0.0000 -10760.7607 1525.4060 0.0000 0.0000 1764.5039 -7455.6385 300.2329 -9220.1425 -7480.3859 300.2132 609.7916 689.6100 30179.8465 -15.6937 52.2717
ENERGY: 1500000 2.9101 10.6042 4.6792 0.0000 -10756.0418 1480.6611 0.0000 0.0000 1775.8383 -7481.3489 302.1614 -9257.1872 -7475.6050 300.6763 447.5903 517.7460 29635.3266 25.9523 89.1565
TCL: Running FEP window  18: Lambda1 0.1499999999999997 Lambda2 0.09999999999999969 [dLambda -0.05 ]
TCL: Setting parameter firsttimestep to 0
TCL: Setting parameter alchLambda to 0.1499999999999997
Info: NONBONDED TABLE R-SQUARED SPACING: 0.0625
Info: NONBONDED TABLE SIZE: 705 POINTS
TCL: Setting parameter alchLambda2 to 0.09999999999999969
Info: NONBONDED TABLE R-SQUARED SPACING: 0.0625
Info: NONBONDED TABLE SIZE: 705 POINTS
TCL: Running for 1500000 steps
ETITLE: TS BOND ANGLE DIHED IMPRP ELECT VDW BOUNDARY MISC KINETIC TOTAL TEMP POTENTIAL TOTALAVG TEMPAVG PRESSURE GPRESSURE VOLUME PRESSAVG GPRESSAVG
ENERGY: 0 2.9101 10.6042 4.6792 0.0000 -10756.0427 1480.2959 0.0000 0.0000 1774.9664 -7482.5868 302.0131 -9257.5532 -7482.5868 302.0131 413.7407 512.4993 29635.3266 413.7407 512.4993
ENERGY: 300000 4.6994 13.7880 4.3708 0.0000 -10750.6006 1451.8951 0.0000 0.0000 1831.5168 -7444.3305 311.6352 -9275.8473 -7499.5580 300.9706 150.6741 159.3653 30097.1731 428.9556 516.0226
ENERGY: 600000 1.9791 9.7146 5.2361 0.0000 -10592.7379 1414.6610 0.0000 0.0000 1779.5336 -7381.6134 302.7902 -9161.1471 -7492.7722 302.0901 -124.9181 -21.8743 30501.8988 205.8111 282.4177
ENERGY: 900000 0.9613 7.5036 3.7728 0.0000 -10676.6246 1461.8215 0.0000 0.0000 1746.0525 -7456.5129 297.0934 -9202.5654 -7487.5256 300.7291 195.8799 252.3920 30268.5443 278.4669 346.2322
ENERGY: 1200000 0.5851 9.2462 3.1423 0.0000 -10648.7300 1382.7675 0.0000 0.0000 1689.0470 -7563.9420 287.3938 -9252.9889 -7492.8120 299.3464 -457.3455 -451.4654 30279.7249 209.3818 270.2284
ENERGY: 1500000 2.8690 10.8800 3.1880 0.0000 -10721.3633 1425.7478 0.0000 0.0000 1753.3316 -7525.3470 298.3319 -9278.6786 -7479.9688 300.1220 -327.5695 -333.9995 30137.1486 183.5800 236.4645
TCL: Running FEP window  19: Lambda1 0.09999999999999969 Lambda2 0.049999999999999684 [dLambda -0.05 ]
TCL: Setting parameter firsttimestep to 0
TCL: Setting parameter alchLambda to 0.09999999999999969
Info: NONBONDED TABLE R-SQUARED SPACING: 0.0625
Info: NONBONDED TABLE SIZE: 705 POINTS
TCL: Setting parameter alchLambda2 to 0.049999999999999684
Info: NONBONDED TABLE R-SQUARED SPACING: 0.0625
Info: NONBONDED TABLE SIZE: 705 POINTS
TCL: Running for 1500000 steps
ETITLE: TS BOND ANGLE DIHED IMPRP ELECT VDW BOUNDARY MISC KINETIC TOTAL TEMP POTENTIAL TOTALAVG TEMPAVG PRESSURE GPRESSURE VOLUME PRESSAVG GPRESSAVG
ENERGY: 0 2.8690 10.8800 3.1880 0.0000 -10721.3645 1425.7453 0.0000 0.0000 1752.4198 -7526.2626 298.1767 -9278.6824 -7526.2626 298.1767 -418.7996 -338.1096 30137.1486 -418.7996 -338.1096
ENERGY: 300000 2.4593 7.7370 4.0672 0.0000 -10580.0813 1323.3379 0.0000 0.0000 1758.9226 -7483.5573 299.2832 -9242.4799 -7483.4442 300.0191 -1353.7320 -1273.6898 30913.8171 -477.3675 -416.5024
ENERGY: 600000 3.1788 13.4131 3.4015 0.0000 -10699.4964 1438.9496 0.0000 0.0000 1775.4758 -7465.0775 302.0998 -9240.5533 -7487.2360 301.0297 -129.7490 -78.6901 30218.8646 -278.4088 -209.8128
ENERGY: 900000 2.6005 10.2167 3.7598 0.0000 -10635.8951 1385.8485 0.0000 0.0000 1814.7255 -7418.7441 308.7782 -9233.4696 -7467.8077 301.6804 -395.7021 -336.2164 30227.5536 -343.4232 -273.0064
ENERGY: 1200000 2.1408 7.3932 3.4899 0.0000 -10817.6634 1506.6614 0.0000 0.0000 1774.4006 -7523.5775 301.9168 -9297.9781 -7473.5141 301.4186 457.4276 473.2751 30181.6127 -323.0596 -257.0829
ENERGY: 1500000 0.4131 11.6244 4.0280 0.0000 -10770.3968 1492.9424 0.0000 0.0000 1785.9018 -7475.4871 303.8738 -9261.3889 -7470.5566 301.6022 614.2547 683.5529 29691.2436 -262.1148 -193.5641
TCL: Running FEP window  20: Lambda1 0.049999999999999684 Lambda2 0.0    [dLambda -0.049999999999999684]
TCL: Setting parameter firsttimestep to 0
TCL: Setting parameter alchLambda to 0.049999999999999684
Info: NONBONDED TABLE R-SQUARED SPACING: 0.0625
Info: NONBONDED TABLE SIZE: 705 POINTS
TCL: Setting parameter alchLambda2 to 0.0
Info: NONBONDED TABLE R-SQUARED SPACING: 0.0625
Info: NONBONDED TABLE SIZE: 705 POINTS
TCL: Running for 1500000 steps
ETITLE: TS BOND ANGLE DIHED IMPRP ELECT VDW BOUNDARY MISC KINETIC TOTAL TEMP POTENTIAL TOTALAVG TEMPAVG PRESSURE GPRESSURE VOLUME PRESSAVG GPRESSAVG
ENERGY: 0 0.4131 11.6244 4.0280 0.0000 -10770.3967 1492.5854 0.0000 0.0000 1785.0166 -7476.7291 303.7232 -9261.7458 -7476.7291 303.7232 597.4756 682.2977 29691.2436 597.4756 682.2977
ENERGY: 300000 1.2916 7.8155 4.3485 0.0000 -10536.1438 1361.8824 0.0000 0.0000 1781.3793 -7379.4265 303.1043 -9160.8057 -7479.0301 300.3315 -590.4479 -535.9727 30569.5930 117.0837 204.9918
ENERGY: 600000 1.0912 8.6162 3.4968 0.0000 -10711.6961 1415.0778 0.0000 0.0000 1796.3005 -7487.1136 305.6431 -9283.4140 -7480.3757 301.3934 -55.2214 21.2271 29811.0871 40.2996 121.1327
ENERGY: 900000 2.4899 13.4079 3.9536 0.0000 -10575.8803 1368.5801 0.0000 0.0000 1733.5380 -7453.9108 294.9640 -9187.4488 -7461.2687 301.2552 -496.5974 -467.7594 30302.0554 73.2172 144.6705
ENERGY: 1200000 1.9625 9.5281 3.9867 0.0000 -10802.9538 1578.6655 0.0000 0.0000 1768.4980 -7440.3130 300.9125 -9208.8110 -7452.1339 301.6281 1567.6145 1577.1920 29430.9980 138.3578 209.8990
ENERGY: 1500000 2.9764 11.0159 3.4470 0.0000 -10688.3138 1465.5533 0.0000 0.0000 1722.1330 -7483.1881 293.0234 -9205.3211 -7453.1507 301.6015 -63.2669 -0.2591 30515.3818 131.0799 204.0132
TCL: Exiting due to exit command.
