Info: SIMULATION PARAMETERS:
Info: TIMESTEP               2
Info: NUMBER OF STEPS        0
Info: STEPS PER CYCLE        10
Info: PERIODIC CELL BASIS 1  30.8747 0 0
Info: PERIODIC CELL BASIS 2  0 31.2283 0
Info: PERIODIC CELL BASIS 3  0 0 31.5034
Info: PERIODIC CELL CENTER   0 0 0
Info: WRAPPING WATERS AROUND PERIODIC BOUNDARIES ON OUTPUT.
Info: WRAPPING ALL CLUSTERS AROUND PERIODIC BOUNDARIES ON OUTPUT.
Info: FIRST LDB TIMESTEP     50
Info: LAST LDB TIMESTEP     -1
Info: HOM BACKGROUND SCALING 1
Info: PME BACKGROUND SCALING 1
Info: MIN ATOMS PER PATCH    40
Info: EMPTY PATCH LOAD       40 ATOMS
Info: VELOCITY FILE          mobley_3867265_equil.vel
Info: CENTER OF MASS MOVING INITIALLY? NO
Info: DIELECTRIC             1
Info: EXCLUDE                SCALED ONE-FOUR
Info: 1-4 ELECTROSTATICS SCALED BY 0.833333
Info: MODIFIED 1-4 VDW PARAMETERS WILL BE USED
Info: DCD FILENAME           mobley_3867265_prod.dcd
Info: DCD FREQUENCY          100000
Info: DCD FIRST STEP         100000
Info: DCD FILE WILL CONTAIN UNIT CELL DATA
Info: XST FILENAME           mobley_3867265_prod.xst
Info: XST FREQUENCY          100000
Info: NO VELOCITY DCD OUTPUT
Info: NO FORCE DCD OUTPUT
Info: OUTPUT FILENAME        mobley_3867265_prod
Info: BINARY OUTPUT FILES WILL BE USED
Info: RESTART FILENAME       mobley_3867265_prod.restart
Info: RESTART FREQUENCY      100000
Info: BINARY RESTART FILES WILL BE USED
Info: CUTOFF                 9
Info: PAIRLIST DISTANCE      11
Info: PAIRLIST SHRINK RATE   0.01
Info: PAIRLIST GROW RATE     0.01
Info: PAIRLIST TRIGGER       0.3
Info: PAIRLISTS PER CYCLE    2
Info: PAIRLISTS ENABLED
Info: MARGIN                 2
Info: HYDROGEN GROUP CUTOFF  2.5
Info: PATCH DIMENSION        15.5
Info: ENERGY OUTPUT STEPS    100000
Info: ENERGY EVALUATION STEPS    100000
Info: OUTPUT ENERGY PRECISION 4
Info: CROSSTERM ENERGY INCLUDED IN DIHEDRAL
Info: TIMING OUTPUT STEPS    1000000
Info: PRESSURE OUTPUT STEPS  100000
Info: ALCHEMICAL FEP ON
Info: FEP CURRENT LAMBDA VALUE     1
Info: FEP COMPARISON LAMBDA VALUE  0.95
Info: FEP INTRA-ALCHEMICAL NON-BONDED INTERACTIONS WILL BE RETAINED
Info: FEP INTRA-ALCHEMICAL BONDED INTERACTIONS WILL BE RETAINED
Info: FEP VDW SHIFTING COEFFICIENT 5
Info: FEP ELEC. ACTIVE FOR ANNIHILATED PARTICLES BETWEEN LAMBDA = 0 AND LAMBDA = 0.5
Info: FEP ELEC. ACTIVE FOR EXNIHILATED PARTICLES BETWEEN LAMBDA = 0.5 AND LAMBDA = 1
Info: FEP VDW ACTIVE FOR ANNIHILATED PARTICLES BETWEEN LAMBDA = 0 AND LAMBDA = 1
Info: FEP VDW ACTIVE FOR EXNIHILATED PARTICLES BETWEEN LAMBDA = 0 AND LAMBDA = 1
Info: FEP BOND ACTIVE FOR ANNIHILATED PARTICLES BETWEEN LAMBDA = 1 AND LAMBDA = 1
Info: FEP BOND ACTIVE FOR EXNIHILATED PARTICLES BETWEEN LAMBDA = 0 AND LAMBDA = 0
Info: LANGEVIN DYNAMICS ACTIVE
Info: LANGEVIN TEMPERATURE   300
Info: LANGEVIN USING BBK INTEGRATOR
Info: LANGEVIN DAMPING COEFFICIENT IS 1 INVERSE PS
Info: LANGEVIN DYNAMICS APPLIED TO HYDROGENS
Info: LANGEVIN PISTON PRESSURE CONTROL ACTIVE
Info:        TARGET PRESSURE IS 1.01325 BAR
Info:     OSCILLATION PERIOD IS 50 FS
Info:             DECAY TIME IS 25 FS
Info:     PISTON TEMPERATURE IS 300 K
Info:       PRESSURE CONTROL IS GROUP-BASED
Info:    INITIAL STRAIN RATE IS -0.000244365 -0.000244365 -0.000244365
Info:       CELL FLUCTUATION IS ISOTROPIC
Info: PARTICLE MESH EWALD (PME) ACTIVE
Info: PME TOLERANCE               1e-06
Info: PME EWALD COEFFICIENT       0.348832
Info: PME INTERPOLATION ORDER     4
Info: PME GRID DIMENSIONS         32 32 32
Info: PME MAXIMUM GRID SPACING    1
Info: PME CALCULATION WILL BE PERFORMED ON GPU
Info: FULL ELECTROSTATIC EVALUATION FREQUENCY      2
Info: USING VERLET I (r-RESPA) MTS SCHEME.
Info: C1 SPLITTING OF LONG RANGE ELECTROSTATICS
Info: PLACING ATOMS IN PATCHES BY HYDROGEN GROUPS
Info: RIGID BONDS TO HYDROGEN : ALL
Info:         ERROR TOLERANCE : 1e-08
Info:          MAX ITERATIONS : 100
Info: RIGID WATER USING SETTLE ALGORITHM
Info: RANDOM NUMBER SEED     1743521972
Info: USE HYDROGEN BONDS?    NO
Info: Using AMBER format force field!
Info: AMBER PARM FILE        mobley_3867265.prmtop
Info: COORDINATE PDB         mobley_3867265.pdb
Info: Exclusions will be read from PARM file!
Info: SCNB (VDW SCALING)     2
Info: USING ARITHMETIC MEAN TO COMBINE L-J SIGMA PARAMETERS
Info: BINARY COORDINATES     mobley_3867265_equil.coor
Info: SUMMARY OF PARAMETERS:
Info: 5 BONDS
Info: 4 ANGLES
Info:   4 HARMONIC
Info:   0 COSINE-BASED
Info: 5 DIHEDRAL
Info: 0 IMPROPER
Info: 0 CROSSTERM
Info: 0 VDW
Info: 21 VDW_PAIRS
Info: 0 NBTHOLE_PAIRS
Info: To read alchdata from file: mobley_3867265.pdb
Info: To read alchflag data from column: 5
Info: STRUCTURE SUMMARY:
Info: 2989 ATOMS
Info: 2988 BONDS
Info: 15 ANGLES
Info: 25 DIHEDRALS
Info: 0 IMPROPERS
Info: 0 CROSSTERMS
Info: 3015 EXCLUSIONS
Info: 2985 RIGID BONDS
Info: ALCH: 0 ATOMS TO DISAPPEAR IN FINAL STATE
Info: ALCH: 10 ATOMS TO APPEAR IN FINAL STATE
Info: 5982 DEGREES OF FREEDOM
Info: 997 HYDROGEN GROUPS
Info: 4 ATOMS IN LARGEST HYDROGEN GROUP
Info: 997 MIGRATION GROUPS
Info: 4 ATOMS IN LARGEST MIGRATION GROUP
Info: TOTAL MASS = 17948 amu
Info: TOTAL CHARGE = 0.000199959 e
Info: MASS DENSITY = 0.981219 g/cm^3
Info: ATOM DENSITY = 0.0984051 atoms/A^3
Info: ADDED 0 IMPLICIT EXCLUSIONS
Info: NONBONDED TABLE R-SQUARED SPACING: 0.0625
Info: NONBONDED TABLE SIZE: 705 POINTS
Info: REMOVING COM VELOCITY 0.0685966 -0.109082 0.0332007
Info: Use 3D box decompostion in PME FFT.
Info: Updated CUDA force table with 4096 elements.
Info: Updated CUDA LJ table with 6 x 6 elements.
Info: Found 13 unique exclusion lists needing 20 bytes
TCL: Running for 1500000 steps
ETITLE: TS BOND ANGLE DIHED IMPRP ELECT VDW BOUNDARY MISC KINETIC TOTAL TEMP POTENTIAL TOTALAVG TEMPAVG PRESSURE GPRESSURE VOLUME PRESSAVG GPRESSAVG
ENERGY: 0 1.4951 4.2012 5.4580 0.0000 -10855.1188 1464.1601 0.0000 0.0000 1823.7103 -7556.0942 306.8314 -9379.8045 -7556.0942 306.8314 352.4332 451.3546 30374.4503 352.4332 451.3546
ENERGY: 300000 1.3790 3.0636 4.9009 0.0000 -10896.5576 1433.6530 0.0000 0.0000 1804.6194 -7648.9416 303.6195 -9453.5611 -7580.6058 305.8577 -200.7722 -168.1755 30802.3166 -94.7034 -36.2803
ENERGY: 600000 0.0496 4.0268 5.0161 0.0000 -10844.8463 1500.2863 0.0000 0.0000 1880.4703 -7454.9973 316.3810 -9335.4676 -7541.6450 307.9761 707.9237 747.0207 30470.5702 49.5263 114.2064
ENERGY: 900000 0.4561 3.1271 5.1057 0.0000 -10904.9522 1489.6243 0.0000 0.0000 1820.2887 -7586.3503 306.2557 -9406.6390 -7568.0093 306.7105 352.2330 419.3935 30728.2912 109.8827 168.4544
ENERGY: 1200000 0.2550 2.0368 4.8367 0.0000 -10881.7168 1431.5361 0.0000 0.0000 1733.7746 -7709.2774 291.7001 -9443.0521 -7576.4682 305.1323 -243.6582 -205.3973 30723.2701 77.4231 134.5796
ENERGY: 1500000 0.1168 3.1254 5.0684 0.0000 -10777.7164 1460.8395 0.0000 0.0000 1836.4070 -7472.1593 308.9676 -9308.5662 -7574.7752 304.8405 406.0728 433.8204 30857.6546 62.0086 121.6450
TCL: Running FEP window   2: Lambda1 0.95   Lambda2 0.8999999999999999 [dLambda -0.050000000000000044]
TCL: Setting parameter firsttimestep to 0
TCL: Setting parameter alchLambda to 0.95
Info: NONBONDED TABLE R-SQUARED SPACING: 0.0625
Info: NONBONDED TABLE SIZE: 705 POINTS
TCL: Setting parameter alchLambda2 to 0.8999999999999999
Info: NONBONDED TABLE R-SQUARED SPACING: 0.0625
Info: NONBONDED TABLE SIZE: 705 POINTS
TCL: Running for 1500000 steps
ETITLE: TS BOND ANGLE DIHED IMPRP ELECT VDW BOUNDARY MISC KINETIC TOTAL TEMP POTENTIAL TOTALAVG TEMPAVG PRESSURE GPRESSURE VOLUME PRESSAVG GPRESSAVG
ENERGY: 0 0.1168 3.1254 5.0684 0.0000 -10775.9761 1460.3838 0.0000 0.0000 1835.4691 -7471.8125 308.8098 -9307.2816 -7471.8125 308.8098 318.3429 423.4498 30857.6546 318.3429 423.4498
ENERGY: 300000 1.4899 4.7600 5.0493 0.0000 -10939.6855 1526.6980 0.0000 0.0000 1785.6133 -7616.0750 300.4218 -9401.6884 -7587.9011 303.4351 464.9333 481.2369 31012.4438 177.1491 239.7666
ENERGY: 600000 0.3212 3.4029 5.3070 0.0000 -10611.0368 1275.7174 0.0000 0.0000 1805.3641 -7520.9242 303.7447 -9326.2883 -7592.2335 300.9891 -1061.9679 -949.7582 30531.8339 -144.9484 -86.1703
ENERGY: 900000 1.7391 3.1857 5.2325 0.0000 -10804.3450 1409.5466 0.0000 0.0000 1747.7649 -7636.8761 294.0539 -9384.6410 -7610.0488 299.0069 -277.8274 -216.6011 31020.7665 -75.6160 -18.1207
ENERGY: 1200000 1.2070 6.6743 5.1184 0.0000 -10733.5980 1406.5860 0.0000 0.0000 1826.1622 -7487.8500 307.2439 -9314.0122 -7606.4202 300.1290 -358.6835 -298.3450 31382.5902 -92.9740 -31.0470
ENERGY: 1500000 1.2290 3.1813 5.0111 0.0000 -10879.2455 1402.3222 0.0000 0.0000 1772.2298 -7695.2722 298.1700 -9467.5020 -7607.2503 300.1796 -773.1617 -658.2977 30753.5437 -134.7464 -70.4056
TCL: Running FEP window   3: Lambda1 0.8999999999999999 Lambda2 0.8499999999999999 [dLambda -0.050000000000000044]
TCL: Setting parameter firsttimestep to 0
TCL: Setting parameter alchLambda to 0.8999999999999999
Info: NONBONDED TABLE R-SQUARED SPACING: 0.0625
Info: NONBONDED TABLE SIZE: 705 POINTS
TCL: Setting parameter alchLambda2 to 0.8499999999999999
Info: NONBONDED TABLE R-SQUARED SPACING: 0.0625
Info: NONBONDED TABLE SIZE: 705 POINTS
TCL: Running for 1500000 steps
ETITLE: TS BOND ANGLE DIHED IMPRP ELECT VDW BOUNDARY MISC KINETIC TOTAL TEMP POTENTIAL TOTALAVG TEMPAVG PRESSURE GPRESSURE VOLUME PRESSAVG GPRESSAVG
ENERGY: 0 1.2290 3.1813 5.0111 0.0000 -10878.2327 1402.5628 0.0000 0.0000 1771.3497 -7694.8989 298.0220 -9466.2486 -7694.8989 298.0220 -745.2529 -664.6962 30753.5437 -745.2529 -664.6962
ENERGY: 300000 0.2175 5.4442 5.4906 0.0000 -10800.2938 1421.8204 0.0000 0.0000 1783.7774 -7583.5437 300.1129 -9367.3212 -7608.0207 300.7842 -225.6233 -228.6053 30914.7105 -237.4955 -169.3165
ENERGY: 600000 0.7442 2.8828 5.5074 0.0000 -10913.8105 1476.0949 0.0000 0.0000 1769.4816 -7659.0996 297.7077 -9428.5812 -7597.9711 301.3268 73.4826 152.8719 30502.9113 -220.2841 -148.1189
ENERGY: 900000 0.2111 4.2204 5.3078 0.0000 -10986.4938 1492.1875 0.0000 0.0000 1752.9129 -7731.6539 294.9201 -9484.5668 -7625.6660 300.8758 25.2743 94.7168 30567.8647 -77.9072 -11.0508
ENERGY: 1200000 0.0444 3.4538 5.4998 0.0000 -10927.5856 1519.3081 0.0000 0.0000 1779.5266 -7619.7529 299.3977 -9399.2795 -7629.1259 300.4945 599.3225 598.1422 30452.9732 86.7054 148.0377
ENERGY: 1500000 0.9466 3.4873 5.5526 0.0000 -10825.7099 1401.1893 0.0000 0.0000 1783.7891 -7630.7450 300.1148 -9414.5341 -7623.4412 300.8813 -512.8226 -414.8444 30668.5579 119.6821 181.6827
TCL: Running FEP window   4: Lambda1 0.8499999999999999 Lambda2 0.7999999999999998 [dLambda -0.050000000000000044]
TCL: Setting parameter firsttimestep to 0
TCL: Setting parameter alchLambda to 0.8499999999999999
Info: NONBONDED TABLE R-SQUARED SPACING: 0.0625
Info: NONBONDED TABLE SIZE: 705 POINTS
TCL: Setting parameter alchLambda2 to 0.7999999999999998
Info: NONBONDED TABLE R-SQUARED SPACING: 0.0625
Info: NONBONDED TABLE SIZE: 705 POINTS
TCL: Running for 1500000 steps
ETITLE: TS BOND ANGLE DIHED IMPRP ELECT VDW BOUNDARY MISC KINETIC TOTAL TEMP POTENTIAL TOTALAVG TEMPAVG PRESSURE GPRESSURE VOLUME PRESSAVG GPRESSAVG
ENERGY: 0 0.9466 3.4872 5.5526 0.0000 -10824.6842 1401.1040 0.0000 0.0000 1782.8858 -7630.7080 299.9629 -9413.5938 -7630.7080 299.9629 -516.5700 -418.3952 30668.5579 -516.5700 -418.3952
ENERGY: 300000 1.4274 2.6324 5.5901 0.0000 -10764.6135 1408.8488 0.0000 0.0000 1784.3087 -7561.8061 300.2023 -9346.1148 -7620.0964 301.5243 -92.3458 -46.9301 30542.3947 -177.4158 -113.4112
ENERGY: 600000 3.4022 3.1340 5.2916 0.0000 -10971.5633 1488.0698 0.0000 0.0000 1774.8392 -7696.8265 298.6091 -9471.6657 -7616.6334 301.7997 208.0407 213.9210 30591.9375 -182.4755 -134.5975
ENERGY: 900000 0.1117 4.4202 5.1356 0.0000 -10931.0606 1485.7025 0.0000 0.0000 1746.7472 -7688.9433 293.8827 -9435.6906 -7632.7126 300.1980 159.7329 196.6083 30788.3338 -298.3955 -245.4614
ENERGY: 1200000 3.6513 2.0973 5.4783 0.0000 -10848.4062 1405.4441 0.0000 0.0000 1764.7367 -7666.9985 296.9094 -9431.7352 -7634.4395 298.9807 -30.5672 16.0025 30270.6983 -216.4470 -162.0164
ENERGY: 1500000 0.3185 6.7202 4.7492 0.0000 -10930.6351 1446.0921 0.0000 0.0000 1760.7224 -7712.0327 296.2340 -9472.7551 -7639.2525 298.2924 -252.3182 -182.4421 30708.8947 -77.8055 -26.4006
TCL: Running FEP window   5: Lambda1 0.7999999999999998 Lambda2 0.7499999999999998 [dLambda -0.050000000000000044]
TCL: Setting parameter firsttimestep to 0
TCL: Setting parameter alchLambda to 0.7999999999999998
Info: NONBONDED TABLE R-SQUARED SPACING: 0.0625
Info: NONBONDED TABLE SIZE: 705 POINTS
TCL: Setting parameter alchLambda2 to 0.7499999999999998
Info: NONBONDED TABLE R-SQUARED SPACING: 0.0625
Info: NONBONDED TABLE SIZE: 705 POINTS
TCL: Running for 1500000 steps
ETITLE: TS BOND ANGLE DIHED IMPRP ELECT VDW BOUNDARY MISC KINETIC TOTAL TEMP POTENTIAL TOTALAVG TEMPAVG PRESSURE GPRESSURE VOLUME PRESSAVG GPRESSAVG
ENERGY: 0 0.3185 6.7202 4.7492 0.0000 -10929.9674 1446.2147 0.0000 0.0000 1759.8621 -7712.1028 296.0892 -9471.9648 -7712.1028 296.0892 -283.6316 -187.7073 30708.8947 -283.6316 -187.7073
ENERGY: 300000 0.3397 3.7570 5.5542 0.0000 -10810.5518 1459.0396 0.0000 0.0000 1796.0726 -7545.7888 302.1815 -9341.8614 -7636.4632 297.6193 -79.0965 17.8781 31215.7744 -136.9007 -53.6793
ENERGY: 600000 0.8371 2.8951 5.7106 0.0000 -10904.9585 1462.2554 0.0000 0.0000 1770.3295 -7662.9309 297.8503 -9433.2604 -7644.0372 298.5150 119.8745 189.4018 30462.2891 -59.6887 5.0584
ENERGY: 900000 2.1693 3.6948 4.9830 0.0000 -10816.9270 1408.6297 0.0000 0.0000 1832.5721 -7564.8782 308.3224 -9397.4503 -7621.4538 300.7956 -398.1553 -349.1942 30885.3369 -116.6052 -42.1001
ENERGY: 1200000 2.0982 4.6981 5.3468 0.0000 -10940.8248 1538.9125 0.0000 0.0000 1791.5935 -7598.1757 301.4279 -9389.7692 -7640.8182 300.2211 477.9149 549.7062 31021.8019 -107.3271 -27.4909
ENERGY: 1500000 1.4815 8.2370 5.0549 0.0000 -11020.8019 1484.9464 0.0000 0.0000 1745.8630 -7775.2192 293.7339 -9521.0821 -7646.4245 299.3590 -151.6879 -109.0945 30733.5926 -123.3531 -47.0444
TCL: Running FEP window   6: Lambda1 0.7499999999999998 Lambda2 0.6999999999999997 [dLambda -0.050000000000000044]
TCL: Setting parameter firsttimestep to 0
TCL: Setting parameter alchLambda to 0.7499999999999998
Info: NONBONDED TABLE R-SQUARED SPACING: 0.0625
Info: NONBONDED TABLE SIZE: 705 POINTS
TCL: Setting parameter alchLambda2 to 0.6999999999999997
Info: NONBONDED TABLE R-SQUARED SPACING: 0.0625
Info: NONBONDED TABLE SIZE: 705 POINTS
TCL: Running for 1500000 steps
ETITLE: TS BOND ANGLE DIHED IMPRP ELECT VDW BOUNDARY MISC KINETIC TOTAL TEMP POTENTIAL TOTALAVG TEMPAVG PRESSURE GPRESSURE VOLUME PRESSAVG GPRESSAVG
ENERGY: 0 1.4815 8.2370 5.0549 0.0000 -11019.8438 1484.0603 0.0000 0.0000 1744.9760 -7776.0342 293.5847 -9521.0101 -7776.0342 293.5847 -203.4248 -122.8338 30733.5926 -203.4248 -122.8338
ENERGY: 300000 1.6710 4.1463 5.1416 0.0000 -10833.7938 1446.0260 0.0000 0.0000 1758.6361 -7618.1727 295.8830 -9376.8088 -7636.9944 299.9273 -223.0795 -163.1087 30958.0431 -107.2364 -42.2132
ENERGY: 600000 0.1417 1.8431 4.8350 0.0000 -10869.0288 1441.6732 0.0000 0.0000 1803.8580 -7616.6777 303.4914 -9420.5358 -7636.1906 298.8194 -172.8607 -206.8921 30854.5829 -50.3514 0.9264
ENERGY: 900000 0.2921 6.9281 4.9681 0.0000 -10878.9763 1451.7299 0.0000 0.0000 1780.6270 -7634.4311 299.5828 -9415.0581 -7647.3724 296.4280 -253.6539 -117.6628 30866.6577 -187.9875 -117.5267
ENERGY: 1200000 0.8878 4.9547 5.8639 0.0000 -11008.4139 1548.7512 0.0000 0.0000 1778.5104 -7669.4460 299.2267 -9447.9564 -7642.4639 298.1238 484.5887 614.8781 30780.0861 -160.2649 -85.3907
ENERGY: 1500000 0.2944 4.0008 5.4219 0.0000 -10982.0597 1463.9636 0.0000 0.0000 1762.5682 -7745.8109 296.5445 -9508.3790 -7642.3314 298.4726 -220.3664 -139.1900 30579.4813 -123.6676 -48.9753
TCL: Running FEP window   7: Lambda1 0.6999999999999997 Lambda2 0.6499999999999997 [dLambda -0.050000000000000044]
TCL: Setting parameter firsttimestep to 0
TCL: Setting parameter alchLambda to 0.6999999999999997
Info: NONBONDED TABLE R-SQUARED SPACING: 0.0625
Info: NONBONDED TABLE SIZE: 705 POINTS
TCL: Setting parameter alchLambda2 to 0.6499999999999997
Info: NONBONDED TABLE R-SQUARED SPACING: 0.0625
Info: NONBONDED TABLE SIZE: 705 POINTS
TCL: Running for 1500000 steps
ETITLE: TS BOND ANGLE DIHED IMPRP ELECT VDW BOUNDARY MISC KINETIC TOTAL TEMP POTENTIAL TOTALAVG TEMPAVG PRESSURE GPRESSURE VOLUME PRESSAVG GPRESSAVG
ENERGY: 0 0.2944 4.0007 5.4219 0.0000 -10980.7300 1463.5072 0.0000 0.0000 1761.7271 -7745.7786 296.4030 -9507.5058 -7745.7786 296.4030 -242.2512 -146.8652 30579.4813 -242.2512 -146.8652
ENERGY: 300000 2.0400 2.0213 4.8399 0.0000 -10737.8049 1400.1092 0.0000 0.0000 1761.7234 -7567.0711 296.4024 -9328.7945 -7624.1235 299.0187 -554.3708 -440.5637 31276.2044 -173.9737 -100.1788
ENERGY: 600000 1.3073 4.2267 5.2729 0.0000 -11028.4440 1531.8405 0.0000 0.0000 1831.4119 -7654.3848 308.1272 -9485.7967 -7623.2397 300.8872 523.2783 556.6836 30377.8318 28.4914 85.3021
ENERGY: 900000 0.3294 4.5822 5.4757 0.0000 -10891.8552 1455.6123 0.0000 0.0000 1797.3206 -7628.5350 302.3915 -9425.8556 -7622.2334 300.9132 -279.9026 -221.5467 31065.4920 14.8099 74.0621
ENERGY: 1200000 0.4576 2.4691 5.0480 0.0000 -10881.8047 1455.2440 0.0000 0.0000 1780.9831 -7637.6027 299.6428 -9418.5858 -7618.8535 301.4728 -29.0613 64.1845 30488.3079 28.9807 95.0968
ENERGY: 1500000 0.4794 4.0483 5.3131 0.0000 -10906.6360 1477.8656 0.0000 0.0000 1804.0684 -7614.8613 303.5268 -9418.9297 -7618.5266 301.8921 98.5637 169.3040 30688.6737 -26.2981 36.0782
TCL: Running FEP window   8: Lambda1 0.6499999999999997 Lambda2 0.5999999999999996 [dLambda -0.050000000000000044]
TCL: Setting parameter firsttimestep to 0
TCL: Setting parameter alchLambda to 0.6499999999999997
Info: NONBONDED TABLE R-SQUARED SPACING: 0.0625
Info: NONBONDED TABLE SIZE: 705 POINTS
TCL: Setting parameter alchLambda2 to 0.5999999999999996
Info: NONBONDED TABLE R-SQUARED SPACING: 0.0625
Info: NONBONDED TABLE SIZE: 705 POINTS
TCL: Running for 1500000 steps
ETITLE: TS BOND ANGLE DIHED IMPRP ELECT VDW BOUNDARY MISC KINETIC TOTAL TEMP POTENTIAL TOTALAVG TEMPAVG PRESSURE GPRESSURE VOLUME PRESSAVG GPRESSAVG
ENERGY: 0 0.4794 4.0482 5.3131 0.0000 -10906.4410 1478.2553 0.0000 0.0000 1803.1918 -7615.1531 303.3793 -9418.3449 -7615.1531 303.3793 88.2850 167.5941 30688.6737 88.2850 167.5941
ENERGY: 300000 1.6607 1.9862 4.9842 0.0000 -10819.1716 1418.5072 0.0000 0.0000 1742.6349 -7649.3985 293.1908 -9392.0334 -7606.9498 300.3359 -481.9680 -477.9413 31273.5650 98.9728 148.2246
ENERGY: 600000 0.3784 3.3018 4.8100 0.0000 -10888.9141 1443.8751 0.0000 0.0000 1793.3918 -7643.1570 301.7305 -9436.5488 -7605.3104 301.1287 -140.1226 -88.6582 30623.8248 49.7563 105.8976
ENERGY: 900000 1.0513 4.9479 4.9606 0.0000 -10917.8424 1463.4273 0.0000 0.0000 1772.1088 -7671.3463 298.1497 -9443.4552 -7619.7533 300.3456 -314.7258 -210.2668 31120.7307 52.3681 108.7067
ENERGY: 1200000 1.0220 3.3192 5.1066 0.0000 -10981.3266 1485.6890 0.0000 0.0000 1712.4250 -7773.7650 288.1081 -9486.1899 -7631.9802 299.0945 -37.5624 -26.5234 30468.9804 39.5620 96.5968
ENERGY: 1500000 1.0683 5.3390 5.2188 0.0000 -10907.6639 1568.1622 0.0000 0.0000 1770.8401 -7557.0356 297.9362 -9327.8757 -7625.8362 299.3687 882.7652 917.9177 30867.7900 118.5623 177.7146
TCL: Running FEP window   9: Lambda1 0.5999999999999996 Lambda2 0.5499999999999996 [dLambda -0.050000000000000044]
TCL: Setting parameter firsttimestep to 0
TCL: Setting parameter alchLambda to 0.5999999999999996
Info: NONBONDED TABLE R-SQUARED SPACING: 0.0625
Info: NONBONDED TABLE SIZE: 705 POINTS
TCL: Setting parameter alchLambda2 to 0.5499999999999996
Info: NONBONDED TABLE R-SQUARED SPACING: 0.0625
Info: NONBONDED TABLE SIZE: 705 POINTS
TCL: Running for 1500000 steps
ETITLE: TS BOND ANGLE DIHED IMPRP ELECT VDW BOUNDARY MISC KINETIC TOTAL TEMP POTENTIAL TOTALAVG TEMPAVG PRESSURE GPRESSURE VOLUME PRESSAVG GPRESSAVG
ENERGY: 0 1.0683 5.3390 5.2188 0.0000 -10906.9360 1567.9557 0.0000 0.0000 1769.9274 -7557.4268 297.7827 -9327.3542 -7557.4268 297.7827 840.4338 911.9267 30867.7900 840.4338 911.9267
ENERGY: 300000 1.7569 2.8736 5.1625 0.0000 -10883.1689 1494.4358 0.0000 0.0000 1741.6451 -7637.2950 293.0243 -9378.9402 -7587.6449 295.6516 139.2115 216.7357 31098.7871 23.8933 91.3159
ENERGY: 600000 1.0414 1.5123 5.1807 0.0000 -10901.2765 1488.8861 0.0000 0.0000 1813.9500 -7590.7059 305.1893 -9404.6559 -7604.6803 298.6150 626.5534 683.1314 30376.4820 110.0755 177.7159
ENERGY: 900000 0.5140 3.8731 5.7530 0.0000 -10825.2978 1446.2969 0.0000 0.0000 1755.7601 -7613.1007 295.3991 -9368.8608 -7612.7323 298.9331 -17.6248 16.9420 30852.3755 86.2770 156.9806
ENERGY: 1200000 1.8643 3.1268 5.7250 0.0000 -10658.5095 1280.5608 0.0000 0.0000 1809.1813 -7558.0513 304.3870 -9367.2326 -7607.0558 299.1126 -1350.8108 -1325.5168 30878.4993 -43.7044 18.0463
ENERGY: 1500000 2.3414 5.7904 5.2146 0.0000 -10788.6107 1426.5375 0.0000 0.0000 1817.1433 -7531.5836 305.7265 -9348.7269 -7597.1818 300.1008 -15.5177 101.1481 30699.4525 -20.3446 49.5596
TCL: Running FEP window  10: Lambda1 0.5499999999999996 Lambda2 0.4999999999999996 [dLambda -0.04999999999999999]
TCL: Setting parameter firsttimestep to 0
TCL: Setting parameter alchLambda to 0.5499999999999996
Info: NONBONDED TABLE R-SQUARED SPACING: 0.0625
Info: NONBONDED TABLE SIZE: 705 POINTS
TCL: Setting parameter alchLambda2 to 0.4999999999999996
Info: NONBONDED TABLE R-SQUARED SPACING: 0.0625
Info: NONBONDED TABLE SIZE: 705 POINTS
TCL: Running for 1500000 steps
ETITLE: TS BOND ANGLE DIHED IMPRP ELECT VDW BOUNDARY MISC KINETIC TOTAL TEMP POTENTIAL TOTALAVG TEMPAVG PRESSURE GPRESSURE VOLUME PRESSAVG GPRESSAVG
ENERGY: 0 2.3414 5.7904 5.2146 0.0000 -10788.1517 1426.5601 0.0000 0.0000 1816.2336 -7532.0117 305.5735 -9348.2452 -7532.0117 305.5735 14.6478 98.1484 30699.4525 14.6478 98.1484
ENERGY: 300000 0.1719 2.3544 5.2109 0.0000 -10857.1354 1483.1189 0.0000 0.0000 1777.0316 -7589.2478 298.9779 -9366.2794 -7638.1830 297.0763 391.1514 462.5785 30439.9436 169.1906 229.1715
ENERGY: 600000 0.4608 6.9285 5.7972 0.0000 -10840.7751 1478.5022 0.0000 0.0000 1809.1885 -7539.8978 304.3882 -9349.0863 -7591.2720 299.7582 414.5710 488.7358 30582.9054 203.0852 277.1089
ENERGY: 900000 1.0229 5.2244 5.2596 0.0000 -10910.9418 1452.0435 0.0000 0.0000 1789.4956 -7657.8958 301.0749 -9447.3914 -7591.3308 301.6162 -330.3960 -274.5171 30957.1190 189.2241 256.0941
ENERGY: 1200000 0.2654 4.0609 5.1806 0.0000 -10944.9614 1451.3487 0.0000 0.0000 1786.5304 -7697.5754 300.5761 -9484.1058 -7606.8712 300.4309 -267.7774 -219.0592 30544.2883 67.3269 128.5966
ENERGY: 1500000 1.2027 6.6496 5.4972 0.0000 -10796.4124 1498.2453 0.0000 0.0000 1766.7369 -7518.0807 297.2459 -9284.8176 -7597.4219 299.9504 466.3437 543.2776 31173.5778 15.7502 75.2173
TCL: Running FEP window  11: Lambda1 0.4999999999999996 Lambda2 0.4499999999999996 [dLambda -0.04999999999999999]
TCL: Setting parameter firsttimestep to 0
TCL: Setting parameter alchLambda to 0.4999999999999996
Info: NONBONDED TABLE R-SQUARED SPACING: 0.0625
Info: NONBONDED TABLE SIZE: 705 POINTS
TCL: Setting parameter alchLambda2 to 0.4499999999999996
Info: NONBONDED TABLE R-SQUARED SPACING: 0.0625
Info: NONBONDED TABLE SIZE: 705 POINTS
TCL: Running for 1500000 steps
ETITLE: TS BOND ANGLE DIHED IMPRP ELECT VDW BOUNDARY MISC KINETIC TOTAL TEMP POTENTIAL TOTALAVG TEMPAVG PRESSURE GPRESSURE VOLUME PRESSAVG GPRESSAVG
ENERGY: 0 1.2027 6.6496 5.4972 0.0000 -10796.4790 1498.0836 0.0000 0.0000 1765.8012 -7519.2446 297.0885 -9285.0458 -7519.2446 297.0885 471.9288 537.4154 31173.5778 471.9288 537.4154
ENERGY: 300000 0.9382 3.8914 5.3194 0.0000 -10732.9740 1371.6918 0.0000 0.0000 1730.2654 -7620.8678 291.1097 -9351.1332 -7600.6308 296.6884 -1001.5266 -862.0768 31485.4338 -601.5585 -521.2262
ENERGY: 600000 0.2802 2.7483 5.3592 0.0000 -10971.7752 1476.7408 0.0000 0.0000 1783.3523 -7703.2945 300.0414 -9486.6468 -7626.8958 297.2495 35.1285 86.9442 30317.8603 -553.3230 -475.3362
ENERGY: 900000 0.2733 2.2063 5.0907 0.0000 -10887.6479 1447.6050 0.0000 0.0000 1734.7422 -7697.7304 291.8629 -9432.4726 -7630.5200 296.7317 -440.1157 -400.6746 31300.4346 -516.2329 -443.8092
ENERGY: 1200000 1.0607 3.9187 5.3051 0.0000 -10900.7866 1465.6411 0.0000 0.0000 1729.3430 -7695.5180 290.9545 -9424.8610 -7632.8996 297.4825 -80.5019 -31.8942 30694.3412 -358.3701 -293.1906
ENERGY: 1500000 2.5179 3.1680 5.7610 0.0000 -10948.0267 1481.8857 0.0000 0.0000 1755.7335 -7698.9604 295.3946 -9454.6940 -7631.5153 297.7202 24.1402 101.6953 30686.2789 -299.7032 -234.6391
TCL: Running FEP window  12: Lambda1 0.4499999999999996 Lambda2 0.39999999999999963 [dLambda -0.04999999999999999]
TCL: Setting parameter firsttimestep to 0
TCL: Setting parameter alchLambda to 0.4499999999999996
Info: NONBONDED TABLE R-SQUARED SPACING: 0.0625
Info: NONBONDED TABLE SIZE: 705 POINTS
TCL: Setting parameter alchLambda2 to 0.39999999999999963
Info: NONBONDED TABLE R-SQUARED SPACING: 0.0625
Info: NONBONDED TABLE SIZE: 705 POINTS
TCL: Running for 1500000 steps
ETITLE: TS BOND ANGLE DIHED IMPRP ELECT VDW BOUNDARY MISC KINETIC TOTAL TEMP POTENTIAL TOTALAVG TEMPAVG PRESSURE GPRESSURE VOLUME PRESSAVG GPRESSAVG
ENERGY: 0 2.5179 3.1680 5.7610 0.0000 -10948.0280 1481.8075 0.0000 0.0000 1754.8607 -7699.9128 295.2478 -9454.7736 -7699.9128 295.2478 8.7355 98.1734 30686.2789 8.7355 98.1734
ENERGY: 300000 1.4490 3.5888 5.7356 0.0000 -10831.7049 1404.7925 0.0000 0.0000 1816.7120 -7599.4270 305.6540 -9416.1389 -7635.6907 299.5528 -84.9916 -34.6582 30028.9317 -120.6299 -61.0417
ENERGY: 600000 0.1022 9.1534 4.9598 0.0000 -11101.5481 1524.7672 0.0000 0.0000 1809.1998 -7753.3656 304.3901 -9562.5654 -7673.3473 299.3713 136.5048 221.6829 30312.6771 121.8129 184.1918
ENERGY: 900000 1.9960 2.6746 5.0354 0.0000 -10900.7384 1449.9594 0.0000 0.0000 1745.2101 -7695.8629 293.6241 -9441.0730 -7677.2243 296.9516 -240.7057 -159.1745 30692.8131 90.8730 156.5518
ENERGY: 1200000 0.4780 3.8858 5.8159 0.0000 -10915.4141 1456.3187 0.0000 0.0000 1768.5745 -7680.3412 297.5551 -9448.9156 -7662.1401 297.9128 -211.6183 -193.1850 30804.7040 35.3756 96.6927
ENERGY: 1500000 1.8868 4.7896 5.3187 0.0000 -10973.5373 1515.9290 0.0000 0.0000 1807.6395 -7637.9737 304.1276 -9445.6132 -7647.9723 299.0028 356.9412 383.4704 30715.5142 31.6285 86.0942
TCL: Running FEP window  13: Lambda1 0.39999999999999963 Lambda2 0.34999999999999964 [dLambda -0.04999999999999999]
TCL: Setting parameter firsttimestep to 0
TCL: Setting parameter alchLambda to 0.39999999999999963
Info: NONBONDED TABLE R-SQUARED SPACING: 0.0625
Info: NONBONDED TABLE SIZE: 705 POINTS
TCL: Setting parameter alchLambda2 to 0.34999999999999964
Info: NONBONDED TABLE R-SQUARED SPACING: 0.0625
Info: NONBONDED TABLE SIZE: 705 POINTS
TCL: Running for 1500000 steps
ETITLE: TS BOND ANGLE DIHED IMPRP ELECT VDW BOUNDARY MISC KINETIC TOTAL TEMP POTENTIAL TOTALAVG TEMPAVG PRESSURE GPRESSURE VOLUME PRESSAVG GPRESSAVG
ENERGY: 0 1.8868 4.7896 5.3187 0.0000 -10973.5377 1515.3133 0.0000 0.0000 1806.7467 -7639.4826 303.9774 -9446.2293 -7639.4826 303.9774 296.5438 372.5460 30715.5142 296.5438 372.5460
ENERGY: 300000 0.4442 5.1748 5.0579 0.0000 -10819.5029 1485.1976 0.0000 0.0000 1780.8271 -7542.8013 299.6165 -9323.6284 -7604.6543 302.2977 253.1736 335.0866 31075.5873 -4.7502 64.3275
ENERGY: 600000 1.5443 5.8147 5.4534 0.0000 -10897.6642 1460.2269 0.0000 0.0000 1781.7064 -7642.9185 299.7644 -9424.6249 -7619.1641 301.7263 -200.1096 -83.2411 30934.3669 44.2005 107.8195
ENERGY: 900000 2.1051 6.1636 5.2593 0.0000 -10808.4599 1450.8192 0.0000 0.0000 1810.1758 -7533.9369 304.5543 -9344.1127 -7620.9853 301.3657 110.5442 156.5231 30975.2064 -33.0598 24.3873
ENERGY: 1200000 1.3787 5.7133 5.1062 0.0000 -10960.4388 1475.2707 0.0000 0.0000 1803.4494 -7669.5205 303.4226 -9472.9700 -7621.5319 301.7500 -262.1096 -143.7175 30863.6359 -41.9650 17.1417
ENERGY: 1500000 0.3826 4.7068 5.2063 0.0000 -10913.4998 1467.6174 0.0000 0.0000 1772.8229 -7662.7638 298.2698 -9435.5867 -7627.4186 302.0563 -127.2492 -50.2400 30597.5480 -43.1865 18.7609
TCL: Running FEP window  14: Lambda1 0.34999999999999964 Lambda2 0.29999999999999966 [dLambda -0.04999999999999999]
TCL: Setting parameter firsttimestep to 0
TCL: Setting parameter alchLambda to 0.34999999999999964
Info: NONBONDED TABLE R-SQUARED SPACING: 0.0625
Info: NONBONDED TABLE SIZE: 705 POINTS
TCL: Setting parameter alchLambda2 to 0.29999999999999966
Info: NONBONDED TABLE R-SQUARED SPACING: 0.0625
Info: NONBONDED TABLE SIZE: 705 POINTS
TCL: Running for 1500000 steps
ETITLE: TS BOND ANGLE DIHED IMPRP ELECT VDW BOUNDARY MISC KINETIC TOTAL TEMP POTENTIAL TOTALAVG TEMPAVG PRESSURE GPRESSURE VOLUME PRESSAVG GPRESSAVG
ENERGY: 0 0.3826 4.7068 5.2063 0.0000 -10913.5015 1468.0660 0.0000 0.0000 1771.9217 -7663.2182 298.1182 -9435.1398 -7663.2182 298.1182 -144.2057 -51.8333 30597.5480 -144.2057 -51.8333
ENERGY: 300000 1.4776 6.4374 5.3326 0.0000 -10953.4337 1416.9117 0.0000 0.0000 1780.7703 -7742.5040 299.6069 -9523.2743 -7619.6283 301.9677 -653.8999 -609.4016 30522.1895 -376.8005 -303.9948
ENERGY: 600000 0.3317 4.2820 4.8920 0.0000 -10830.9645 1391.3704 0.0000 0.0000 1784.4566 -7645.6318 300.2272 -9430.0884 -7647.8694 300.2107 -579.9879 -532.0603 30820.5213 -413.5269 -344.3886
ENERGY: 900000 2.7625 4.6042 4.7318 0.0000 -10910.6261 1468.8188 0.0000 0.0000 1787.5314 -7642.1774 300.7445 -9429.7088 -7642.5676 301.2281 -157.9908 -101.3087 30926.1826 -246.9569 -181.0275
ENERGY: 1200000 0.8269 2.2567 5.4404 0.0000 -10772.9903 1413.3474 0.0000 0.0000 1851.5902 -7499.5287 311.5221 -9351.1189 -7614.6644 303.3400 -327.0617 -261.7178 31084.3351 -195.8144 -139.9580
ENERGY: 1500000 0.5344 6.0659 5.5190 0.0000 -10830.1073 1478.9960 0.0000 0.0000 1780.1692 -7558.8227 299.5058 -9338.9919 -7607.0952 303.5699 186.6914 233.1825 30953.9115 -92.6612 -38.7531
TCL: Running FEP window  15: Lambda1 0.29999999999999966 Lambda2 0.24999999999999967 [dLambda -0.04999999999999999]
TCL: Setting parameter firsttimestep to 0
TCL: Setting parameter alchLambda to 0.29999999999999966
Info: NONBONDED TABLE R-SQUARED SPACING: 0.0625
Info: NONBONDED TABLE SIZE: 705 POINTS
TCL: Setting parameter alchLambda2 to 0.24999999999999967
Info: NONBONDED TABLE R-SQUARED SPACING: 0.0625
Info: NONBONDED TABLE SIZE: 705 POINTS
TCL: Running for 1500000 steps
ETITLE: TS BOND ANGLE DIHED IMPRP ELECT VDW BOUNDARY MISC KINETIC TOTAL TEMP POTENTIAL TOTALAVG TEMPAVG PRESSURE GPRESSURE VOLUME PRESSAVG GPRESSAVG
ENERGY: 0 0.5344 6.0659 5.5190 0.0000 -10830.1071 1479.0876 0.0000 0.0000 1779.2771 -7559.6230 299.3557 -9338.9002 -7559.6230 299.3557 169.2699 233.0134 30953.9115 169.2699 233.0134
ENERGY: 300000 0.8244 4.3611 4.8670 0.0000 -10821.3703 1481.2670 0.0000 0.0000 1741.9904 -7588.0604 293.0824 -9330.0508 -7597.6573 300.1656 271.8454 310.8583 30978.9126 -313.0065 -257.4240
ENERGY: 600000 3.2880 2.7973 4.9718 0.0000 -10767.6014 1436.0052 0.0000 0.0000 1750.1340 -7570.4051 294.4525 -9320.5391 -7617.6762 298.5528 100.7850 194.7697 30685.7719 -332.1791 -273.5562
ENERGY: 900000 0.5098 3.8348 4.9381 0.0000 -11162.0129 1601.2773 0.0000 0.0000 1737.4689 -7813.9841 292.3217 -9551.4529 -7647.1626 297.4062 650.7250 728.3103 30542.7482 -197.7681 -141.9234
ENERGY: 1200000 1.3059 4.9729 5.5775 0.0000 -10975.8154 1519.2968 0.0000 0.0000 1790.7561 -7653.9060 301.2870 -9444.6622 -7649.1376 298.5716 334.3371 429.7475 30437.6457 -91.6958 -28.8652
ENERGY: 1500000 0.4574 4.9514 5.2211 0.0000 -10905.9459 1446.4066 0.0000 0.0000 1736.7302 -7712.1792 292.1974 -9448.9095 -7647.1150 297.6425 -308.2017 -199.1791 30710.1601 -96.7235 -33.5436
TCL: Running FEP window  16: Lambda1 0.24999999999999967 Lambda2 0.19999999999999968 [dLambda -0.04999999999999999]
TCL: Setting parameter firsttimestep to 0
TCL: Setting parameter alchLambda to 0.24999999999999967
Info: NONBONDED TABLE R-SQUARED SPACING: 0.0625
Info: NONBONDED TABLE SIZE: 705 POINTS
TCL: Setting parameter alchLambda2 to 0.19999999999999968
Info: NONBONDED TABLE R-SQUARED SPACING: 0.0625
Info: NONBONDED TABLE SIZE: 705 POINTS
TCL: Running for 1500000 steps
ETITLE: TS BOND ANGLE DIHED IMPRP ELECT VDW BOUNDARY MISC KINETIC TOTAL TEMP POTENTIAL TOTALAVG TEMPAVG PRESSURE GPRESSURE VOLUME PRESSAVG GPRESSAVG
ENERGY: 0 0.4574 4.9514 5.2211 0.0000 -10905.9462 1445.8575 0.0000 0.0000 1735.8430 -7713.6158 292.0481 -9449.4588 -7713.6158 292.0481 -282.9973 -202.2798 30710.1601 -282.9973 -202.2798
ENERGY: 300000 2.2161 7.0443 5.5589 0.0000 -10725.5313 1339.6183 0.0000 0.0000 1810.9003 -7560.1934 304.6762 -9371.0937 -7581.1900 300.8280 -1059.0093 -953.0187 31087.4409 -499.5841 -431.1790
ENERGY: 600000 1.5132 4.0205 5.1967 0.0000 -10799.5600 1401.2647 0.0000 0.0000 1776.8421 -7610.7229 298.9460 -9387.5650 -7592.0608 301.0176 -329.2030 -334.2331 30726.7683 -516.8606 -478.9130
ENERGY: 900000 2.7082 4.7525 5.5623 0.0000 -10757.6464 1409.5543 0.0000 0.0000 1803.7901 -7531.2790 303.4799 -9335.0691 -7592.9514 300.2020 -287.1252 -273.5488 30850.9537 -395.2100 -344.4108
ENERGY: 1200000 0.3586 4.0074 5.3102 0.0000 -10774.5922 1420.3754 0.0000 0.0000 1744.8098 -7599.7308 293.5567 -9344.5406 -7589.9269 299.3358 18.8861 77.8898 30400.2964 -264.4979 -210.3506
ENERGY: 1500000 0.3147 2.4080 5.2355 0.0000 -11004.2139 1474.9371 0.0000 0.0000 1835.9303 -7685.3882 308.8874 -9521.3185 -7591.7031 299.4003 -27.7775 41.2517 30267.9588 -207.8554 -148.9558
TCL: Running FEP window  17: Lambda1 0.19999999999999968 Lambda2 0.1499999999999997 [dLambda -0.04999999999999999]
TCL: Setting parameter firsttimestep to 0
TCL: Setting parameter alchLambda to 0.19999999999999968
Info: NONBONDED TABLE R-SQUARED SPACING: 0.0625
Info: NONBONDED TABLE SIZE: 705 POINTS
TCL: Setting parameter alchLambda2 to 0.1499999999999997
Info: NONBONDED TABLE R-SQUARED SPACING: 0.0625
Info: NONBONDED TABLE SIZE: 705 POINTS
TCL: Running for 1500000 steps
ETITLE: TS BOND ANGLE DIHED IMPRP ELECT VDW BOUNDARY MISC KINETIC TOTAL TEMP POTENTIAL TOTALAVG TEMPAVG PRESSURE GPRESSURE VOLUME PRESSAVG GPRESSAVG
ENERGY: 0 0.3147 2.4080 5.2355 0.0000 -11004.2144 1474.9280 0.0000 0.0000 1835.0229 -7686.3052 308.7347 -9521.3281 -7686.3052 308.7347 -56.4309 41.4740 30267.9588 -56.4309 41.4740
ENERGY: 300000 2.3074 6.1414 5.2979 0.0000 -10917.7323 1509.7843 0.0000 0.0000 1728.7528 -7665.4486 290.8552 -9394.2014 -7639.9478 301.0898 492.2663 540.0098 30514.1981 133.6320 208.0088
ENERGY: 600000 0.7093 3.6072 5.6454 0.0000 -10856.2419 1487.1478 0.0000 0.0000 1802.3449 -7556.7875 303.2368 -9359.1324 -7623.7961 302.4078 294.3245 293.9263 30782.2214 24.3776 86.1235
ENERGY: 900000 0.7495 4.0588 4.8025 0.0000 -11093.7427 1551.6211 0.0000 0.0000 1783.8630 -7748.6478 300.1273 -9532.5108 -7635.0567 300.7885 437.0308 517.4924 30344.0870 -3.3830 60.6238
ENERGY: 1200000 0.5394 1.4711 5.3245 0.0000 -10822.5269 1488.4527 0.0000 0.0000 1783.8276 -7542.9115 300.1213 -9326.7391 -7621.9096 301.4443 431.0375 448.4898 30634.1354 24.3675 82.6474
ENERGY: 1500000 1.4382 5.9552 5.9103 0.0000 -10846.5276 1471.2504 0.0000 0.0000 1861.1425 -7500.8310 313.1292 -9361.9735 -7612.7282 301.7777 193.4299 223.8187 30975.3481 74.5874 132.1049
TCL: Running FEP window  18: Lambda1 0.1499999999999997 Lambda2 0.09999999999999969 [dLambda -0.05 ]
TCL: Setting parameter firsttimestep to 0
TCL: Setting parameter alchLambda to 0.1499999999999997
Info: NONBONDED TABLE R-SQUARED SPACING: 0.0625
Info: NONBONDED TABLE SIZE: 705 POINTS
TCL: Setting parameter alchLambda2 to 0.09999999999999969
Info: NONBONDED TABLE R-SQUARED SPACING: 0.0625
Info: NONBONDED TABLE SIZE: 705 POINTS
TCL: Running for 1500000 steps
ETITLE: TS BOND ANGLE DIHED IMPRP ELECT VDW BOUNDARY MISC KINETIC TOTAL TEMP POTENTIAL TOTALAVG TEMPAVG PRESSURE GPRESSURE VOLUME PRESSAVG GPRESSAVG
ENERGY: 0 1.4382 5.9552 5.9103 0.0000 -10846.5266 1471.5240 0.0000 0.0000 1860.2887 -7501.4102 312.9856 -9361.6989 -7501.4102 312.9856 139.4678 221.9398 30975.3481 139.4678 221.9398
ENERGY: 300000 0.4366 3.6864 4.9547 0.0000 -10957.0978 1590.9544 0.0000 0.0000 1831.4049 -7525.6607 308.1260 -9357.0656 -7552.7167 304.6321 907.8176 1077.1743 30789.4114 258.8864 355.1809
ENERGY: 600000 1.5662 2.7262 4.8965 0.0000 -10761.7291 1456.3934 0.0000 0.0000 1821.0631 -7475.0837 306.3860 -9296.1469 -7548.0627 303.7330 141.5822 160.1506 31022.0645 148.8643 235.5845
ENERGY: 900000 0.1256 2.7419 5.2215 0.0000 -10913.2200 1537.0502 0.0000 0.0000 1755.8929 -7612.1879 295.4214 -9368.0808 -7555.0976 302.2207 594.0288 595.5274 30737.7768 267.0408 338.6999
ENERGY: 1200000 1.2281 4.4284 5.0596 0.0000 -10806.1449 1412.4090 0.0000 0.0000 1811.4556 -7571.5642 304.7696 -9383.0197 -7566.9708 302.6189 -293.1257 -271.9383 30596.8913 121.5750 183.3266
ENERGY: 1500000 1.8012 4.4423 4.9435 0.0000 -11011.1683 1586.2518 0.0000 0.0000 1797.0795 -7616.6500 302.3509 -9413.7295 -7577.5291 301.8213 994.2874 1061.9180 30437.1283 111.1021 173.9115
TCL: Running FEP window  19: Lambda1 0.09999999999999969 Lambda2 0.049999999999999684 [dLambda -0.05 ]
TCL: Setting parameter firsttimestep to 0
TCL: Setting parameter alchLambda to 0.09999999999999969
Info: NONBONDED TABLE R-SQUARED SPACING: 0.0625
Info: NONBONDED TABLE SIZE: 705 POINTS
TCL: Setting parameter alchLambda2 to 0.049999999999999684
Info: NONBONDED TABLE R-SQUARED SPACING: 0.0625
Info: NONBONDED TABLE SIZE: 705 POINTS
TCL: Running for 1500000 steps
ETITLE: TS BOND ANGLE DIHED IMPRP ELECT VDW BOUNDARY MISC KINETIC TOTAL TEMP POTENTIAL TOTALAVG TEMPAVG PRESSURE GPRESSURE VOLUME PRESSAVG GPRESSAVG
ENERGY: 0 1.8012 4.4423 4.9435 0.0000 -11011.1688 1585.7668 0.0000 0.0000 1796.2225 -7617.9924 302.2067 -9414.2149 -7617.9924 302.2067 979.5795 1058.8265 30437.1283 979.5795 1058.8265
ENERGY: 300000 1.1587 3.2210 5.1452 0.0000 -10911.4291 1487.6226 0.0000 0.0000 1784.7416 -7629.5400 300.2751 -9414.2816 -7599.8599 302.3992 -134.1003 -115.6704 31112.6995 69.2174 103.4252
ENERGY: 600000 1.0082 1.3710 4.9510 0.0000 -11115.6122 1584.4887 0.0000 0.0000 1743.2505 -7780.5428 293.2944 -9523.7933 -7635.1203 299.2697 752.9737 760.4019 30217.1147 185.4764 217.6330
ENERGY: 900000 2.0935 5.7932 4.6984 0.0000 -10879.9700 1470.9877 0.0000 0.0000 1825.0989 -7571.2984 307.0650 -9396.3973 -7617.8908 299.4907 157.8337 208.5860 30578.5317 176.3976 211.2045
ENERGY: 1200000 0.5190 3.3078 5.1537 0.0000 -10804.3360 1444.1430 0.0000 0.0000 1722.8358 -7628.3767 289.8597 -9351.2125 -7621.1911 299.1377 74.7547 171.2507 30457.1560 139.4737 180.2054
ENERGY: 1500000 0.7081 3.5226 5.1525 0.0000 -11054.4259 1546.5005 0.0000 0.0000 1766.9571 -7731.5851 297.2829 -9498.5422 -7627.3589 299.1572 158.8094 223.1040 30980.6289 101.7009 147.4741
TCL: Running FEP window  20: Lambda1 0.049999999999999684 Lambda2 0.0    [dLambda -0.049999999999999684]
TCL: Setting parameter firsttimestep to 0
TCL: Setting parameter alchLambda to 0.049999999999999684
Info: NONBONDED TABLE R-SQUARED SPACING: 0.0625
Info: NONBONDED TABLE SIZE: 705 POINTS
TCL: Setting parameter alchLambda2 to 0.0
Info: NONBONDED TABLE R-SQUARED SPACING: 0.0625
Info: NONBONDED TABLE SIZE: 705 POINTS
TCL: Running for 1500000 steps
ETITLE: TS BOND ANGLE DIHED IMPRP ELECT VDW BOUNDARY MISC KINETIC TOTAL TEMP POTENTIAL TOTALAVG TEMPAVG PRESSURE GPRESSURE VOLUME PRESSAVG GPRESSAVG
ENERGY: 0 0.7081 3.5226 5.1525 0.0000 -11054.4248 1546.8013 0.0000 0.0000 1766.0694 -7732.1710 297.1336 -9498.2403 -7732.1710 297.1336 148.3535 225.2547 30980.6289 148.3535 225.2547
ENERGY: 300000 1.2815 3.1123 5.0414 0.0000 -10895.4559 1522.5823 0.0000 0.0000 1784.8419 -7578.5966 300.2920 -9363.4384 -7623.7635 302.0767 306.5605 358.2786 31069.5880 146.7326 215.6314
ENERGY: 600000 0.1416 2.4340 5.8705 0.0000 -10876.6476 1448.3027 0.0000 0.0000 1701.7782 -7718.1206 286.3169 -9419.8989 -7631.0031 301.0352 -357.0990 -307.7829 30920.0311 15.4539 74.3276
ENERGY: 900000 0.8321 5.0896 5.0810 0.0000 -11081.8594 1598.3634 0.0000 0.0000 1774.1916 -7698.3017 298.5001 -9472.4933 -7642.4883 299.8067 874.4667 898.4078 30401.9535 161.5973 218.5895
ENERGY: 1200000 0.1960 3.9705 5.2452 0.0000 -10917.8604 1413.5400 0.0000 0.0000 1796.2464 -7698.6624 302.2107 -9494.9088 -7635.8806 300.4086 -440.9274 -379.0412 30315.1478 75.9618 130.6025
ENERGY: 1500000 1.0975 4.8227 5.7707 0.0000 -10917.2330 1498.9977 0.0000 0.0000 1771.4806 -7635.0638 298.0440 -9406.5444 -7637.7111 300.4961 418.1685 495.3829 30388.9720 71.9830 126.0723
TCL: Exiting due to exit command.
