Info: SIMULATION PARAMETERS:
Info: TIMESTEP               2
Info: NUMBER OF STEPS        0
Info: STEPS PER CYCLE        10
Info: PERIODIC CELL BASIS 1  31.5944 0 0
Info: PERIODIC CELL BASIS 2  0 30.1595 0
Info: PERIODIC CELL BASIS 3  0 0 31.6005
Info: PERIODIC CELL CENTER   0 0 0
Info: WRAPPING WATERS AROUND PERIODIC BOUNDARIES ON OUTPUT.
Info: WRAPPING ALL CLUSTERS AROUND PERIODIC BOUNDARIES ON OUTPUT.
Info: FIRST LDB TIMESTEP     50
Info: LAST LDB TIMESTEP     -1
Info: HOM BACKGROUND SCALING 1
Info: PME BACKGROUND SCALING 1
Info: MIN ATOMS PER PATCH    40
Info: EMPTY PATCH LOAD       40 ATOMS
Info: VELOCITY FILE          mobley_63712_equil.vel
Info: CENTER OF MASS MOVING INITIALLY? NO
Info: DIELECTRIC             1
Info: EXCLUDE                SCALED ONE-FOUR
Info: 1-4 ELECTROSTATICS SCALED BY 0.833333
Info: MODIFIED 1-4 VDW PARAMETERS WILL BE USED
Info: DCD FILENAME           mobley_63712_prod.dcd
Info: DCD FREQUENCY          100000
Info: DCD FIRST STEP         100000
Info: DCD FILE WILL CONTAIN UNIT CELL DATA
Info: XST FILENAME           mobley_63712_prod.xst
Info: XST FREQUENCY          100000
Info: NO VELOCITY DCD OUTPUT
Info: NO FORCE DCD OUTPUT
Info: OUTPUT FILENAME        mobley_63712_prod
Info: BINARY OUTPUT FILES WILL BE USED
Info: RESTART FILENAME       mobley_63712_prod.restart
Info: RESTART FREQUENCY      100000
Info: BINARY RESTART FILES WILL BE USED
Info: CUTOFF                 9
Info: PAIRLIST DISTANCE      11
Info: PAIRLIST SHRINK RATE   0.01
Info: PAIRLIST GROW RATE     0.01
Info: PAIRLIST TRIGGER       0.3
Info: PAIRLISTS PER CYCLE    2
Info: PAIRLISTS ENABLED
Info: MARGIN                 2
Info: HYDROGEN GROUP CUTOFF  2.5
Info: PATCH DIMENSION        15.5
Info: ENERGY OUTPUT STEPS    100000
Info: ENERGY EVALUATION STEPS    100000
Info: OUTPUT ENERGY PRECISION 4
Info: CROSSTERM ENERGY INCLUDED IN DIHEDRAL
Info: TIMING OUTPUT STEPS    1000000
Info: PRESSURE OUTPUT STEPS  100000
Info: ALCHEMICAL FEP ON
Info: FEP CURRENT LAMBDA VALUE     0
Info: FEP COMPARISON LAMBDA VALUE  0.05
Info: FEP INTRA-ALCHEMICAL NON-BONDED INTERACTIONS WILL BE RETAINED
Info: FEP INTRA-ALCHEMICAL BONDED INTERACTIONS WILL BE RETAINED
Info: FEP VDW SHIFTING COEFFICIENT 5
Info: FEP ELEC. ACTIVE FOR ANNIHILATED PARTICLES BETWEEN LAMBDA = 0 AND LAMBDA = 0.5
Info: FEP ELEC. ACTIVE FOR EXNIHILATED PARTICLES BETWEEN LAMBDA = 0.5 AND LAMBDA = 1
Info: FEP VDW ACTIVE FOR ANNIHILATED PARTICLES BETWEEN LAMBDA = 0 AND LAMBDA = 1
Info: FEP VDW ACTIVE FOR EXNIHILATED PARTICLES BETWEEN LAMBDA = 0 AND LAMBDA = 1
Info: FEP BOND ACTIVE FOR ANNIHILATED PARTICLES BETWEEN LAMBDA = 1 AND LAMBDA = 1
Info: FEP BOND ACTIVE FOR EXNIHILATED PARTICLES BETWEEN LAMBDA = 0 AND LAMBDA = 0
Info: LANGEVIN DYNAMICS ACTIVE
Info: LANGEVIN TEMPERATURE   300
Info: LANGEVIN USING BBK INTEGRATOR
Info: LANGEVIN DAMPING COEFFICIENT IS 1 INVERSE PS
Info: LANGEVIN DYNAMICS APPLIED TO HYDROGENS
Info: LANGEVIN PISTON PRESSURE CONTROL ACTIVE
Info:        TARGET PRESSURE IS 1.01325 BAR
Info:     OSCILLATION PERIOD IS 50 FS
Info:             DECAY TIME IS 25 FS
Info:     PISTON TEMPERATURE IS 300 K
Info:       PRESSURE CONTROL IS GROUP-BASED
Info:    INITIAL STRAIN RATE IS -0.000133983 -0.000133983 -0.000133983
Info:       CELL FLUCTUATION IS ISOTROPIC
Info: PARTICLE MESH EWALD (PME) ACTIVE
Info: PME TOLERANCE               1e-06
Info: PME EWALD COEFFICIENT       0.348832
Info: PME INTERPOLATION ORDER     4
Info: PME GRID DIMENSIONS         32 32 32
Info: PME MAXIMUM GRID SPACING    1
Info: PME CALCULATION WILL BE PERFORMED ON GPU
Info: FULL ELECTROSTATIC EVALUATION FREQUENCY      2
Info: USING VERLET I (r-RESPA) MTS SCHEME.
Info: C1 SPLITTING OF LONG RANGE ELECTROSTATICS
Info: PLACING ATOMS IN PATCHES BY HYDROGEN GROUPS
Info: RIGID BONDS TO HYDROGEN : ALL
Info:         ERROR TOLERANCE : 1e-08
Info:          MAX ITERATIONS : 100
Info: RIGID WATER USING SETTLE ALGORITHM
Info: RANDOM NUMBER SEED     1743622306
Info: USE HYDROGEN BONDS?    NO
Info: Using AMBER format force field!
Info: AMBER PARM FILE        mobley_63712.prmtop
Info: COORDINATE PDB         mobley_63712.pdb
Info: Exclusions will be read from PARM file!
Info: SCNB (VDW SCALING)     2
Info: USING ARITHMETIC MEAN TO COMBINE L-J SIGMA PARAMETERS
Info: BINARY COORDINATES     mobley_63712_equil.coor
Info: SUMMARY OF PARAMETERS:
Info: 6 BONDS
Info: 8 ANGLES
Info:   8 HARMONIC
Info:   0 COSINE-BASED
Info: 8 DIHEDRAL
Info: 0 IMPROPER
Info: 0 CROSSTERM
Info: 0 VDW
Info: 21 VDW_PAIRS
Info: 0 NBTHOLE_PAIRS
Info: To read alchdata from file: mobley_63712.pdb
Info: To read alchflag data from column: 5
Info: STRUCTURE SUMMARY:
Info: 2954 ATOMS
Info: 2954 BONDS
Info: 39 ANGLES
Info: 62 DIHEDRALS
Info: 0 IMPROPERS
Info: 0 CROSSTERMS
Info: 3044 EXCLUSIONS
Info: 2947 RIGID BONDS
Info: ALCH: 0 ATOMS TO DISAPPEAR IN FINAL STATE
Info: ALCH: 20 ATOMS TO APPEAR IN FINAL STATE
Info: 5915 DEGREES OF FREEDOM
Info: 985 HYDROGEN GROUPS
Info: 4 ATOMS IN LARGEST HYDROGEN GROUP
Info: 985 MIGRATION GROUPS
Info: 4 ATOMS IN LARGEST MIGRATION GROUP
Info: TOTAL MASS = 17718.8 amu
Info: TOTAL CHARGE = -1.11759e-08 e
Info: MASS DENSITY = 0.977161 g/cm^3
Info: ATOM DENSITY = 0.098103 atoms/A^3
Info: ADDED 0 IMPLICIT EXCLUSIONS
Info: NONBONDED TABLE R-SQUARED SPACING: 0.0625
Info: NONBONDED TABLE SIZE: 705 POINTS
Info: REMOVING COM VELOCITY 0.0500867 -0.0846575 0.157415
Info: Use 3D box decompostion in PME FFT.
Info: Updated CUDA force table with 4096 elements.
Info: Updated CUDA LJ table with 6 x 6 elements.
Info: Found 23 unique exclusion lists needing 64 bytes
TCL: Running for 1500000 steps
ETITLE: TS BOND ANGLE DIHED IMPRP ELECT VDW BOUNDARY MISC KINETIC TOTAL TEMP POTENTIAL TOTALAVG TEMPAVG PRESSURE GPRESSURE VOLUME PRESSAVG GPRESSAVG
ENERGY: 0 3.1544 7.1862 3.1351 0.0000 -10740.8487 1458.8042 0.0000 0.0000 1744.9383 -7523.6304 296.9038 -9268.5687 -7523.6304 296.9038 146.8955 233.6093 30111.1986 146.8955 233.6093
ENERGY: 300000 1.1461 7.4378 3.2645 0.0000 -10860.0168 1564.1888 0.0000 0.0000 1778.0335 -7505.9461 302.5350 -9283.9796 -7470.9505 302.9193 454.3470 567.4557 30367.2672 610.2970 703.7906
ENERGY: 600000 2.3509 10.4477 3.1270 0.0000 -10739.2472 1523.0943 0.0000 0.0000 1758.1603 -7442.0670 299.1535 -9200.2273 -7474.7260 300.3586 720.6093 802.4756 29930.3355 546.7946 644.1986
ENERGY: 900000 2.0612 6.7628 2.8655 0.0000 -10802.6201 1508.0464 0.0000 0.0000 1725.0021 -7557.8821 293.5116 -9282.8842 -7478.6526 298.8725 916.4011 944.6154 29311.0636 476.5186 557.2075
ENERGY: 1200000 5.4397 6.0891 3.3077 0.0000 -10675.4298 1468.6496 0.0000 0.0000 1794.1349 -7397.8087 305.2746 -9191.9436 -7468.5130 299.4687 518.1629 505.5647 30068.6964 394.6426 464.7368
ENERGY: 1500000 3.9676 10.1075 3.1438 0.0000 -10578.4114 1389.2700 0.0000 0.0000 1808.4156 -7363.5069 307.7045 -9171.9226 -7456.9649 300.1467 -553.5595 -516.1635 31072.9454 285.8873 355.4619
TCL: Running FEP window   2: Lambda1 0.05   Lambda2 0.1    [dLambda 0.05  ]
TCL: Setting parameter firsttimestep to 0
TCL: Setting parameter alchLambda to 0.05
Info: NONBONDED TABLE R-SQUARED SPACING: 0.0625
Info: NONBONDED TABLE SIZE: 705 POINTS
TCL: Setting parameter alchLambda2 to 0.1
Info: NONBONDED TABLE R-SQUARED SPACING: 0.0625
Info: NONBONDED TABLE SIZE: 705 POINTS
TCL: Running for 1500000 steps
ETITLE: TS BOND ANGLE DIHED IMPRP ELECT VDW BOUNDARY MISC KINETIC TOTAL TEMP POTENTIAL TOTALAVG TEMPAVG PRESSURE GPRESSURE VOLUME PRESSAVG GPRESSAVG
ENERGY: 0 3.9676 10.1075 3.1438 0.0000 -10578.4111 1392.3111 0.0000 0.0000 1807.5325 -7361.3487 307.5543 -9168.8811 -7361.3487 307.5543 -596.7715 -507.4863 31072.9454 -596.7715 -507.4863
ENERGY: 300000 0.1810 10.6406 4.2369 0.0000 -10620.8307 1410.2074 0.0000 0.0000 1702.9261 -7492.6387 289.7553 -9195.5648 -7470.6700 297.8524 -352.1206 -299.1394 30661.6895 -420.9327 -346.8588
ENERGY: 600000 0.8918 10.9974 6.1503 0.0000 -10802.7641 1462.3503 0.0000 0.0000 1751.6553 -7570.7191 298.0467 -9322.3744 -7478.1838 298.4208 -115.2011 -53.6408 30102.4976 -226.1249 -160.8345
ENERGY: 900000 4.1853 8.4756 3.4665 0.0000 -10685.4463 1410.4137 0.0000 0.0000 1676.2011 -7582.7040 285.2080 -9258.9051 -7494.3360 296.7727 -690.9301 -605.6065 30590.5908 -192.6478 -124.4651
ENERGY: 1200000 1.0828 8.0014 3.7405 0.0000 -10755.7639 1466.7033 0.0000 0.0000 1737.4737 -7538.7622 295.6337 -9276.2359 -7493.3072 297.6500 -51.4973 -18.7521 30458.4949 -196.0958 -137.3536
ENERGY: 1500000 3.3017 9.9918 3.2883 0.0000 -10744.3149 1490.0155 0.0000 0.0000 1711.2951 -7526.4226 291.1793 -9237.7177 -7483.2787 296.9520 82.3514 171.9724 30093.4800 -222.9588 -163.9460
TCL: Running FEP window   3: Lambda1 0.1    Lambda2 0.15000000000000002 [dLambda 0.05000000000000002]
TCL: Setting parameter firsttimestep to 0
TCL: Setting parameter alchLambda to 0.1
Info: NONBONDED TABLE R-SQUARED SPACING: 0.0625
Info: NONBONDED TABLE SIZE: 705 POINTS
TCL: Setting parameter alchLambda2 to 0.15000000000000002
Info: NONBONDED TABLE R-SQUARED SPACING: 0.0625
Info: NONBONDED TABLE SIZE: 705 POINTS
TCL: Running for 1500000 steps
ETITLE: TS BOND ANGLE DIHED IMPRP ELECT VDW BOUNDARY MISC KINETIC TOTAL TEMP POTENTIAL TOTALAVG TEMPAVG PRESSURE GPRESSURE VOLUME PRESSAVG GPRESSAVG
ENERGY: 0 3.3017 9.9918 3.2883 0.0000 -10744.3147 1490.3133 0.0000 0.0000 1710.4302 -7526.9894 291.0322 -9237.4196 -7526.9894 291.0322 104.4721 174.1960 30093.4800 104.4721 174.1960
ENERGY: 300000 0.6903 11.4466 5.1242 0.0000 -10798.1249 1504.7124 0.0000 0.0000 1761.4450 -7514.7064 299.7124 -9276.1513 -7485.0332 300.1326 585.2348 575.2057 29858.2656 -116.2702 -67.6790
ENERGY: 600000 1.4683 3.9275 3.3148 0.0000 -10728.3094 1468.1825 0.0000 0.0000 1783.1393 -7468.2769 303.4037 -9251.4163 -7483.0013 300.3473 7.6469 96.9134 30261.6943 -31.5459 21.4723
ENERGY: 900000 0.7338 9.9394 3.1794 0.0000 -10606.1008 1368.5027 0.0000 0.0000 1772.0696 -7451.6759 301.5202 -9223.7455 -7459.2832 302.1295 -400.8730 -352.8713 29918.9871 65.7272 110.9763
ENERGY: 1200000 3.2677 10.4405 3.5686 0.0000 -10539.6008 1345.1124 0.0000 0.0000 1780.2250 -7396.9865 302.9079 -9177.2115 -7452.2407 302.0454 -560.6181 -492.6345 30437.2410 28.6258 84.8764
ENERGY: 1500000 1.7306 12.4507 2.9401 0.0000 -10584.1505 1352.9145 0.0000 0.0000 1774.3717 -7439.7429 301.9119 -9214.1146 -7448.1431 301.7464 -731.5725 -697.1804 30434.2395 2.2075 57.1125
TCL: Running FEP window   4: Lambda1 0.15000000000000002 Lambda2 0.2    [dLambda 0.04999999999999999]
TCL: Setting parameter firsttimestep to 0
TCL: Setting parameter alchLambda to 0.15000000000000002
Info: NONBONDED TABLE R-SQUARED SPACING: 0.0625
Info: NONBONDED TABLE SIZE: 705 POINTS
TCL: Setting parameter alchLambda2 to 0.2
Info: NONBONDED TABLE R-SQUARED SPACING: 0.0625
Info: NONBONDED TABLE SIZE: 705 POINTS
TCL: Running for 1500000 steps
ETITLE: TS BOND ANGLE DIHED IMPRP ELECT VDW BOUNDARY MISC KINETIC TOTAL TEMP POTENTIAL TOTALAVG TEMPAVG PRESSURE GPRESSURE VOLUME PRESSAVG GPRESSAVG
ENERGY: 0 1.7306 12.4507 2.9401 0.0000 -10584.1512 1354.7826 0.0000 0.0000 1773.4930 -7438.7542 301.7624 -9212.2472 -7438.7542 301.7624 -768.8871 -687.4840 30434.2395 -768.8871 -687.4840
ENERGY: 300000 2.2365 12.0974 3.0900 0.0000 -10732.0267 1479.7109 0.0000 0.0000 1773.2333 -7461.6586 301.7182 -9234.8919 -7486.0518 295.8523 37.3305 61.6110 30345.7855 -131.5963 -88.5822
ENERGY: 600000 2.6927 14.6466 4.0059 0.0000 -10659.8247 1388.1515 0.0000 0.0000 1746.5792 -7503.7488 297.1830 -9250.3280 -7484.3083 296.3571 -530.0751 -490.1534 30534.4179 -28.1531 24.6493
ENERGY: 900000 3.5738 8.0388 3.7009 0.0000 -10627.7720 1416.4402 0.0000 0.0000 1721.6909 -7474.3274 292.9482 -9196.0183 -7474.4317 297.3920 -174.4881 -119.7200 30613.2856 82.1912 120.5938
ENERGY: 1200000 2.8840 11.5287 3.7805 0.0000 -10732.8858 1511.2506 0.0000 0.0000 1765.4473 -7437.9947 300.3934 -9203.4420 -7470.2208 297.4003 600.4435 618.0886 30275.2910 78.6745 124.3252
ENERGY: 1500000 2.0707 6.0301 3.1402 0.0000 -10570.8397 1351.4804 0.0000 0.0000 1750.7767 -7457.3415 297.8972 -9208.1182 -7460.5152 297.9616 -731.1488 -695.4280 30364.5876 -30.0599 18.7351
TCL: Running FEP window   5: Lambda1 0.2    Lambda2 0.25   [dLambda 0.04999999999999999]
TCL: Setting parameter firsttimestep to 0
TCL: Setting parameter alchLambda to 0.2
Info: NONBONDED TABLE R-SQUARED SPACING: 0.0625
Info: NONBONDED TABLE SIZE: 705 POINTS
TCL: Setting parameter alchLambda2 to 0.25
Info: NONBONDED TABLE R-SQUARED SPACING: 0.0625
Info: NONBONDED TABLE SIZE: 705 POINTS
TCL: Running for 1500000 steps
ETITLE: TS BOND ANGLE DIHED IMPRP ELECT VDW BOUNDARY MISC KINETIC TOTAL TEMP POTENTIAL TOTALAVG TEMPAVG PRESSURE GPRESSURE VOLUME PRESSAVG GPRESSAVG
ENERGY: 0 2.0707 6.0301 3.1402 0.0000 -10570.8404 1352.0465 0.0000 0.0000 1749.8983 -7457.6544 297.7477 -9207.5527 -7457.6544 297.7477 -758.1079 -689.3592 30364.5876 -758.1079 -689.3592
ENERGY: 300000 2.3926 8.3703 4.0673 0.0000 -10778.8923 1577.0227 0.0000 0.0000 1815.9231 -7371.1163 308.9819 -9187.0394 -7458.3535 300.2917 1036.4081 1116.0349 30145.5745 102.6765 158.3655
ENERGY: 600000 0.9424 7.9749 3.9071 0.0000 -10750.5933 1465.4520 0.0000 0.0000 1738.9764 -7533.3405 295.8893 -9272.3170 -7483.0706 299.4652 -10.0602 27.5430 30725.0016 22.7401 71.5728
ENERGY: 900000 0.6000 8.6695 4.0184 0.0000 -10758.6779 1486.8808 0.0000 0.0000 1764.8132 -7493.6961 300.2855 -9258.5093 -7480.4767 300.3900 709.7371 764.8023 29624.5168 8.8856 66.0648
ENERGY: 1200000 1.1556 4.2628 3.2099 0.0000 -10547.4702 1425.2039 0.0000 0.0000 1734.5948 -7379.0432 295.1438 -9113.6380 -7471.4949 300.3019 -90.6685 -3.1607 30810.1476 -55.1976 -4.9208
ENERGY: 1500000 2.9034 9.1968 3.0556 0.0000 -10599.5301 1410.3179 0.0000 0.0000 1766.5418 -7407.5145 300.5796 -9174.0563 -7467.6650 300.3006 -306.8178 -322.4463 30776.2871 -59.4801 -10.8756
TCL: Running FEP window   6: Lambda1 0.25   Lambda2 0.3    [dLambda 0.04999999999999999]
TCL: Setting parameter firsttimestep to 0
TCL: Setting parameter alchLambda to 0.25
Info: NONBONDED TABLE R-SQUARED SPACING: 0.0625
Info: NONBONDED TABLE SIZE: 705 POINTS
TCL: Setting parameter alchLambda2 to 0.3
Info: NONBONDED TABLE R-SQUARED SPACING: 0.0625
Info: NONBONDED TABLE SIZE: 705 POINTS
TCL: Running for 1500000 steps
ETITLE: TS BOND ANGLE DIHED IMPRP ELECT VDW BOUNDARY MISC KINETIC TOTAL TEMP POTENTIAL TOTALAVG TEMPAVG PRESSURE GPRESSURE VOLUME PRESSAVG GPRESSAVG
ENERGY: 0 2.9034 9.1968 3.0556 0.0000 -10599.5303 1409.8821 0.0000 0.0000 1765.6746 -7408.8178 300.4321 -9174.4924 -7408.8178 300.4321 -377.4393 -320.4149 30776.2871 -377.4393 -320.4149
ENERGY: 300000 1.5206 9.7787 2.7887 0.0000 -10544.9720 1347.4646 0.0000 0.0000 1775.5748 -7407.8447 302.1166 -9183.4195 -7448.3320 298.1389 -487.4594 -451.4298 30266.2977 -304.8216 -265.3091
ENERGY: 600000 4.1223 11.9341 4.1749 0.0000 -10847.2119 1544.5670 0.0000 0.0000 1764.8368 -7517.5769 300.2895 -9282.4137 -7470.9507 299.4653 540.4953 625.8882 30167.4511 22.4770 59.4625
ENERGY: 900000 1.5459 6.9699 4.7970 0.0000 -10625.4654 1340.0511 0.0000 0.0000 1734.3517 -7537.7498 295.1024 -9272.1015 -7475.1989 299.3768 -945.9572 -939.6172 30470.4306 -157.5397 -116.4502
ENERGY: 1200000 1.2819 6.8824 3.2788 0.0000 -10573.4059 1461.4700 0.0000 0.0000 1797.7715 -7302.7212 305.8934 -9100.4928 -7463.3074 300.5885 697.4714 747.9279 30242.3940 -104.6861 -67.8019
ENERGY: 1500000 1.1343 6.0731 4.2200 0.0000 -10586.7362 1391.5933 0.0000 0.0000 1739.2508 -7444.4647 295.9360 -9183.7155 -7460.9561 300.6716 -129.6844 4.4207 29996.0879 -83.0340 -37.6941
TCL: Running FEP window   7: Lambda1 0.3    Lambda2 0.35   [dLambda 0.04999999999999999]
TCL: Setting parameter firsttimestep to 0
TCL: Setting parameter alchLambda to 0.3
Info: NONBONDED TABLE R-SQUARED SPACING: 0.0625
Info: NONBONDED TABLE SIZE: 705 POINTS
TCL: Setting parameter alchLambda2 to 0.35
Info: NONBONDED TABLE R-SQUARED SPACING: 0.0625
Info: NONBONDED TABLE SIZE: 705 POINTS
TCL: Running for 1500000 steps
ETITLE: TS BOND ANGLE DIHED IMPRP ELECT VDW BOUNDARY MISC KINETIC TOTAL TEMP POTENTIAL TOTALAVG TEMPAVG PRESSURE GPRESSURE VOLUME PRESSAVG GPRESSAVG
ENERGY: 0 1.1343 6.0731 4.2200 0.0000 -10586.7364 1393.5800 0.0000 0.0000 1738.4041 -7443.3248 295.7920 -9181.7290 -7443.3248 295.7920 -60.0103 18.8193 29996.0879 -60.0103 18.8193
ENERGY: 300000 7.0393 9.5003 3.5358 0.0000 -10573.1057 1354.7883 0.0000 0.0000 1749.4280 -7448.8140 297.6677 -9198.2420 -7429.9357 298.8450 -464.6384 -444.6738 29799.8676 75.2055 146.5999
ENERGY: 600000 1.9853 9.4922 3.3011 0.0000 -10706.2447 1409.8745 0.0000 0.0000 1801.9479 -7479.6438 306.6040 -9281.5917 -7462.5129 300.4731 -176.4945 -105.5096 30156.8559 61.7571 126.7208
ENERGY: 900000 1.9523 9.0484 3.0279 0.0000 -10804.8562 1482.7761 0.0000 0.0000 1762.7286 -7545.3229 299.9308 -9308.0515 -7480.1884 299.0136 278.0423 416.6981 29910.9849 -38.5738 34.2335
ENERGY: 1200000 1.6803 9.3681 4.4302 0.0000 -10659.7712 1451.6159 0.0000 0.0000 1734.8185 -7457.8582 295.1819 -9192.6767 -7475.7141 298.4339 95.7599 213.6319 30334.1230 -58.2021 9.4805
ENERGY: 1500000 1.2000 8.9536 4.2070 0.0000 -10590.7466 1408.9278 0.0000 0.0000 1747.4091 -7420.0491 297.3242 -9167.4582 -7468.7815 298.6597 -248.4259 -198.8124 30684.7037 -64.9731 5.7115
TCL: Running FEP window   8: Lambda1 0.35   Lambda2 0.39999999999999997 [dLambda 0.04999999999999999]
TCL: Setting parameter firsttimestep to 0
TCL: Setting parameter alchLambda to 0.35
Info: NONBONDED TABLE R-SQUARED SPACING: 0.0625
Info: NONBONDED TABLE SIZE: 705 POINTS
TCL: Setting parameter alchLambda2 to 0.39999999999999997
Info: NONBONDED TABLE R-SQUARED SPACING: 0.0625
Info: NONBONDED TABLE SIZE: 705 POINTS
TCL: Running for 1500000 steps
ETITLE: TS BOND ANGLE DIHED IMPRP ELECT VDW BOUNDARY MISC KINETIC TOTAL TEMP POTENTIAL TOTALAVG TEMPAVG PRESSURE GPRESSURE VOLUME PRESSAVG GPRESSAVG
ENERGY: 0 1.2000 8.9536 4.2070 0.0000 -10590.7464 1409.3873 0.0000 0.0000 1746.5490 -7420.4495 297.1778 -9166.9985 -7420.4495 297.1778 -273.9057 -188.8889 30684.7037 -273.9057 -188.8889
ENERGY: 300000 3.5354 8.2748 3.0390 0.0000 -10737.1255 1475.6034 0.0000 0.0000 1787.0000 -7459.6729 304.0606 -9246.6729 -7493.0760 298.0543 33.1931 130.4514 30280.9217 -160.3103 -89.3222
ENERGY: 600000 0.4805 9.0070 3.4792 0.0000 -10786.0330 1503.7351 0.0000 0.0000 1768.9733 -7500.3579 300.9934 -9269.3312 -7468.4900 298.3310 411.9030 400.4703 30462.9044 -312.7478 -254.6456
ENERGY: 900000 2.4771 6.0906 3.3033 0.0000 -10606.7336 1355.3621 0.0000 0.0000 1792.7841 -7446.7165 305.0448 -9239.5005 -7455.8808 298.3361 -124.1368 -92.2564 29749.2134 -355.9595 -293.1180
ENERGY: 1200000 4.4184 8.3445 3.0226 0.0000 -10601.6347 1382.3014 0.0000 0.0000 1771.2094 -7432.3385 301.3738 -9203.5479 -7454.6676 299.2991 -512.8748 -540.4586 30393.7384 -270.9195 -213.0593
ENERGY: 1500000 3.5740 12.3653 3.2756 0.0000 -10766.0181 1474.9425 0.0000 0.0000 1821.7550 -7450.1058 309.9742 -9271.8608 -7451.6453 300.6498 202.0394 310.4668 30149.8956 -197.4615 -138.0183
TCL: Running FEP window   9: Lambda1 0.39999999999999997 Lambda2 0.44999999999999996 [dLambda 0.04999999999999999]
TCL: Setting parameter firsttimestep to 0
TCL: Setting parameter alchLambda to 0.39999999999999997
Info: NONBONDED TABLE R-SQUARED SPACING: 0.0625
Info: NONBONDED TABLE SIZE: 705 POINTS
TCL: Setting parameter alchLambda2 to 0.44999999999999996
Info: NONBONDED TABLE R-SQUARED SPACING: 0.0625
Info: NONBONDED TABLE SIZE: 705 POINTS
TCL: Running for 1500000 steps
ETITLE: TS BOND ANGLE DIHED IMPRP ELECT VDW BOUNDARY MISC KINETIC TOTAL TEMP POTENTIAL TOTALAVG TEMPAVG PRESSURE GPRESSURE VOLUME PRESSAVG GPRESSAVG
ENERGY: 0 3.5740 12.3653 3.2756 0.0000 -10766.0183 1475.8217 0.0000 0.0000 1820.8869 -7450.0949 309.8265 -9270.9818 -7450.0949 309.8265 247.8824 325.2177 30149.8956 247.8824 325.2177
ENERGY: 300000 2.8614 9.2231 3.8029 0.0000 -10747.6386 1420.3933 0.0000 0.0000 1749.4675 -7561.8903 297.6744 -9311.3578 -7478.5292 302.5176 -401.8510 -408.2091 30165.1793 -185.0531 -136.0050
ENERGY: 600000 1.7967 13.9897 3.7408 0.0000 -10900.3118 1503.6008 0.0000 0.0000 1743.0664 -7634.1174 296.5853 -9377.1838 -7503.9174 300.8020 118.5030 224.1498 29952.1306 -13.7559 41.1605
ENERGY: 900000 1.9406 7.1163 3.6485 0.0000 -10722.5235 1531.0969 0.0000 0.0000 1764.6805 -7414.0408 300.2629 -9178.7212 -7481.7685 300.2473 744.0087 825.5372 30867.4932 -38.1855 18.1671
ENERGY: 1200000 3.4731 8.2457 3.2073 0.0000 -10721.9897 1458.2390 0.0000 0.0000 1766.8877 -7481.9369 300.6385 -9248.8246 -7482.5455 300.0468 155.8156 202.6986 30118.3444 -94.4022 -37.4763
ENERGY: 1500000 4.9719 10.8293 5.2219 0.0000 -10699.7668 1430.3612 0.0000 0.0000 1776.7157 -7471.6669 302.3107 -9248.3825 -7485.2741 300.3694 -173.5495 -99.1131 30486.5310 -63.4377 -5.4905
TCL: Running FEP window  10: Lambda1 0.44999999999999996 Lambda2 0.49999999999999994 [dLambda 0.04999999999999999]
TCL: Setting parameter firsttimestep to 0
TCL: Setting parameter alchLambda to 0.44999999999999996
Info: NONBONDED TABLE R-SQUARED SPACING: 0.0625
Info: NONBONDED TABLE SIZE: 705 POINTS
TCL: Setting parameter alchLambda2 to 0.49999999999999994
Info: NONBONDED TABLE R-SQUARED SPACING: 0.0625
Info: NONBONDED TABLE SIZE: 705 POINTS
TCL: Running for 1500000 steps
ETITLE: TS BOND ANGLE DIHED IMPRP ELECT VDW BOUNDARY MISC KINETIC TOTAL TEMP POTENTIAL TOTALAVG TEMPAVG PRESSURE GPRESSURE VOLUME PRESSAVG GPRESSAVG
ENERGY: 0 4.9719 10.8293 5.2219 0.0000 -10699.7666 1429.7573 0.0000 0.0000 1775.7995 -7473.1868 302.1548 -9248.9863 -7473.1868 302.1548 -168.5515 -96.3234 30486.5310 -168.5515 -96.3234
ENERGY: 300000 2.5182 11.4832 3.9803 0.0000 -10709.9135 1441.9548 0.0000 0.0000 1768.8472 -7481.1298 300.9719 -9249.9770 -7485.1463 301.7100 11.9534 61.0475 30375.5300 -106.7008 -63.1994
ENERGY: 600000 3.1656 10.3017 4.1183 0.0000 -10766.0965 1497.8266 0.0000 0.0000 1785.5033 -7465.1811 303.8060 -9250.6845 -7474.8117 301.2619 208.5475 299.6321 30366.9214 -145.0428 -89.2182
ENERGY: 900000 2.0838 5.4649 3.0601 0.0000 -10763.3467 1509.1152 0.0000 0.0000 1675.0594 -7568.5632 285.0138 -9243.6226 -7498.9909 298.7044 854.0680 831.2186 29838.4874 -37.2913 5.3077
ENERGY: 1200000 2.2901 9.5235 3.1471 0.0000 -10748.8826 1453.6837 0.0000 0.0000 1723.6679 -7556.5704 293.2846 -9280.2383 -7493.9254 299.4231 -228.4828 -226.4812 30766.4610 -90.8898 -51.3070
ENERGY: 1500000 1.4876 10.1612 6.6787 0.0000 -10796.5364 1453.6024 0.0000 0.0000 1782.0444 -7542.5621 303.2174 -9324.6066 -7497.6164 300.0208 -161.9878 -82.3202 29997.6245 -60.9849 -13.5320
TCL: Running FEP window  11: Lambda1 0.49999999999999994 Lambda2 0.5499999999999999 [dLambda 0.04999999999999999]
TCL: Setting parameter firsttimestep to 0
TCL: Setting parameter alchLambda to 0.49999999999999994
Info: NONBONDED TABLE R-SQUARED SPACING: 0.0625
Info: NONBONDED TABLE SIZE: 705 POINTS
TCL: Setting parameter alchLambda2 to 0.5499999999999999
Info: NONBONDED TABLE R-SQUARED SPACING: 0.0625
Info: NONBONDED TABLE SIZE: 705 POINTS
TCL: Running for 1500000 steps
ETITLE: TS BOND ANGLE DIHED IMPRP ELECT VDW BOUNDARY MISC KINETIC TOTAL TEMP POTENTIAL TOTALAVG TEMPAVG PRESSURE GPRESSURE VOLUME PRESSAVG GPRESSAVG
ENERGY: 0 1.4876 10.1612 6.6787 0.0000 -10796.5374 1453.8299 0.0000 0.0000 1781.1707 -7543.2093 303.0688 -9324.3800 -7543.2093 303.0688 -167.6576 -74.2935 29997.6245 -167.6576 -74.2935
ENERGY: 300000 1.8608 13.2872 2.8578 0.0000 -10685.1188 1375.0361 0.0000 0.0000 1688.8301 -7603.2468 287.3569 -9292.0769 -7518.4922 299.9792 -856.3467 -816.7155 30526.2477 -91.6919 -21.0003
ENERGY: 600000 2.4759 11.7812 3.9444 0.0000 -10670.9523 1400.1056 0.0000 0.0000 1749.4706 -7503.1746 297.6749 -9252.6452 -7516.0077 299.0861 -642.3065 -548.0403 30488.0031 -179.7642 -94.6268
ENERGY: 900000 1.8461 7.8890 3.4985 0.0000 -10582.2711 1330.3596 0.0000 0.0000 1725.2963 -7513.3815 293.5617 -9238.6778 -7504.2214 299.6795 -1081.8192 -1013.5448 30701.0716 -187.9477 -115.0670
ENERGY: 1200000 3.3662 13.7049 3.0105 0.0000 -10737.9383 1501.7229 0.0000 0.0000 1781.4159 -7434.7179 303.1105 -9216.1338 -7497.6287 299.6095 529.8874 591.0506 30338.3507 -183.4973 -106.4809
ENERGY: 1500000 0.9921 11.4017 4.7840 0.0000 -10571.4340 1330.4792 0.0000 0.0000 1758.2356 -7465.5415 299.1663 -9223.7770 -7486.1870 299.9359 -678.0668 -576.6294 30151.3787 -209.6321 -134.6858
TCL: Running FEP window  12: Lambda1 0.5499999999999999 Lambda2 0.6    [dLambda 0.050000000000000044]
TCL: Setting parameter firsttimestep to 0
TCL: Setting parameter alchLambda to 0.5499999999999999
Info: NONBONDED TABLE R-SQUARED SPACING: 0.0625
Info: NONBONDED TABLE SIZE: 705 POINTS
TCL: Setting parameter alchLambda2 to 0.6
Info: NONBONDED TABLE R-SQUARED SPACING: 0.0625
Info: NONBONDED TABLE SIZE: 705 POINTS
TCL: Running for 1500000 steps
ETITLE: TS BOND ANGLE DIHED IMPRP ELECT VDW BOUNDARY MISC KINETIC TOTAL TEMP POTENTIAL TOTALAVG TEMPAVG PRESSURE GPRESSURE VOLUME PRESSAVG GPRESSAVG
ENERGY: 0 0.9921 11.4017 4.7840 0.0000 -10571.2034 1329.9117 0.0000 0.0000 1757.3178 -7466.7962 299.0102 -9224.1139 -7466.7962 299.0102 -668.0060 -574.4617 30151.3787 -668.0060 -574.4617
ENERGY: 300000 0.7791 6.7781 3.9583 0.0000 -10552.2756 1388.6412 0.0000 0.0000 1769.3769 -7382.7421 301.0620 -9152.1190 -7455.1424 298.0441 -318.8083 -287.5040 31178.6170 -58.1898 15.2913
ENERGY: 600000 1.4549 7.6256 3.1527 0.0000 -10638.5143 1418.4460 0.0000 0.0000 1778.7745 -7429.0606 302.6610 -9207.8351 -7445.0892 300.4224 -182.8750 -108.6079 30640.8238 124.1687 176.4908
ENERGY: 900000 1.7142 12.2009 3.9796 0.0000 -10648.8039 1416.2446 0.0000 0.0000 1788.4972 -7426.1674 304.3154 -9214.6646 -7463.1358 299.4904 32.6351 50.0161 30206.3109 86.3503 132.4950
ENERGY: 1200000 1.6516 10.7033 4.2790 0.0000 -10736.1039 1457.2781 0.0000 0.0000 1815.9423 -7446.2497 308.9852 -9262.1920 -7461.8468 301.0750 -68.8720 -54.6585 30467.3623 120.9353 163.3386
ENERGY: 1500000 2.0675 8.2664 3.5516 0.0000 -10782.4011 1462.6552 0.0000 0.0000 1749.1798 -7556.6806 297.6255 -9305.8604 -7460.9275 301.4163 92.1223 210.7694 29840.5093 114.5997 162.2157
TCL: Running FEP window  13: Lambda1 0.6    Lambda2 0.65   [dLambda 0.050000000000000044]
TCL: Setting parameter firsttimestep to 0
TCL: Setting parameter alchLambda to 0.6
Info: NONBONDED TABLE R-SQUARED SPACING: 0.0625
Info: NONBONDED TABLE SIZE: 705 POINTS
TCL: Setting parameter alchLambda2 to 0.65
Info: NONBONDED TABLE R-SQUARED SPACING: 0.0625
Info: NONBONDED TABLE SIZE: 705 POINTS
TCL: Running for 1500000 steps
ETITLE: TS BOND ANGLE DIHED IMPRP ELECT VDW BOUNDARY MISC KINETIC TOTAL TEMP POTENTIAL TOTALAVG TEMPAVG PRESSURE GPRESSURE VOLUME PRESSAVG GPRESSAVG
ENERGY: 0 2.0675 8.2664 3.5516 0.0000 -10782.7537 1462.8639 0.0000 0.0000 1748.3152 -7557.6890 297.4784 -9306.0042 -7557.6890 297.4784 137.9671 223.1679 29840.5093 137.9671 223.1679
ENERGY: 300000 1.4164 11.2604 3.6325 0.0000 -10565.7786 1350.1384 0.0000 0.0000 1765.5556 -7433.7754 300.4118 -9199.3310 -7464.6374 298.7493 -629.8319 -565.5956 30487.2645 -194.6337 -82.9052
ENERGY: 600000 2.7920 8.4162 3.2140 0.0000 -10747.0409 1415.5978 0.0000 0.0000 1755.1103 -7561.9105 298.6346 -9317.0208 -7495.4086 297.3312 -207.5820 -126.1489 29850.1352 -297.6812 -197.7999
ENERGY: 900000 3.3867 11.2548 6.0115 0.0000 -10826.8940 1494.1370 0.0000 0.0000 1802.4833 -7509.6206 306.6951 -9312.1039 -7498.3130 297.5857 55.9115 112.1823 30610.7372 -232.1734 -145.6366
ENERGY: 1200000 1.9081 6.9730 2.7717 0.0000 -10675.0013 1341.5277 0.0000 0.0000 1781.3846 -7540.4362 303.1052 -9321.8208 -7492.8803 299.8661 -892.7036 -729.4044 29933.4754 -226.5353 -143.7465
ENERGY: 1500000 4.0586 7.3105 2.8503 0.0000 -10635.7651 1441.9059 0.0000 0.0000 1736.4176 -7443.2222 295.4540 -9179.6398 -7487.5915 299.5711 159.8342 217.5828 30447.2636 -141.9259 -66.2055
TCL: Running FEP window  14: Lambda1 0.65   Lambda2 0.7000000000000001 [dLambda 0.050000000000000044]
TCL: Setting parameter firsttimestep to 0
TCL: Setting parameter alchLambda to 0.65
Info: NONBONDED TABLE R-SQUARED SPACING: 0.0625
Info: NONBONDED TABLE SIZE: 705 POINTS
TCL: Setting parameter alchLambda2 to 0.7000000000000001
Info: NONBONDED TABLE R-SQUARED SPACING: 0.0625
Info: NONBONDED TABLE SIZE: 705 POINTS
TCL: Running for 1500000 steps
ETITLE: TS BOND ANGLE DIHED IMPRP ELECT VDW BOUNDARY MISC KINETIC TOTAL TEMP POTENTIAL TOTALAVG TEMPAVG PRESSURE GPRESSURE VOLUME PRESSAVG GPRESSAVG
ENERGY: 0 4.0586 7.3105 2.8503 0.0000 -10635.9731 1442.2183 0.0000 0.0000 1735.5402 -7443.9952 295.3047 -9179.5354 -7443.9952 295.3047 151.7292 228.7496 30447.2636 151.7292 228.7496
ENERGY: 300000 3.0079 6.2005 3.3107 0.0000 -10819.7595 1519.6781 0.0000 0.0000 1749.4731 -7538.0893 297.6754 -9287.5623 -7472.6364 297.9701 239.3287 312.7642 30409.9909 272.6677 352.1506
ENERGY: 600000 2.7622 10.9342 3.4608 0.0000 -10567.3533 1383.3161 0.0000 0.0000 1787.5674 -7379.3127 304.1572 -9166.8801 -7468.2913 298.6584 -422.8456 -397.5271 30705.3005 44.8891 105.3938
ENERGY: 900000 1.0287 15.1007 4.2235 0.0000 -10615.8842 1355.0101 0.0000 0.0000 1748.3055 -7492.2157 297.4767 -9240.5212 -7471.2706 299.5567 -558.3188 -499.2881 30352.0885 65.6423 120.0772
ENERGY: 1200000 2.1932 7.3202 3.1397 0.0000 -10722.0148 1484.5926 0.0000 0.0000 1789.4150 -7435.3542 304.4715 -9224.7692 -7462.6942 300.3234 453.3184 497.0839 30215.3574 27.1481 83.4050
ENERGY: 1500000 4.0719 7.0610 3.2992 0.0000 -10586.7921 1362.9672 0.0000 0.0000 1746.3318 -7463.0611 297.1409 -9209.3928 -7463.8041 299.9841 -657.1730 -594.0098 30363.5096 -0.0550 61.0771
TCL: Running FEP window  15: Lambda1 0.7000000000000001 Lambda2 0.7500000000000001 [dLambda 0.050000000000000044]
TCL: Setting parameter firsttimestep to 0
TCL: Setting parameter alchLambda to 0.7000000000000001
Info: NONBONDED TABLE R-SQUARED SPACING: 0.0625
Info: NONBONDED TABLE SIZE: 705 POINTS
TCL: Setting parameter alchLambda2 to 0.7500000000000001
Info: NONBONDED TABLE R-SQUARED SPACING: 0.0625
Info: NONBONDED TABLE SIZE: 705 POINTS
TCL: Running for 1500000 steps
ETITLE: TS BOND ANGLE DIHED IMPRP ELECT VDW BOUNDARY MISC KINETIC TOTAL TEMP POTENTIAL TOTALAVG TEMPAVG PRESSURE GPRESSURE VOLUME PRESSAVG GPRESSAVG
ENERGY: 0 4.0719 7.0610 3.2992 0.0000 -10586.8190 1362.8941 0.0000 0.0000 1745.4202 -7464.0727 296.9858 -9209.4929 -7464.0727 296.9858 -664.5465 -584.6474 30363.5096 -664.5465 -584.6474
ENERGY: 300000 1.7571 9.0320 3.0731 0.0000 -10741.9610 1469.3725 0.0000 0.0000 1782.5785 -7476.1477 303.3083 -9258.7262 -7504.4626 297.4978 337.0197 449.4492 29994.4837 -92.4664 -15.4831
ENERGY: 600000 1.7406 11.4414 3.0875 0.0000 -10605.3372 1371.0148 0.0000 0.0000 1777.1907 -7440.8622 302.3916 -9218.0530 -7488.2990 300.1759 -814.6300 -683.0444 30798.6183 -48.8372 49.7927
ENERGY: 900000 3.0260 11.5392 3.3872 0.0000 -10643.6223 1433.1742 0.0000 0.0000 1772.9011 -7419.5947 301.6617 -9192.4958 -7477.8219 299.8250 51.9124 75.6248 30496.1374 -69.9635 15.2185
ENERGY: 1200000 4.2848 7.8334 3.4124 0.0000 -10933.8107 1577.4864 0.0000 0.0000 1758.9301 -7581.8636 299.2845 -9340.7937 -7471.5604 300.5234 770.1238 783.9018 29976.5647 -22.4632 55.1037
ENERGY: 1500000 1.4665 9.5077 3.1917 0.0000 -10629.4172 1396.5149 0.0000 0.0000 1740.9677 -7477.7687 296.2282 -9218.7364 -7476.5107 300.4616 -192.4073 -151.4240 30400.9713 -5.7754 67.0365
TCL: Running FEP window  16: Lambda1 0.7500000000000001 Lambda2 0.8000000000000002 [dLambda 0.050000000000000044]
TCL: Setting parameter firsttimestep to 0
TCL: Setting parameter alchLambda to 0.7500000000000001
Info: NONBONDED TABLE R-SQUARED SPACING: 0.0625
Info: NONBONDED TABLE SIZE: 705 POINTS
TCL: Setting parameter alchLambda2 to 0.8000000000000002
Info: NONBONDED TABLE R-SQUARED SPACING: 0.0625
Info: NONBONDED TABLE SIZE: 705 POINTS
TCL: Running for 1500000 steps
ETITLE: TS BOND ANGLE DIHED IMPRP ELECT VDW BOUNDARY MISC KINETIC TOTAL TEMP POTENTIAL TOTALAVG TEMPAVG PRESSURE GPRESSURE VOLUME PRESSAVG GPRESSAVG
ENERGY: 0 1.4665 9.5077 3.1917 0.0000 -10631.2024 1397.3285 0.0000 0.0000 1740.0912 -7479.6169 296.0790 -9219.7080 -7479.6169 296.0790 -219.3737 -134.9476 30400.9713 -219.3737 -134.9476
ENERGY: 300000 2.4103 8.1884 3.4221 0.0000 -10603.9991 1399.5378 0.0000 0.0000 1730.1492 -7460.2913 294.3874 -9190.4405 -7467.2594 297.3393 -387.4676 -323.3864 30642.8393 -77.8467 -22.9802
ENERGY: 600000 1.9048 6.1698 3.5958 0.0000 -10590.2691 1426.1310 0.0000 0.0000 1757.6119 -7394.8558 299.0602 -9152.4677 -7459.2932 299.1031 192.5177 217.0590 30487.1810 56.2831 94.7964
ENERGY: 900000 3.8822 12.1819 3.2271 0.0000 -10579.6320 1371.3009 0.0000 0.0000 1766.7267 -7422.3132 300.6111 -9189.0399 -7445.5167 300.8330 -351.7299 -299.5982 30262.1147 79.5192 119.8774
ENERGY: 1200000 1.2479 10.3859 4.3340 0.0000 -10515.1108 1351.8975 0.0000 0.0000 1775.7019 -7371.5436 302.1382 -9147.2455 -7445.1769 301.1996 -807.8108 -739.8907 30837.0514 -33.7625 20.5883
ENERGY: 1500000 2.9370 9.1908 3.8510 0.0000 -10588.4888 1405.8499 0.0000 0.0000 1695.8473 -7470.8127 288.5509 -9166.6600 -7450.9485 299.8527 -304.1814 -274.1147 30866.4508 -8.3025 42.6789
TCL: Running FEP window  17: Lambda1 0.8000000000000002 Lambda2 0.8500000000000002 [dLambda 0.050000000000000044]
TCL: Setting parameter firsttimestep to 0
TCL: Setting parameter alchLambda to 0.8000000000000002
Info: NONBONDED TABLE R-SQUARED SPACING: 0.0625
Info: NONBONDED TABLE SIZE: 705 POINTS
TCL: Setting parameter alchLambda2 to 0.8500000000000002
Info: NONBONDED TABLE R-SQUARED SPACING: 0.0625
Info: NONBONDED TABLE SIZE: 705 POINTS
TCL: Running for 1500000 steps
ETITLE: TS BOND ANGLE DIHED IMPRP ELECT VDW BOUNDARY MISC KINETIC TOTAL TEMP POTENTIAL TOTALAVG TEMPAVG PRESSURE GPRESSURE VOLUME PRESSAVG GPRESSAVG
ENERGY: 0 2.9370 9.1908 3.8510 0.0000 -10589.5358 1406.0246 0.0000 0.0000 1694.9702 -7472.5621 288.4016 -9167.5323 -7472.5621 288.4016 -349.2010 -263.0661 30866.4508 -349.2010 -263.0661
ENERGY: 300000 1.7775 7.0730 3.3726 0.0000 -10695.5554 1424.8678 0.0000 0.0000 1779.2503 -7479.2141 302.7420 -9258.4644 -7476.2640 298.6212 93.9157 102.2695 30141.4220 -96.5652 -26.1393
ENERGY: 600000 1.6926 6.7537 2.9762 0.0000 -10673.6640 1458.1061 0.0000 0.0000 1761.6453 -7442.4900 299.7465 -9204.1353 -7487.1732 298.9144 116.7548 195.7146 30440.5664 -204.5184 -135.3084
ENERGY: 900000 0.4164 9.1023 3.1695 0.0000 -10740.4974 1478.6744 0.0000 0.0000 1773.4778 -7475.6569 301.7598 -9249.1347 -7468.2320 300.5180 42.3036 87.7339 31244.7525 -227.5112 -162.5432
ENERGY: 1200000 2.9750 10.0656 3.2514 0.0000 -10524.4739 1355.9905 0.0000 0.0000 1754.1231 -7398.0683 298.4666 -9152.1914 -7458.7039 301.3290 -433.2963 -405.0488 30446.7156 -204.9114 -145.4871
ENERGY: 1500000 0.8085 8.6701 3.5524 0.0000 -10624.8003 1396.5942 0.0000 0.0000 1735.2838 -7479.8913 295.2610 -9215.1751 -7472.3382 300.7216 -152.1973 -93.3366 30307.7482 -253.7675 -189.6568
TCL: Running FEP window  18: Lambda1 0.8500000000000002 Lambda2 0.9000000000000002 [dLambda 0.050000000000000044]
TCL: Setting parameter firsttimestep to 0
TCL: Setting parameter alchLambda to 0.8500000000000002
Info: NONBONDED TABLE R-SQUARED SPACING: 0.0625
Info: NONBONDED TABLE SIZE: 705 POINTS
TCL: Setting parameter alchLambda2 to 0.9000000000000002
Info: NONBONDED TABLE R-SQUARED SPACING: 0.0625
Info: NONBONDED TABLE SIZE: 705 POINTS
TCL: Running for 1500000 steps
ETITLE: TS BOND ANGLE DIHED IMPRP ELECT VDW BOUNDARY MISC KINETIC TOTAL TEMP POTENTIAL TOTALAVG TEMPAVG PRESSURE GPRESSURE VOLUME PRESSAVG GPRESSAVG
ENERGY: 0 0.8085 8.6701 3.5524 0.0000 -10625.6680 1397.6398 0.0000 0.0000 1734.4312 -7480.5661 295.1160 -9214.9973 -7480.5661 295.1160 -157.3622 -71.3056 30307.7482 -157.3622 -71.3056
ENERGY: 300000 3.4537 8.8611 4.4672 0.0000 -10641.3496 1398.6946 0.0000 0.0000 1748.4234 -7477.4496 297.4968 -9225.8730 -7518.8371 293.7035 -238.1645 -185.5217 30389.3196 -381.4623 -318.1636
ENERGY: 600000 0.7287 13.2772 2.8293 0.0000 -10579.8622 1375.8797 0.0000 0.0000 1734.4803 -7452.6671 295.1243 -9187.1475 -7491.9154 296.8500 -333.0380 -298.7108 30238.5126 -113.0308 -60.3398
ENERGY: 900000 4.1630 7.2566 4.1441 0.0000 -10771.1575 1462.0494 0.0000 0.0000 1812.0813 -7481.4632 308.3282 -9293.5444 -7466.8220 299.5284 43.8836 163.5289 30328.8740 -95.2495 -33.0445
ENERGY: 1200000 3.0732 10.7312 3.0828 0.0000 -10610.5999 1419.3504 0.0000 0.0000 1750.4186 -7423.9437 297.8362 -9174.3623 -7451.7304 300.9595 -197.2208 -178.4133 30610.8528 -23.9633 32.4979
ENERGY: 1500000 1.5524 9.2566 3.7465 0.0000 -10678.1496 1397.5704 0.0000 0.0000 1739.0929 -7526.9308 295.9092 -9266.0237 -7465.6687 300.3468 -237.1097 -135.0415 30061.2586 20.6209 82.3763
TCL: Running FEP window  19: Lambda1 0.9000000000000002 Lambda2 0.9500000000000003 [dLambda 0.050000000000000044]
TCL: Setting parameter firsttimestep to 0
TCL: Setting parameter alchLambda to 0.9000000000000002
Info: NONBONDED TABLE R-SQUARED SPACING: 0.0625
Info: NONBONDED TABLE SIZE: 705 POINTS
TCL: Setting parameter alchLambda2 to 0.9500000000000003
Info: NONBONDED TABLE R-SQUARED SPACING: 0.0625
Info: NONBONDED TABLE SIZE: 705 POINTS
TCL: Running for 1500000 steps
ETITLE: TS BOND ANGLE DIHED IMPRP ELECT VDW BOUNDARY MISC KINETIC TOTAL TEMP POTENTIAL TOTALAVG TEMPAVG PRESSURE GPRESSURE VOLUME PRESSAVG GPRESSAVG
ENERGY: 0 1.5524 9.2566 3.7465 0.0000 -10678.8558 1398.2278 0.0000 0.0000 1738.2206 -7527.8519 295.7607 -9266.0725 -7527.8519 295.7607 -200.6079 -116.2587 30061.2586 -200.6079 -116.2587
ENERGY: 300000 3.1028 11.5001 3.9284 0.0000 -10654.5359 1444.2524 0.0000 0.0000 1729.0130 -7462.7392 294.1941 -9191.7523 -7512.8310 293.5889 -74.8723 11.9584 30380.5723 15.2850 87.6139
ENERGY: 600000 4.1047 9.3047 3.8243 0.0000 -10629.4240 1405.9326 0.0000 0.0000 1766.6692 -7439.5886 300.6013 -9206.2577 -7505.8409 297.2199 -210.3523 -201.8271 30523.2566 -132.3405 -68.3298
ENERGY: 900000 2.0871 12.5626 3.4617 0.0000 -10530.9969 1298.0256 0.0000 0.0000 1759.6416 -7455.2183 299.4056 -9214.8599 -7485.2953 298.4403 -1022.4570 -897.4909 30183.1987 -221.9380 -163.3968
ENERGY: 1200000 1.3423 10.9317 3.1490 0.0000 -10703.4090 1475.7744 0.0000 0.0000 1778.4919 -7433.7198 302.6130 -9212.2116 -7473.9711 299.5506 467.8938 586.7853 30110.5257 -126.7969 -60.1587
ENERGY: 1500000 4.7229 7.0200 3.0114 0.0000 -10621.7580 1403.6016 0.0000 0.0000 1735.1282 -7468.2739 295.2346 -9203.4021 -7476.0192 300.4330 -322.0554 -294.6303 30515.8131 -174.3245 -109.3663
TCL: Running FEP window  20: Lambda1 0.9500000000000003 Lambda2 1.0    [dLambda 0.04999999999999971]
TCL: Setting parameter firsttimestep to 0
TCL: Setting parameter alchLambda to 0.9500000000000003
Info: NONBONDED TABLE R-SQUARED SPACING: 0.0625
Info: NONBONDED TABLE SIZE: 705 POINTS
TCL: Setting parameter alchLambda2 to 1.0
Info: NONBONDED TABLE R-SQUARED SPACING: 0.0625
Info: NONBONDED TABLE SIZE: 705 POINTS
TCL: Running for 1500000 steps
ETITLE: TS BOND ANGLE DIHED IMPRP ELECT VDW BOUNDARY MISC KINETIC TOTAL TEMP POTENTIAL TOTALAVG TEMPAVG PRESSURE GPRESSURE VOLUME PRESSAVG GPRESSAVG
ENERGY: 0 4.7229 7.0200 3.0114 0.0000 -10622.5749 1405.7634 0.0000 0.0000 1734.2375 -7467.8196 295.0830 -9202.0571 -7467.8196 295.0830 -338.4859 -259.7323 30515.8131 -338.4859 -259.7323
ENERGY: 300000 0.7250 7.6548 4.9713 0.0000 -10776.9713 1492.3238 0.0000 0.0000 1712.3168 -7558.9797 291.3532 -9271.2964 -7477.9077 294.5532 446.3344 587.2654 29944.3414 -180.8213 -76.8528
ENERGY: 600000 1.4067 7.3208 3.3312 0.0000 -10545.8295 1321.8935 0.0000 0.0000 1778.0356 -7433.8416 302.5353 -9211.8772 -7457.5669 298.1502 -830.4062 -780.4138 30504.4412 -459.2639 -364.2679
ENERGY: 900000 1.8375 10.2879 2.8425 0.0000 -10742.6758 1515.5158 0.0000 0.0000 1768.9582 -7443.2339 300.9908 -9212.1921 -7462.4653 298.8255 792.1516 879.9671 30250.0843 -227.9111 -137.2780
ENERGY: 1200000 1.0034 8.7799 2.7345 0.0000 -10586.2881 1385.6872 0.0000 0.0000 1738.7511 -7449.3320 295.8510 -9188.0830 -7477.8918 298.0483 -456.8167 -362.1716 30796.3687 -248.3823 -160.8409
ENERGY: 1500000 3.2741 8.6328 3.1371 0.0000 -10898.6847 1541.1022 0.0000 0.0000 1759.2122 -7583.3264 299.3325 -9342.5385 -7494.0127 297.5507 637.0232 673.1590 30103.7279 -157.6869 -79.7295
TCL: Exiting due to exit command.
