Info: SIMULATION PARAMETERS:
Info: TIMESTEP               2
Info: NUMBER OF STEPS        0
Info: STEPS PER CYCLE        10
Info: PERIODIC CELL BASIS 1  31.9266 0 0
Info: PERIODIC CELL BASIS 2  0 30.1482 0
Info: PERIODIC CELL BASIS 3  0 0 31.5526
Info: PERIODIC CELL CENTER   0 0 0
Info: WRAPPING WATERS AROUND PERIODIC BOUNDARIES ON OUTPUT.
Info: WRAPPING ALL CLUSTERS AROUND PERIODIC BOUNDARIES ON OUTPUT.
Info: FIRST LDB TIMESTEP     50
Info: LAST LDB TIMESTEP     -1
Info: HOM BACKGROUND SCALING 1
Info: PME BACKGROUND SCALING 1
Info: MIN ATOMS PER PATCH    40
Info: EMPTY PATCH LOAD       40 ATOMS
Info: VELOCITY FILE          mobley_1733799_equil.vel
Info: CENTER OF MASS MOVING INITIALLY? NO
Info: DIELECTRIC             1
Info: EXCLUDE                SCALED ONE-FOUR
Info: 1-4 ELECTROSTATICS SCALED BY 0.833333
Info: MODIFIED 1-4 VDW PARAMETERS WILL BE USED
Info: DCD FILENAME           mobley_1733799_prod.dcd
Info: DCD FREQUENCY          100000
Info: DCD FIRST STEP         100000
Info: DCD FILE WILL CONTAIN UNIT CELL DATA
Info: XST FILENAME           mobley_1733799_prod.xst
Info: XST FREQUENCY          100000
Info: NO VELOCITY DCD OUTPUT
Info: NO FORCE DCD OUTPUT
Info: OUTPUT FILENAME        mobley_1733799_prod
Info: BINARY OUTPUT FILES WILL BE USED
Info: RESTART FILENAME       mobley_1733799_prod.restart
Info: RESTART FREQUENCY      100000
Info: BINARY RESTART FILES WILL BE USED
Info: CUTOFF                 9
Info: PAIRLIST DISTANCE      11
Info: PAIRLIST SHRINK RATE   0.01
Info: PAIRLIST GROW RATE     0.01
Info: PAIRLIST TRIGGER       0.3
Info: PAIRLISTS PER CYCLE    2
Info: PAIRLISTS ENABLED
Info: MARGIN                 2
Info: HYDROGEN GROUP CUTOFF  2.5
Info: PATCH DIMENSION        15.5
Info: ENERGY OUTPUT STEPS    100000
Info: ENERGY EVALUATION STEPS    100000
Info: OUTPUT ENERGY PRECISION 4
Info: CROSSTERM ENERGY INCLUDED IN DIHEDRAL
Info: TIMING OUTPUT STEPS    1000000
Info: PRESSURE OUTPUT STEPS  100000
Info: ALCHEMICAL FEP ON
Info: FEP CURRENT LAMBDA VALUE     0
Info: FEP COMPARISON LAMBDA VALUE  0.05
Info: FEP INTRA-ALCHEMICAL NON-BONDED INTERACTIONS WILL BE RETAINED
Info: FEP INTRA-ALCHEMICAL BONDED INTERACTIONS WILL BE RETAINED
Info: FEP VDW SHIFTING COEFFICIENT 5
Info: FEP ELEC. ACTIVE FOR ANNIHILATED PARTICLES BETWEEN LAMBDA = 0 AND LAMBDA = 0.5
Info: FEP ELEC. ACTIVE FOR EXNIHILATED PARTICLES BETWEEN LAMBDA = 0.5 AND LAMBDA = 1
Info: FEP VDW ACTIVE FOR ANNIHILATED PARTICLES BETWEEN LAMBDA = 0 AND LAMBDA = 1
Info: FEP VDW ACTIVE FOR EXNIHILATED PARTICLES BETWEEN LAMBDA = 0 AND LAMBDA = 1
Info: FEP BOND ACTIVE FOR ANNIHILATED PARTICLES BETWEEN LAMBDA = 1 AND LAMBDA = 1
Info: FEP BOND ACTIVE FOR EXNIHILATED PARTICLES BETWEEN LAMBDA = 0 AND LAMBDA = 0
Info: LANGEVIN DYNAMICS ACTIVE
Info: LANGEVIN TEMPERATURE   300
Info: LANGEVIN USING BBK INTEGRATOR
Info: LANGEVIN DAMPING COEFFICIENT IS 1 INVERSE PS
Info: LANGEVIN DYNAMICS APPLIED TO HYDROGENS
Info: LANGEVIN PISTON PRESSURE CONTROL ACTIVE
Info:        TARGET PRESSURE IS 1.01325 BAR
Info:     OSCILLATION PERIOD IS 50 FS
Info:             DECAY TIME IS 25 FS
Info:     PISTON TEMPERATURE IS 300 K
Info:       PRESSURE CONTROL IS GROUP-BASED
Info:    INITIAL STRAIN RATE IS 1.85336e-05 1.85336e-05 1.85336e-05
Info:       CELL FLUCTUATION IS ISOTROPIC
Info: PARTICLE MESH EWALD (PME) ACTIVE
Info: PME TOLERANCE               1e-06
Info: PME EWALD COEFFICIENT       0.348832
Info: PME INTERPOLATION ORDER     4
Info: PME GRID DIMENSIONS         32 32 32
Info: PME MAXIMUM GRID SPACING    1
Info: PME CALCULATION WILL BE PERFORMED ON GPU
Info: FULL ELECTROSTATIC EVALUATION FREQUENCY      2
Info: USING VERLET I (r-RESPA) MTS SCHEME.
Info: C1 SPLITTING OF LONG RANGE ELECTROSTATICS
Info: PLACING ATOMS IN PATCHES BY HYDROGEN GROUPS
Info: RIGID BONDS TO HYDROGEN : ALL
Info:         ERROR TOLERANCE : 1e-08
Info:          MAX ITERATIONS : 100
Info: RIGID WATER USING SETTLE ALGORITHM
Info: RANDOM NUMBER SEED     1743543847
Info: USE HYDROGEN BONDS?    NO
Info: Using AMBER format force field!
Info: AMBER PARM FILE        mobley_1733799.prmtop
Info: COORDINATE PDB         mobley_1733799.pdb
Info: Exclusions will be read from PARM file!
Info: SCNB (VDW SCALING)     2
Info: USING ARITHMETIC MEAN TO COMBINE L-J SIGMA PARAMETERS
Info: BINARY COORDINATES     mobley_1733799_equil.coor
Info: SUMMARY OF PARAMETERS:
Info: 7 BONDS
Info: 5 ANGLES
Info:   5 HARMONIC
Info:   0 COSINE-BASED
Info: 3 DIHEDRAL
Info: 0 IMPROPER
Info: 0 CROSSTERM
Info: 0 VDW
Info: 21 VDW_PAIRS
Info: 0 NBTHOLE_PAIRS
Info: To read alchdata from file: mobley_1733799.pdb
Info: To read alchflag data from column: 5
Info: STRUCTURE SUMMARY:
Info: 2953 ATOMS
Info: 2953 BONDS
Info: 19 ANGLES
Info: 32 DIHEDRALS
Info: 0 IMPROPERS
Info: 0 CROSSTERMS
Info: 2995 EXCLUSIONS
Info: 2945 RIGID BONDS
Info: ALCH: 0 ATOMS TO DISAPPEAR IN FINAL STATE
Info: ALCH: 13 ATOMS TO APPEAR IN FINAL STATE
Info: 5914 DEGREES OF FREEDOM
Info: 988 HYDROGEN GROUPS
Info: 3 ATOMS IN LARGEST HYDROGEN GROUP
Info: 988 MIGRATION GROUPS
Info: 3 ATOMS IN LARGEST MIGRATION GROUP
Info: TOTAL MASS = 17828.7 amu
Info: TOTAL CHARGE = 0.000100002 e
Info: MASS DENSITY = 0.97483 g/cm^3
Info: ATOM DENSITY = 0.097233 atoms/A^3
Info: ADDED 0 IMPLICIT EXCLUSIONS
Info: NONBONDED TABLE R-SQUARED SPACING: 0.0625
Info: NONBONDED TABLE SIZE: 705 POINTS
Info: REMOVING COM VELOCITY -0.0813165 0.154167 -0.0659037
Info: Use 3D box decompostion in PME FFT.
Info: Updated CUDA force table with 4096 elements.
Info: Updated CUDA LJ table with 6 x 6 elements.
Info: Found 15 unique exclusion lists needing 28 bytes
TCL: Running for 1500000 steps
ETITLE: TS BOND ANGLE DIHED IMPRP ELECT VDW BOUNDARY MISC KINETIC TOTAL TEMP POTENTIAL TOTALAVG TEMPAVG PRESSURE GPRESSURE VOLUME PRESSAVG GPRESSAVG
ENERGY: 0 3.4577 3.8541 5.6516 0.0000 -10627.9381 1396.1552 0.0000 0.0000 1740.6692 -7478.1503 296.2275 -9218.8195 -7478.1503 296.2275 -249.6571 -168.4274 30370.3337 -249.6571 -168.4274
ENERGY: 300000 3.2220 2.6830 7.1082 0.0000 -10638.6252 1443.3863 0.0000 0.0000 1767.1404 -7415.0854 300.7323 -9182.2258 -7479.9696 298.2584 387.6079 474.6634 30092.4524 200.0442 276.2174
ENERGY: 600000 4.1543 2.2460 3.1658 0.0000 -10776.1946 1480.1325 0.0000 0.0000 1757.3505 -7529.1455 299.0663 -9286.4959 -7522.3462 296.7063 225.2635 231.1158 30268.6396 203.8302 255.3260
ENERGY: 900000 3.1523 2.8156 2.3768 0.0000 -10729.6511 1442.8525 0.0000 0.0000 1803.9819 -7474.4720 307.0020 -9278.4538 -7512.5908 298.0758 -197.8095 -149.3237 30356.4447 82.8727 139.7535
ENERGY: 1200000 1.3038 2.1127 3.3810 0.0000 -10677.2103 1410.3731 0.0000 0.0000 1729.3452 -7530.6943 294.3003 -9260.0396 -7513.6855 298.6137 -224.4849 -196.1908 30441.5741 37.5874 92.6100
ENERGY: 1500000 2.7884 4.0906 2.9769 0.0000 -10708.4274 1486.4952 0.0000 0.0000 1762.3092 -7449.7671 299.9102 -9212.0763 -7499.5860 299.2132 341.9825 386.2742 30283.8597 84.2686 134.0925
TCL: Running FEP window   2: Lambda1 0.05   Lambda2 0.1    [dLambda 0.05  ]
TCL: Setting parameter firsttimestep to 0
TCL: Setting parameter alchLambda to 0.05
Info: NONBONDED TABLE R-SQUARED SPACING: 0.0625
Info: NONBONDED TABLE SIZE: 705 POINTS
TCL: Setting parameter alchLambda2 to 0.1
Info: NONBONDED TABLE R-SQUARED SPACING: 0.0625
Info: NONBONDED TABLE SIZE: 705 POINTS
TCL: Running for 1500000 steps
ETITLE: TS BOND ANGLE DIHED IMPRP ELECT VDW BOUNDARY MISC KINETIC TOTAL TEMP POTENTIAL TOTALAVG TEMPAVG PRESSURE GPRESSURE VOLUME PRESSAVG GPRESSAVG
ENERGY: 0 2.7884 4.0906 2.9769 0.0000 -10708.4272 1489.6282 0.0000 0.0000 1761.4436 -7447.4996 299.7628 -9208.9432 -7447.4996 299.7628 311.7008 392.6461 30283.8597 311.7008 392.6461
ENERGY: 300000 1.4849 2.0934 2.3166 0.0000 -10662.0831 1395.1414 0.0000 0.0000 1771.5884 -7489.4585 301.4893 -9261.0468 -7451.2141 300.5824 -256.1856 -141.2783 30099.0956 -104.2334 -21.9767
ENERGY: 600000 2.0334 7.0436 3.5222 0.0000 -10691.7458 1405.4093 0.0000 0.0000 1811.2977 -7462.4397 308.2470 -9273.7373 -7483.7594 301.2282 -162.3357 -85.5024 30260.9113 -138.6844 -62.0125
ENERGY: 900000 3.0323 3.5105 2.0895 0.0000 -10625.1322 1389.9062 0.0000 0.0000 1770.6041 -7455.9896 301.3218 -9226.5937 -7482.5423 301.4590 -256.0530 -139.2212 30018.2280 -171.9213 -98.2841
ENERGY: 1200000 1.8028 0.9266 3.1931 0.0000 -10662.7548 1392.8215 0.0000 0.0000 1820.2331 -7443.7776 309.7677 -9264.0108 -7491.5121 301.5103 -542.4485 -457.7248 30832.5160 -223.9261 -153.8616
ENERGY: 1500000 0.8245 3.4430 1.7355 0.0000 -10757.3497 1472.4261 0.0000 0.0000 1823.4303 -7455.4903 310.3118 -9278.9206 -7495.4365 301.6064 359.2387 380.7530 30074.0809 -117.1287 -54.8225
TCL: Running FEP window   3: Lambda1 0.1    Lambda2 0.15000000000000002 [dLambda 0.05000000000000002]
TCL: Setting parameter firsttimestep to 0
TCL: Setting parameter alchLambda to 0.1
Info: NONBONDED TABLE R-SQUARED SPACING: 0.0625
Info: NONBONDED TABLE SIZE: 705 POINTS
TCL: Setting parameter alchLambda2 to 0.15000000000000002
Info: NONBONDED TABLE R-SQUARED SPACING: 0.0625
Info: NONBONDED TABLE SIZE: 705 POINTS
TCL: Running for 1500000 steps
ETITLE: TS BOND ANGLE DIHED IMPRP ELECT VDW BOUNDARY MISC KINETIC TOTAL TEMP POTENTIAL TOTALAVG TEMPAVG PRESSURE GPRESSURE VOLUME PRESSAVG GPRESSAVG
ENERGY: 0 0.8245 3.4430 1.7355 0.0000 -10757.3491 1473.5711 0.0000 0.0000 1822.5376 -7455.2374 310.1598 -9277.7749 -7455.2374 310.1598 307.7016 386.6886 30074.0809 307.7016 386.6886
ENERGY: 300000 2.9365 2.5003 3.9840 0.0000 -10607.2159 1407.3338 0.0000 0.0000 1809.3748 -7381.0866 307.9198 -9190.4613 -7465.2450 306.5658 -351.6949 -272.7010 30788.3108 66.7520 134.8377
ENERGY: 600000 2.3156 2.5050 3.0574 0.0000 -10710.5417 1406.4041 0.0000 0.0000 1768.5371 -7527.7226 300.9700 -9296.2597 -7488.7856 304.1590 -497.5447 -448.9816 30527.8853 -106.0912 -39.1438
ENERGY: 900000 2.1210 1.7283 3.0317 0.0000 -10675.3539 1421.8109 0.0000 0.0000 1790.2419 -7456.4201 304.6637 -9246.6620 -7486.9125 303.5297 -205.2441 -94.5783 30192.7328 -53.4866 7.4089
ENERGY: 1200000 2.6371 2.6512 3.5509 0.0000 -10658.2211 1362.9013 0.0000 0.0000 1796.2925 -7490.1881 305.6934 -9286.4806 -7495.1759 302.4207 -783.2354 -708.9540 30329.1308 -70.5388 -2.2580
ENERGY: 1500000 1.5236 4.7573 2.8271 0.0000 -10676.2209 1425.4240 0.0000 0.0000 1736.8312 -7504.8577 295.5743 -9241.6889 -7494.7789 301.1122 179.4073 239.5772 30050.0005 -90.3649 -27.0763
TCL: Running FEP window   4: Lambda1 0.15000000000000002 Lambda2 0.2    [dLambda 0.04999999999999999]
TCL: Setting parameter firsttimestep to 0
TCL: Setting parameter alchLambda to 0.15000000000000002
Info: NONBONDED TABLE R-SQUARED SPACING: 0.0625
Info: NONBONDED TABLE SIZE: 705 POINTS
TCL: Setting parameter alchLambda2 to 0.2
Info: NONBONDED TABLE R-SQUARED SPACING: 0.0625
Info: NONBONDED TABLE SIZE: 705 POINTS
TCL: Running for 1500000 steps
ETITLE: TS BOND ANGLE DIHED IMPRP ELECT VDW BOUNDARY MISC KINETIC TOTAL TEMP POTENTIAL TOTALAVG TEMPAVG PRESSURE GPRESSURE VOLUME PRESSAVG GPRESSAVG
ENERGY: 0 1.5236 4.7573 2.8271 0.0000 -10676.2212 1426.2735 0.0000 0.0000 1735.9507 -7504.8891 295.4245 -9240.8398 -7504.8891 295.4245 160.7492 244.5765 30050.0005 160.7492 244.5765
ENERGY: 300000 1.5382 2.7707 1.2939 0.0000 -10720.8149 1465.7328 0.0000 0.0000 1792.9274 -7456.5519 305.1208 -9249.4793 -7545.6750 299.2424 280.4641 344.0327 30159.2707 131.3315 188.0370
ENERGY: 600000 1.2317 1.8080 2.5747 0.0000 -10706.6849 1460.1905 0.0000 0.0000 1787.6433 -7453.2367 304.2215 -9240.8800 -7525.4066 299.1385 225.5509 320.7609 30213.6376 135.0780 190.2921
ENERGY: 900000 1.9410 3.2128 4.3468 0.0000 -10727.3235 1408.6384 0.0000 0.0000 1802.1334 -7507.0511 306.6875 -9309.1845 -7508.7775 301.9798 -368.8073 -333.7425 30181.1547 100.3861 143.2632
ENERGY: 1200000 0.7345 2.9195 5.6632 0.0000 -10672.9442 1356.2021 0.0000 0.0000 1780.6797 -7526.7452 303.0365 -9307.4250 -7517.6974 301.0838 -779.6165 -666.1977 30288.2123 -48.9488 4.5003
ENERGY: 1500000 1.3303 4.6507 5.8172 0.0000 -10652.7796 1347.7030 0.0000 0.0000 1762.9216 -7530.3569 300.0144 -9293.2784 -7515.2480 301.1505 -434.1767 -381.6993 29823.3865 -49.5097 3.5019
TCL: Running FEP window   5: Lambda1 0.2    Lambda2 0.25   [dLambda 0.04999999999999999]
TCL: Setting parameter firsttimestep to 0
TCL: Setting parameter alchLambda to 0.2
Info: NONBONDED TABLE R-SQUARED SPACING: 0.0625
Info: NONBONDED TABLE SIZE: 705 POINTS
TCL: Setting parameter alchLambda2 to 0.25
Info: NONBONDED TABLE R-SQUARED SPACING: 0.0625
Info: NONBONDED TABLE SIZE: 705 POINTS
TCL: Running for 1500000 steps
ETITLE: TS BOND ANGLE DIHED IMPRP ELECT VDW BOUNDARY MISC KINETIC TOTAL TEMP POTENTIAL TOTALAVG TEMPAVG PRESSURE GPRESSURE VOLUME PRESSAVG GPRESSAVG
ENERGY: 0 1.3303 4.6507 5.8172 0.0000 -10652.7786 1347.3512 0.0000 0.0000 1762.0290 -7531.6003 299.8625 -9293.6292 -7531.6003 299.8625 -480.6428 -382.1016 29823.3865 -480.6428 -382.1016
ENERGY: 300000 3.3148 1.9973 3.5918 0.0000 -10668.5263 1451.5245 0.0000 0.0000 1763.5355 -7444.5623 300.1189 -9208.0978 -7519.2465 300.1915 87.8089 156.3732 30450.3586 -219.2349 -144.0327
ENERGY: 600000 3.0051 3.9515 3.3405 0.0000 -10663.3332 1410.9040 0.0000 0.0000 1799.4434 -7442.6888 306.2297 -9242.1322 -7524.1116 298.9082 -262.6981 -243.0183 30670.5854 -216.7775 -161.3645
ENERGY: 900000 6.3859 1.8031 1.7570 0.0000 -10727.5165 1475.7084 0.0000 0.0000 1755.8313 -7486.0307 298.8077 -9241.8620 -7508.7708 299.5582 63.6339 87.6987 30532.8372 -246.4626 -195.3093
ENERGY: 1200000 2.2032 2.3968 2.1930 0.0000 -10834.6612 1516.8262 0.0000 0.0000 1775.3184 -7535.7236 302.1241 -9311.0420 -7514.6329 299.1110 765.5185 793.0927 29896.1342 -104.9388 -53.3787
ENERGY: 1500000 3.0507 2.9466 1.7244 0.0000 -10681.7891 1453.5305 0.0000 0.0000 1786.0330 -7434.5039 303.9475 -9220.5368 -7504.0950 299.1890 -24.0981 77.3653 30448.6305 -119.4083 -63.1960
TCL: Running FEP window   6: Lambda1 0.25   Lambda2 0.3    [dLambda 0.04999999999999999]
TCL: Setting parameter firsttimestep to 0
TCL: Setting parameter alchLambda to 0.25
Info: NONBONDED TABLE R-SQUARED SPACING: 0.0625
Info: NONBONDED TABLE SIZE: 705 POINTS
TCL: Setting parameter alchLambda2 to 0.3
Info: NONBONDED TABLE R-SQUARED SPACING: 0.0625
Info: NONBONDED TABLE SIZE: 705 POINTS
TCL: Running for 1500000 steps
ETITLE: TS BOND ANGLE DIHED IMPRP ELECT VDW BOUNDARY MISC KINETIC TOTAL TEMP POTENTIAL TOTALAVG TEMPAVG PRESSURE GPRESSURE VOLUME PRESSAVG GPRESSAVG
ENERGY: 0 3.0507 2.9466 1.7244 0.0000 -10681.7892 1456.7578 0.0000 0.0000 1785.1542 -7432.1555 303.7979 -9217.3097 -7432.1555 303.7979 11.7617 96.7946 30448.6305 11.7617 96.7946
ENERGY: 300000 2.4413 1.7917 7.6696 0.0000 -10593.4399 1369.3337 0.0000 0.0000 1792.1830 -7420.0206 304.9941 -9212.2036 -7449.4595 307.1290 -501.0002 -424.7785 30814.9034 -282.8620 -231.3811
ENERGY: 600000 2.6534 2.3538 3.7373 0.0000 -10813.5880 1520.1931 0.0000 0.0000 1781.0167 -7503.6337 303.0938 -9284.6504 -7466.1861 305.8048 418.5924 499.9197 30566.3065 -174.3891 -119.1433
ENERGY: 900000 2.9754 1.3745 5.0716 0.0000 -10785.1258 1459.1108 0.0000 0.0000 1756.7841 -7559.8094 298.9699 -9316.5934 -7481.5581 304.8796 2.4858 84.4546 30418.2753 -184.4707 -122.1261
ENERGY: 1200000 2.2610 3.2635 6.2799 0.0000 -10555.3161 1382.9632 0.0000 0.0000 1717.0968 -7443.4517 292.2159 -9160.5485 -7480.5857 303.0202 -176.4862 -167.3455 30522.0928 -178.2638 -121.0421
ENERGY: 1500000 1.6603 1.8014 1.5569 0.0000 -10861.9031 1582.1392 0.0000 0.0000 1746.5201 -7528.2252 297.2232 -9274.7453 -7481.0892 302.9704 826.9318 899.9062 30675.0514 -88.1008 -33.8177
TCL: Running FEP window   7: Lambda1 0.3    Lambda2 0.35   [dLambda 0.04999999999999999]
TCL: Setting parameter firsttimestep to 0
TCL: Setting parameter alchLambda to 0.3
Info: NONBONDED TABLE R-SQUARED SPACING: 0.0625
Info: NONBONDED TABLE SIZE: 705 POINTS
TCL: Setting parameter alchLambda2 to 0.35
Info: NONBONDED TABLE R-SQUARED SPACING: 0.0625
Info: NONBONDED TABLE SIZE: 705 POINTS
TCL: Running for 1500000 steps
ETITLE: TS BOND ANGLE DIHED IMPRP ELECT VDW BOUNDARY MISC KINETIC TOTAL TEMP POTENTIAL TOTALAVG TEMPAVG PRESSURE GPRESSURE VOLUME PRESSAVG GPRESSAVG
ENERGY: 0 1.6603 1.8014 1.5569 0.0000 -10861.9023 1581.7417 0.0000 0.0000 1745.6174 -7529.5247 297.0695 -9275.1421 -7529.5247 297.0695 810.4430 898.6760 30675.0514 810.4430 898.6760
ENERGY: 300000 1.7943 5.4604 3.5133 0.0000 -10709.3397 1401.1929 0.0000 0.0000 1798.0443 -7499.3345 305.9916 -9297.3788 -7526.6577 299.8202 -224.4666 -202.6001 30149.4984 -66.1950 8.3026
ENERGY: 600000 2.7381 4.3120 1.8920 0.0000 -10771.4652 1512.1597 0.0000 0.0000 1742.8598 -7507.5035 296.6002 -9250.3633 -7525.6311 297.5439 736.1010 825.5919 30168.4815 129.8617 206.5505
ENERGY: 900000 1.1432 1.9949 3.0541 0.0000 -10869.4241 1492.0263 0.0000 0.0000 1755.8620 -7615.3436 298.8130 -9371.2056 -7524.1526 298.9302 250.4499 275.6294 29964.4301 123.7331 197.7523
ENERGY: 1200000 3.8893 2.6957 5.3746 0.0000 -10643.8270 1381.9204 0.0000 0.0000 1798.9458 -7451.0011 306.1450 -9249.9469 -7516.7708 299.8681 -421.6161 -384.3299 30566.5324 32.8354 103.6505
ENERGY: 1500000 1.6659 5.0515 2.3594 0.0000 -10695.0292 1446.3737 0.0000 0.0000 1779.0694 -7460.5094 302.7624 -9239.5788 -7516.3171 300.0846 192.7421 199.0529 30303.2265 -2.8375 60.9682
TCL: Running FEP window   8: Lambda1 0.35   Lambda2 0.39999999999999997 [dLambda 0.04999999999999999]
TCL: Setting parameter firsttimestep to 0
TCL: Setting parameter alchLambda to 0.35
Info: NONBONDED TABLE R-SQUARED SPACING: 0.0625
Info: NONBONDED TABLE SIZE: 705 POINTS
TCL: Setting parameter alchLambda2 to 0.39999999999999997
Info: NONBONDED TABLE R-SQUARED SPACING: 0.0625
Info: NONBONDED TABLE SIZE: 705 POINTS
TCL: Running for 1500000 steps
ETITLE: TS BOND ANGLE DIHED IMPRP ELECT VDW BOUNDARY MISC KINETIC TOTAL TEMP POTENTIAL TOTALAVG TEMPAVG PRESSURE GPRESSURE VOLUME PRESSAVG GPRESSAVG
ENERGY: 0 1.6659 5.0515 2.3594 0.0000 -10695.0297 1447.0323 0.0000 0.0000 1778.1788 -7460.7419 302.6108 -9238.9207 -7460.7419 302.6108 128.6737 208.9583 30303.2265 128.6737 208.9583
ENERGY: 300000 3.9077 3.6008 3.3214 0.0000 -10669.7599 1388.0881 0.0000 0.0000 1773.8133 -7497.0286 301.8679 -9270.8419 -7484.3600 300.1393 -424.6925 -372.7863 30602.7755 -252.9421 -172.2758
ENERGY: 600000 1.1385 2.2111 2.2722 0.0000 -10721.3554 1493.8529 0.0000 0.0000 1747.3230 -7474.5577 297.3598 -9221.8807 -7488.6582 300.6477 597.2091 627.1399 30447.8410 -53.9618 3.4842
ENERGY: 900000 1.7828 4.0831 2.0106 0.0000 -10680.3580 1410.0037 0.0000 0.0000 1770.0760 -7492.4018 301.2319 -9262.4779 -7491.5934 299.0050 -170.7530 -75.7955 30032.4050 -88.8269 -13.7723
ENERGY: 1200000 2.1801 3.2801 4.4892 0.0000 -10621.2564 1406.7106 0.0000 0.0000 1772.7515 -7431.8450 301.6872 -9204.5965 -7485.4483 299.2196 -255.8324 -145.6241 30474.5971 -121.6857 -43.3464
ENERGY: 1500000 2.4291 3.3781 5.2940 0.0000 -10606.5037 1403.4245 0.0000 0.0000 1746.1495 -7445.8286 297.1601 -9191.9780 -7484.4134 300.0839 1.0180 78.1308 30049.7214 -32.8346 46.3553
TCL: Running FEP window   9: Lambda1 0.39999999999999997 Lambda2 0.44999999999999996 [dLambda 0.04999999999999999]
TCL: Setting parameter firsttimestep to 0
TCL: Setting parameter alchLambda to 0.39999999999999997
Info: NONBONDED TABLE R-SQUARED SPACING: 0.0625
Info: NONBONDED TABLE SIZE: 705 POINTS
TCL: Setting parameter alchLambda2 to 0.44999999999999996
Info: NONBONDED TABLE R-SQUARED SPACING: 0.0625
Info: NONBONDED TABLE SIZE: 705 POINTS
TCL: Running for 1500000 steps
ETITLE: TS BOND ANGLE DIHED IMPRP ELECT VDW BOUNDARY MISC KINETIC TOTAL TEMP POTENTIAL TOTALAVG TEMPAVG PRESSURE GPRESSURE VOLUME PRESSAVG GPRESSAVG
ENERGY: 0 2.4291 3.3781 5.2940 0.0000 -10606.5031 1402.8434 0.0000 0.0000 1745.2991 -7447.2595 297.0154 -9192.5585 -7447.2595 297.0154 -20.0336 76.8889 30049.7214 -20.0336 76.8889
ENERGY: 300000 2.0809 4.6377 3.5582 0.0000 -10742.8032 1420.9394 0.0000 0.0000 1707.1399 -7604.4470 290.5214 -9311.5869 -7530.7456 297.2236 -515.1005 -374.3493 30576.9250 123.1563 201.3500
ENERGY: 600000 2.2601 4.0938 3.2082 0.0000 -10693.8455 1459.7744 0.0000 0.0000 1792.1175 -7432.3915 304.9829 -9224.5090 -7518.4448 299.3302 390.2106 460.8874 30461.0508 69.1136 157.3775
ENERGY: 900000 3.4932 4.5954 5.6068 0.0000 -10805.4160 1482.0103 0.0000 0.0000 1763.8994 -7545.8108 300.1808 -9309.7103 -7514.0623 299.3128 434.2028 474.8299 29728.8662 60.3258 130.1682
ENERGY: 1200000 1.7308 3.9559 5.0744 0.0000 -10685.5105 1354.5174 0.0000 0.0000 1690.7329 -7629.4991 287.7293 -9320.2321 -7519.2041 298.6364 -1089.4243 -1063.0000 30748.6034 -129.1657 -63.2809
ENERGY: 1500000 1.7541 2.1200 4.5712 0.0000 -10626.7700 1389.6990 0.0000 0.0000 1744.0734 -7484.5523 296.8068 -9228.6257 -7517.9706 298.4899 -545.4741 -517.9808 30718.5954 -126.1511 -62.8494
TCL: Running FEP window  10: Lambda1 0.44999999999999996 Lambda2 0.49999999999999994 [dLambda 0.04999999999999999]
TCL: Setting parameter firsttimestep to 0
TCL: Setting parameter alchLambda to 0.44999999999999996
Info: NONBONDED TABLE R-SQUARED SPACING: 0.0625
Info: NONBONDED TABLE SIZE: 705 POINTS
TCL: Setting parameter alchLambda2 to 0.49999999999999994
Info: NONBONDED TABLE R-SQUARED SPACING: 0.0625
Info: NONBONDED TABLE SIZE: 705 POINTS
TCL: Running for 1500000 steps
ETITLE: TS BOND ANGLE DIHED IMPRP ELECT VDW BOUNDARY MISC KINETIC TOTAL TEMP POTENTIAL TOTALAVG TEMPAVG PRESSURE GPRESSURE VOLUME PRESSAVG GPRESSAVG
ENERGY: 0 1.7541 2.1200 4.5712 0.0000 -10626.7702 1389.0308 0.0000 0.0000 1743.1990 -7486.0951 296.6580 -9229.2940 -7486.0951 296.6580 -593.0886 -516.5745 30718.5954 -593.0886 -516.5745
ENERGY: 300000 1.7422 4.5188 2.1887 0.0000 -10521.3767 1305.4763 0.0000 0.0000 1694.6942 -7512.7566 288.4034 -9207.4507 -7481.0721 299.9390 -931.8591 -931.1220 30550.7905 -803.7697 -734.6312
ENERGY: 600000 5.9678 3.5860 4.1802 0.0000 -10659.7096 1360.0467 0.0000 0.0000 1799.0094 -7486.9195 306.1558 -9285.9290 -7482.0889 301.9590 -698.3256 -675.7043 30553.6014 -548.7757 -493.4982
ENERGY: 900000 0.8011 1.7585 3.6404 0.0000 -10692.1508 1393.5572 0.0000 0.0000 1777.2155 -7515.1782 302.4469 -9292.3936 -7488.1126 301.5505 -365.2910 -317.5236 30530.5456 -472.9916 -415.0629
ENERGY: 1200000 2.7972 1.0119 5.4143 0.0000 -10748.9849 1469.3571 0.0000 0.0000 1732.6092 -7537.7952 294.8558 -9270.4044 -7492.0623 300.3347 334.6763 388.5966 30358.8610 -376.2967 -314.1694
ENERGY: 1500000 1.2151 2.6286 1.4997 0.0000 -10581.7037 1392.3968 0.0000 0.0000 1732.1831 -7451.7804 294.7833 -9183.9634 -7484.7668 300.5622 -167.3141 -158.1170 30385.8201 -356.3159 -297.1110
TCL: Running FEP window  11: Lambda1 0.49999999999999994 Lambda2 0.5499999999999999 [dLambda 0.04999999999999999]
TCL: Setting parameter firsttimestep to 0
TCL: Setting parameter alchLambda to 0.49999999999999994
Info: NONBONDED TABLE R-SQUARED SPACING: 0.0625
Info: NONBONDED TABLE SIZE: 705 POINTS
TCL: Setting parameter alchLambda2 to 0.5499999999999999
Info: NONBONDED TABLE R-SQUARED SPACING: 0.0625
Info: NONBONDED TABLE SIZE: 705 POINTS
TCL: Running for 1500000 steps
ETITLE: TS BOND ANGLE DIHED IMPRP ELECT VDW BOUNDARY MISC KINETIC TOTAL TEMP POTENTIAL TOTALAVG TEMPAVG PRESSURE GPRESSURE VOLUME PRESSAVG GPRESSAVG
ENERGY: 0 1.2151 2.6286 1.4997 0.0000 -10581.7016 1392.2724 0.0000 0.0000 1731.2711 -7452.8146 294.6281 -9184.0857 -7452.8146 294.6281 -241.0123 -152.5000 30385.8201 -241.0123 -152.5000
ENERGY: 300000 1.3608 3.5202 4.3930 0.0000 -10717.1565 1469.7872 0.0000 0.0000 1770.4734 -7467.6219 301.2995 -9238.0953 -7481.2340 297.5079 468.7374 503.2668 30419.0695 428.5669 514.8786
ENERGY: 600000 3.9326 4.4772 1.1282 0.0000 -10765.9812 1506.9370 0.0000 0.0000 1750.8619 -7498.6443 297.9620 -9249.5062 -7504.7631 298.3819 402.8186 493.9013 30305.4491 309.8045 383.0048
ENERGY: 900000 3.7033 4.8780 1.7329 0.0000 -10801.5391 1511.9739 0.0000 0.0000 1801.2047 -7478.0464 306.5294 -9279.2510 -7504.6370 299.4647 533.9710 665.0513 30378.2758 199.7020 285.1159
ENERGY: 1200000 1.5912 1.5985 5.6475 0.0000 -10690.0205 1431.9039 0.0000 0.0000 1732.3375 -7516.9419 294.8096 -9249.2794 -7513.1647 299.3575 -385.0286 -294.5820 30907.5143 113.9624 186.5039
ENERGY: 1500000 1.2358 3.0339 2.2903 0.0000 -10676.3086 1365.3709 0.0000 0.0000 1731.3097 -7573.0681 294.6347 -9304.3778 -7518.6322 299.5980 -737.9720 -708.1969 30473.3153 25.3414 98.7118
TCL: Running FEP window  12: Lambda1 0.5499999999999999 Lambda2 0.6    [dLambda 0.050000000000000044]
TCL: Setting parameter firsttimestep to 0
TCL: Setting parameter alchLambda to 0.5499999999999999
Info: NONBONDED TABLE R-SQUARED SPACING: 0.0625
Info: NONBONDED TABLE SIZE: 705 POINTS
TCL: Setting parameter alchLambda2 to 0.6
Info: NONBONDED TABLE R-SQUARED SPACING: 0.0625
Info: NONBONDED TABLE SIZE: 705 POINTS
TCL: Running for 1500000 steps
ETITLE: TS BOND ANGLE DIHED IMPRP ELECT VDW BOUNDARY MISC KINETIC TOTAL TEMP POTENTIAL TOTALAVG TEMPAVG PRESSURE GPRESSURE VOLUME PRESSAVG GPRESSAVG
ENERGY: 0 1.2358 3.0339 2.2903 0.0000 -10676.7551 1365.2067 0.0000 0.0000 1730.4595 -7574.5289 294.4900 -9304.9884 -7574.5289 294.4900 -775.7527 -706.4336 30473.3153 -775.7527 -706.4336
ENERGY: 300000 2.4724 2.5712 1.3911 0.0000 -10774.7235 1495.7319 0.0000 0.0000 1760.4978 -7512.0593 299.6019 -9272.5570 -7497.0615 298.7010 476.8682 523.6080 30481.3362 -33.7876 19.0686
ENERGY: 600000 2.3304 4.2179 1.7801 0.0000 -10645.5160 1369.3737 0.0000 0.0000 1772.3880 -7495.4260 301.6254 -9267.8140 -7476.2723 300.8667 -823.0274 -727.0202 30904.9622 -161.7823 -91.7632
ENERGY: 900000 2.4271 4.3210 2.6651 0.0000 -10750.7417 1464.6596 0.0000 0.0000 1758.4501 -7518.2188 299.2534 -9276.6689 -7498.6183 299.9176 -6.2910 59.6110 30707.0601 -171.9505 -112.4841
ENERGY: 1200000 2.4622 2.3051 2.0736 0.0000 -10681.7523 1433.7393 0.0000 0.0000 1781.3638 -7459.8084 303.1529 -9241.1722 -7494.4867 300.9093 34.0474 174.7549 30451.9912 -134.0403 -67.3554
ENERGY: 1500000 1.9582 4.5200 10.1236 0.0000 -10601.0338 1367.0771 0.0000 0.0000 1807.6014 -7409.7535 307.6180 -9217.3549 -7491.1277 301.3845 -448.7296 -390.7574 30167.7730 -173.3693 -109.9956
TCL: Running FEP window  13: Lambda1 0.6    Lambda2 0.65   [dLambda 0.050000000000000044]
TCL: Setting parameter firsttimestep to 0
TCL: Setting parameter alchLambda to 0.6
Info: NONBONDED TABLE R-SQUARED SPACING: 0.0625
Info: NONBONDED TABLE SIZE: 705 POINTS
TCL: Setting parameter alchLambda2 to 0.65
Info: NONBONDED TABLE R-SQUARED SPACING: 0.0625
Info: NONBONDED TABLE SIZE: 705 POINTS
TCL: Running for 1500000 steps
ETITLE: TS BOND ANGLE DIHED IMPRP ELECT VDW BOUNDARY MISC KINETIC TOTAL TEMP POTENTIAL TOTALAVG TEMPAVG PRESSURE GPRESSURE VOLUME PRESSAVG GPRESSAVG
ENERGY: 0 1.9582 4.5200 10.1236 0.0000 -10601.7091 1368.0868 0.0000 0.0000 1806.7279 -7410.2926 307.4693 -9217.0206 -7410.2926 307.4693 -455.8903 -377.3001 30167.7730 -455.8903 -377.3001
ENERGY: 300000 2.1457 2.5120 6.1110 0.0000 -10640.0228 1376.5209 0.0000 0.0000 1747.1976 -7505.5357 297.3385 -9252.7333 -7495.4175 300.7461 -716.4958 -613.9724 30568.3095 -370.4609 -316.0800
ENERGY: 600000 2.3035 2.6385 1.1093 0.0000 -10667.0468 1350.0280 0.0000 0.0000 1764.1253 -7546.8422 300.2192 -9310.9675 -7510.6106 300.4730 -772.5674 -622.1885 30082.0228 -349.0670 -295.5968
ENERGY: 900000 5.7795 2.4895 3.2416 0.0000 -10757.2558 1431.3290 0.0000 0.0000 1758.1782 -7556.2380 299.2071 -9314.4162 -7501.5573 301.9738 201.4089 253.7295 29566.4054 -293.5490 -233.9307
ENERGY: 1200000 1.8070 2.3362 1.4718 0.0000 -10785.6360 1457.5736 0.0000 0.0000 1763.0173 -7559.4302 300.0307 -9322.4475 -7505.5981 302.3188 -23.1896 -15.6116 30525.7298 -204.1068 -144.0791
ENERGY: 1500000 2.2182 5.3479 4.9114 0.0000 -10874.7622 1578.9198 0.0000 0.0000 1730.4635 -7552.9013 294.4907 -9283.3648 -7506.3632 301.8595 1051.1643 1136.2911 30376.1305 -128.1961 -64.2669
TCL: Running FEP window  14: Lambda1 0.65   Lambda2 0.7000000000000001 [dLambda 0.050000000000000044]
TCL: Setting parameter firsttimestep to 0
TCL: Setting parameter alchLambda to 0.65
Info: NONBONDED TABLE R-SQUARED SPACING: 0.0625
Info: NONBONDED TABLE SIZE: 705 POINTS
TCL: Setting parameter alchLambda2 to 0.7000000000000001
Info: NONBONDED TABLE R-SQUARED SPACING: 0.0625
Info: NONBONDED TABLE SIZE: 705 POINTS
TCL: Running for 1500000 steps
ETITLE: TS BOND ANGLE DIHED IMPRP ELECT VDW BOUNDARY MISC KINETIC TOTAL TEMP POTENTIAL TOTALAVG TEMPAVG PRESSURE GPRESSURE VOLUME PRESSAVG GPRESSAVG
ENERGY: 0 2.2182 5.3479 4.9114 0.0000 -10875.5554 1579.5623 0.0000 0.0000 1729.6045 -7553.9111 294.3445 -9283.5155 -7553.9111 294.3445 1048.5542 1150.0261 30376.1305 1048.5542 1150.0261
ENERGY: 300000 1.0945 2.0624 3.2168 0.0000 -10636.7369 1434.2864 0.0000 0.0000 1811.7881 -7384.2886 308.3305 -9196.0767 -7490.9994 303.1731 338.6185 356.1813 30517.7738 262.6016 305.9298
ENERGY: 600000 1.4811 2.3958 4.2302 0.0000 -10716.6316 1416.0386 0.0000 0.0000 1783.8182 -7508.6677 303.5706 -9292.4859 -7514.6771 301.5039 -71.9959 -8.6625 29934.8439 205.3944 270.1028
ENERGY: 900000 4.1248 2.6887 5.3222 0.0000 -10527.1905 1292.1656 0.0000 0.0000 1752.3900 -7470.4993 298.2221 -9222.8892 -7499.1211 299.8516 -1310.9993 -1205.7763 30866.7160 54.4934 127.3588
ENERGY: 1200000 1.8103 2.1836 1.8769 0.0000 -10702.4562 1357.0138 0.0000 0.0000 1737.4321 -7602.1395 295.6766 -9339.5715 -7498.7337 299.9990 -954.0248 -860.0497 30647.2562 5.3875 69.9349
ENERGY: 1500000 2.1355 4.1945 5.1250 0.0000 -10704.6867 1422.8510 0.0000 0.0000 1768.6878 -7501.6929 300.9957 -9270.3807 -7505.0045 299.6078 -251.0514 -143.7344 30326.7622 -56.5927 9.9681
TCL: Running FEP window  15: Lambda1 0.7000000000000001 Lambda2 0.7500000000000001 [dLambda 0.050000000000000044]
TCL: Setting parameter firsttimestep to 0
TCL: Setting parameter alchLambda to 0.7000000000000001
Info: NONBONDED TABLE R-SQUARED SPACING: 0.0625
Info: NONBONDED TABLE SIZE: 705 POINTS
TCL: Setting parameter alchLambda2 to 0.7500000000000001
Info: NONBONDED TABLE R-SQUARED SPACING: 0.0625
Info: NONBONDED TABLE SIZE: 705 POINTS
TCL: Running for 1500000 steps
ETITLE: TS BOND ANGLE DIHED IMPRP ELECT VDW BOUNDARY MISC KINETIC TOTAL TEMP POTENTIAL TOTALAVG TEMPAVG PRESSURE GPRESSURE VOLUME PRESSAVG GPRESSAVG
ENERGY: 0 2.1355 4.1945 5.1250 0.0000 -10705.2600 1422.7645 0.0000 0.0000 1767.8206 -7503.2199 300.8481 -9271.0404 -7503.2199 300.8481 -223.4342 -136.5646 30326.7622 -223.4342 -136.5646
ENERGY: 300000 3.3967 2.8387 4.2367 0.0000 -10690.9052 1369.2354 0.0000 0.0000 1718.4554 -7592.7424 292.4471 -9311.1978 -7517.3072 300.9635 -800.0939 -704.8820 30520.1519 -111.3250 -20.3185
ENERGY: 600000 2.9701 3.4809 5.6067 0.0000 -10735.0993 1433.5867 0.0000 0.0000 1693.9548 -7595.5001 288.2776 -9289.4549 -7514.8295 298.2064 -30.6866 36.3864 30222.8390 -158.3250 -89.4270
ENERGY: 900000 1.4518 2.1460 2.5306 0.0000 -10829.1384 1492.8321 0.0000 0.0000 1711.9527 -7618.2252 291.3405 -9330.1779 -7507.6318 298.4728 237.3628 277.3146 30216.5198 -179.2305 -111.9435
ENERGY: 1200000 1.6792 2.4951 5.5573 0.0000 -10688.7434 1440.8566 0.0000 0.0000 1737.6681 -7500.4871 295.7167 -9238.1552 -7483.9209 300.0398 52.6259 153.1943 30397.1816 -131.7456 -58.9132
ENERGY: 1500000 0.3979 1.8616 1.9489 0.0000 -10565.0551 1290.9174 0.0000 0.0000 1741.6035 -7528.3259 296.3865 -9269.9294 -7491.6187 299.4368 -1150.9324 -1105.7655 30748.4380 -168.6768 -100.0182
TCL: Running FEP window  16: Lambda1 0.7500000000000001 Lambda2 0.8000000000000002 [dLambda 0.050000000000000044]
TCL: Setting parameter firsttimestep to 0
TCL: Setting parameter alchLambda to 0.7500000000000001
Info: NONBONDED TABLE R-SQUARED SPACING: 0.0625
Info: NONBONDED TABLE SIZE: 705 POINTS
TCL: Setting parameter alchLambda2 to 0.8000000000000002
Info: NONBONDED TABLE R-SQUARED SPACING: 0.0625
Info: NONBONDED TABLE SIZE: 705 POINTS
TCL: Running for 1500000 steps
ETITLE: TS BOND ANGLE DIHED IMPRP ELECT VDW BOUNDARY MISC KINETIC TOTAL TEMP POTENTIAL TOTALAVG TEMPAVG PRESSURE GPRESSURE VOLUME PRESSAVG GPRESSAVG
ENERGY: 0 0.3979 1.8616 1.9489 0.0000 -10566.8941 1293.0122 0.0000 0.0000 1740.7433 -7528.9302 296.2401 -9269.6735 -7528.9302 296.2401 -1154.3001 -1079.6343 30748.4380 -1154.3001 -1079.6343
ENERGY: 300000 1.7228 1.8902 1.2295 0.0000 -10575.4814 1379.0161 0.0000 0.0000 1716.5459 -7475.0769 292.1222 -9191.6228 -7513.0652 296.3316 -332.9615 -274.0548 30459.0811 -517.8049 -464.3219
ENERGY: 600000 3.8192 3.4605 1.3629 0.0000 -10846.4036 1518.1641 0.0000 0.0000 1762.3398 -7557.2572 299.9154 -9319.5970 -7496.4659 300.0846 507.2439 559.0222 30337.0422 -255.8278 -198.6564
ENERGY: 900000 3.3769 2.6730 3.4705 0.0000 -10646.5194 1471.3043 0.0000 0.0000 1734.5539 -7431.1409 295.1868 -9165.6948 -7494.7079 299.1359 410.5308 444.5233 30769.0493 -200.1521 -144.4623
ENERGY: 1200000 0.7560 3.9494 3.1689 0.0000 -10591.0189 1324.7205 0.0000 0.0000 1784.4644 -7473.9596 303.6805 -9258.4240 -7500.2969 299.4693 -671.9342 -607.4813 30341.6198 -281.7267 -221.6703
ENERGY: 1500000 3.1492 1.8346 0.9330 0.0000 -10782.2801 1462.6387 0.0000 0.0000 1779.6903 -7534.0343 302.8681 -9313.7246 -7497.2239 299.7092 -236.8687 -143.8346 31159.4207 -138.2847 -81.3468
TCL: Running FEP window  17: Lambda1 0.8000000000000002 Lambda2 0.8500000000000002 [dLambda 0.050000000000000044]
TCL: Setting parameter firsttimestep to 0
TCL: Setting parameter alchLambda to 0.8000000000000002
Info: NONBONDED TABLE R-SQUARED SPACING: 0.0625
Info: NONBONDED TABLE SIZE: 705 POINTS
TCL: Setting parameter alchLambda2 to 0.8500000000000002
Info: NONBONDED TABLE R-SQUARED SPACING: 0.0625
Info: NONBONDED TABLE SIZE: 705 POINTS
TCL: Running for 1500000 steps
ETITLE: TS BOND ANGLE DIHED IMPRP ELECT VDW BOUNDARY MISC KINETIC TOTAL TEMP POTENTIAL TOTALAVG TEMPAVG PRESSURE GPRESSURE VOLUME PRESSAVG GPRESSAVG
ENERGY: 0 3.1492 1.8346 0.9330 0.0000 -10783.9287 1463.7137 0.0000 0.0000 1778.8060 -7535.4922 302.7176 -9314.2982 -7535.4922 302.7176 -209.4334 -127.1644 31159.4207 -209.4334 -127.1644
ENERGY: 300000 2.3839 4.9003 4.0041 0.0000 -10657.0136 1377.1545 0.0000 0.0000 1746.7424 -7521.8284 297.2610 -9268.5708 -7498.1483 301.7370 -539.1095 -470.4123 30676.5385 -201.2207 -156.9155
ENERGY: 600000 3.1042 2.1499 1.7260 0.0000 -10745.9556 1455.3066 0.0000 0.0000 1806.3977 -7477.2712 307.4131 -9283.6688 -7468.3692 304.7408 317.4064 420.4655 29960.3567 -31.4159 43.5896
ENERGY: 900000 2.6528 5.9977 3.2238 0.0000 -10674.1114 1351.3567 0.0000 0.0000 1781.4614 -7529.4190 303.1695 -9310.8803 -7467.7958 304.2815 -833.3603 -777.8635 30233.5160 -172.3778 -100.4779
ENERGY: 1200000 1.7136 5.5744 4.3114 0.0000 -10660.6221 1420.3926 0.0000 0.0000 1779.2037 -7449.4266 302.7853 -9228.6302 -7471.0126 303.7671 -152.4207 -65.2137 30741.5563 -122.4392 -47.8755
ENERGY: 1500000 3.2188 2.2529 3.3127 0.0000 -10770.2599 1439.8459 0.0000 0.0000 1759.2209 -7562.4087 299.3846 -9321.6296 -7486.5418 303.7195 -454.3713 -358.4659 30920.1126 -172.9454 -97.9128
TCL: Running FEP window  18: Lambda1 0.8500000000000002 Lambda2 0.9000000000000002 [dLambda 0.050000000000000044]
TCL: Setting parameter firsttimestep to 0
TCL: Setting parameter alchLambda to 0.8500000000000002
Info: NONBONDED TABLE R-SQUARED SPACING: 0.0625
Info: NONBONDED TABLE SIZE: 705 POINTS
TCL: Setting parameter alchLambda2 to 0.9000000000000002
Info: NONBONDED TABLE R-SQUARED SPACING: 0.0625
Info: NONBONDED TABLE SIZE: 705 POINTS
TCL: Running for 1500000 steps
ETITLE: TS BOND ANGLE DIHED IMPRP ELECT VDW BOUNDARY MISC KINETIC TOTAL TEMP POTENTIAL TOTALAVG TEMPAVG PRESSURE GPRESSURE VOLUME PRESSAVG GPRESSAVG
ENERGY: 0 3.2188 2.2529 3.3127 0.0000 -10771.4641 1440.0998 0.0000 0.0000 1758.3424 -7564.2375 299.2351 -9322.5800 -7564.2375 299.2351 -443.2314 -347.6566 30920.1126 -443.2314 -347.6566
ENERGY: 300000 2.0394 4.1121 3.9706 0.0000 -10786.8279 1505.9926 0.0000 0.0000 1800.5936 -7470.1197 306.4254 -9270.7132 -7517.3285 299.7855 325.4790 366.5857 30874.6470 58.5785 124.0425
ENERGY: 600000 4.8059 1.6757 5.7537 0.0000 -10715.2616 1380.7191 0.0000 0.0000 1802.0178 -7520.2893 306.6678 -9322.3072 -7513.3445 301.6463 -695.4575 -624.2562 30582.9312 -13.2877 39.5540
ENERGY: 900000 0.8414 0.7711 3.1543 0.0000 -10720.6851 1383.8402 0.0000 0.0000 1762.1959 -7569.8821 299.8909 -9332.0780 -7503.7139 303.0909 -650.5388 -608.4986 30706.2743 -86.2312 -39.4787
ENERGY: 1200000 0.7965 4.7076 4.7873 0.0000 -10733.3850 1481.2915 0.0000 0.0000 1783.1311 -7458.6709 303.4536 -9241.8020 -7504.2901 302.4269 612.0495 637.9671 30330.0564 -75.3103 -31.0464
ENERGY: 1500000 2.5122 2.6658 3.4558 0.0000 -10731.6538 1444.3642 0.0000 0.0000 1788.4739 -7490.1819 304.3629 -9278.6558 -7498.0637 302.0635 106.1908 192.4931 30318.3389 -127.4905 -72.4556
TCL: Running FEP window  19: Lambda1 0.9000000000000002 Lambda2 0.9500000000000003 [dLambda 0.050000000000000044]
TCL: Setting parameter firsttimestep to 0
TCL: Setting parameter alchLambda to 0.9000000000000002
Info: NONBONDED TABLE R-SQUARED SPACING: 0.0625
Info: NONBONDED TABLE SIZE: 705 POINTS
TCL: Setting parameter alchLambda2 to 0.9500000000000003
Info: NONBONDED TABLE R-SQUARED SPACING: 0.0625
Info: NONBONDED TABLE SIZE: 705 POINTS
TCL: Running for 1500000 steps
ETITLE: TS BOND ANGLE DIHED IMPRP ELECT VDW BOUNDARY MISC KINETIC TOTAL TEMP POTENTIAL TOTALAVG TEMPAVG PRESSURE GPRESSURE VOLUME PRESSAVG GPRESSAVG
ENERGY: 0 2.5122 2.6658 3.4558 0.0000 -10732.2849 1444.4969 0.0000 0.0000 1787.5524 -7491.6018 304.2061 -9279.1542 -7491.6018 304.2061 104.3725 205.1194 30318.3389 104.3725 205.1194
ENERGY: 300000 1.3142 3.9748 5.0032 0.0000 -10812.3136 1513.0991 0.0000 0.0000 1771.7667 -7517.1555 301.5196 -9288.9222 -7493.2008 302.5734 561.1934 643.0749 30276.8136 -15.1891 61.5397
ENERGY: 600000 2.4302 6.9945 2.4455 0.0000 -10719.1102 1383.6743 0.0000 0.0000 1740.8164 -7582.7492 296.2525 -9323.5657 -7514.9137 301.7958 -804.1021 -745.9809 30484.4712 28.2932 106.8797
ENERGY: 900000 1.9245 2.1984 3.3425 0.0000 -10744.2806 1491.0215 0.0000 0.0000 1776.3983 -7469.3954 302.3078 -9245.7937 -7497.8304 301.6860 545.7457 506.4148 30453.8241 14.0429 78.0695
ENERGY: 1200000 4.8463 3.2054 4.0938 0.0000 -10492.1878 1302.2376 0.0000 0.0000 1750.7518 -7427.0529 297.9433 -9177.8047 -7498.9924 301.2099 -960.5952 -882.2959 30821.3591 -94.0226 -29.0390
ENERGY: 1500000 1.8003 3.6560 2.7696 0.0000 -10724.1422 1392.2742 0.0000 0.0000 1776.1464 -7547.4956 302.2650 -9323.6420 -7511.2553 300.6899 -309.4494 -230.3877 30024.3831 -37.3608 27.8056
TCL: Running FEP window  20: Lambda1 0.9500000000000003 Lambda2 1.0    [dLambda 0.04999999999999971]
TCL: Setting parameter firsttimestep to 0
TCL: Setting parameter alchLambda to 0.9500000000000003
Info: NONBONDED TABLE R-SQUARED SPACING: 0.0625
Info: NONBONDED TABLE SIZE: 705 POINTS
TCL: Setting parameter alchLambda2 to 1.0
Info: NONBONDED TABLE R-SQUARED SPACING: 0.0625
Info: NONBONDED TABLE SIZE: 705 POINTS
TCL: Running for 1500000 steps
ETITLE: TS BOND ANGLE DIHED IMPRP ELECT VDW BOUNDARY MISC KINETIC TOTAL TEMP POTENTIAL TOTALAVG TEMPAVG PRESSURE GPRESSURE VOLUME PRESSAVG GPRESSAVG
ENERGY: 0 1.8003 3.6560 2.7696 0.0000 -10725.2477 1392.8236 0.0000 0.0000 1775.2929 -7548.9052 302.1197 -9324.1981 -7548.9052 302.1197 -292.8508 -211.8638 30024.3831 -292.8508 -211.8638
ENERGY: 300000 5.0694 3.1722 4.5139 0.0000 -10805.7021 1429.3537 0.0000 0.0000 1777.7252 -7585.8676 302.5336 -9363.5928 -7508.4271 301.5306 -427.0551 -358.5827 30845.2752 -397.3262 -328.1511
ENERGY: 600000 1.5479 5.5160 7.7543 0.0000 -10633.4225 1414.6637 0.0000 0.0000 1766.5047 -7437.4359 300.6241 -9203.9406 -7505.5251 301.1270 22.6749 46.4476 30307.8796 -85.1811 -34.1833
ENERGY: 900000 1.6210 3.7692 3.4879 0.0000 -10710.2682 1491.0113 0.0000 0.0000 1753.2233 -7457.1554 298.3639 -9210.3788 -7506.2021 299.6612 312.1950 408.6837 30722.9381 -180.9400 -122.9857
ENERGY: 1200000 0.2037 5.0911 1.9372 0.0000 -10753.2834 1467.7178 0.0000 0.0000 1732.4641 -7545.8696 294.8311 -9278.3337 -7517.3625 299.0752 132.0994 144.4004 30802.3722 -84.4411 -39.0379
ENERGY: 1500000 2.9070 0.8148 3.9461 0.0000 -10852.6188 1487.5853 0.0000 0.0000 1763.3040 -7594.0616 300.0794 -9357.3656 -7510.8026 300.3586 135.4440 238.6872 30505.4477 -64.2477 -11.5097
TCL: Exiting due to exit command.
