Info: SIMULATION PARAMETERS:
Info: TIMESTEP               2
Info: NUMBER OF STEPS        0
Info: STEPS PER CYCLE        10
Info: PERIODIC CELL BASIS 1  29.9968 0 0
Info: PERIODIC CELL BASIS 2  0 31.9646 0
Info: PERIODIC CELL BASIS 3  0 0 31.3262
Info: PERIODIC CELL CENTER   0 0 0
Info: WRAPPING WATERS AROUND PERIODIC BOUNDARIES ON OUTPUT.
Info: WRAPPING ALL CLUSTERS AROUND PERIODIC BOUNDARIES ON OUTPUT.
Info: FIRST LDB TIMESTEP     50
Info: LAST LDB TIMESTEP     -1
Info: HOM BACKGROUND SCALING 1
Info: PME BACKGROUND SCALING 1
Info: MIN ATOMS PER PATCH    40
Info: EMPTY PATCH LOAD       40 ATOMS
Info: VELOCITY FILE          mobley_4338603_equil.vel
Info: CENTER OF MASS MOVING INITIALLY? NO
Info: DIELECTRIC             1
Info: EXCLUDE                SCALED ONE-FOUR
Info: 1-4 ELECTROSTATICS SCALED BY 0.833333
Info: MODIFIED 1-4 VDW PARAMETERS WILL BE USED
Info: DCD FILENAME           mobley_4338603_prod.dcd
Info: DCD FREQUENCY          100000
Info: DCD FIRST STEP         100000
Info: DCD FILE WILL CONTAIN UNIT CELL DATA
Info: XST FILENAME           mobley_4338603_prod.xst
Info: XST FREQUENCY          100000
Info: NO VELOCITY DCD OUTPUT
Info: NO FORCE DCD OUTPUT
Info: OUTPUT FILENAME        mobley_4338603_prod
Info: BINARY OUTPUT FILES WILL BE USED
Info: RESTART FILENAME       mobley_4338603_prod.restart
Info: RESTART FREQUENCY      100000
Info: BINARY RESTART FILES WILL BE USED
Info: CUTOFF                 9
Info: PAIRLIST DISTANCE      11
Info: PAIRLIST SHRINK RATE   0.01
Info: PAIRLIST GROW RATE     0.01
Info: PAIRLIST TRIGGER       0.3
Info: PAIRLISTS PER CYCLE    2
Info: PAIRLISTS ENABLED
Info: MARGIN                 2
Info: HYDROGEN GROUP CUTOFF  2.5
Info: PATCH DIMENSION        15.5
Info: ENERGY OUTPUT STEPS    100000
Info: ENERGY EVALUATION STEPS    100000
Info: OUTPUT ENERGY PRECISION 4
Info: CROSSTERM ENERGY INCLUDED IN DIHEDRAL
Info: TIMING OUTPUT STEPS    1000000
Info: PRESSURE OUTPUT STEPS  100000
Info: ALCHEMICAL FEP ON
Info: FEP CURRENT LAMBDA VALUE     1
Info: FEP COMPARISON LAMBDA VALUE  0.95
Info: FEP INTRA-ALCHEMICAL NON-BONDED INTERACTIONS WILL BE RETAINED
Info: FEP INTRA-ALCHEMICAL BONDED INTERACTIONS WILL BE RETAINED
Info: FEP VDW SHIFTING COEFFICIENT 5
Info: FEP ELEC. ACTIVE FOR ANNIHILATED PARTICLES BETWEEN LAMBDA = 0 AND LAMBDA = 0.5
Info: FEP ELEC. ACTIVE FOR EXNIHILATED PARTICLES BETWEEN LAMBDA = 0.5 AND LAMBDA = 1
Info: FEP VDW ACTIVE FOR ANNIHILATED PARTICLES BETWEEN LAMBDA = 0 AND LAMBDA = 1
Info: FEP VDW ACTIVE FOR EXNIHILATED PARTICLES BETWEEN LAMBDA = 0 AND LAMBDA = 1
Info: FEP BOND ACTIVE FOR ANNIHILATED PARTICLES BETWEEN LAMBDA = 1 AND LAMBDA = 1
Info: FEP BOND ACTIVE FOR EXNIHILATED PARTICLES BETWEEN LAMBDA = 0 AND LAMBDA = 0
Info: LANGEVIN DYNAMICS ACTIVE
Info: LANGEVIN TEMPERATURE   300
Info: LANGEVIN USING BBK INTEGRATOR
Info: LANGEVIN DAMPING COEFFICIENT IS 1 INVERSE PS
Info: LANGEVIN DYNAMICS APPLIED TO HYDROGENS
Info: LANGEVIN PISTON PRESSURE CONTROL ACTIVE
Info:        TARGET PRESSURE IS 1.01325 BAR
Info:     OSCILLATION PERIOD IS 50 FS
Info:             DECAY TIME IS 25 FS
Info:     PISTON TEMPERATURE IS 300 K
Info:       PRESSURE CONTROL IS GROUP-BASED
Info:    INITIAL STRAIN RATE IS 0.000295556 0.000295556 0.000295556
Info:       CELL FLUCTUATION IS ISOTROPIC
Info: PARTICLE MESH EWALD (PME) ACTIVE
Info: PME TOLERANCE               1e-06
Info: PME EWALD COEFFICIENT       0.348832
Info: PME INTERPOLATION ORDER     4
Info: PME GRID DIMENSIONS         32 32 32
Info: PME MAXIMUM GRID SPACING    1
Info: PME CALCULATION WILL BE PERFORMED ON GPU
Info: FULL ELECTROSTATIC EVALUATION FREQUENCY      2
Info: USING VERLET I (r-RESPA) MTS SCHEME.
Info: C1 SPLITTING OF LONG RANGE ELECTROSTATICS
Info: PLACING ATOMS IN PATCHES BY HYDROGEN GROUPS
Info: RIGID BONDS TO HYDROGEN : ALL
Info:         ERROR TOLERANCE : 1e-08
Info:          MAX ITERATIONS : 100
Info: RIGID WATER USING SETTLE ALGORITHM
Info: RANDOM NUMBER SEED     1743543780
Info: USE HYDROGEN BONDS?    NO
Info: Using AMBER format force field!
Info: AMBER PARM FILE        mobley_4338603.prmtop
Info: COORDINATE PDB         mobley_4338603.pdb
Info: Exclusions will be read from PARM file!
Info: SCNB (VDW SCALING)     2
Info: USING ARITHMETIC MEAN TO COMBINE L-J SIGMA PARAMETERS
Info: BINARY COORDINATES     mobley_4338603_equil.coor
Info: SUMMARY OF PARAMETERS:
Info: 10 BONDS
Info: 14 ANGLES
Info:   14 HARMONIC
Info:   0 COSINE-BASED
Info: 7 DIHEDRAL
Info: 0 IMPROPER
Info: 0 CROSSTERM
Info: 0 VDW
Info: 36 VDW_PAIRS
Info: 0 NBTHOLE_PAIRS
Info: To read alchdata from file: mobley_4338603.pdb
Info: To read alchflag data from column: 5
Info: STRUCTURE SUMMARY:
Info: 2943 ATOMS
Info: 2943 BONDS
Info: 18 ANGLES
Info: 33 DIHEDRALS
Info: 0 IMPROPERS
Info: 0 CROSSTERMS
Info: 2982 EXCLUSIONS
Info: 2934 RIGID BONDS
Info: ALCH: 0 ATOMS TO DISAPPEAR IN FINAL STATE
Info: ALCH: 12 ATOMS TO APPEAR IN FINAL STATE
Info: 5895 DEGREES OF FREEDOM
Info: 986 HYDROGEN GROUPS
Info: 3 ATOMS IN LARGEST HYDROGEN GROUP
Info: 986 MIGRATION GROUPS
Info: 3 ATOMS IN LARGEST MIGRATION GROUP
Info: TOTAL MASS = 17748.2 amu
Info: TOTAL CHARGE = -8.9407e-08 e
Info: MASS DENSITY = 0.981204 g/cm^3
Info: ATOM DENSITY = 0.0979798 atoms/A^3
Info: ADDED 0 IMPLICIT EXCLUSIONS
Info: NONBONDED TABLE R-SQUARED SPACING: 0.0625
Info: NONBONDED TABLE SIZE: 705 POINTS
Info: REMOVING COM VELOCITY -0.0428637 0.00329519 0.0532264
Info: Use 3D box decompostion in PME FFT.
Info: Updated CUDA force table with 4096 elements.
Info: Updated CUDA LJ table with 8 x 8 elements.
Info: Found 14 unique exclusion lists needing 24 bytes
TCL: Running for 1500000 steps
ETITLE: TS BOND ANGLE DIHED IMPRP ELECT VDW BOUNDARY MISC KINETIC TOTAL TEMP POTENTIAL TOTALAVG TEMPAVG PRESSURE GPRESSURE VOLUME PRESSAVG GPRESSAVG
ENERGY: 0 4.5129 4.1903 13.2194 0.0000 -10995.6325 1489.5181 0.0000 0.0000 1782.8683 -7701.3235 304.3868 -9484.1918 -7701.3235 304.3868 422.4567 513.1116 30036.7945 422.4567 513.1116
ENERGY: 300000 2.1870 1.5471 13.4536 0.0000 -10866.1308 1347.0096 0.0000 0.0000 1770.2618 -7731.6716 302.2345 -9501.9334 -7688.8720 301.1918 -740.0778 -653.6858 30333.3943 -76.5363 3.3217
ENERGY: 600000 7.0413 3.1189 14.6913 0.0000 -10904.3371 1394.8939 0.0000 0.0000 1774.4555 -7710.1363 302.9505 -9484.5918 -7681.3377 300.5909 -465.2720 -457.5966 30528.1337 -43.7096 4.8893
ENERGY: 900000 6.0986 4.2631 14.1816 0.0000 -10773.3939 1394.1875 0.0000 0.0000 1793.5979 -7561.0653 306.2187 -9354.6632 -7664.6559 301.7024 -203.1377 -174.8780 30629.8564 -55.0637 -2.6491
ENERGY: 1200000 3.4105 4.5106 14.7796 0.0000 -10826.7890 1329.1186 0.0000 0.0000 1713.5940 -7761.3757 292.5597 -9474.9697 -7667.2603 301.5380 -700.9216 -646.6275 30178.3444 -50.7750 0.1602
ENERGY: 1500000 3.8411 3.1216 14.0960 0.0000 -10968.8308 1477.6893 0.0000 0.0000 1747.5773 -7722.5055 298.3616 -9470.0828 -7670.6788 301.3249 230.0896 264.4634 30244.0990 -21.8641 29.7226
TCL: Running FEP window   2: Lambda1 0.95   Lambda2 0.8999999999999999 [dLambda -0.050000000000000044]
TCL: Setting parameter firsttimestep to 0
TCL: Setting parameter alchLambda to 0.95
Info: NONBONDED TABLE R-SQUARED SPACING: 0.0625
Info: NONBONDED TABLE SIZE: 705 POINTS
TCL: Setting parameter alchLambda2 to 0.8999999999999999
Info: NONBONDED TABLE R-SQUARED SPACING: 0.0625
Info: NONBONDED TABLE SIZE: 705 POINTS
TCL: Running for 1500000 steps
ETITLE: TS BOND ANGLE DIHED IMPRP ELECT VDW BOUNDARY MISC KINETIC TOTAL TEMP POTENTIAL TOTALAVG TEMPAVG PRESSURE GPRESSURE VOLUME PRESSAVG GPRESSAVG
ENERGY: 0 3.8411 3.1216 14.0960 0.0000 -10965.8222 1476.8726 0.0000 0.0000 1746.7399 -7721.1511 298.2187 -9467.8910 -7721.1511 298.2187 171.8639 250.5749 30244.0990 171.8639 250.5749
ENERGY: 300000 2.5098 3.4303 15.9367 0.0000 -10869.4386 1408.3428 0.0000 0.0000 1747.1809 -7692.0382 298.2939 -9439.2191 -7687.2344 297.7346 -257.6738 -174.3110 30097.0967 -28.1449 33.2371
ENERGY: 600000 2.5154 3.1910 15.3156 0.0000 -10819.6762 1402.1788 0.0000 0.0000 1794.9854 -7601.4900 306.4556 -9396.4754 -7669.9449 300.8857 -232.0187 -180.4781 30316.3092 5.6219 61.5634
ENERGY: 900000 2.7986 2.8959 16.9396 0.0000 -10966.1094 1446.6716 0.0000 0.0000 1758.9753 -7737.8284 300.3076 -9496.8037 -7688.3246 300.3211 86.1477 160.7505 30125.7729 -117.6891 -63.3743
ENERGY: 1200000 3.7244 4.2679 17.6635 0.0000 -10780.5309 1430.7914 0.0000 0.0000 1727.6829 -7596.4006 294.9651 -9324.0835 -7676.9748 301.0889 -3.7998 51.7755 30531.5056 -86.2902 -26.3734
ENERGY: 1500000 1.7163 6.2477 14.8353 0.0000 -10727.3791 1279.1349 0.0000 0.0000 1756.3727 -7669.0722 299.8633 -9425.4449 -7683.1132 300.6150 -1336.9096 -1308.6248 30769.6104 -150.9077 -95.2936
TCL: Running FEP window   3: Lambda1 0.8999999999999999 Lambda2 0.8499999999999999 [dLambda -0.050000000000000044]
TCL: Setting parameter firsttimestep to 0
TCL: Setting parameter alchLambda to 0.8999999999999999
Info: NONBONDED TABLE R-SQUARED SPACING: 0.0625
Info: NONBONDED TABLE SIZE: 705 POINTS
TCL: Setting parameter alchLambda2 to 0.8499999999999999
Info: NONBONDED TABLE R-SQUARED SPACING: 0.0625
Info: NONBONDED TABLE SIZE: 705 POINTS
TCL: Running for 1500000 steps
ETITLE: TS BOND ANGLE DIHED IMPRP ELECT VDW BOUNDARY MISC KINETIC TOTAL TEMP POTENTIAL TOTALAVG TEMPAVG PRESSURE GPRESSURE VOLUME PRESSAVG GPRESSAVG
ENERGY: 0 1.7163 6.2477 14.8353 0.0000 -10724.0646 1278.3733 0.0000 0.0000 1755.5207 -7667.3714 299.7178 -9422.8920 -7667.3714 299.7178 -1402.7293 -1324.0621 30769.6104 -1402.7293 -1324.0621
ENERGY: 300000 3.1484 2.7777 13.1189 0.0000 -10750.5882 1337.6004 0.0000 0.0000 1795.5797 -7598.3632 306.5570 -9393.9428 -7659.5509 300.8336 -650.0832 -668.5749 30790.3806 -486.4689 -450.8679
ENERGY: 600000 1.5969 2.9624 13.0034 0.0000 -10895.1032 1408.0954 0.0000 0.0000 1748.3314 -7721.1137 298.4904 -9469.4451 -7664.8660 300.5808 -577.9226 -481.3860 30637.1131 -495.1779 -441.3829
ENERGY: 900000 4.0224 3.4019 13.5341 0.0000 -10907.9976 1397.6818 0.0000 0.0000 1742.8082 -7746.5492 297.5474 -9489.3575 -7669.7905 300.0304 -527.1143 -403.2753 30280.5518 -458.5094 -406.8861
ENERGY: 1200000 6.9365 3.0463 14.6957 0.0000 -11007.4979 1476.8307 0.0000 0.0000 1726.4086 -7779.5801 294.7475 -9505.9887 -7688.3829 298.9255 344.8465 357.8094 29784.2979 -342.3989 -294.8735
ENERGY: 1500000 6.4289 2.1043 14.9456 0.0000 -10815.0406 1339.4791 0.0000 0.0000 1803.6247 -7648.4581 307.9305 -9452.0828 -7683.4272 299.6361 -562.0883 -518.1435 30224.6282 -274.3330 -225.9360
TCL: Running FEP window   4: Lambda1 0.8499999999999999 Lambda2 0.7999999999999998 [dLambda -0.050000000000000044]
TCL: Setting parameter firsttimestep to 0
TCL: Setting parameter alchLambda to 0.8499999999999999
Info: NONBONDED TABLE R-SQUARED SPACING: 0.0625
Info: NONBONDED TABLE SIZE: 705 POINTS
TCL: Setting parameter alchLambda2 to 0.7999999999999998
Info: NONBONDED TABLE R-SQUARED SPACING: 0.0625
Info: NONBONDED TABLE SIZE: 705 POINTS
TCL: Running for 1500000 steps
ETITLE: TS BOND ANGLE DIHED IMPRP ELECT VDW BOUNDARY MISC KINETIC TOTAL TEMP POTENTIAL TOTALAVG TEMPAVG PRESSURE GPRESSURE VOLUME PRESSAVG GPRESSAVG
ENERGY: 0 6.4289 2.1043 14.9456 0.0000 -10811.3841 1337.7791 0.0000 0.0000 1802.7714 -7647.3548 307.7848 -9450.1262 -7647.3548 307.7848 -625.7294 -538.4077 30224.6282 -625.7294 -538.4077
ENERGY: 300000 3.6779 7.4587 16.6538 0.0000 -10835.1175 1432.5460 0.0000 0.0000 1773.9088 -7600.8723 302.8572 -9374.7811 -7668.0750 300.1934 201.2098 252.5394 30124.0999 162.9060 221.9258
ENERGY: 600000 2.6030 3.9434 13.0466 0.0000 -10980.4005 1441.5544 0.0000 0.0000 1764.5258 -7754.7273 301.2552 -9519.2531 -7690.0181 300.3086 -296.0124 -221.3795 30319.6157 57.5469 120.4054
ENERGY: 900000 1.3192 1.4831 14.1823 0.0000 -10866.0177 1467.2896 0.0000 0.0000 1824.6808 -7557.0627 311.5254 -9381.7435 -7672.2047 302.0966 561.7259 577.3304 30086.9471 34.7286 77.8720
ENERGY: 1200000 2.0818 3.8046 13.0206 0.0000 -10967.5996 1463.5474 0.0000 0.0000 1772.2077 -7712.9375 302.5667 -9485.1452 -7676.2264 301.8692 123.0424 180.3132 30236.9194 -24.6801 18.8544
ENERGY: 1500000 3.1258 2.9206 14.0932 0.0000 -10842.6573 1389.8536 0.0000 0.0000 1780.6873 -7651.9768 304.0145 -9432.6641 -7669.5196 302.7795 -335.2841 -264.2441 30608.2353 18.5042 60.8106
TCL: Running FEP window   5: Lambda1 0.7999999999999998 Lambda2 0.7499999999999998 [dLambda -0.050000000000000044]
TCL: Setting parameter firsttimestep to 0
TCL: Setting parameter alchLambda to 0.7999999999999998
Info: NONBONDED TABLE R-SQUARED SPACING: 0.0625
Info: NONBONDED TABLE SIZE: 705 POINTS
TCL: Setting parameter alchLambda2 to 0.7499999999999998
Info: NONBONDED TABLE R-SQUARED SPACING: 0.0625
Info: NONBONDED TABLE SIZE: 705 POINTS
TCL: Running for 1500000 steps
ETITLE: TS BOND ANGLE DIHED IMPRP ELECT VDW BOUNDARY MISC KINETIC TOTAL TEMP POTENTIAL TOTALAVG TEMPAVG PRESSURE GPRESSURE VOLUME PRESSAVG GPRESSAVG
ENERGY: 0 3.1258 2.9206 14.0932 0.0000 -10839.5382 1389.1952 0.0000 0.0000 1779.8366 -7650.3668 303.8692 -9430.2033 -7650.3668 303.8692 -367.5715 -275.5141 30608.2353 -367.5715 -275.5141
ENERGY: 300000 3.5414 3.8015 14.3526 0.0000 -10947.7370 1472.1984 0.0000 0.0000 1794.9681 -7658.8751 306.4526 -9453.8432 -7667.5403 301.9165 159.9723 312.0519 30256.6308 50.3502 155.5282
ENERGY: 600000 2.1055 4.6787 14.5434 0.0000 -10920.3611 1474.0376 0.0000 0.0000 1766.4696 -7658.5263 301.5871 -9424.9959 -7664.7644 302.5917 -76.5530 37.8603 30857.2884 -115.0921 -15.5451
ENERGY: 900000 3.2065 3.5264 15.6508 0.0000 -10818.6098 1358.8839 0.0000 0.0000 1729.8193 -7707.5228 295.3298 -9437.3422 -7667.8373 302.2692 -518.0090 -493.1567 30125.9966 -94.0941 -8.1272
ENERGY: 1200000 2.8181 2.5286 14.9663 0.0000 -10786.1221 1345.1701 0.0000 0.0000 1770.9518 -7649.6872 302.3523 -9420.6390 -7673.1235 301.8178 -579.0689 -477.9078 30393.9856 -114.5191 -26.8596
ENERGY: 1500000 1.9984 3.1203 14.6231 0.0000 -10897.4537 1505.5427 0.0000 0.0000 1733.7017 -7638.4676 295.9927 -9372.1693 -7670.5456 301.1373 718.2294 741.8131 30091.1677 -57.3276 24.4775
TCL: Running FEP window   6: Lambda1 0.7499999999999998 Lambda2 0.6999999999999997 [dLambda -0.050000000000000044]
TCL: Setting parameter firsttimestep to 0
TCL: Setting parameter alchLambda to 0.7499999999999998
Info: NONBONDED TABLE R-SQUARED SPACING: 0.0625
Info: NONBONDED TABLE SIZE: 705 POINTS
TCL: Setting parameter alchLambda2 to 0.6999999999999997
Info: NONBONDED TABLE R-SQUARED SPACING: 0.0625
Info: NONBONDED TABLE SIZE: 705 POINTS
TCL: Running for 1500000 steps
ETITLE: TS BOND ANGLE DIHED IMPRP ELECT VDW BOUNDARY MISC KINETIC TOTAL TEMP POTENTIAL TOTALAVG TEMPAVG PRESSURE GPRESSURE VOLUME PRESSAVG GPRESSAVG
ENERGY: 0 1.9984 3.1203 14.6231 0.0000 -10892.7302 1503.5622 0.0000 0.0000 1732.8261 -7636.6002 295.8432 -9369.4263 -7636.6002 295.8432 639.4854 717.7965 30091.1677 639.4854 717.7965
ENERGY: 300000 3.2284 1.9999 14.6892 0.0000 -10632.3558 1335.7128 0.0000 0.0000 1817.1729 -7459.5526 310.2436 -9276.7254 -7588.8289 301.7866 -471.1462 -456.5822 30857.8753 -231.3413 -162.6917
ENERGY: 600000 4.7895 3.0493 16.4714 0.0000 -10869.7071 1411.8082 0.0000 0.0000 1782.1954 -7651.3933 304.2719 -9433.5887 -7613.3492 302.1917 -343.7026 -256.5584 30461.9162 -398.5300 -336.6833
ENERGY: 900000 1.2256 1.4558 14.7055 0.0000 -10783.5690 1304.8059 0.0000 0.0000 1748.6270 -7712.7491 298.5408 -9461.3761 -7637.6947 301.8597 -1129.9789 -1039.7162 30282.8357 -434.9506 -382.1148
ENERGY: 1200000 2.9368 2.2615 13.4442 0.0000 -11007.0346 1536.6353 0.0000 0.0000 1731.8214 -7719.9354 295.6716 -9451.7568 -7659.6023 301.2509 906.0436 1052.5380 29680.4454 -339.8974 -280.8804
ENERGY: 1500000 2.0745 4.3025 15.5806 0.0000 -10749.0154 1346.8786 0.0000 0.0000 1688.6035 -7691.5758 288.2931 -9380.1793 -7666.2055 300.1901 -563.8976 -516.1261 30355.6607 -332.1847 -273.6546
TCL: Running FEP window   7: Lambda1 0.6999999999999997 Lambda2 0.6499999999999997 [dLambda -0.050000000000000044]
TCL: Setting parameter firsttimestep to 0
TCL: Setting parameter alchLambda to 0.6999999999999997
Info: NONBONDED TABLE R-SQUARED SPACING: 0.0625
Info: NONBONDED TABLE SIZE: 705 POINTS
TCL: Setting parameter alchLambda2 to 0.6499999999999997
Info: NONBONDED TABLE R-SQUARED SPACING: 0.0625
Info: NONBONDED TABLE SIZE: 705 POINTS
TCL: Running for 1500000 steps
ETITLE: TS BOND ANGLE DIHED IMPRP ELECT VDW BOUNDARY MISC KINETIC TOTAL TEMP POTENTIAL TOTALAVG TEMPAVG PRESSURE GPRESSURE VOLUME PRESSAVG GPRESSAVG
ENERGY: 0 2.0745 4.3025 15.5806 0.0000 -10745.5904 1346.7107 0.0000 0.0000 1687.7249 -7689.1973 288.1431 -9376.9221 -7689.1973 288.1431 -611.1197 -523.8945 30355.6607 -611.1197 -523.8945
ENERGY: 300000 2.6682 3.3586 14.0988 0.0000 -10813.4506 1375.2307 0.0000 0.0000 1767.0665 -7651.0278 301.6890 -9418.0943 -7662.2730 297.7053 -907.7931 -872.3286 30784.4653 -441.0183 -383.9143
ENERGY: 600000 1.5024 3.0463 14.5146 0.0000 -10835.5927 1419.8574 0.0000 0.0000 1724.8083 -7671.8638 294.4743 -9396.6720 -7666.2853 296.9720 -234.4754 -161.2013 30593.9417 -173.6715 -117.6951
ENERGY: 900000 6.7675 5.2950 14.1736 0.0000 -10821.6476 1398.2980 0.0000 0.0000 1790.5213 -7606.5923 305.6934 -9397.1136 -7661.0464 298.3423 -385.4009 -296.8218 30555.1302 -228.3224 -167.6610
ENERGY: 1200000 3.7516 3.8182 15.9141 0.0000 -10927.6961 1472.8401 0.0000 0.0000 1777.5233 -7653.8488 303.4743 -9431.3721 -7655.7648 299.6328 371.2062 401.9523 30320.6558 -73.8647 -17.2810
ENERGY: 1500000 6.1295 1.1387 14.4907 0.0000 -10749.2640 1375.4931 0.0000 0.0000 1738.4747 -7613.5374 296.8075 -9352.0120 -7660.3991 298.2816 14.2784 18.4158 30069.9275 -75.0491 -19.4396
TCL: Running FEP window   8: Lambda1 0.6499999999999997 Lambda2 0.5999999999999996 [dLambda -0.050000000000000044]
TCL: Setting parameter firsttimestep to 0
TCL: Setting parameter alchLambda to 0.6499999999999997
Info: NONBONDED TABLE R-SQUARED SPACING: 0.0625
Info: NONBONDED TABLE SIZE: 705 POINTS
TCL: Setting parameter alchLambda2 to 0.5999999999999996
Info: NONBONDED TABLE R-SQUARED SPACING: 0.0625
Info: NONBONDED TABLE SIZE: 705 POINTS
TCL: Running for 1500000 steps
ETITLE: TS BOND ANGLE DIHED IMPRP ELECT VDW BOUNDARY MISC KINETIC TOTAL TEMP POTENTIAL TOTALAVG TEMPAVG PRESSURE GPRESSURE VOLUME PRESSAVG GPRESSAVG
ENERGY: 0 6.1295 1.1387 14.4907 0.0000 -10747.5366 1375.0327 0.0000 0.0000 1737.5845 -7613.1606 296.6556 -9350.7451 -7613.1606 296.6556 -69.4401 8.3478 30069.9275 -69.4401 8.3478
ENERGY: 300000 3.0282 4.8166 13.0334 0.0000 -10883.6651 1489.2855 0.0000 0.0000 1753.0527 -7620.4487 299.2964 -9373.5014 -7597.9349 299.9220 424.4919 500.0156 30084.8548 85.1541 148.0832
ENERGY: 600000 3.7460 1.9065 14.0189 0.0000 -10848.2648 1474.0842 0.0000 0.0000 1712.6598 -7641.8493 292.4002 -9354.5091 -7629.8400 298.7979 727.7856 717.2489 29855.6478 107.2760 160.6262
ENERGY: 900000 7.8818 2.6821 13.4100 0.0000 -10832.8496 1392.5583 0.0000 0.0000 1721.6781 -7694.6394 293.9399 -9416.3174 -7645.8720 300.2237 -517.3868 -482.8020 30643.3637 96.5729 158.6528
ENERGY: 1200000 2.6106 5.0144 15.3453 0.0000 -10964.7869 1502.3458 0.0000 0.0000 1743.6103 -7695.8605 297.6843 -9439.4708 -7646.3677 300.0459 410.6548 482.3571 30336.1570 120.1102 179.5157
ENERGY: 1500000 2.4543 5.2532 13.1537 0.0000 -10829.1570 1382.7240 0.0000 0.0000 1750.9736 -7674.5982 298.9415 -9425.5718 -7638.8152 300.3574 -589.8609 -514.5100 30280.2529 71.8879 133.3399
TCL: Running FEP window   9: Lambda1 0.5999999999999996 Lambda2 0.5499999999999996 [dLambda -0.050000000000000044]
TCL: Setting parameter firsttimestep to 0
TCL: Setting parameter alchLambda to 0.5999999999999996
Info: NONBONDED TABLE R-SQUARED SPACING: 0.0625
Info: NONBONDED TABLE SIZE: 705 POINTS
TCL: Setting parameter alchLambda2 to 0.5499999999999996
Info: NONBONDED TABLE R-SQUARED SPACING: 0.0625
Info: NONBONDED TABLE SIZE: 705 POINTS
TCL: Running for 1500000 steps
ETITLE: TS BOND ANGLE DIHED IMPRP ELECT VDW BOUNDARY MISC KINETIC TOTAL TEMP POTENTIAL TOTALAVG TEMPAVG PRESSURE GPRESSURE VOLUME PRESSAVG GPRESSAVG
ENERGY: 0 2.4543 5.2532 13.1537 0.0000 -10827.4137 1383.0894 0.0000 0.0000 1750.1160 -7673.3472 298.7951 -9423.4631 -7673.3472 298.7951 -593.4269 -513.8567 30280.2529 -593.4269 -513.8567
ENERGY: 300000 0.6897 4.7175 14.7858 0.0000 -11024.4126 1508.0666 0.0000 0.0000 1699.1081 -7797.0449 290.0865 -9496.1530 -7712.6114 296.5428 127.9450 241.3425 30243.7184 -273.4662 -193.4150
ENERGY: 600000 2.8026 5.2860 14.7165 0.0000 -10757.1347 1354.9803 0.0000 0.0000 1703.8889 -7675.4605 290.9028 -9379.3493 -7711.3718 295.1675 -507.1209 -473.0884 30227.6779 -332.4004 -267.7202
ENERGY: 900000 2.3309 1.8557 14.4156 0.0000 -10850.9254 1386.9276 0.0000 0.0000 1779.4147 -7665.9809 303.7972 -9445.3957 -7683.9349 297.1326 -508.2750 -433.5164 30435.8418 -327.0239 -269.5823
ENERGY: 1200000 4.4414 4.1591 16.0287 0.0000 -10940.9898 1429.9179 0.0000 0.0000 1711.0260 -7775.4167 292.1213 -9486.4427 -7688.5934 296.7050 5.4326 36.4039 30143.2363 -225.4827 -170.1634
ENERGY: 1500000 2.5782 2.8485 15.1126 0.0000 -10826.9700 1335.4758 0.0000 0.0000 1759.0742 -7711.8807 300.3245 -9470.9550 -7679.2157 297.8015 -877.6427 -948.2535 30440.5006 -278.2932 -231.3090
TCL: Running FEP window  10: Lambda1 0.5499999999999996 Lambda2 0.4999999999999996 [dLambda -0.04999999999999999]
TCL: Setting parameter firsttimestep to 0
TCL: Setting parameter alchLambda to 0.5499999999999996
Info: NONBONDED TABLE R-SQUARED SPACING: 0.0625
Info: NONBONDED TABLE SIZE: 705 POINTS
TCL: Setting parameter alchLambda2 to 0.4999999999999996
Info: NONBONDED TABLE R-SQUARED SPACING: 0.0625
Info: NONBONDED TABLE SIZE: 705 POINTS
TCL: Running for 1500000 steps
ETITLE: TS BOND ANGLE DIHED IMPRP ELECT VDW BOUNDARY MISC KINETIC TOTAL TEMP POTENTIAL TOTALAVG TEMPAVG PRESSURE GPRESSURE VOLUME PRESSAVG GPRESSAVG
ENERGY: 0 2.5782 2.8485 15.1126 0.0000 -10826.0038 1335.4049 0.0000 0.0000 1758.1880 -7711.8717 300.1732 -9470.0597 -7711.8717 300.1732 -1039.7835 -954.1971 30440.5006 -1039.7835 -954.1971
ENERGY: 300000 2.7753 7.6198 14.6534 0.0000 -10822.1173 1402.5161 0.0000 0.0000 1712.6154 -7681.9373 292.3926 -9394.5528 -7644.9676 299.8962 -396.8582 -378.7830 30522.8228 -611.7717 -539.6490
ENERGY: 600000 3.6821 4.7393 16.8044 0.0000 -10869.7185 1402.1972 0.0000 0.0000 1760.4757 -7681.8199 300.5638 -9442.2956 -7642.6689 299.9289 -57.0342 -2.8338 29979.4870 -378.8368 -320.4321
ENERGY: 900000 1.9286 6.8862 13.3216 0.0000 -11049.4870 1498.3930 0.0000 0.0000 1766.1361 -7762.8216 301.5301 -9528.9576 -7667.9981 299.3993 -124.3718 -64.1731 30584.1204 -305.7177 -245.5483
ENERGY: 1200000 4.8414 6.4904 14.2039 0.0000 -10607.8659 1309.6811 0.0000 0.0000 1800.9021 -7471.7470 307.4657 -9272.6491 -7649.9330 300.0408 -551.0189 -510.9522 30699.8333 -329.1915 -265.6930
ENERGY: 1500000 2.0528 7.4095 14.9297 0.0000 -11054.3598 1564.6262 0.0000 0.0000 1728.8225 -7736.5190 295.1596 -9465.3416 -7645.1940 300.9294 1041.8948 1149.8072 29662.7500 -176.8356 -106.5839
TCL: Running FEP window  11: Lambda1 0.4999999999999996 Lambda2 0.4499999999999996 [dLambda -0.04999999999999999]
TCL: Setting parameter firsttimestep to 0
TCL: Setting parameter alchLambda to 0.4999999999999996
Info: NONBONDED TABLE R-SQUARED SPACING: 0.0625
Info: NONBONDED TABLE SIZE: 705 POINTS
TCL: Setting parameter alchLambda2 to 0.4499999999999996
Info: NONBONDED TABLE R-SQUARED SPACING: 0.0625
Info: NONBONDED TABLE SIZE: 705 POINTS
TCL: Running for 1500000 steps
ETITLE: TS BOND ANGLE DIHED IMPRP ELECT VDW BOUNDARY MISC KINETIC TOTAL TEMP POTENTIAL TOTALAVG TEMPAVG PRESSURE GPRESSURE VOLUME PRESSAVG GPRESSAVG
ENERGY: 0 2.0528 7.4095 14.9297 0.0000 -11054.5057 1565.0161 0.0000 0.0000 1727.9224 -7737.1752 295.0060 -9465.0976 -7737.1752 295.0060 1059.4520 1144.5078 29662.7500 1059.4520 1144.5078
ENERGY: 300000 6.1752 3.3040 14.0115 0.0000 -10972.1970 1538.3504 0.0000 0.0000 1725.6172 -7684.7387 294.6124 -9410.3558 -7680.8378 295.1074 732.3153 790.5310 30493.1875 279.6387 346.7199
ENERGY: 600000 4.0105 3.3481 14.6351 0.0000 -10864.1655 1407.6821 0.0000 0.0000 1788.2866 -7646.2031 305.3119 -9434.4897 -7687.9145 297.1150 -450.2951 -381.9738 30381.2215 73.3936 129.0033
ENERGY: 900000 7.2128 2.9777 14.1005 0.0000 -10961.9222 1494.5148 0.0000 0.0000 1817.2634 -7625.8530 310.2590 -9443.1164 -7667.2415 300.7011 438.7508 465.6820 30552.8647 68.5679 124.4775
ENERGY: 1200000 1.9443 3.8702 14.5313 0.0000 -10782.5843 1290.6352 0.0000 0.0000 1732.6714 -7738.9319 295.8168 -9471.6033 -7679.1806 299.6088 -1465.0323 -1347.7214 30671.8587 -72.2894 -13.8469
ENERGY: 1500000 1.8444 2.7395 14.0903 0.0000 -10798.9775 1410.7399 0.0000 0.0000 1775.5742 -7593.9892 303.1415 -9369.5634 -7677.4682 299.8280 -355.0194 -278.8156 30467.2119 -82.8400 -22.1493
TCL: Running FEP window  12: Lambda1 0.4499999999999996 Lambda2 0.39999999999999963 [dLambda -0.04999999999999999]
TCL: Setting parameter firsttimestep to 0
TCL: Setting parameter alchLambda to 0.4499999999999996
Info: NONBONDED TABLE R-SQUARED SPACING: 0.0625
Info: NONBONDED TABLE SIZE: 705 POINTS
TCL: Setting parameter alchLambda2 to 0.39999999999999963
Info: NONBONDED TABLE R-SQUARED SPACING: 0.0625
Info: NONBONDED TABLE SIZE: 705 POINTS
TCL: Running for 1500000 steps
ETITLE: TS BOND ANGLE DIHED IMPRP ELECT VDW BOUNDARY MISC KINETIC TOTAL TEMP POTENTIAL TOTALAVG TEMPAVG PRESSURE GPRESSURE VOLUME PRESSAVG GPRESSAVG
ENERGY: 0 1.8444 2.7395 14.0903 0.0000 -10798.9788 1411.2537 0.0000 0.0000 1774.6756 -7594.3753 302.9881 -9369.0509 -7594.3753 302.9881 -369.4769 -277.9941 30467.2119 -369.4769 -277.9941
ENERGY: 300000 1.6353 5.1462 13.5844 0.0000 -10646.1891 1354.0838 0.0000 0.0000 1740.7944 -7530.9449 297.2036 -9271.7394 -7628.7606 300.6813 -512.9231 -427.4920 30927.0143 -384.5276 -323.9923
ENERGY: 600000 4.6854 3.9385 13.8339 0.0000 -10815.9220 1406.1492 0.0000 0.0000 1743.5435 -7643.7715 297.6729 -9387.3150 -7655.7965 298.2453 -259.2342 -228.6951 30534.7061 -320.8313 -269.3987
ENERGY: 900000 3.7590 3.9194 12.8226 0.0000 -10843.8234 1433.9215 0.0000 0.0000 1714.0945 -7675.3063 292.6452 -9389.4009 -7657.2881 298.7476 264.5248 329.8708 29767.3011 -55.7173 0.7388
ENERGY: 1200000 2.6593 2.8792 13.9623 0.0000 -10967.3025 1472.6552 0.0000 0.0000 1718.8843 -7756.2623 293.4629 -9475.1466 -7661.9623 297.5583 228.4926 316.7478 29791.3390 -107.8960 -45.8656
ENERGY: 1500000 4.6742 3.7860 14.8820 0.0000 -10879.7714 1421.6715 0.0000 0.0000 1800.4805 -7634.2771 307.3937 -9434.7576 -7655.0823 298.6938 -487.6317 -398.9395 30355.2538 -144.4758 -78.0367
TCL: Running FEP window  13: Lambda1 0.39999999999999963 Lambda2 0.34999999999999964 [dLambda -0.04999999999999999]
TCL: Setting parameter firsttimestep to 0
TCL: Setting parameter alchLambda to 0.39999999999999963
Info: NONBONDED TABLE R-SQUARED SPACING: 0.0625
Info: NONBONDED TABLE SIZE: 705 POINTS
TCL: Setting parameter alchLambda2 to 0.34999999999999964
Info: NONBONDED TABLE R-SQUARED SPACING: 0.0625
Info: NONBONDED TABLE SIZE: 705 POINTS
TCL: Running for 1500000 steps
ETITLE: TS BOND ANGLE DIHED IMPRP ELECT VDW BOUNDARY MISC KINETIC TOTAL TEMP POTENTIAL TOTALAVG TEMPAVG PRESSURE GPRESSURE VOLUME PRESSAVG GPRESSAVG
ENERGY: 0 4.6742 3.7860 14.8820 0.0000 -10879.7700 1421.9273 0.0000 0.0000 1799.5936 -7634.9069 307.2423 -9434.5005 -7634.9069 307.2423 -493.7326 -402.7158 30355.2538 -493.7326 -402.7158
ENERGY: 300000 3.9054 2.4637 14.0426 0.0000 -10952.0952 1493.7472 0.0000 0.0000 1802.8251 -7635.1112 307.7940 -9437.9364 -7655.5189 303.6213 518.5440 585.9492 30059.4015 207.7462 255.4363
ENERGY: 600000 2.0498 3.6703 13.4140 0.0000 -10825.4233 1439.4428 0.0000 0.0000 1786.9935 -7579.8530 305.0911 -9366.8465 -7644.7504 303.1827 117.6438 214.6219 30331.3434 402.1940 457.3547
ENERGY: 900000 4.2037 3.5510 13.1058 0.0000 -10872.2951 1371.5502 0.0000 0.0000 1765.5999 -7714.2845 301.4386 -9479.8845 -7661.0336 302.6392 -808.7036 -695.1874 30235.2574 112.1653 163.3665
ENERGY: 1200000 3.5874 12.2807 14.9886 0.0000 -10819.3662 1426.4637 0.0000 0.0000 1763.0913 -7598.9545 301.0103 -9362.0458 -7651.0104 302.3608 59.2555 164.2841 30337.6387 155.5930 214.0039
ENERGY: 1500000 4.7899 4.1178 12.6976 0.0000 -11005.4375 1491.5061 0.0000 0.0000 1761.8610 -7730.4650 300.8003 -9492.3260 -7651.6477 302.7968 352.6098 417.7154 30096.5910 107.2578 166.7840
TCL: Running FEP window  14: Lambda1 0.34999999999999964 Lambda2 0.29999999999999966 [dLambda -0.04999999999999999]
TCL: Setting parameter firsttimestep to 0
TCL: Setting parameter alchLambda to 0.34999999999999964
Info: NONBONDED TABLE R-SQUARED SPACING: 0.0625
Info: NONBONDED TABLE SIZE: 705 POINTS
TCL: Setting parameter alchLambda2 to 0.29999999999999966
Info: NONBONDED TABLE R-SQUARED SPACING: 0.0625
Info: NONBONDED TABLE SIZE: 705 POINTS
TCL: Running for 1500000 steps
ETITLE: TS BOND ANGLE DIHED IMPRP ELECT VDW BOUNDARY MISC KINETIC TOTAL TEMP POTENTIAL TOTALAVG TEMPAVG PRESSURE GPRESSURE VOLUME PRESSAVG GPRESSAVG
ENERGY: 0 4.7899 4.1178 12.6976 0.0000 -11005.4379 1492.1030 0.0000 0.0000 1760.9567 -7730.7728 300.6459 -9491.7295 -7730.7728 300.6459 321.5815 414.6143 30096.5910 321.5815 414.6143
ENERGY: 300000 4.0714 3.4783 12.9534 0.0000 -10974.4593 1547.3417 0.0000 0.0000 1808.7381 -7597.8764 308.8035 -9406.6145 -7683.1365 301.9014 1005.2380 1015.1284 30208.9692 359.4705 418.6734
ENERGY: 600000 2.2833 3.5890 16.6392 0.0000 -10890.5675 1450.6087 0.0000 0.0000 1752.6846 -7664.7628 299.2336 -9417.4474 -7696.9640 299.4733 237.0923 353.2802 30003.6604 143.3371 208.6424
ENERGY: 900000 1.9492 4.4881 16.2435 0.0000 -10788.8073 1371.8903 0.0000 0.0000 1720.7129 -7673.5232 293.7751 -9394.2361 -7697.6056 297.5947 -600.8825 -607.1708 30746.3153 -94.9505 -43.6566
ENERGY: 1200000 2.4401 2.0272 16.6167 0.0000 -11002.5194 1501.6823 0.0000 0.0000 1842.1697 -7637.5833 314.5113 -9479.7530 -7699.9057 299.4635 503.0363 549.5686 30013.9922 -84.7650 -35.4445
ENERGY: 1500000 1.8750 5.2765 14.9174 0.0000 -10799.0831 1413.0959 0.0000 0.0000 1773.7525 -7590.1659 302.8305 -9363.9183 -7683.4736 299.8277 274.3958 239.8377 30385.7061 -39.3355 5.6500
TCL: Running FEP window  15: Lambda1 0.29999999999999966 Lambda2 0.24999999999999967 [dLambda -0.04999999999999999]
TCL: Setting parameter firsttimestep to 0
TCL: Setting parameter alchLambda to 0.29999999999999966
Info: NONBONDED TABLE R-SQUARED SPACING: 0.0625
Info: NONBONDED TABLE SIZE: 705 POINTS
TCL: Setting parameter alchLambda2 to 0.24999999999999967
Info: NONBONDED TABLE R-SQUARED SPACING: 0.0625
Info: NONBONDED TABLE SIZE: 705 POINTS
TCL: Running for 1500000 steps
ETITLE: TS BOND ANGLE DIHED IMPRP ELECT VDW BOUNDARY MISC KINETIC TOTAL TEMP POTENTIAL TOTALAVG TEMPAVG PRESSURE GPRESSURE VOLUME PRESSAVG GPRESSAVG
ENERGY: 0 1.8750 5.2765 14.9174 0.0000 -10799.0819 1413.4354 0.0000 0.0000 1772.9355 -7590.6420 302.6910 -9363.5776 -7590.6420 302.6910 140.3130 237.5243 30385.7061 140.3130 237.5243
ENERGY: 300000 4.8822 3.2744 14.5062 0.0000 -10893.3528 1398.7410 0.0000 0.0000 1746.9107 -7725.0384 298.2478 -9471.9490 -7646.8778 300.2265 -597.5019 -590.7231 30788.6365 -314.2760 -276.5307
ENERGY: 600000 7.8005 3.5890 14.2701 0.0000 -10853.0948 1394.4560 0.0000 0.0000 1754.8714 -7678.1079 299.6069 -9432.9792 -7654.1878 301.1890 -447.9774 -342.4748 30201.5374 -176.6321 -113.6270
ENERGY: 900000 5.8731 2.3515 14.8852 0.0000 -10824.5890 1425.0317 0.0000 0.0000 1721.3848 -7655.0626 293.8898 -9376.4474 -7668.0990 300.2899 84.6524 93.7141 30355.4063 -213.4278 -153.0248
ENERGY: 1200000 5.2354 4.2208 18.1339 0.0000 -10841.9102 1392.0811 0.0000 0.0000 1764.7960 -7657.4430 301.3014 -9422.2390 -7666.7505 300.4922 -406.3492 -345.4112 30502.5534 -181.3212 -114.3024
ENERGY: 1500000 5.8362 3.4996 13.1227 0.0000 -10827.9105 1430.3679 0.0000 0.0000 1742.1228 -7632.9613 297.4304 -9375.0842 -7665.2178 299.7732 293.7193 307.8354 29995.6842 -163.2350 -108.3074
TCL: Running FEP window  16: Lambda1 0.24999999999999967 Lambda2 0.19999999999999968 [dLambda -0.04999999999999999]
TCL: Setting parameter firsttimestep to 0
TCL: Setting parameter alchLambda to 0.24999999999999967
Info: NONBONDED TABLE R-SQUARED SPACING: 0.0625
Info: NONBONDED TABLE SIZE: 705 POINTS
TCL: Setting parameter alchLambda2 to 0.19999999999999968
Info: NONBONDED TABLE R-SQUARED SPACING: 0.0625
Info: NONBONDED TABLE SIZE: 705 POINTS
TCL: Running for 1500000 steps
ETITLE: TS BOND ANGLE DIHED IMPRP ELECT VDW BOUNDARY MISC KINETIC TOTAL TEMP POTENTIAL TOTALAVG TEMPAVG PRESSURE GPRESSURE VOLUME PRESSAVG GPRESSAVG
ENERGY: 0 5.8361 3.4996 13.1227 0.0000 -10827.9090 1430.8460 0.0000 0.0000 1741.2364 -7633.3682 297.2791 -9374.6046 -7633.3682 297.2791 229.8762 310.3096 29995.6842 229.8762 310.3096
ENERGY: 300000 0.5365 7.1926 15.3093 0.0000 -10770.0071 1447.2452 0.0000 0.0000 1740.4438 -7559.2798 297.1437 -9299.7236 -7588.5261 303.0165 70.5784 136.8474 30517.0924 41.0073 118.5340
ENERGY: 600000 3.9528 2.4381 12.8355 0.0000 -10738.2696 1345.6571 0.0000 0.0000 1747.8200 -7625.5659 298.4031 -9373.3860 -7619.2670 301.0011 -749.8939 -692.5151 30536.8808 -70.4955 5.9804
ENERGY: 900000 2.0010 5.5066 14.1924 0.0000 -10821.4042 1337.2124 0.0000 0.0000 1764.1752 -7698.3167 301.1954 -9462.4919 -7626.8358 300.5149 -736.7328 -720.6647 30080.4634 -175.8219 -118.4979
ENERGY: 1200000 4.3142 2.6007 13.6681 0.0000 -10857.6695 1407.6446 0.0000 0.0000 1767.4545 -7661.9874 301.7552 -9429.4419 -7652.5951 300.2408 -171.0422 -106.8805 30230.0574 -188.0181 -125.1373
ENERGY: 1500000 7.3684 3.4256 14.3912 0.0000 -11085.3452 1522.2467 0.0000 0.0000 1766.1314 -7771.7820 301.5293 -9537.9134 -7660.3919 300.5072 409.4338 438.8090 29870.6461 -230.5702 -167.1886
TCL: Running FEP window  17: Lambda1 0.19999999999999968 Lambda2 0.1499999999999997 [dLambda -0.04999999999999999]
TCL: Setting parameter firsttimestep to 0
TCL: Setting parameter alchLambda to 0.19999999999999968
Info: NONBONDED TABLE R-SQUARED SPACING: 0.0625
Info: NONBONDED TABLE SIZE: 705 POINTS
TCL: Setting parameter alchLambda2 to 0.1499999999999997
Info: NONBONDED TABLE R-SQUARED SPACING: 0.0625
Info: NONBONDED TABLE SIZE: 705 POINTS
TCL: Running for 1500000 steps
ETITLE: TS BOND ANGLE DIHED IMPRP ELECT VDW BOUNDARY MISC KINETIC TOTAL TEMP POTENTIAL TOTALAVG TEMPAVG PRESSURE GPRESSURE VOLUME PRESSAVG GPRESSAVG
ENERGY: 0 7.3684 3.4256 14.3912 0.0000 -11085.3459 1522.3785 0.0000 0.0000 1765.2439 -7772.5385 301.3778 -9537.7824 -7772.5385 301.3778 345.7209 435.0320 29870.6461 345.7209 435.0320
ENERGY: 300000 2.9103 2.4536 16.9234 0.0000 -10956.5976 1498.7934 0.0000 0.0000 1791.8468 -7643.6701 305.9197 -9435.5168 -7687.4717 300.7817 643.3681 695.8721 29875.2584 -14.9766 58.0509
ENERGY: 600000 4.9653 5.4086 14.3947 0.0000 -10917.0175 1404.3225 0.0000 0.0000 1708.9704 -7778.9560 291.7703 -9487.9264 -7697.8135 298.6950 -531.4364 -461.0616 30090.1739 64.7670 138.3211
ENERGY: 900000 2.1131 5.3993 14.8300 0.0000 -10882.0918 1515.5742 0.0000 0.0000 1788.7424 -7555.4328 305.3897 -9344.1752 -7688.0829 299.2639 762.8204 811.6184 30388.0022 143.0976 205.8381
ENERGY: 1200000 1.3791 3.2997 12.6939 0.0000 -10824.5181 1404.3577 0.0000 0.0000 1681.0370 -7721.7507 287.0013 -9402.7877 -7687.1454 298.2043 -298.3652 -267.9112 30072.7889 123.7593 177.2753
ENERGY: 1500000 2.0598 6.3259 15.9737 0.0000 -10973.9862 1476.5276 0.0000 0.0000 1740.6612 -7732.4381 297.1809 -9473.0993 -7685.7458 297.9525 -152.1297 -33.9379 30461.7075 32.7286 91.0421
TCL: Running FEP window  18: Lambda1 0.1499999999999997 Lambda2 0.09999999999999969 [dLambda -0.05 ]
TCL: Setting parameter firsttimestep to 0
TCL: Setting parameter alchLambda to 0.1499999999999997
Info: NONBONDED TABLE R-SQUARED SPACING: 0.0625
Info: NONBONDED TABLE SIZE: 705 POINTS
TCL: Setting parameter alchLambda2 to 0.09999999999999969
Info: NONBONDED TABLE R-SQUARED SPACING: 0.0625
Info: NONBONDED TABLE SIZE: 705 POINTS
TCL: Running for 1500000 steps
ETITLE: TS BOND ANGLE DIHED IMPRP ELECT VDW BOUNDARY MISC KINETIC TOTAL TEMP POTENTIAL TOTALAVG TEMPAVG PRESSURE GPRESSURE VOLUME PRESSAVG GPRESSAVG
ENERGY: 0 2.0598 6.3259 15.9737 0.0000 -10973.9874 1476.9954 0.0000 0.0000 1739.7959 -7732.8367 297.0331 -9472.6326 -7732.8367 297.0331 -114.3763 -32.3767 30461.7075 -114.3763 -32.3767
ENERGY: 300000 6.1031 3.1907 13.9210 0.0000 -10926.7722 1498.0494 0.0000 0.0000 1746.9707 -7658.5372 298.2581 -9405.5080 -7710.1517 297.2819 513.4366 529.3117 30155.9518 360.3672 406.7570
ENERGY: 600000 7.1182 2.5474 15.3917 0.0000 -10954.4067 1452.6868 0.0000 0.0000 1758.5530 -7718.1097 300.2355 -9476.6626 -7704.1498 299.5772 12.9757 86.2632 30322.4981 280.6480 358.6480
ENERGY: 900000 2.6375 3.9661 16.3873 0.0000 -10934.3072 1462.7616 0.0000 0.0000 1707.8558 -7740.6988 291.5800 -9448.5546 -7719.6569 298.1286 289.6605 299.2312 29813.2514 237.6174 301.7923
ENERGY: 1200000 3.4868 1.5710 14.3339 0.0000 -10858.1247 1438.3223 0.0000 0.0000 1769.2218 -7631.1889 302.0570 -9400.4107 -7705.0763 298.4068 -105.8714 -41.7919 30398.9695 154.2947 218.5057
ENERGY: 1500000 1.9421 5.3091 15.9137 0.0000 -10899.7082 1413.2480 0.0000 0.0000 1776.1473 -7687.1480 303.2393 -9463.2953 -7688.9396 299.5996 -212.7613 -172.3420 29871.9477 158.9979 225.9383
TCL: Running FEP window  19: Lambda1 0.09999999999999969 Lambda2 0.049999999999999684 [dLambda -0.05 ]
TCL: Setting parameter firsttimestep to 0
TCL: Setting parameter alchLambda to 0.09999999999999969
Info: NONBONDED TABLE R-SQUARED SPACING: 0.0625
Info: NONBONDED TABLE SIZE: 705 POINTS
TCL: Setting parameter alchLambda2 to 0.049999999999999684
Info: NONBONDED TABLE R-SQUARED SPACING: 0.0625
Info: NONBONDED TABLE SIZE: 705 POINTS
TCL: Running for 1500000 steps
ETITLE: TS BOND ANGLE DIHED IMPRP ELECT VDW BOUNDARY MISC KINETIC TOTAL TEMP POTENTIAL TOTALAVG TEMPAVG PRESSURE GPRESSURE VOLUME PRESSAVG GPRESSAVG
ENERGY: 0 1.9421 5.3091 15.9137 0.0000 -10899.7092 1413.1994 0.0000 0.0000 1775.2557 -7688.0893 303.0871 -9463.3450 -7688.0893 303.0871 -242.9166 -173.7038 29871.9477 -242.9166 -173.7038
ENERGY: 300000 7.3701 2.3361 17.1865 0.0000 -10857.7715 1455.0013 0.0000 0.0000 1751.4465 -7624.4311 299.0222 -9375.8775 -7660.6731 298.8860 378.2491 399.9686 30230.8512 -320.5824 -261.7493
ENERGY: 600000 4.1953 2.1140 12.6984 0.0000 -10867.0664 1424.0037 0.0000 0.0000 1765.5561 -7658.4989 301.4311 -9424.0550 -7655.3066 299.5583 -47.8279 44.9968 30220.9941 -239.3439 -182.9302
ENERGY: 900000 5.1612 3.6420 16.3716 0.0000 -10872.4742 1426.9716 0.0000 0.0000 1762.6766 -7657.6512 300.9395 -9420.3279 -7667.7836 297.9595 -344.6605 -297.9204 30628.9953 -282.3367 -232.3975
ENERGY: 1200000 3.1999 3.3694 15.1715 0.0000 -10979.0456 1488.4303 0.0000 0.0000 1814.6737 -7654.2009 309.8169 -9468.8746 -7667.8598 299.6248 145.9558 216.1370 30503.4751 -233.4343 -185.9453
ENERGY: 1500000 4.4023 1.5123 14.0083 0.0000 -10924.7932 1436.4348 0.0000 0.0000 1744.1934 -7724.2422 297.7839 -9468.4356 -7673.8722 299.6798 -327.4004 -301.9763 30643.0629 -360.2649 -308.6545
TCL: Running FEP window  20: Lambda1 0.049999999999999684 Lambda2 0.0    [dLambda -0.049999999999999684]
TCL: Setting parameter firsttimestep to 0
TCL: Setting parameter alchLambda to 0.049999999999999684
Info: NONBONDED TABLE R-SQUARED SPACING: 0.0625
Info: NONBONDED TABLE SIZE: 705 POINTS
TCL: Setting parameter alchLambda2 to 0.0
Info: NONBONDED TABLE R-SQUARED SPACING: 0.0625
Info: NONBONDED TABLE SIZE: 705 POINTS
TCL: Running for 1500000 steps
ETITLE: TS BOND ANGLE DIHED IMPRP ELECT VDW BOUNDARY MISC KINETIC TOTAL TEMP POTENTIAL TOTALAVG TEMPAVG PRESSURE GPRESSURE VOLUME PRESSAVG GPRESSAVG
ENERGY: 0 4.4023 1.5123 14.0083 0.0000 -10924.7932 1436.1175 0.0000 0.0000 1743.2871 -7725.4658 297.6292 -9468.7529 -7725.4658 297.6292 -366.5867 -302.1988 30643.0629 -366.5867 -302.1988
ENERGY: 300000 4.4010 3.0526 13.2271 0.0000 -10951.3699 1474.7927 0.0000 0.0000 1744.5295 -7711.3671 297.8413 -9455.8966 -7679.4621 297.8488 110.4663 172.6859 30262.6838 -190.3439 -136.8111
ENERGY: 600000 4.0956 4.0876 13.0996 0.0000 -10886.4820 1426.4596 0.0000 0.0000 1807.4954 -7631.2442 308.5914 -9438.7396 -7659.0371 300.9539 -164.1086 -65.4852 30355.9609 -415.8020 -353.1830
ENERGY: 900000 5.0382 2.1495 13.3060 0.0000 -10839.5623 1454.6527 0.0000 0.0000 1776.3135 -7588.1024 303.2677 -9364.4159 -7655.7347 300.4064 -10.3590 45.4762 30759.0794 -380.9787 -310.9762
ENERGY: 1200000 3.3549 3.4369 12.7502 0.0000 -10939.8204 1458.1068 0.0000 0.0000 1747.4398 -7714.7318 298.3382 -9462.1716 -7675.1423 299.9974 231.6895 302.9372 29799.2380 -350.2292 -289.0533
ENERGY: 1500000 3.3024 6.5209 14.3928 0.0000 -10873.9955 1432.0208 0.0000 0.0000 1790.7819 -7626.9766 305.7379 -9417.7585 -7669.3324 299.8201 14.9783 39.7617 30086.3773 -315.5356 -254.8964
TCL: Exiting due to exit command.
