Info: SIMULATION PARAMETERS:
Info: TIMESTEP               2
Info: NUMBER OF STEPS        0
Info: STEPS PER CYCLE        10
Info: PERIODIC CELL BASIS 1  30.4738 0 0
Info: PERIODIC CELL BASIS 2  0 31.5464 0
Info: PERIODIC CELL BASIS 3  0 0 32.2484
Info: PERIODIC CELL CENTER   0 0 0
Info: WRAPPING WATERS AROUND PERIODIC BOUNDARIES ON OUTPUT.
Info: WRAPPING ALL CLUSTERS AROUND PERIODIC BOUNDARIES ON OUTPUT.
Info: FIRST LDB TIMESTEP     50
Info: LAST LDB TIMESTEP     -1
Info: HOM BACKGROUND SCALING 1
Info: PME BACKGROUND SCALING 1
Info: MIN ATOMS PER PATCH    40
Info: EMPTY PATCH LOAD       40 ATOMS
Info: VELOCITY FILE          mobley_2771569_equil.vel
Info: CENTER OF MASS MOVING INITIALLY? NO
Info: DIELECTRIC             1
Info: EXCLUDE                SCALED ONE-FOUR
Info: 1-4 ELECTROSTATICS SCALED BY 0.833333
Info: MODIFIED 1-4 VDW PARAMETERS WILL BE USED
Info: DCD FILENAME           mobley_2771569_prod.dcd
Info: DCD FREQUENCY          100000
Info: DCD FIRST STEP         100000
Info: DCD FILE WILL CONTAIN UNIT CELL DATA
Info: XST FILENAME           mobley_2771569_prod.xst
Info: XST FREQUENCY          100000
Info: NO VELOCITY DCD OUTPUT
Info: NO FORCE DCD OUTPUT
Info: OUTPUT FILENAME        mobley_2771569_prod
Info: BINARY OUTPUT FILES WILL BE USED
Info: RESTART FILENAME       mobley_2771569_prod.restart
Info: RESTART FREQUENCY      100000
Info: BINARY RESTART FILES WILL BE USED
Info: CUTOFF                 9
Info: PAIRLIST DISTANCE      11
Info: PAIRLIST SHRINK RATE   0.01
Info: PAIRLIST GROW RATE     0.01
Info: PAIRLIST TRIGGER       0.3
Info: PAIRLISTS PER CYCLE    2
Info: PAIRLISTS ENABLED
Info: MARGIN                 2
Info: HYDROGEN GROUP CUTOFF  2.5
Info: PATCH DIMENSION        15.5
Info: ENERGY OUTPUT STEPS    100000
Info: ENERGY EVALUATION STEPS    100000
Info: OUTPUT ENERGY PRECISION 4
Info: CROSSTERM ENERGY INCLUDED IN DIHEDRAL
Info: TIMING OUTPUT STEPS    1000000
Info: PRESSURE OUTPUT STEPS  100000
Info: ALCHEMICAL FEP ON
Info: FEP CURRENT LAMBDA VALUE     0
Info: FEP COMPARISON LAMBDA VALUE  0.05
Info: FEP INTRA-ALCHEMICAL NON-BONDED INTERACTIONS WILL BE RETAINED
Info: FEP INTRA-ALCHEMICAL BONDED INTERACTIONS WILL BE RETAINED
Info: FEP VDW SHIFTING COEFFICIENT 5
Info: FEP ELEC. ACTIVE FOR ANNIHILATED PARTICLES BETWEEN LAMBDA = 0 AND LAMBDA = 0.5
Info: FEP ELEC. ACTIVE FOR EXNIHILATED PARTICLES BETWEEN LAMBDA = 0.5 AND LAMBDA = 1
Info: FEP VDW ACTIVE FOR ANNIHILATED PARTICLES BETWEEN LAMBDA = 0 AND LAMBDA = 1
Info: FEP VDW ACTIVE FOR EXNIHILATED PARTICLES BETWEEN LAMBDA = 0 AND LAMBDA = 1
Info: FEP BOND ACTIVE FOR ANNIHILATED PARTICLES BETWEEN LAMBDA = 1 AND LAMBDA = 1
Info: FEP BOND ACTIVE FOR EXNIHILATED PARTICLES BETWEEN LAMBDA = 0 AND LAMBDA = 0
Info: LANGEVIN DYNAMICS ACTIVE
Info: LANGEVIN TEMPERATURE   300
Info: LANGEVIN USING BBK INTEGRATOR
Info: LANGEVIN DAMPING COEFFICIENT IS 1 INVERSE PS
Info: LANGEVIN DYNAMICS APPLIED TO HYDROGENS
Info: LANGEVIN PISTON PRESSURE CONTROL ACTIVE
Info:        TARGET PRESSURE IS 1.01325 BAR
Info:     OSCILLATION PERIOD IS 50 FS
Info:             DECAY TIME IS 25 FS
Info:     PISTON TEMPERATURE IS 300 K
Info:       PRESSURE CONTROL IS GROUP-BASED
Info:    INITIAL STRAIN RATE IS 0.000162776 0.000162776 0.000162776
Info:       CELL FLUCTUATION IS ISOTROPIC
Info: PARTICLE MESH EWALD (PME) ACTIVE
Info: PME TOLERANCE               1e-06
Info: PME EWALD COEFFICIENT       0.348832
Info: PME INTERPOLATION ORDER     4
Info: PME GRID DIMENSIONS         32 32 36
Info: PME MAXIMUM GRID SPACING    1
Info: PME CALCULATION WILL BE PERFORMED ON GPU
Info: FULL ELECTROSTATIC EVALUATION FREQUENCY      2
Info: USING VERLET I (r-RESPA) MTS SCHEME.
Info: C1 SPLITTING OF LONG RANGE ELECTROSTATICS
Info: PLACING ATOMS IN PATCHES BY HYDROGEN GROUPS
Info: RIGID BONDS TO HYDROGEN : ALL
Info:         ERROR TOLERANCE : 1e-08
Info:          MAX ITERATIONS : 100
Info: RIGID WATER USING SETTLE ALGORITHM
Info: RANDOM NUMBER SEED     1743607647
Info: USE HYDROGEN BONDS?    NO
Info: Using AMBER format force field!
Info: AMBER PARM FILE        mobley_2771569.prmtop
Info: COORDINATE PDB         mobley_2771569.pdb
Info: Exclusions will be read from PARM file!
Info: SCNB (VDW SCALING)     2
Info: USING ARITHMETIC MEAN TO COMBINE L-J SIGMA PARAMETERS
Info: BINARY COORDINATES     mobley_2771569_equil.coor
Info: SUMMARY OF PARAMETERS:
Info: 6 BONDS
Info: 6 ANGLES
Info:   6 HARMONIC
Info:   0 COSINE-BASED
Info: 3 DIHEDRAL
Info: 0 IMPROPER
Info: 0 CROSSTERM
Info: 0 VDW
Info: 21 VDW_PAIRS
Info: 0 NBTHOLE_PAIRS
Info: To read alchdata from file: mobley_2771569.pdb
Info: To read alchflag data from column: 5
Info: STRUCTURE SUMMARY:
Info: 2968 ATOMS
Info: 2968 BONDS
Info: 36 ANGLES
Info: 54 DIHEDRALS
Info: 0 IMPROPERS
Info: 0 CROSSTERMS
Info: 3049 EXCLUSIONS
Info: 2961 RIGID BONDS
Info: ALCH: 0 ATOMS TO DISAPPEAR IN FINAL STATE
Info: ALCH: 19 ATOMS TO APPEAR IN FINAL STATE
Info: 5943 DEGREES OF FREEDOM
Info: 990 HYDROGEN GROUPS
Info: 4 ATOMS IN LARGEST HYDROGEN GROUP
Info: 990 MIGRATION GROUPS
Info: 4 ATOMS IN LARGEST MIGRATION GROUP
Info: TOTAL MASS = 17809.9 amu
Info: TOTAL CHARGE = 9.99197e-05 e
Info: MASS DENSITY = 0.953973 g/cm^3
Info: ATOM DENSITY = 0.0957369 atoms/A^3
Info: ADDED 0 IMPLICIT EXCLUSIONS
Info: NONBONDED TABLE R-SQUARED SPACING: 0.0625
Info: NONBONDED TABLE SIZE: 705 POINTS
Info: REMOVING COM VELOCITY 0.0754663 0.0663058 0.0987912
Info: Use 3D box decompostion in PME FFT.
Info: Updated CUDA force table with 4096 elements.
Info: Updated CUDA LJ table with 6 x 6 elements.
Info: Found 22 unique exclusion lists needing 60 bytes
TCL: Running for 1500000 steps
ETITLE: TS BOND ANGLE DIHED IMPRP ELECT VDW BOUNDARY MISC KINETIC TOTAL TEMP POTENTIAL TOTALAVG TEMPAVG PRESSURE GPRESSURE VOLUME PRESSAVG GPRESSAVG
ENERGY: 0 5.1837 6.9541 4.1003 0.0000 -10613.7425 1445.2887 0.0000 0.0000 1721.8672 -7430.3485 291.5978 -9152.2157 -7430.3485 291.5978 -447.9395 -350.5420 31001.6377 -447.9395 -350.5420
ENERGY: 300000 4.6586 6.8121 3.2894 0.0000 -10570.9287 1360.7617 0.0000 0.0000 1754.0655 -7441.3414 297.0506 -9195.4069 -7453.3365 293.7757 -508.1106 -472.2224 30160.8509 -266.1352 -206.5053
ENERGY: 600000 2.1165 7.4751 3.5839 0.0000 -10667.0653 1386.5065 0.0000 0.0000 1759.5529 -7507.8304 297.9799 -9267.3832 -7473.7498 295.4857 -472.2668 -477.6328 30196.6033 -251.4724 -190.3148
ENERGY: 900000 4.8746 11.6171 5.5112 0.0000 -10641.2683 1418.2659 0.0000 0.0000 1766.3939 -7434.6056 299.1384 -9200.9995 -7462.7756 297.0509 -98.1556 -74.9864 30175.8258 -288.4772 -237.9623
ENERGY: 1200000 2.1113 9.7759 4.0459 0.0000 -10656.5908 1469.9071 0.0000 0.0000 1781.0153 -7389.7354 301.6146 -9170.7506 -7437.1984 298.5264 285.4831 385.1111 30230.4675 -160.4085 -100.9341
ENERGY: 1500000 0.8558 9.3825 4.6729 0.0000 -10639.2706 1409.7185 0.0000 0.0000 1793.9000 -7420.7410 303.7966 -9214.6410 -7443.8761 298.6452 -326.9532 -253.5537 30387.1452 -77.3474 -14.7413
TCL: Running FEP window   2: Lambda1 0.05   Lambda2 0.1    [dLambda 0.05  ]
TCL: Setting parameter firsttimestep to 0
TCL: Setting parameter alchLambda to 0.05
Info: NONBONDED TABLE R-SQUARED SPACING: 0.0625
Info: NONBONDED TABLE SIZE: 705 POINTS
TCL: Setting parameter alchLambda2 to 0.1
Info: NONBONDED TABLE R-SQUARED SPACING: 0.0625
Info: NONBONDED TABLE SIZE: 705 POINTS
TCL: Running for 1500000 steps
ETITLE: TS BOND ANGLE DIHED IMPRP ELECT VDW BOUNDARY MISC KINETIC TOTAL TEMP POTENTIAL TOTALAVG TEMPAVG PRESSURE GPRESSURE VOLUME PRESSAVG GPRESSAVG
ENERGY: 0 0.8558 9.3825 4.6729 0.0000 -10639.2696 1409.7608 0.0000 0.0000 1793.0002 -7421.5975 303.6442 -9214.5976 -7421.5975 303.6442 -332.9904 -250.6612 30387.1452 -332.9904 -250.6612
ENERGY: 300000 4.4722 9.9802 4.2641 0.0000 -10630.7580 1467.0897 0.0000 0.0000 1828.0655 -7316.8864 309.5825 -9144.9518 -7445.8959 299.6609 393.8934 505.5263 30360.2237 -63.4651 8.4833
ENERGY: 600000 2.5579 10.2790 4.9290 0.0000 -10707.9697 1500.4347 0.0000 0.0000 1770.8110 -7418.9581 299.8865 -9189.7691 -7426.5900 301.8034 370.2265 456.1968 30382.5248 81.4577 148.1801
ENERGY: 900000 1.5697 9.1576 3.7980 0.0000 -10815.2332 1515.2278 0.0000 0.0000 1760.9097 -7524.5703 298.2097 -9285.4800 -7451.5359 300.6361 650.3708 678.5592 29956.4655 194.0764 258.8533
ENERGY: 1200000 2.5966 9.4423 3.9998 0.0000 -10620.7722 1435.0856 0.0000 0.0000 1732.7122 -7436.9355 293.4344 -9169.6478 -7459.3957 298.8737 -91.4749 -36.3257 30326.1058 93.4651 147.1938
ENERGY: 1500000 1.4964 8.1575 3.3481 0.0000 -10636.8420 1447.1785 0.0000 0.0000 1813.5346 -7363.1270 307.1217 -9176.6615 -7450.8791 299.0791 61.2011 115.9918 30516.4166 5.3289 58.3314
TCL: Running FEP window   3: Lambda1 0.1    Lambda2 0.15000000000000002 [dLambda 0.05000000000000002]
TCL: Setting parameter firsttimestep to 0
TCL: Setting parameter alchLambda to 0.1
Info: NONBONDED TABLE R-SQUARED SPACING: 0.0625
Info: NONBONDED TABLE SIZE: 705 POINTS
TCL: Setting parameter alchLambda2 to 0.15000000000000002
Info: NONBONDED TABLE R-SQUARED SPACING: 0.0625
Info: NONBONDED TABLE SIZE: 705 POINTS
TCL: Running for 1500000 steps
ETITLE: TS BOND ANGLE DIHED IMPRP ELECT VDW BOUNDARY MISC KINETIC TOTAL TEMP POTENTIAL TOTALAVG TEMPAVG PRESSURE GPRESSURE VOLUME PRESSAVG GPRESSAVG
ENERGY: 0 1.4964 8.1575 3.3481 0.0000 -10636.8420 1449.7777 0.0000 0.0000 1812.6568 -7361.4055 306.9730 -9174.0623 -7361.4055 306.9730 42.1006 121.3712 30516.4166 42.1006 121.3712
ENERGY: 300000 5.1100 7.3824 3.8567 0.0000 -10715.2383 1501.3763 0.0000 0.0000 1792.3875 -7405.1254 303.5404 -9197.5129 -7433.9371 300.1496 405.4951 451.1526 30529.2458 54.2469 124.9996
ENERGY: 600000 3.5893 7.1350 3.9944 0.0000 -10651.1742 1449.9461 0.0000 0.0000 1780.8058 -7405.7036 301.5791 -9186.5094 -7436.2755 300.0674 -28.5497 -1.2129 30499.1945 20.8983 84.0828
ENERGY: 900000 1.7371 9.7886 5.6649 0.0000 -10579.4435 1395.6256 0.0000 0.0000 1771.3589 -7395.2684 299.9793 -9166.6273 -7421.5149 301.1949 -408.8770 -331.4487 30466.9566 105.4808 157.4082
ENERGY: 1200000 0.7959 7.7576 3.0188 0.0000 -10630.5758 1426.8876 0.0000 0.0000 1805.3557 -7386.7602 305.7366 -9192.1159 -7424.3032 301.5780 55.7209 143.5971 30407.4068 62.1075 118.6339
ENERGY: 1500000 5.6381 8.2298 4.7500 0.0000 -10538.5535 1325.7090 0.0000 0.0000 1764.0337 -7430.1929 298.7387 -9194.2266 -7436.3118 300.5409 -969.7511 -877.2593 30335.4401 -38.3228 15.7050
TCL: Running FEP window   4: Lambda1 0.15000000000000002 Lambda2 0.2    [dLambda 0.04999999999999999]
TCL: Setting parameter firsttimestep to 0
TCL: Setting parameter alchLambda to 0.15000000000000002
Info: NONBONDED TABLE R-SQUARED SPACING: 0.0625
Info: NONBONDED TABLE SIZE: 705 POINTS
TCL: Setting parameter alchLambda2 to 0.2
Info: NONBONDED TABLE R-SQUARED SPACING: 0.0625
Info: NONBONDED TABLE SIZE: 705 POINTS
TCL: Running for 1500000 steps
ETITLE: TS BOND ANGLE DIHED IMPRP ELECT VDW BOUNDARY MISC KINETIC TOTAL TEMP POTENTIAL TOTALAVG TEMPAVG PRESSURE GPRESSURE VOLUME PRESSAVG GPRESSAVG
ENERGY: 0 5.6381 8.2298 4.7500 0.0000 -10538.5535 1326.9030 0.0000 0.0000 1763.1575 -7429.8750 298.5903 -9193.0325 -7429.8750 298.5903 -958.4818 -869.6105 30335.4401 -958.4818 -869.6105
ENERGY: 300000 1.3611 6.6417 4.1136 0.0000 -10706.0765 1485.7215 0.0000 0.0000 1738.4585 -7469.7802 294.4076 -9208.2387 -7486.1487 299.4530 407.1543 420.2102 30143.6146 -211.3678 -154.8108
ENERGY: 600000 2.4043 12.2989 4.4936 0.0000 -10626.3392 1398.7074 0.0000 0.0000 1766.1122 -7442.3228 299.0907 -9208.4350 -7478.3488 299.3590 -422.7759 -374.0983 30743.4851 -349.9109 -297.8726
ENERGY: 900000 2.0026 9.5507 4.1736 0.0000 -10743.5162 1453.0536 0.0000 0.0000 1690.9948 -7583.7410 286.3696 -9274.7358 -7487.2032 297.4437 -85.1585 -57.2261 30355.9966 -375.4358 -323.4580
ENERGY: 1200000 2.3051 9.9691 4.3564 0.0000 -10704.9360 1458.6706 0.0000 0.0000 1731.2765 -7498.3584 293.1913 -9229.6348 -7487.8497 297.3217 150.3894 255.9864 30001.1879 -283.9494 -227.4063
ENERGY: 1500000 1.0836 7.9976 5.5601 0.0000 -10697.3626 1439.9407 0.0000 0.0000 1840.6096 -7402.1709 311.7068 -9242.7805 -7477.7423 297.6184 -69.1451 -38.0535 30347.0882 -277.1249 -219.0788
TCL: Running FEP window   5: Lambda1 0.2    Lambda2 0.25   [dLambda 0.04999999999999999]
TCL: Setting parameter firsttimestep to 0
TCL: Setting parameter alchLambda to 0.2
Info: NONBONDED TABLE R-SQUARED SPACING: 0.0625
Info: NONBONDED TABLE SIZE: 705 POINTS
TCL: Setting parameter alchLambda2 to 0.25
Info: NONBONDED TABLE R-SQUARED SPACING: 0.0625
Info: NONBONDED TABLE SIZE: 705 POINTS
TCL: Running for 1500000 steps
ETITLE: TS BOND ANGLE DIHED IMPRP ELECT VDW BOUNDARY MISC KINETIC TOTAL TEMP POTENTIAL TOTALAVG TEMPAVG PRESSURE GPRESSURE VOLUME PRESSAVG GPRESSAVG
ENERGY: 0 1.0836 7.9976 5.5601 0.0000 -10697.3611 1440.8633 0.0000 0.0000 1839.7184 -7402.1380 311.5559 -9241.8565 -7402.1380 311.5559 -109.7904 -28.4869 30347.0882 -109.7904 -28.4869
ENERGY: 300000 2.5377 7.7068 3.1017 0.0000 -10763.1196 1493.2657 0.0000 0.0000 1736.1141 -7520.3937 294.0105 -9256.5078 -7461.1581 301.9516 212.7052 373.4689 30459.5636 -40.3645 49.3156
ENERGY: 600000 3.5639 7.5646 3.7638 0.0000 -10723.1905 1402.1632 0.0000 0.0000 1730.2185 -7575.9164 293.0121 -9306.1350 -7469.5976 300.4203 -577.8837 -594.9237 30371.9490 44.8124 119.3744
ENERGY: 900000 3.5377 12.3496 3.8392 0.0000 -10536.8263 1343.1836 0.0000 0.0000 1727.0338 -7446.8824 292.4728 -9173.9162 -7462.9465 300.3911 -933.1706 -865.3541 30914.1459 -62.3711 21.5674
ENERGY: 1200000 2.0081 10.0953 3.9318 0.0000 -10579.8990 1351.9284 0.0000 0.0000 1703.5977 -7508.3377 288.5039 -9211.9354 -7454.9236 300.8925 -848.1941 -811.1999 30432.2483 -66.0901 8.5714
ENERGY: 1500000 2.2917 8.4523 2.9860 0.0000 -10630.2393 1350.1924 0.0000 0.0000 1839.9666 -7426.3503 311.5979 -9266.3169 -7457.8787 301.2337 -703.7703 -670.0715 30518.4361 -89.4239 -16.8120
TCL: Running FEP window   6: Lambda1 0.25   Lambda2 0.3    [dLambda 0.04999999999999999]
TCL: Setting parameter firsttimestep to 0
TCL: Setting parameter alchLambda to 0.25
Info: NONBONDED TABLE R-SQUARED SPACING: 0.0625
Info: NONBONDED TABLE SIZE: 705 POINTS
TCL: Setting parameter alchLambda2 to 0.3
Info: NONBONDED TABLE R-SQUARED SPACING: 0.0625
Info: NONBONDED TABLE SIZE: 705 POINTS
TCL: Running for 1500000 steps
ETITLE: TS BOND ANGLE DIHED IMPRP ELECT VDW BOUNDARY MISC KINETIC TOTAL TEMP POTENTIAL TOTALAVG TEMPAVG PRESSURE GPRESSURE VOLUME PRESSAVG GPRESSAVG
ENERGY: 0 2.2917 8.4523 2.9860 0.0000 -10630.2398 1350.0775 0.0000 0.0000 1839.1223 -7427.3100 311.4550 -9266.4322 -7427.3100 311.4550 -753.7745 -665.0597 30518.4361 -753.7745 -665.0597
ENERGY: 300000 2.6273 6.8109 5.1568 0.0000 -10720.7796 1391.9611 0.0000 0.0000 1755.7351 -7558.4884 297.3334 -9314.2236 -7459.6585 301.1043 -520.2852 -488.3590 30073.7451 -339.7353 -285.0406
ENERGY: 600000 1.7638 11.0427 3.5507 0.0000 -10644.9840 1415.6785 0.0000 0.0000 1743.2850 -7469.6633 295.2249 -9212.9484 -7447.3372 301.2183 -267.1056 -161.9527 30647.1865 -166.3330 -94.4404
ENERGY: 900000 2.4362 9.5169 5.1522 0.0000 -10739.9679 1475.5866 0.0000 0.0000 1793.6656 -7453.6104 303.7569 -9247.2760 -7445.0205 301.6189 344.9314 396.1313 30276.6500 -196.1937 -124.7019
ENERGY: 1200000 5.6101 7.3803 4.6799 0.0000 -10713.9646 1436.1125 0.0000 0.0000 1826.6606 -7433.5212 309.3446 -9260.1818 -7445.0378 302.4324 -216.1670 -150.7476 30066.1995 -143.9621 -74.0578
ENERGY: 1500000 1.1764 12.1369 4.3321 0.0000 -10717.4328 1426.1546 0.0000 0.0000 1829.5961 -7444.0366 309.8417 -9273.6327 -7439.5026 303.4806 -315.8179 -318.1033 30726.2758 -35.6949 28.7708
TCL: Running FEP window   7: Lambda1 0.3    Lambda2 0.35   [dLambda 0.04999999999999999]
TCL: Setting parameter firsttimestep to 0
TCL: Setting parameter alchLambda to 0.3
Info: NONBONDED TABLE R-SQUARED SPACING: 0.0625
Info: NONBONDED TABLE SIZE: 705 POINTS
TCL: Setting parameter alchLambda2 to 0.35
Info: NONBONDED TABLE R-SQUARED SPACING: 0.0625
Info: NONBONDED TABLE SIZE: 705 POINTS
TCL: Running for 1500000 steps
ETITLE: TS BOND ANGLE DIHED IMPRP ELECT VDW BOUNDARY MISC KINETIC TOTAL TEMP POTENTIAL TOTALAVG TEMPAVG PRESSURE GPRESSURE VOLUME PRESSAVG GPRESSAVG
ENERGY: 0 1.1764 12.1369 4.3321 0.0000 -10717.4330 1426.1477 0.0000 0.0000 1828.7264 -7444.9134 309.6944 -9273.6399 -7444.9134 309.6944 -395.9663 -314.5851 30726.2758 -395.9663 -314.5851
ENERGY: 300000 5.6891 9.2003 3.3754 0.0000 -10868.9017 1516.5498 0.0000 0.0000 1801.1696 -7532.9176 305.0277 -9334.0872 -7445.0916 304.3222 313.7666 394.8177 30218.6824 104.7907 176.8139
ENERGY: 600000 2.2741 8.0216 4.3652 0.0000 -10716.4090 1413.1458 0.0000 0.0000 1710.7748 -7577.8275 289.7193 -9288.6023 -7462.6078 302.8941 -264.1577 -189.1861 29823.1382 62.4465 136.4323
ENERGY: 900000 0.7108 8.6098 3.5635 0.0000 -10723.3353 1455.6364 0.0000 0.0000 1758.5115 -7496.3034 297.8035 -9254.8149 -7469.9490 301.9753 24.9691 126.6517 30234.0752 -90.1294 -16.2449
ENERGY: 1200000 0.7328 7.8641 4.3158 0.0000 -10536.1339 1371.0114 0.0000 0.0000 1766.9349 -7385.2750 299.2300 -9152.2098 -7469.1835 300.7075 -289.6459 -267.2012 30301.7649 -81.1523 -19.8818
ENERGY: 1500000 4.0901 5.3550 4.1933 0.0000 -10685.7085 1466.8091 0.0000 0.0000 1719.7621 -7485.4990 291.2414 -9205.2612 -7472.5001 300.1352 -19.3070 56.9223 30752.7187 -90.8180 -26.1805
TCL: Running FEP window   8: Lambda1 0.35   Lambda2 0.39999999999999997 [dLambda 0.04999999999999999]
TCL: Setting parameter firsttimestep to 0
TCL: Setting parameter alchLambda to 0.35
Info: NONBONDED TABLE R-SQUARED SPACING: 0.0625
Info: NONBONDED TABLE SIZE: 705 POINTS
TCL: Setting parameter alchLambda2 to 0.39999999999999997
Info: NONBONDED TABLE R-SQUARED SPACING: 0.0625
Info: NONBONDED TABLE SIZE: 705 POINTS
TCL: Running for 1500000 steps
ETITLE: TS BOND ANGLE DIHED IMPRP ELECT VDW BOUNDARY MISC KINETIC TOTAL TEMP POTENTIAL TOTALAVG TEMPAVG PRESSURE GPRESSURE VOLUME PRESSAVG GPRESSAVG
ENERGY: 0 4.0900 5.3550 4.1933 0.0000 -10685.7097 1466.4009 0.0000 0.0000 1718.9011 -7486.7694 291.0955 -9205.6705 -7486.7694 291.0955 -25.7356 59.0338 30752.7187 -25.7356 59.0338
ENERGY: 300000 2.0279 9.4663 3.4789 0.0000 -10777.1133 1527.1972 0.0000 0.0000 1752.1900 -7482.7529 296.7330 -9234.9430 -7450.7107 297.5406 720.0648 762.4832 30029.9452 347.3220 410.4239
ENERGY: 600000 1.5602 11.1851 3.7572 0.0000 -10655.1148 1445.3770 0.0000 0.0000 1784.7225 -7408.5128 302.2424 -9193.2354 -7426.4143 299.7165 84.1021 106.2074 30447.1290 198.2724 256.1857
ENERGY: 900000 1.8820 9.9844 4.4591 0.0000 -10739.8582 1511.1335 0.0000 0.0000 1760.1959 -7452.2033 298.0888 -9212.3992 -7427.4109 300.1333 447.3216 526.2076 30833.7602 89.6484 145.5792
ENERGY: 1200000 1.8628 8.0046 3.5034 0.0000 -10761.4038 1485.3661 0.0000 0.0000 1780.9031 -7481.7638 301.5956 -9262.6669 -7432.4377 300.1405 70.3784 126.2046 30546.3709 33.7927 92.3145
ENERGY: 1500000 2.3154 10.6981 4.4950 0.0000 -10712.4260 1393.9229 0.0000 0.0000 1769.1616 -7531.8330 299.6071 -9300.9946 -7440.6780 299.9393 -478.5822 -452.6819 30237.8014 20.9311 78.3276
TCL: Running FEP window   9: Lambda1 0.39999999999999997 Lambda2 0.44999999999999996 [dLambda 0.04999999999999999]
TCL: Setting parameter firsttimestep to 0
TCL: Setting parameter alchLambda to 0.39999999999999997
Info: NONBONDED TABLE R-SQUARED SPACING: 0.0625
Info: NONBONDED TABLE SIZE: 705 POINTS
TCL: Setting parameter alchLambda2 to 0.44999999999999996
Info: NONBONDED TABLE R-SQUARED SPACING: 0.0625
Info: NONBONDED TABLE SIZE: 705 POINTS
TCL: Running for 1500000 steps
ETITLE: TS BOND ANGLE DIHED IMPRP ELECT VDW BOUNDARY MISC KINETIC TOTAL TEMP POTENTIAL TOTALAVG TEMPAVG PRESSURE GPRESSURE VOLUME PRESSAVG GPRESSAVG
ENERGY: 0 2.3154 10.6981 4.4950 0.0000 -10712.4283 1395.2215 0.0000 0.0000 1768.2926 -7531.4056 299.4600 -9299.6983 -7531.4056 299.4600 -529.6840 -436.2382 30237.8014 -529.6840 -436.2382
ENERGY: 300000 0.7293 7.8074 3.4230 0.0000 -10650.1519 1497.3266 0.0000 0.0000 1746.8822 -7393.9834 295.8341 -9140.8656 -7467.4464 298.7554 507.0347 501.6399 30882.5518 -106.3389 -72.1440
ENERGY: 600000 3.0644 6.1550 3.7506 0.0000 -10553.3017 1339.0961 0.0000 0.0000 1735.3873 -7465.8482 293.8875 -9201.2355 -7487.2133 297.2501 -821.0997 -701.0477 30171.4199 -105.2887 -47.1687
ENERGY: 900000 2.1208 7.1359 4.3097 0.0000 -10622.5869 1365.8634 0.0000 0.0000 1797.4227 -7445.7344 304.3932 -9243.1571 -7462.9462 299.6811 -610.0234 -575.0499 30500.9781 -140.6951 -82.6282
ENERGY: 1200000 5.3093 7.8740 3.5360 0.0000 -10707.8427 1512.1369 0.0000 0.0000 1753.7355 -7425.2511 296.9947 -9178.9866 -7456.7169 299.0295 362.0662 414.3284 30579.3245 -94.1919 -37.9924
ENERGY: 1500000 4.7601 7.0396 3.4459 0.0000 -10755.1006 1486.7675 0.0000 0.0000 1727.3052 -7525.7822 292.5188 -9253.0874 -7462.4540 298.8066 225.2650 281.9611 30133.4586 -8.7315 49.9061
TCL: Running FEP window  10: Lambda1 0.44999999999999996 Lambda2 0.49999999999999994 [dLambda 0.04999999999999999]
TCL: Setting parameter firsttimestep to 0
TCL: Setting parameter alchLambda to 0.44999999999999996
Info: NONBONDED TABLE R-SQUARED SPACING: 0.0625
Info: NONBONDED TABLE SIZE: 705 POINTS
TCL: Setting parameter alchLambda2 to 0.49999999999999994
Info: NONBONDED TABLE R-SQUARED SPACING: 0.0625
Info: NONBONDED TABLE SIZE: 705 POINTS
TCL: Running for 1500000 steps
ETITLE: TS BOND ANGLE DIHED IMPRP ELECT VDW BOUNDARY MISC KINETIC TOTAL TEMP POTENTIAL TOTALAVG TEMPAVG PRESSURE GPRESSURE VOLUME PRESSAVG GPRESSAVG
ENERGY: 0 4.7601 7.0396 3.4459 0.0000 -10755.0994 1486.3778 0.0000 0.0000 1726.4446 -7527.0313 292.3730 -9253.4759 -7527.0313 292.3730 206.1246 284.5477 30133.4586 206.1246 284.5477
ENERGY: 300000 2.6951 6.6611 3.9647 0.0000 -10638.3353 1394.4675 0.0000 0.0000 1726.3366 -7504.2103 292.3547 -9230.5469 -7468.9046 296.4787 -674.7941 -582.3597 30700.2185 -211.6930 -115.6370
ENERGY: 600000 0.6101 8.7172 3.4998 0.0000 -10610.4949 1368.4259 0.0000 0.0000 1796.1856 -7433.0563 304.1836 -9229.2419 -7472.2254 296.6503 -702.5513 -622.4794 30712.7651 -255.2036 -177.9630
ENERGY: 900000 4.9264 8.9859 4.3045 0.0000 -10606.8493 1335.2357 0.0000 0.0000 1803.7732 -7449.6235 305.4686 -9253.3967 -7467.7089 297.9644 -977.4216 -856.7891 30224.2278 -352.8750 -272.9305
ENERGY: 1200000 2.6172 6.2940 3.1656 0.0000 -10758.9577 1454.5207 0.0000 0.0000 1839.5641 -7452.7961 311.5298 -9292.3603 -7462.3679 299.4225 37.1255 119.2203 30423.4078 -303.8092 -223.4579
ENERGY: 1500000 2.7691 8.2703 3.5464 0.0000 -10620.7069 1433.6945 0.0000 0.0000 1742.1346 -7430.2920 295.0301 -9172.4266 -7463.3095 299.1094 -229.1823 -176.1730 30718.5774 -245.5174 -168.0782
TCL: Running FEP window  11: Lambda1 0.49999999999999994 Lambda2 0.5499999999999999 [dLambda 0.04999999999999999]
TCL: Setting parameter firsttimestep to 0
TCL: Setting parameter alchLambda to 0.49999999999999994
Info: NONBONDED TABLE R-SQUARED SPACING: 0.0625
Info: NONBONDED TABLE SIZE: 705 POINTS
TCL: Setting parameter alchLambda2 to 0.5499999999999999
Info: NONBONDED TABLE R-SQUARED SPACING: 0.0625
Info: NONBONDED TABLE SIZE: 705 POINTS
TCL: Running for 1500000 steps
ETITLE: TS BOND ANGLE DIHED IMPRP ELECT VDW BOUNDARY MISC KINETIC TOTAL TEMP POTENTIAL TOTALAVG TEMPAVG PRESSURE GPRESSURE VOLUME PRESSAVG GPRESSAVG
ENERGY: 0 2.7691 8.2703 3.5464 0.0000 -10620.7058 1433.4606 0.0000 0.0000 1741.2435 -7431.4159 294.8792 -9172.6594 -7431.4159 294.8792 -257.3304 -174.9832 30718.5774 -257.3304 -174.9832
ENERGY: 300000 3.6961 7.9500 3.1080 0.0000 -10581.3502 1408.1154 0.0000 0.0000 1767.0170 -7391.4637 299.2440 -9158.4807 -7424.2307 296.6343 -310.2507 -248.1826 30916.1211 -503.2611 -426.5533
ENERGY: 600000 4.0101 12.2457 4.6912 0.0000 -10730.0868 1471.8508 0.0000 0.0000 1784.9306 -7452.3583 302.2776 -9237.2889 -7437.3053 297.2751 -217.6909 -110.0814 30797.4421 -474.7685 -400.7955
ENERGY: 900000 1.2883 10.4502 3.8555 0.0000 -10719.1640 1539.3210 0.0000 0.0000 1768.2153 -7396.0337 299.4469 -9164.2490 -7442.1613 296.7704 1002.5813 1092.3572 30291.3341 -341.2833 -275.1966
ENERGY: 1200000 2.1243 8.8876 3.9982 0.0000 -10662.0184 1454.8568 0.0000 0.0000 1755.7500 -7436.4014 297.3359 -9192.1514 -7451.0368 296.5489 36.5217 62.0143 30430.0646 -211.1694 -147.3782
ENERGY: 1500000 2.4414 7.5701 3.5110 0.0000 -10536.4057 1341.7530 0.0000 0.0000 1788.8689 -7392.2612 302.9446 -9181.1302 -7440.1949 297.8065 -380.4780 -317.7393 30186.4794 -171.6049 -113.8978
TCL: Running FEP window  12: Lambda1 0.5499999999999999 Lambda2 0.6    [dLambda 0.050000000000000044]
TCL: Setting parameter firsttimestep to 0
TCL: Setting parameter alchLambda to 0.5499999999999999
Info: NONBONDED TABLE R-SQUARED SPACING: 0.0625
Info: NONBONDED TABLE SIZE: 705 POINTS
TCL: Setting parameter alchLambda2 to 0.6
Info: NONBONDED TABLE R-SQUARED SPACING: 0.0625
Info: NONBONDED TABLE SIZE: 705 POINTS
TCL: Running for 1500000 steps
ETITLE: TS BOND ANGLE DIHED IMPRP ELECT VDW BOUNDARY MISC KINETIC TOTAL TEMP POTENTIAL TOTALAVG TEMPAVG PRESSURE GPRESSURE VOLUME PRESSAVG GPRESSAVG
ENERGY: 0 2.4414 7.5701 3.5110 0.0000 -10536.4722 1341.8997 0.0000 0.0000 1787.9809 -7393.0690 302.7942 -9181.0499 -7393.0690 302.7942 -393.6669 -308.4876 30186.4794 -393.6669 -308.4876
ENERGY: 300000 4.4078 8.6975 3.3362 0.0000 -10814.7666 1481.8465 0.0000 0.0000 1757.3746 -7559.1041 297.6110 -9316.4787 -7474.3172 299.8966 286.1822 343.0244 29714.1431 274.1648 360.4283
ENERGY: 600000 4.0876 7.4297 3.1193 0.0000 -10606.8994 1321.5675 0.0000 0.0000 1723.5574 -7547.1378 291.8841 -9270.6952 -7473.5024 298.7916 -1125.4027 -1039.2888 30297.8022 -95.4394 -10.6457
ENERGY: 900000 0.4567 8.7801 3.9533 0.0000 -10704.1089 1393.9773 0.0000 0.0000 1773.3567 -7523.5847 300.3176 -9296.9414 -7462.8654 299.4638 -348.5376 -236.3653 30012.6362 -169.8161 -87.3083
ENERGY: 1200000 3.4523 6.6170 6.4655 0.0000 -10620.7351 1334.8671 0.0000 0.0000 1731.2566 -7538.0766 293.1879 -9269.3332 -7461.1643 298.2512 -996.0419 -969.4643 30310.4235 -228.9062 -151.1860
ENERGY: 1500000 4.8348 5.4986 4.4392 0.0000 -10583.1108 1388.4889 0.0000 0.0000 1781.8116 -7398.0377 301.7494 -9179.8493 -7448.5101 298.0613 -516.4391 -473.8043 30881.5204 -223.8385 -148.2847
TCL: Running FEP window  13: Lambda1 0.6    Lambda2 0.65   [dLambda 0.050000000000000044]
TCL: Setting parameter firsttimestep to 0
TCL: Setting parameter alchLambda to 0.6
Info: NONBONDED TABLE R-SQUARED SPACING: 0.0625
Info: NONBONDED TABLE SIZE: 705 POINTS
TCL: Setting parameter alchLambda2 to 0.65
Info: NONBONDED TABLE R-SQUARED SPACING: 0.0625
Info: NONBONDED TABLE SIZE: 705 POINTS
TCL: Running for 1500000 steps
ETITLE: TS BOND ANGLE DIHED IMPRP ELECT VDW BOUNDARY MISC KINETIC TOTAL TEMP POTENTIAL TOTALAVG TEMPAVG PRESSURE GPRESSURE VOLUME PRESSAVG GPRESSAVG
ENERGY: 0 4.8348 5.4986 4.4392 0.0000 -10583.2807 1388.4789 0.0000 0.0000 1780.8949 -7399.1343 301.5942 -9180.0292 -7399.1343 301.5942 -532.3417 -462.0765 30881.5204 -532.3417 -462.0765
ENERGY: 300000 0.7200 5.2672 3.4838 0.0000 -10596.0481 1416.0506 0.0000 0.0000 1754.4943 -7416.0322 297.1232 -9170.5265 -7434.9188 298.6637 -166.7838 -101.6199 30951.9786 -168.2625 -107.4116
ENERGY: 600000 1.0570 9.1399 4.9564 0.0000 -10696.6909 1502.3158 0.0000 0.0000 1817.2948 -7361.9270 307.7585 -9179.2218 -7452.4726 298.7751 539.2264 614.1045 30629.5069 -36.1825 27.6977
ENERGY: 900000 3.8112 7.4922 3.6605 0.0000 -10729.8353 1472.8332 0.0000 0.0000 1731.8013 -7510.2369 293.2802 -9242.0382 -7438.0206 298.5899 -17.0460 83.2365 30495.0925 -133.9930 -59.8241
ENERGY: 1200000 1.0573 7.7379 5.2316 0.0000 -10663.7364 1419.4783 0.0000 0.0000 1765.6476 -7464.5837 299.0121 -9230.2314 -7443.7878 298.7941 -196.9815 -155.0440 30595.7986 -205.2557 -134.8324
ENERGY: 1500000 3.6642 8.2202 3.1621 0.0000 -10810.4034 1479.6051 0.0000 0.0000 1807.8770 -7507.8749 306.1636 -9315.7519 -7447.5316 299.3038 34.1366 92.6085 30285.3160 -132.7394 -63.4497
TCL: Running FEP window  14: Lambda1 0.65   Lambda2 0.7000000000000001 [dLambda 0.050000000000000044]
TCL: Setting parameter firsttimestep to 0
TCL: Setting parameter alchLambda to 0.65
Info: NONBONDED TABLE R-SQUARED SPACING: 0.0625
Info: NONBONDED TABLE SIZE: 705 POINTS
TCL: Setting parameter alchLambda2 to 0.7000000000000001
Info: NONBONDED TABLE R-SQUARED SPACING: 0.0625
Info: NONBONDED TABLE SIZE: 705 POINTS
TCL: Running for 1500000 steps
ETITLE: TS BOND ANGLE DIHED IMPRP ELECT VDW BOUNDARY MISC KINETIC TOTAL TEMP POTENTIAL TOTALAVG TEMPAVG PRESSURE GPRESSURE VOLUME PRESSAVG GPRESSAVG
ENERGY: 0 3.6642 8.2202 3.1621 0.0000 -10810.2440 1479.9549 0.0000 0.0000 1806.9773 -7508.2654 306.0112 -9315.2427 -7508.2654 306.0112 12.9567 103.8258 30285.3160 12.9567 103.8258
ENERGY: 300000 5.0258 9.2197 3.9685 0.0000 -10635.4322 1425.7852 0.0000 0.0000 1772.7244 -7418.7087 300.2105 -9191.4331 -7423.7912 303.4066 -92.5979 26.5946 30391.0701 -69.7157 22.5713
ENERGY: 600000 2.5145 8.8413 4.0212 0.0000 -10712.0879 1469.4716 0.0000 0.0000 1699.1854 -7528.0538 287.7567 -9227.2392 -7448.9589 299.0143 21.2658 113.9666 30738.8563 -86.8362 -1.9933
ENERGY: 900000 1.7141 7.4376 5.0089 0.0000 -10674.8469 1487.5762 0.0000 0.0000 1757.6001 -7415.5101 297.6492 -9173.1102 -7451.6081 298.1731 578.7300 574.3791 30481.1011 79.7487 159.1103
ENERGY: 1200000 2.4566 8.3515 4.4769 0.0000 -10701.5660 1476.3926 0.0000 0.0000 1740.4452 -7469.4432 294.7440 -9209.8885 -7452.0510 297.9529 -25.4248 60.1842 30856.0071 28.4022 111.0137
ENERGY: 1500000 2.5985 9.1404 3.4729 0.0000 -10660.1269 1438.2676 0.0000 0.0000 1857.6661 -7348.9814 314.5954 -9206.6475 -7441.3037 299.8791 191.2712 257.2156 30445.5092 36.1843 114.9622
TCL: Running FEP window  15: Lambda1 0.7000000000000001 Lambda2 0.7500000000000001 [dLambda 0.050000000000000044]
TCL: Setting parameter firsttimestep to 0
TCL: Setting parameter alchLambda to 0.7000000000000001
Info: NONBONDED TABLE R-SQUARED SPACING: 0.0625
Info: NONBONDED TABLE SIZE: 705 POINTS
TCL: Setting parameter alchLambda2 to 0.7500000000000001
Info: NONBONDED TABLE R-SQUARED SPACING: 0.0625
Info: NONBONDED TABLE SIZE: 705 POINTS
TCL: Running for 1500000 steps
ETITLE: TS BOND ANGLE DIHED IMPRP ELECT VDW BOUNDARY MISC KINETIC TOTAL TEMP POTENTIAL TOTALAVG TEMPAVG PRESSURE GPRESSURE VOLUME PRESSAVG GPRESSAVG
ENERGY: 0 2.5985 9.1404 3.4729 0.0000 -10660.4122 1437.7167 0.0000 0.0000 1856.7620 -7350.7217 314.4422 -9207.4837 -7350.7217 314.4422 186.3481 261.0989 30445.5092 186.3481 261.0989
ENERGY: 300000 3.6479 9.1766 3.9744 0.0000 -10657.6356 1414.1202 0.0000 0.0000 1788.8539 -7437.8626 302.9420 -9226.7165 -7426.7206 306.4411 -420.2590 -331.1810 30836.8388 -5.6189 61.0566
ENERGY: 600000 2.4380 6.2727 5.0167 0.0000 -10653.6045 1393.2553 0.0000 0.0000 1770.6962 -7475.9257 299.8670 -9246.6219 -7437.7478 303.9691 -450.9016 -425.2931 30673.6735 -187.1019 -134.4083
ENERGY: 900000 4.3388 9.3753 3.4806 0.0000 -10691.3958 1396.0080 0.0000 0.0000 1764.2719 -7513.9213 298.7791 -9278.1932 -7462.7303 302.3377 -524.5732 -464.7520 30299.3304 -203.9779 -146.9866
ENERGY: 1200000 4.1294 6.5615 4.2418 0.0000 -10834.7071 1537.3467 0.0000 0.0000 1819.6493 -7462.7784 308.1572 -9282.4277 -7469.7590 302.7670 493.2357 554.5938 30432.1946 -26.5025 35.3484
ENERGY: 1500000 1.6493 7.1437 3.7364 0.0000 -10690.5199 1440.5569 0.0000 0.0000 1760.7684 -7476.6652 298.1858 -9237.4335 -7469.9432 302.5576 -4.0618 50.9118 30278.7284 -76.2782 -13.0074
TCL: Running FEP window  16: Lambda1 0.7500000000000001 Lambda2 0.8000000000000002 [dLambda 0.050000000000000044]
TCL: Setting parameter firsttimestep to 0
TCL: Setting parameter alchLambda to 0.7500000000000001
Info: NONBONDED TABLE R-SQUARED SPACING: 0.0625
Info: NONBONDED TABLE SIZE: 705 POINTS
TCL: Setting parameter alchLambda2 to 0.8000000000000002
Info: NONBONDED TABLE R-SQUARED SPACING: 0.0625
Info: NONBONDED TABLE SIZE: 705 POINTS
TCL: Running for 1500000 steps
ETITLE: TS BOND ANGLE DIHED IMPRP ELECT VDW BOUNDARY MISC KINETIC TOTAL TEMP POTENTIAL TOTALAVG TEMPAVG PRESSURE GPRESSURE VOLUME PRESSAVG GPRESSAVG
ENERGY: 0 1.6493 7.1437 3.7364 0.0000 -10692.4175 1441.5211 0.0000 0.0000 1759.8597 -7478.5072 298.0319 -9238.3669 -7478.5072 298.0319 -17.3261 69.8086 30278.7284 -17.3261 69.8086
ENERGY: 300000 1.8478 5.2822 3.8129 0.0000 -10549.7168 1385.8233 0.0000 0.0000 1770.5847 -7382.3659 299.8481 -9152.9507 -7451.0679 298.0651 -303.9270 -242.3645 30910.1691 144.2202 195.0171
ENERGY: 600000 3.0731 10.8269 4.2827 0.0000 -10647.3396 1439.8451 0.0000 0.0000 1742.5264 -7446.7855 295.0965 -9189.3119 -7443.8831 299.0848 -45.3435 27.5332 30405.9120 -67.9689 -19.5496
ENERGY: 900000 5.9293 10.8761 4.8137 0.0000 -10648.8484 1431.2568 0.0000 0.0000 1770.1340 -7425.8385 299.7718 -9195.9724 -7441.6022 299.8528 -70.9606 4.8379 30387.0365 -43.6113 5.9113
ENERGY: 1200000 2.1886 8.3929 3.7105 0.0000 -10659.4539 1404.5991 0.0000 0.0000 1800.6841 -7439.8787 304.9455 -9240.5628 -7452.9718 300.8591 -71.9604 -29.9454 30503.1874 15.0482 65.0542
ENERGY: 1500000 3.6209 9.7337 4.5716 0.0000 -10713.6757 1458.4790 0.0000 0.0000 1754.5314 -7482.7390 297.1295 -9237.2705 -7448.4266 300.5700 -28.8773 27.1302 30760.3599 16.2855 61.7113
TCL: Running FEP window  17: Lambda1 0.8000000000000002 Lambda2 0.8500000000000002 [dLambda 0.050000000000000044]
TCL: Setting parameter firsttimestep to 0
TCL: Setting parameter alchLambda to 0.8000000000000002
Info: NONBONDED TABLE R-SQUARED SPACING: 0.0625
Info: NONBONDED TABLE SIZE: 705 POINTS
TCL: Setting parameter alchLambda2 to 0.8500000000000002
Info: NONBONDED TABLE R-SQUARED SPACING: 0.0625
Info: NONBONDED TABLE SIZE: 705 POINTS
TCL: Running for 1500000 steps
ETITLE: TS BOND ANGLE DIHED IMPRP ELECT VDW BOUNDARY MISC KINETIC TOTAL TEMP POTENTIAL TOTALAVG TEMPAVG PRESSURE GPRESSURE VOLUME PRESSAVG GPRESSAVG
ENERGY: 0 3.6209 9.7337 4.5716 0.0000 -10715.8658 1458.9701 0.0000 0.0000 1753.6386 -7485.3308 296.9783 -9238.9695 -7485.3308 296.9783 -50.6090 38.6363 30760.3599 -50.6090 38.6363
ENERGY: 300000 2.2783 7.0165 5.0996 0.0000 -10601.4889 1376.0712 0.0000 0.0000 1761.7054 -7449.3179 298.3444 -9211.0233 -7458.6952 298.3265 -648.7713 -574.0178 30671.8563 91.9144 165.2874
ENERGY: 600000 3.3058 8.1145 3.1896 0.0000 -10540.1527 1322.5007 0.0000 0.0000 1758.2702 -7444.7719 297.7627 -9203.0421 -7469.2710 297.7940 -1168.1964 -1052.7991 30870.2358 -294.5153 -226.5542
ENERGY: 900000 2.1754 7.9701 3.2292 0.0000 -10684.5498 1426.2840 0.0000 0.0000 1831.8494 -7413.0417 310.2233 -9244.8912 -7466.0931 298.3044 -124.5802 -67.3851 30377.5118 -228.3112 -168.2952
ENERGY: 1200000 2.2389 10.3216 7.4176 0.0000 -10831.7038 1548.2927 0.0000 0.0000 1785.7533 -7477.6796 302.4169 -9263.4330 -7460.5906 299.1020 712.9636 837.3276 30312.2198 -176.3827 -104.6699
ENERGY: 1500000 2.3382 8.4723 4.4094 0.0000 -10631.0348 1446.4851 0.0000 0.0000 1791.9645 -7377.3654 303.4688 -9169.3299 -7459.7565 299.5262 418.7779 450.4677 30057.2521 -126.5925 -56.8243
TCL: Running FEP window  18: Lambda1 0.8500000000000002 Lambda2 0.9000000000000002 [dLambda 0.050000000000000044]
TCL: Setting parameter firsttimestep to 0
TCL: Setting parameter alchLambda to 0.8500000000000002
Info: NONBONDED TABLE R-SQUARED SPACING: 0.0625
Info: NONBONDED TABLE SIZE: 705 POINTS
TCL: Setting parameter alchLambda2 to 0.9000000000000002
Info: NONBONDED TABLE R-SQUARED SPACING: 0.0625
Info: NONBONDED TABLE SIZE: 705 POINTS
TCL: Running for 1500000 steps
ETITLE: TS BOND ANGLE DIHED IMPRP ELECT VDW BOUNDARY MISC KINETIC TOTAL TEMP POTENTIAL TOTALAVG TEMPAVG PRESSURE GPRESSURE VOLUME PRESSAVG GPRESSAVG
ENERGY: 0 2.3382 8.4723 4.4094 0.0000 -10632.3918 1447.4486 0.0000 0.0000 1791.0684 -7378.6550 303.3171 -9169.7234 -7378.6550 303.3171 384.3103 466.7137 30057.2521 384.3103 466.7137
ENERGY: 300000 2.5633 10.5208 4.3176 0.0000 -10589.9894 1354.6126 0.0000 0.0000 1756.1772 -7461.7980 297.4082 -9217.9752 -7470.9963 298.6070 -477.6069 -436.8665 30440.4076 -83.4801 -16.3977
ENERGY: 600000 3.7689 10.4523 3.3027 0.0000 -10781.4628 1529.1312 0.0000 0.0000 1749.2063 -7485.6014 296.2277 -9234.8077 -7472.0948 299.0671 455.5405 583.5280 30643.0834 79.6631 150.1953
ENERGY: 900000 2.6900 13.9088 4.7817 0.0000 -10614.6984 1413.6089 0.0000 0.0000 1741.2938 -7438.4152 294.8877 -9179.7090 -7471.9980 298.9892 -267.6775 -234.3426 30786.0286 -16.5148 54.6471
ENERGY: 1200000 1.9045 7.8606 3.4651 0.0000 -10735.9413 1478.2114 0.0000 0.0000 1794.7762 -7449.7235 303.9450 -9244.4997 -7470.8062 299.7852 451.7334 417.9264 30568.2045 55.7898 115.4832
ENERGY: 1500000 2.9486 9.0932 6.5526 0.0000 -10684.5810 1427.9878 0.0000 0.0000 1808.3970 -7429.6020 306.2516 -9237.9990 -7465.8035 300.3690 -37.4717 -49.6629 30425.5226 22.9968 80.2633
TCL: Running FEP window  19: Lambda1 0.9000000000000002 Lambda2 0.9500000000000003 [dLambda 0.050000000000000044]
TCL: Setting parameter firsttimestep to 0
TCL: Setting parameter alchLambda to 0.9000000000000002
Info: NONBONDED TABLE R-SQUARED SPACING: 0.0625
Info: NONBONDED TABLE SIZE: 705 POINTS
TCL: Setting parameter alchLambda2 to 0.9500000000000003
Info: NONBONDED TABLE R-SQUARED SPACING: 0.0625
Info: NONBONDED TABLE SIZE: 705 POINTS
TCL: Running for 1500000 steps
ETITLE: TS BOND ANGLE DIHED IMPRP ELECT VDW BOUNDARY MISC KINETIC TOTAL TEMP POTENTIAL TOTALAVG TEMPAVG PRESSURE GPRESSURE VOLUME PRESSAVG GPRESSAVG
ENERGY: 0 2.9486 9.0932 6.5526 0.0000 -10686.9157 1429.0101 0.0000 0.0000 1807.5404 -7431.7709 306.1066 -9239.3113 -7431.7709 306.1066 -115.3093 -33.7650 30425.5226 -115.3093 -33.7650
ENERGY: 300000 8.0315 5.2736 4.2571 0.0000 -10559.6805 1333.5279 0.0000 0.0000 1765.5654 -7443.0249 298.9981 -9208.5903 -7439.6625 301.2844 -984.9480 -982.3555 30929.9357 -401.3105 -334.6350
ENERGY: 600000 4.0326 6.6811 3.8195 0.0000 -10661.2225 1378.6182 0.0000 0.0000 1753.7847 -7514.2864 297.0031 -9268.0711 -7453.6621 301.4117 -647.3075 -594.9497 30292.9671 -426.7517 -366.4758
ENERGY: 900000 3.0279 10.2695 4.0569 0.0000 -10814.3488 1513.1880 0.0000 0.0000 1774.0226 -7509.7840 300.4303 -9283.8066 -7469.0900 299.9784 602.1819 706.6133 29977.0654 -345.2556 -279.3469
ENERGY: 1200000 1.6779 7.8167 4.4941 0.0000 -10735.8535 1468.8628 0.0000 0.0000 1792.6839 -7460.3180 303.5906 -9253.0019 -7469.5817 300.9672 257.4598 332.1760 30306.5352 -256.7102 -195.8287
ENERGY: 1500000 5.0804 10.0856 5.9868 0.0000 -10774.7024 1465.1223 0.0000 0.0000 1789.2510 -7499.1763 303.0093 -9288.4273 -7470.3561 300.5504 28.2186 83.5142 30285.7146 -145.0160 -78.5272
TCL: Running FEP window  20: Lambda1 0.9500000000000003 Lambda2 1.0    [dLambda 0.04999999999999971]
TCL: Setting parameter firsttimestep to 0
TCL: Setting parameter alchLambda to 0.9500000000000003
Info: NONBONDED TABLE R-SQUARED SPACING: 0.0625
Info: NONBONDED TABLE SIZE: 705 POINTS
TCL: Setting parameter alchLambda2 to 1.0
Info: NONBONDED TABLE R-SQUARED SPACING: 0.0625
Info: NONBONDED TABLE SIZE: 705 POINTS
TCL: Running for 1500000 steps
ETITLE: TS BOND ANGLE DIHED IMPRP ELECT VDW BOUNDARY MISC KINETIC TOTAL TEMP POTENTIAL TOTALAVG TEMPAVG PRESSURE GPRESSURE VOLUME PRESSAVG GPRESSAVG
ENERGY: 0 5.0804 10.0856 5.9868 0.0000 -10777.2827 1466.9272 0.0000 0.0000 1788.3264 -7500.8765 302.8527 -9289.2028 -7500.8765 302.8527 19.9608 116.7028 30285.7146 19.9608 116.7028
ENERGY: 300000 1.8352 8.2744 3.8528 0.0000 -10887.4440 1554.7965 0.0000 0.0000 1730.1225 -7588.5627 292.9959 -9318.6852 -7522.1093 298.5045 429.9339 472.3928 30554.5037 -74.0596 0.9755
ENERGY: 600000 3.0064 7.5632 4.6083 0.0000 -10869.8591 1561.6845 0.0000 0.0000 1772.5022 -7520.4946 300.1729 -9292.9968 -7523.1104 299.4288 611.7930 691.3989 30367.9039 -31.3473 31.6504
ENERGY: 900000 7.9399 6.1676 3.4028 0.0000 -10768.1985 1485.3279 0.0000 0.0000 1781.0210 -7484.3393 301.6155 -9265.3603 -7497.9428 300.4657 280.1727 369.2154 30193.2707 90.6484 150.7715
ENERGY: 1200000 5.6943 6.5073 3.3978 0.0000 -10549.5713 1323.7801 0.0000 0.0000 1873.2483 -7336.9435 317.2342 -9210.1918 -7487.2209 301.2433 -751.7394 -727.1109 30494.7576 -60.7505 -5.5645
ENERGY: 1500000 2.3498 7.6240 3.6621 0.0000 -10821.6320 1527.3881 0.0000 0.0000 1749.5215 -7531.0865 296.2811 -9280.6080 -7485.1511 300.5022 307.9988 372.5621 30524.0552 -50.0964 7.0631
TCL: Exiting due to exit command.
