Info: SIMULATION PARAMETERS:
Info: TIMESTEP               2
Info: NUMBER OF STEPS        0
Info: STEPS PER CYCLE        10
Info: PERIODIC CELL BASIS 1  31.494 0 0
Info: PERIODIC CELL BASIS 2  0 30.0636 0
Info: PERIODIC CELL BASIS 3  0 0 31.4641
Info: PERIODIC CELL CENTER   0 0 0
Info: WRAPPING WATERS AROUND PERIODIC BOUNDARIES ON OUTPUT.
Info: WRAPPING ALL CLUSTERS AROUND PERIODIC BOUNDARIES ON OUTPUT.
Info: FIRST LDB TIMESTEP     50
Info: LAST LDB TIMESTEP     -1
Info: HOM BACKGROUND SCALING 1
Info: PME BACKGROUND SCALING 1
Info: MIN ATOMS PER PATCH    40
Info: EMPTY PATCH LOAD       40 ATOMS
Info: VELOCITY FILE          mobley_8746821_equil.vel
Info: CENTER OF MASS MOVING INITIALLY? NO
Info: DIELECTRIC             1
Info: EXCLUDE                SCALED ONE-FOUR
Info: 1-4 ELECTROSTATICS SCALED BY 0.833333
Info: MODIFIED 1-4 VDW PARAMETERS WILL BE USED
Info: DCD FILENAME           mobley_8746821_prod.dcd
Info: DCD FREQUENCY          100000
Info: DCD FIRST STEP         100000
Info: DCD FILE WILL CONTAIN UNIT CELL DATA
Info: XST FILENAME           mobley_8746821_prod.xst
Info: XST FREQUENCY          100000
Info: NO VELOCITY DCD OUTPUT
Info: NO FORCE DCD OUTPUT
Info: OUTPUT FILENAME        mobley_8746821_prod
Info: BINARY OUTPUT FILES WILL BE USED
Info: RESTART FILENAME       mobley_8746821_prod.restart
Info: RESTART FREQUENCY      100000
Info: BINARY RESTART FILES WILL BE USED
Info: CUTOFF                 9
Info: PAIRLIST DISTANCE      11
Info: PAIRLIST SHRINK RATE   0.01
Info: PAIRLIST GROW RATE     0.01
Info: PAIRLIST TRIGGER       0.3
Info: PAIRLISTS PER CYCLE    2
Info: PAIRLISTS ENABLED
Info: MARGIN                 2
Info: HYDROGEN GROUP CUTOFF  2.5
Info: PATCH DIMENSION        15.5
Info: ENERGY OUTPUT STEPS    100000
Info: ENERGY EVALUATION STEPS    100000
Info: OUTPUT ENERGY PRECISION 4
Info: CROSSTERM ENERGY INCLUDED IN DIHEDRAL
Info: TIMING OUTPUT STEPS    1000000
Info: PRESSURE OUTPUT STEPS  100000
Info: ALCHEMICAL FEP ON
Info: FEP CURRENT LAMBDA VALUE     0
Info: FEP COMPARISON LAMBDA VALUE  0.05
Info: FEP INTRA-ALCHEMICAL NON-BONDED INTERACTIONS WILL BE RETAINED
Info: FEP INTRA-ALCHEMICAL BONDED INTERACTIONS WILL BE RETAINED
Info: FEP VDW SHIFTING COEFFICIENT 5
Info: FEP ELEC. ACTIVE FOR ANNIHILATED PARTICLES BETWEEN LAMBDA = 0 AND LAMBDA = 0.5
Info: FEP ELEC. ACTIVE FOR EXNIHILATED PARTICLES BETWEEN LAMBDA = 0.5 AND LAMBDA = 1
Info: FEP VDW ACTIVE FOR ANNIHILATED PARTICLES BETWEEN LAMBDA = 0 AND LAMBDA = 1
Info: FEP VDW ACTIVE FOR EXNIHILATED PARTICLES BETWEEN LAMBDA = 0 AND LAMBDA = 1
Info: FEP BOND ACTIVE FOR ANNIHILATED PARTICLES BETWEEN LAMBDA = 1 AND LAMBDA = 1
Info: FEP BOND ACTIVE FOR EXNIHILATED PARTICLES BETWEEN LAMBDA = 0 AND LAMBDA = 0
Info: LANGEVIN DYNAMICS ACTIVE
Info: LANGEVIN TEMPERATURE   300
Info: LANGEVIN USING BBK INTEGRATOR
Info: LANGEVIN DAMPING COEFFICIENT IS 1 INVERSE PS
Info: LANGEVIN DYNAMICS APPLIED TO HYDROGENS
Info: LANGEVIN PISTON PRESSURE CONTROL ACTIVE
Info:        TARGET PRESSURE IS 1.01325 BAR
Info:     OSCILLATION PERIOD IS 50 FS
Info:             DECAY TIME IS 25 FS
Info:     PISTON TEMPERATURE IS 300 K
Info:       PRESSURE CONTROL IS GROUP-BASED
Info:    INITIAL STRAIN RATE IS 0.000639447 0.000639447 0.000639447
Info:       CELL FLUCTUATION IS ISOTROPIC
Info: PARTICLE MESH EWALD (PME) ACTIVE
Info: PME TOLERANCE               1e-06
Info: PME EWALD COEFFICIENT       0.348832
Info: PME INTERPOLATION ORDER     4
Info: PME GRID DIMENSIONS         32 32 32
Info: PME MAXIMUM GRID SPACING    1
Info: PME CALCULATION WILL BE PERFORMED ON GPU
Info: FULL ELECTROSTATIC EVALUATION FREQUENCY      2
Info: USING VERLET I (r-RESPA) MTS SCHEME.
Info: C1 SPLITTING OF LONG RANGE ELECTROSTATICS
Info: PLACING ATOMS IN PATCHES BY HYDROGEN GROUPS
Info: RIGID BONDS TO HYDROGEN : ALL
Info:         ERROR TOLERANCE : 1e-08
Info:          MAX ITERATIONS : 100
Info: RIGID WATER USING SETTLE ALGORITHM
Info: RANDOM NUMBER SEED     1743593641
Info: USE HYDROGEN BONDS?    NO
Info: Using AMBER format force field!
Info: AMBER PARM FILE        mobley_8746821.prmtop
Info: COORDINATE PDB         mobley_8746821.pdb
Info: Exclusions will be read from PARM file!
Info: SCNB (VDW SCALING)     2
Info: USING ARITHMETIC MEAN TO COMBINE L-J SIGMA PARAMETERS
Info: BINARY COORDINATES     mobley_8746821_equil.coor
Info: SUMMARY OF PARAMETERS:
Info: 8 BONDS
Info: 10 ANGLES
Info:   10 HARMONIC
Info:   0 COSINE-BASED
Info: 4 DIHEDRAL
Info: 0 IMPROPER
Info: 0 CROSSTERM
Info: 0 VDW
Info: 36 VDW_PAIRS
Info: 0 NBTHOLE_PAIRS
Info: To read alchdata from file: mobley_8746821.pdb
Info: To read alchflag data from column: 5
Info: STRUCTURE SUMMARY:
Info: 2924 ATOMS
Info: 2924 BONDS
Info: 28 ANGLES
Info: 37 DIHEDRALS
Info: 0 IMPROPERS
Info: 0 CROSSTERMS
Info: 2981 EXCLUSIONS
Info: 2916 RIGID BONDS
Info: ALCH: 0 ATOMS TO DISAPPEAR IN FINAL STATE
Info: ALCH: 17 ATOMS TO APPEAR IN FINAL STATE
Info: 5856 DEGREES OF FREEDOM
Info: 977 HYDROGEN GROUPS
Info: 4 ATOMS IN LARGEST HYDROGEN GROUP
Info: 977 MIGRATION GROUPS
Info: 4 ATOMS IN LARGEST MIGRATION GROUP
Info: TOTAL MASS = 17564.7 amu
Info: TOTAL CHARGE = 0.000100052 e
Info: MASS DENSITY = 0.979071 g/cm^3
Info: ATOM DENSITY = 0.0981505 atoms/A^3
Info: ADDED 0 IMPLICIT EXCLUSIONS
Info: NONBONDED TABLE R-SQUARED SPACING: 0.0625
Info: NONBONDED TABLE SIZE: 705 POINTS
Info: REMOVING COM VELOCITY 0.0195933 -0.253896 -0.0662707
Info: Use 3D box decompostion in PME FFT.
Info: Updated CUDA force table with 4096 elements.
Info: Updated CUDA LJ table with 8 x 8 elements.
Info: Found 15 unique exclusion lists needing 32 bytes
TCL: Running for 1500000 steps
ETITLE: TS BOND ANGLE DIHED IMPRP ELECT VDW BOUNDARY MISC KINETIC TOTAL TEMP POTENTIAL TOTALAVG TEMPAVG PRESSURE GPRESSURE VOLUME PRESSAVG GPRESSAVG
ENERGY: 0 2.9475 6.5816 3.4292 0.0000 -10622.3138 1380.6166 0.0000 0.0000 1690.9331 -7537.8058 290.6135 -9228.7389 -7537.8058 290.6135 -464.9949 -385.0607 29790.9738 -464.9949 -385.0607
ENERGY: 300000 3.0986 3.8096 1.4874 0.0000 -10638.1237 1430.0318 0.0000 0.0000 1793.6977 -7405.9987 308.2752 -9199.6963 -7412.0626 301.4606 -159.8984 -118.8577 30130.4685 -116.2455 -61.5196
ENERGY: 600000 3.1709 3.4187 2.2170 0.0000 -10676.0704 1493.0638 0.0000 0.0000 1793.3733 -7380.8267 308.2194 -9174.1999 -7421.8458 300.2433 589.2507 636.2011 29747.0707 -71.0939 -22.9627
ENERGY: 900000 2.2596 2.7262 3.9159 0.0000 -10796.8655 1529.1828 0.0000 0.0000 1720.8758 -7537.9054 295.7596 -9258.7811 -7436.8798 300.0719 545.9895 615.7406 29580.9433 9.5224 59.4580
ENERGY: 1200000 3.9990 6.8696 1.5549 0.0000 -10733.5596 1501.7881 0.0000 0.0000 1739.8011 -7479.5467 299.0122 -9219.3478 -7437.5718 299.5501 44.5265 111.3951 30388.4954 -40.5341 15.2047
ENERGY: 1500000 1.4696 6.6760 2.0465 0.0000 -10552.5750 1450.0555 0.0000 0.0000 1777.3442 -7314.9832 305.4646 -9092.3274 -7435.6810 300.3068 451.6219 474.0649 29995.4824 -30.0215 17.9512
TCL: Running FEP window   2: Lambda1 0.05   Lambda2 0.1    [dLambda 0.05  ]
TCL: Setting parameter firsttimestep to 0
TCL: Setting parameter alchLambda to 0.05
Info: NONBONDED TABLE R-SQUARED SPACING: 0.0625
Info: NONBONDED TABLE SIZE: 705 POINTS
TCL: Setting parameter alchLambda2 to 0.1
Info: NONBONDED TABLE R-SQUARED SPACING: 0.0625
Info: NONBONDED TABLE SIZE: 705 POINTS
TCL: Running for 1500000 steps
ETITLE: TS BOND ANGLE DIHED IMPRP ELECT VDW BOUNDARY MISC KINETIC TOTAL TEMP POTENTIAL TOTALAVG TEMPAVG PRESSURE GPRESSURE VOLUME PRESSAVG GPRESSAVG
ENERGY: 0 1.4696 6.6760 2.0465 0.0000 -10552.5761 1453.7077 0.0000 0.0000 1776.4626 -7312.2138 305.3131 -9088.6763 -7312.2138 305.3131 394.6986 479.3754 29995.4824 394.6986 479.3754
ENERGY: 300000 3.5559 7.5459 1.3660 0.0000 -10771.4387 1551.4498 0.0000 0.0000 1727.2441 -7480.2770 296.8541 -9207.5211 -7397.8613 301.0545 579.1944 706.2740 30065.4261 83.4728 174.9252
ENERGY: 600000 6.2984 8.3042 0.7997 0.0000 -10512.3853 1303.7758 0.0000 0.0000 1749.2671 -7443.9400 300.6391 -9193.2071 -7427.4283 302.0074 -1259.7643 -1167.0801 30434.2305 -296.9081 -232.0808
ENERGY: 900000 1.6071 5.8298 3.0362 0.0000 -10742.8955 1448.1888 0.0000 0.0000 1752.5353 -7531.6983 301.2008 -9284.2336 -7449.5145 300.2603 -163.9859 -82.2920 29911.9538 -320.8222 -249.3176
ENERGY: 1200000 4.7883 4.5751 1.9658 0.0000 -10602.2062 1452.3289 0.0000 0.0000 1724.5462 -7414.0020 296.3904 -9138.5482 -7431.4537 300.1586 416.1501 452.8910 29944.3400 -193.1013 -127.8992
ENERGY: 1500000 4.2653 5.1710 1.8693 0.0000 -10609.6415 1441.5511 0.0000 0.0000 1765.8057 -7390.9790 303.4815 -9156.7847 -7423.2582 299.5605 247.3025 274.7070 29775.0618 -191.5429 -126.7759
TCL: Running FEP window   3: Lambda1 0.1    Lambda2 0.15000000000000002 [dLambda 0.05000000000000002]
TCL: Setting parameter firsttimestep to 0
TCL: Setting parameter alchLambda to 0.1
Info: NONBONDED TABLE R-SQUARED SPACING: 0.0625
Info: NONBONDED TABLE SIZE: 705 POINTS
TCL: Setting parameter alchLambda2 to 0.15000000000000002
Info: NONBONDED TABLE R-SQUARED SPACING: 0.0625
Info: NONBONDED TABLE SIZE: 705 POINTS
TCL: Running for 1500000 steps
ETITLE: TS BOND ANGLE DIHED IMPRP ELECT VDW BOUNDARY MISC KINETIC TOTAL TEMP POTENTIAL TOTALAVG TEMPAVG PRESSURE GPRESSURE VOLUME PRESSAVG GPRESSAVG
ENERGY: 0 4.2653 5.1710 1.8693 0.0000 -10609.6409 1442.1383 0.0000 0.0000 1764.8992 -7391.2978 303.3257 -9156.1970 -7391.2978 303.3257 208.6578 283.2559 29775.0618 208.6578 283.2559
ENERGY: 300000 4.3534 3.6689 1.5977 0.0000 -10660.5559 1421.0744 0.0000 0.0000 1777.3312 -7452.5303 305.4624 -9229.8616 -7389.2374 302.1786 -271.5640 -254.4510 30219.6835 93.9936 149.7941
ENERGY: 600000 2.8400 5.1517 1.0816 0.0000 -10553.4315 1401.8845 0.0000 0.0000 1761.1241 -7381.3495 302.6769 -9142.4737 -7397.6792 300.0310 -359.4820 -239.2983 30029.0173 -34.0757 42.5630
ENERGY: 900000 5.4276 3.9641 5.5169 0.0000 -10594.3723 1424.0098 0.0000 0.0000 1769.5665 -7385.8875 304.1279 -9155.4541 -7396.4554 300.5056 -549.7140 -476.8140 30583.9424 -94.5540 -17.3790
ENERGY: 1200000 2.5062 5.5558 2.5527 0.0000 -10644.5744 1466.0178 0.0000 0.0000 1780.3638 -7387.5781 305.9835 -9167.9419 -7400.4018 300.5352 173.8541 314.9819 29743.2093 -98.0359 -17.5300
ENERGY: 1500000 1.2589 3.5421 1.8109 0.0000 -10533.0796 1355.7014 0.0000 0.0000 1711.8741 -7458.8922 294.2125 -9170.7663 -7408.1960 300.1670 -613.4458 -564.2240 29895.6138 -127.3334 -51.7456
TCL: Running FEP window   4: Lambda1 0.15000000000000002 Lambda2 0.2    [dLambda 0.04999999999999999]
TCL: Setting parameter firsttimestep to 0
TCL: Setting parameter alchLambda to 0.15000000000000002
Info: NONBONDED TABLE R-SQUARED SPACING: 0.0625
Info: NONBONDED TABLE SIZE: 705 POINTS
TCL: Setting parameter alchLambda2 to 0.2
Info: NONBONDED TABLE R-SQUARED SPACING: 0.0625
Info: NONBONDED TABLE SIZE: 705 POINTS
TCL: Running for 1500000 steps
ETITLE: TS BOND ANGLE DIHED IMPRP ELECT VDW BOUNDARY MISC KINETIC TOTAL TEMP POTENTIAL TOTALAVG TEMPAVG PRESSURE GPRESSURE VOLUME PRESSAVG GPRESSAVG
ENERGY: 0 1.2589 3.5421 1.8109 0.0000 -10533.0793 1357.0751 0.0000 0.0000 1711.0061 -7458.3862 294.0633 -9169.3923 -7458.3862 294.0633 -628.0862 -555.1570 29895.6138 -628.0862 -555.1570
ENERGY: 300000 2.2469 5.0289 1.5227 0.0000 -10628.8244 1502.1195 0.0000 0.0000 1766.4653 -7351.4413 303.5949 -9117.9065 -7453.2698 296.1468 855.1339 871.3087 29637.7436 197.1346 243.2618
ENERGY: 600000 3.8456 3.8296 0.5476 0.0000 -10619.3511 1386.9406 0.0000 0.0000 1755.4832 -7468.7045 301.7074 -9224.1877 -7443.2833 297.0666 -560.7122 -489.5903 30057.2807 8.7191 61.2129
ENERGY: 900000 3.3110 6.6190 1.4869 0.0000 -10643.6361 1415.6433 0.0000 0.0000 1740.1929 -7476.3830 299.0795 -9216.5759 -7438.5869 298.2632 -330.1365 -162.7937 29953.4583 -132.1057 -56.7512
ENERGY: 1200000 2.5061 5.8441 1.6660 0.0000 -10681.6028 1488.7026 0.0000 0.0000 1747.6991 -7435.1849 300.3696 -9182.8840 -7436.3572 299.4376 469.0644 547.1859 29659.0151 -133.0546 -67.9237
ENERGY: 1500000 3.4792 7.9973 3.8328 0.0000 -10691.4597 1437.7079 0.0000 0.0000 1743.1581 -7495.2843 299.5892 -9238.4424 -7438.9939 299.1137 -79.2751 -39.6708 29613.1999 -133.2627 -70.6034
TCL: Running FEP window   5: Lambda1 0.2    Lambda2 0.25   [dLambda 0.04999999999999999]
TCL: Setting parameter firsttimestep to 0
TCL: Setting parameter alchLambda to 0.2
Info: NONBONDED TABLE R-SQUARED SPACING: 0.0625
Info: NONBONDED TABLE SIZE: 705 POINTS
TCL: Setting parameter alchLambda2 to 0.25
Info: NONBONDED TABLE R-SQUARED SPACING: 0.0625
Info: NONBONDED TABLE SIZE: 705 POINTS
TCL: Running for 1500000 steps
ETITLE: TS BOND ANGLE DIHED IMPRP ELECT VDW BOUNDARY MISC KINETIC TOTAL TEMP POTENTIAL TOTALAVG TEMPAVG PRESSURE GPRESSURE VOLUME PRESSAVG GPRESSAVG
ENERGY: 0 3.4792 7.9973 3.8328 0.0000 -10691.4588 1437.4697 0.0000 0.0000 1742.2916 -7496.3881 299.4402 -9238.6797 -7496.3881 299.4402 -115.8918 -35.8287 29613.1999 -115.8918 -35.8287
ENERGY: 300000 3.1379 5.0817 1.8097 0.0000 -10659.6431 1498.4400 0.0000 0.0000 1782.0235 -7369.1503 306.2688 -9151.1738 -7391.7871 305.2861 696.7925 790.7414 29990.0779 221.1110 302.5996
ENERGY: 600000 3.6444 6.1164 2.4206 0.0000 -10481.8889 1336.3726 0.0000 0.0000 1726.5591 -7406.7759 296.7364 -9133.3350 -7408.2196 302.2572 -647.6631 -601.6269 29716.8168 -40.5304 34.3906
ENERGY: 900000 4.8529 8.3125 3.1318 0.0000 -10783.8053 1462.7319 0.0000 0.0000 1739.8728 -7564.9035 299.0245 -9304.7763 -7420.3692 301.0571 -110.4651 -33.5827 29430.0046 -126.7262 -58.7024
ENERGY: 1200000 2.8239 3.2478 5.2687 0.0000 -10489.0247 1361.2245 0.0000 0.0000 1769.7618 -7346.6980 304.1614 -9116.4598 -7414.1516 300.9863 -491.8300 -414.4153 29923.9522 -166.1505 -92.4728
ENERGY: 1500000 0.8023 8.7692 5.0698 0.0000 -10631.4267 1423.0295 0.0000 0.0000 1751.2354 -7442.5204 300.9774 -9193.7558 -7416.8131 300.4632 -157.6769 -130.9280 30077.0847 -140.8028 -62.7403
TCL: Running FEP window   6: Lambda1 0.25   Lambda2 0.3    [dLambda 0.04999999999999999]
TCL: Setting parameter firsttimestep to 0
TCL: Setting parameter alchLambda to 0.25
Info: NONBONDED TABLE R-SQUARED SPACING: 0.0625
Info: NONBONDED TABLE SIZE: 705 POINTS
TCL: Setting parameter alchLambda2 to 0.3
Info: NONBONDED TABLE R-SQUARED SPACING: 0.0625
Info: NONBONDED TABLE SIZE: 705 POINTS
TCL: Running for 1500000 steps
ETITLE: TS BOND ANGLE DIHED IMPRP ELECT VDW BOUNDARY MISC KINETIC TOTAL TEMP POTENTIAL TOTALAVG TEMPAVG PRESSURE GPRESSURE VOLUME PRESSAVG GPRESSAVG
ENERGY: 0 0.8023 8.7692 5.0698 0.0000 -10631.4280 1423.6642 0.0000 0.0000 1750.3732 -7442.7492 300.8292 -9193.1223 -7442.7492 300.8292 -218.5462 -124.8862 30077.0847 -218.5462 -124.8862
ENERGY: 300000 2.6645 5.8933 2.2226 0.0000 -10542.6044 1393.4745 0.0000 0.0000 1771.5163 -7366.8332 304.4630 -9138.3494 -7432.6186 302.8208 -163.0526 -108.6933 30327.7178 -284.5758 -211.8255
ENERGY: 600000 2.8410 5.1416 1.5965 0.0000 -10396.4427 1288.7762 0.0000 0.0000 1732.7466 -7365.3407 297.7998 -9098.0873 -7422.5071 302.3150 -1056.0019 -1015.6096 30348.2095 -386.1251 -329.4361
ENERGY: 900000 1.3936 6.8590 2.9819 0.0000 -10630.3067 1473.8932 0.0000 0.0000 1727.4768 -7417.7022 296.8941 -9145.1789 -7418.2717 301.9348 454.2852 539.6931 29985.3280 -244.8771 -182.7833
ENERGY: 1200000 1.5159 6.1600 1.6258 0.0000 -10499.6102 1361.6537 0.0000 0.0000 1712.1205 -7416.5342 294.2549 -9128.6547 -7423.2088 301.6027 -477.7057 -425.7042 30315.4069 -259.3516 -195.7602
ENERGY: 1500000 1.3975 5.0452 2.7636 0.0000 -10525.2154 1365.8340 0.0000 0.0000 1753.7925 -7396.3826 301.4169 -9150.1752 -7417.0107 301.9629 -268.1043 -173.8256 29653.5776 -250.6394 -187.2208
TCL: Running FEP window   7: Lambda1 0.3    Lambda2 0.35   [dLambda 0.04999999999999999]
TCL: Setting parameter firsttimestep to 0
TCL: Setting parameter alchLambda to 0.3
Info: NONBONDED TABLE R-SQUARED SPACING: 0.0625
Info: NONBONDED TABLE SIZE: 705 POINTS
TCL: Setting parameter alchLambda2 to 0.35
Info: NONBONDED TABLE R-SQUARED SPACING: 0.0625
Info: NONBONDED TABLE SIZE: 705 POINTS
TCL: Running for 1500000 steps
ETITLE: TS BOND ANGLE DIHED IMPRP ELECT VDW BOUNDARY MISC KINETIC TOTAL TEMP POTENTIAL TOTALAVG TEMPAVG PRESSURE GPRESSURE VOLUME PRESSAVG GPRESSAVG
ENERGY: 0 1.3975 5.0452 2.7636 0.0000 -10525.2147 1366.8544 0.0000 0.0000 1752.8940 -7396.2600 301.2624 -9149.1540 -7396.2600 301.2624 -248.6414 -167.1422 29653.5776 -248.6414 -167.1422
ENERGY: 300000 2.1438 5.8841 1.7756 0.0000 -10466.8727 1381.0950 0.0000 0.0000 1759.0949 -7316.8792 302.3282 -9075.9741 -7371.0549 303.1200 -249.6434 -224.1869 30332.6374 -386.0664 -340.5816
ENERGY: 600000 3.0853 8.8023 2.4644 0.0000 -10817.0461 1523.2769 0.0000 0.0000 1749.7801 -7529.6371 300.7272 -9279.4172 -7392.5252 303.0360 283.0532 395.1562 29815.7173 -285.2492 -225.3130
ENERGY: 900000 3.5761 4.7850 1.2652 0.0000 -10648.7957 1461.3054 0.0000 0.0000 1732.7005 -7445.1636 297.7918 -9177.8640 -7412.3533 300.9825 46.7761 120.1930 30032.1017 -303.1502 -243.4526
ENERGY: 1200000 0.9565 7.7448 1.6915 0.0000 -10637.0877 1468.5375 0.0000 0.0000 1745.0166 -7413.1408 299.9086 -9158.1574 -7417.2103 300.7101 486.8602 570.3955 29953.0418 -137.2017 -83.1251
ENERGY: 1500000 0.6670 6.4157 1.8487 0.0000 -10545.1477 1400.0274 0.0000 0.0000 1783.8002 -7352.3887 306.5741 -9136.1889 -7413.5163 300.2030 -175.8923 -131.0405 30173.6236 -156.0553 -99.6617
TCL: Running FEP window   8: Lambda1 0.35   Lambda2 0.39999999999999997 [dLambda 0.04999999999999999]
TCL: Setting parameter firsttimestep to 0
TCL: Setting parameter alchLambda to 0.35
Info: NONBONDED TABLE R-SQUARED SPACING: 0.0625
Info: NONBONDED TABLE SIZE: 705 POINTS
TCL: Setting parameter alchLambda2 to 0.39999999999999997
Info: NONBONDED TABLE R-SQUARED SPACING: 0.0625
Info: NONBONDED TABLE SIZE: 705 POINTS
TCL: Running for 1500000 steps
ETITLE: TS BOND ANGLE DIHED IMPRP ELECT VDW BOUNDARY MISC KINETIC TOTAL TEMP POTENTIAL TOTALAVG TEMPAVG PRESSURE GPRESSURE VOLUME PRESSAVG GPRESSAVG
ENERGY: 0 0.6670 6.4157 1.8487 0.0000 -10545.1459 1400.3162 0.0000 0.0000 1782.9855 -7352.9128 306.4341 -9135.8983 -7352.9128 306.4341 -211.5827 -125.6621 30173.6236 -211.5827 -125.6621
ENERGY: 300000 2.0941 7.4884 1.3350 0.0000 -10442.4966 1382.0595 0.0000 0.0000 1741.4263 -7308.0932 299.2915 -9049.5195 -7373.0519 303.9339 -410.9167 -302.2536 30721.4787 -164.9318 -62.8287
ENERGY: 600000 1.3648 4.8745 2.6708 0.0000 -10455.9334 1324.5889 0.0000 0.0000 1737.6585 -7384.7759 298.6440 -9122.4344 -7386.7106 301.1588 -693.6765 -614.8581 30333.6227 -217.0250 -128.5136
ENERGY: 900000 3.9529 2.2975 1.9957 0.0000 -10590.2860 1388.5487 0.0000 0.0000 1757.0088 -7436.4824 301.9696 -9193.4912 -7403.5823 299.6005 -361.0192 -286.5129 29945.5509 -195.4046 -112.0670
ENERGY: 1200000 3.0439 5.7688 4.7147 0.0000 -10539.9713 1392.9800 0.0000 0.0000 1700.3578 -7433.1060 292.2333 -9133.4638 -7409.5495 299.0404 -369.9265 -299.9395 30058.3600 -147.1926 -64.9469
ENERGY: 1500000 1.7006 4.9943 4.2238 0.0000 -10561.3636 1395.9909 0.0000 0.0000 1785.7718 -7368.6823 306.9130 -9154.4540 -7404.4769 299.4922 -272.0193 -285.9388 30239.0518 -86.3958 -19.6903
TCL: Running FEP window   9: Lambda1 0.39999999999999997 Lambda2 0.44999999999999996 [dLambda 0.04999999999999999]
TCL: Setting parameter firsttimestep to 0
TCL: Setting parameter alchLambda to 0.39999999999999997
Info: NONBONDED TABLE R-SQUARED SPACING: 0.0625
Info: NONBONDED TABLE SIZE: 705 POINTS
TCL: Setting parameter alchLambda2 to 0.44999999999999996
Info: NONBONDED TABLE R-SQUARED SPACING: 0.0625
Info: NONBONDED TABLE SIZE: 705 POINTS
TCL: Running for 1500000 steps
ETITLE: TS BOND ANGLE DIHED IMPRP ELECT VDW BOUNDARY MISC KINETIC TOTAL TEMP POTENTIAL TOTALAVG TEMPAVG PRESSURE GPRESSURE VOLUME PRESSAVG GPRESSAVG
ENERGY: 0 1.7006 4.9943 4.2238 0.0000 -10561.3632 1395.9321 0.0000 0.0000 1784.9067 -7369.6058 306.7643 -9154.5125 -7369.6058 306.7643 -355.4637 -281.9086 30239.0518 -355.4637 -281.9086
ENERGY: 300000 2.9734 6.1372 3.4516 0.0000 -10681.6581 1444.2241 0.0000 0.0000 1763.8643 -7461.0074 303.1478 -9224.8717 -7407.4425 303.2139 68.8906 72.5170 29817.7781 -63.3508 -7.5619
ENERGY: 600000 2.2181 4.5510 4.1034 0.0000 -10469.4619 1330.7444 0.0000 0.0000 1702.9047 -7424.9402 292.6710 -9127.8449 -7416.6072 300.5522 -706.6913 -634.5989 29980.3238 -146.9054 -73.3572
ENERGY: 900000 1.0758 5.5433 1.1215 0.0000 -10422.2299 1301.5139 0.0000 0.0000 1699.2753 -7413.7002 292.0472 -9112.9755 -7408.8280 300.3052 -1056.8955 -1029.4782 30626.5820 -100.8296 -31.1172
ENERGY: 1200000 4.0723 6.2497 0.8720 0.0000 -10669.6327 1431.6029 0.0000 0.0000 1753.4166 -7473.4192 301.3522 -9226.8358 -7401.6351 300.4548 -231.1354 -151.9198 30038.2506 -152.2290 -79.1428
ENERGY: 1500000 2.6166 6.3875 1.1655 0.0000 -10605.8662 1438.6629 0.0000 0.0000 1714.5409 -7442.4928 294.6709 -9157.0337 -7406.2345 300.3064 367.9123 342.0762 29773.3659 -76.8144 -20.9424
TCL: Running FEP window  10: Lambda1 0.44999999999999996 Lambda2 0.49999999999999994 [dLambda 0.04999999999999999]
TCL: Setting parameter firsttimestep to 0
TCL: Setting parameter alchLambda to 0.44999999999999996
Info: NONBONDED TABLE R-SQUARED SPACING: 0.0625
Info: NONBONDED TABLE SIZE: 705 POINTS
TCL: Setting parameter alchLambda2 to 0.49999999999999994
Info: NONBONDED TABLE R-SQUARED SPACING: 0.0625
Info: NONBONDED TABLE SIZE: 705 POINTS
TCL: Running for 1500000 steps
ETITLE: TS BOND ANGLE DIHED IMPRP ELECT VDW BOUNDARY MISC KINETIC TOTAL TEMP POTENTIAL TOTALAVG TEMPAVG PRESSURE GPRESSURE VOLUME PRESSAVG GPRESSAVG
ENERGY: 0 2.6166 6.3875 1.1655 0.0000 -10605.8657 1439.5397 0.0000 0.0000 1713.6996 -7442.4568 294.5263 -9156.1564 -7442.4568 294.5263 270.4886 355.1036 29773.3659 270.4886 355.1036
ENERGY: 300000 2.5271 6.3032 2.3479 0.0000 -10500.9243 1333.3755 0.0000 0.0000 1707.1305 -7449.2402 293.3972 -9156.3706 -7415.6489 297.7824 -512.7619 -485.1666 29763.9430 -300.4065 -248.7937
ENERGY: 600000 2.8936 5.6871 2.7287 0.0000 -10640.3302 1464.3196 0.0000 0.0000 1732.2950 -7432.4064 297.7222 -9164.7014 -7426.4331 297.4578 561.4774 539.7944 29984.8839 -179.1912 -135.0948
ENERGY: 900000 3.2830 6.1048 1.8468 0.0000 -10791.9530 1522.5313 0.0000 0.0000 1746.4262 -7511.7610 300.1508 -9258.1872 -7438.3153 298.4574 560.9182 658.6284 29339.7394 -32.0675 27.4645
ENERGY: 1200000 1.4042 7.0526 4.1696 0.0000 -10671.7630 1426.5603 0.0000 0.0000 1709.5675 -7523.0088 293.8161 -9232.5763 -7435.8795 298.3582 -448.8546 -370.7428 30370.0807 21.7682 84.1809
ENERGY: 1500000 2.0600 4.8476 5.1176 0.0000 -10519.5698 1341.0393 0.0000 0.0000 1674.6668 -7491.8385 287.8179 -9166.5053 -7434.9414 298.1153 -882.1307 -757.0913 29864.9596 43.7187 111.7562
TCL: Running FEP window  11: Lambda1 0.49999999999999994 Lambda2 0.5499999999999999 [dLambda 0.04999999999999999]
TCL: Setting parameter firsttimestep to 0
TCL: Setting parameter alchLambda to 0.49999999999999994
Info: NONBONDED TABLE R-SQUARED SPACING: 0.0625
Info: NONBONDED TABLE SIZE: 705 POINTS
TCL: Setting parameter alchLambda2 to 0.5499999999999999
Info: NONBONDED TABLE R-SQUARED SPACING: 0.0625
Info: NONBONDED TABLE SIZE: 705 POINTS
TCL: Running for 1500000 steps
ETITLE: TS BOND ANGLE DIHED IMPRP ELECT VDW BOUNDARY MISC KINETIC TOTAL TEMP POTENTIAL TOTALAVG TEMPAVG PRESSURE GPRESSURE VOLUME PRESSAVG GPRESSAVG
ENERGY: 0 2.0600 4.8476 5.1176 0.0000 -10519.5707 1341.0316 0.0000 0.0000 1673.8040 -7492.7099 287.6696 -9166.5138 -7492.7099 287.6696 -845.5500 -749.1868 29864.9596 -845.5500 -749.1868
ENERGY: 300000 1.9372 6.1200 1.1362 0.0000 -10695.3766 1489.7998 0.0000 0.0000 1754.1753 -7442.2081 301.4826 -9196.3834 -7440.9854 298.2094 197.3338 209.2094 30575.5224 -355.4198 -299.9433
ENERGY: 600000 0.9404 6.6488 1.9029 0.0000 -10658.7737 1444.8725 0.0000 0.0000 1726.9981 -7477.4110 296.8118 -9204.4091 -7453.3961 297.6279 -47.5828 84.8260 30061.9390 -317.3004 -249.3470
ENERGY: 900000 2.3451 6.0187 1.7002 0.0000 -10643.5773 1398.8216 0.0000 0.0000 1797.5850 -7437.1066 308.9433 -9234.6916 -7448.0789 299.3001 -300.9994 -262.9016 29635.8063 -325.8808 -262.3992
ENERGY: 1200000 4.0952 7.1801 1.9976 0.0000 -10701.0383 1528.7953 0.0000 0.0000 1749.4228 -7409.5472 300.6658 -9158.9700 -7431.1647 299.6032 871.7944 885.2825 30007.7268 -172.1957 -117.0862
ENERGY: 1500000 3.4365 5.4437 1.8621 0.0000 -10621.7994 1392.5892 0.0000 0.0000 1755.3781 -7463.0899 301.6894 -9218.4680 -7425.2635 300.0305 -502.7640 -443.2871 30001.1166 -182.1661 -125.7862
TCL: Running FEP window  12: Lambda1 0.5499999999999999 Lambda2 0.6    [dLambda 0.050000000000000044]
TCL: Setting parameter firsttimestep to 0
TCL: Setting parameter alchLambda to 0.5499999999999999
Info: NONBONDED TABLE R-SQUARED SPACING: 0.0625
Info: NONBONDED TABLE SIZE: 705 POINTS
TCL: Setting parameter alchLambda2 to 0.6
Info: NONBONDED TABLE R-SQUARED SPACING: 0.0625
Info: NONBONDED TABLE SIZE: 705 POINTS
TCL: Running for 1500000 steps
ETITLE: TS BOND ANGLE DIHED IMPRP ELECT VDW BOUNDARY MISC KINETIC TOTAL TEMP POTENTIAL TOTALAVG TEMPAVG PRESSURE GPRESSURE VOLUME PRESSAVG GPRESSAVG
ENERGY: 0 3.4365 5.4437 1.8621 0.0000 -10621.6362 1392.9646 0.0000 0.0000 1754.4894 -7463.4399 301.5366 -9217.9293 -7463.4399 301.5366 -513.4173 -430.4240 30001.1166 -513.4173 -430.4240
ENERGY: 300000 5.6518 6.7638 2.1433 0.0000 -10610.6135 1380.9296 0.0000 0.0000 1793.4535 -7421.6715 308.2332 -9215.1249 -7470.0305 301.0331 -637.4774 -604.0198 30028.1582 -218.8285 -148.4787
ENERGY: 600000 1.2630 3.9743 4.2566 0.0000 -10765.8233 1467.3465 0.0000 0.0000 1746.4711 -7542.5119 300.1585 -9288.9829 -7468.5544 301.1623 419.3476 451.3881 29549.7030 -140.5485 -88.0021
ENERGY: 900000 3.0840 9.0886 3.1125 0.0000 -10601.7927 1465.9625 0.0000 0.0000 1782.1087 -7338.4365 306.2834 -9120.5452 -7438.0777 302.2414 340.8786 393.4469 30355.6890 -37.5256 18.3528
ENERGY: 1200000 4.0648 4.2949 2.5525 0.0000 -10559.7992 1439.3266 0.0000 0.0000 1733.5876 -7375.9728 297.9443 -9109.5604 -7437.4862 300.7075 41.2187 104.0155 30176.6299 -7.9543 47.2522
ENERGY: 1500000 2.9170 3.2307 3.3319 0.0000 -10761.7918 1520.6649 0.0000 0.0000 1759.6566 -7471.9907 302.4247 -9231.6473 -7441.7044 300.0952 300.9382 348.8888 30320.0256 67.3538 115.3905
TCL: Running FEP window  13: Lambda1 0.6    Lambda2 0.65   [dLambda 0.050000000000000044]
TCL: Setting parameter firsttimestep to 0
TCL: Setting parameter alchLambda to 0.6
Info: NONBONDED TABLE R-SQUARED SPACING: 0.0625
Info: NONBONDED TABLE SIZE: 705 POINTS
TCL: Setting parameter alchLambda2 to 0.65
Info: NONBONDED TABLE R-SQUARED SPACING: 0.0625
Info: NONBONDED TABLE SIZE: 705 POINTS
TCL: Running for 1500000 steps
ETITLE: TS BOND ANGLE DIHED IMPRP ELECT VDW BOUNDARY MISC KINETIC TOTAL TEMP POTENTIAL TOTALAVG TEMPAVG PRESSURE GPRESSURE VOLUME PRESSAVG GPRESSAVG
ENERGY: 0 2.9170 3.2307 3.3319 0.0000 -10762.2319 1521.2589 0.0000 0.0000 1758.8033 -7472.6901 302.2780 -9231.4934 -7472.6901 302.2780 277.1557 360.5074 30320.0256 277.1557 360.5074
ENERGY: 300000 1.8052 6.1663 3.0866 0.0000 -10582.1585 1376.2569 0.0000 0.0000 1742.7042 -7452.1393 299.5111 -9194.8435 -7430.2367 300.3555 -347.8253 -219.5567 29768.7132 -187.5239 -108.0679
ENERGY: 600000 1.9959 6.4144 1.5216 0.0000 -10677.5320 1422.8456 0.0000 0.0000 1747.0201 -7497.7345 300.2529 -9244.7546 -7424.4723 299.7454 -105.4999 25.2164 29621.0141 -97.9222 -19.6799
ENERGY: 900000 3.1853 2.9656 3.6840 0.0000 -10480.4468 1310.4339 0.0000 0.0000 1778.4157 -7381.7623 305.6487 -9160.1780 -7418.1162 300.6789 -993.9817 -947.9258 30337.9515 -80.6486 -10.8681
ENERGY: 1200000 4.4104 4.2781 4.2340 0.0000 -10696.8162 1490.9407 0.0000 0.0000 1664.1906 -7528.7625 286.0173 -9192.9531 -7424.6142 299.5001 375.7800 469.5487 30205.3094 35.8918 110.8034
ENERGY: 1500000 2.0861 3.3654 2.5749 0.0000 -10514.0442 1343.9469 0.0000 0.0000 1667.2234 -7494.8475 286.5386 -9162.0709 -7435.6449 299.1457 -875.4168 -880.2770 30723.9780 -40.4895 26.6745
TCL: Running FEP window  14: Lambda1 0.65   Lambda2 0.7000000000000001 [dLambda 0.050000000000000044]
TCL: Setting parameter firsttimestep to 0
TCL: Setting parameter alchLambda to 0.65
Info: NONBONDED TABLE R-SQUARED SPACING: 0.0625
Info: NONBONDED TABLE SIZE: 705 POINTS
TCL: Setting parameter alchLambda2 to 0.7000000000000001
Info: NONBONDED TABLE R-SQUARED SPACING: 0.0625
Info: NONBONDED TABLE SIZE: 705 POINTS
TCL: Running for 1500000 steps
ETITLE: TS BOND ANGLE DIHED IMPRP ELECT VDW BOUNDARY MISC KINETIC TOTAL TEMP POTENTIAL TOTALAVG TEMPAVG PRESSURE GPRESSURE VOLUME PRESSAVG GPRESSAVG
ENERGY: 0 2.0861 3.3654 2.5749 0.0000 -10514.4912 1344.1057 0.0000 0.0000 1666.3048 -7496.0543 286.3807 -9162.3591 -7496.0543 286.3807 -949.3947 -871.2939 30723.9780 -949.3947 -871.2939
ENERGY: 300000 1.3636 7.1010 2.0005 0.0000 -10702.2922 1515.7041 0.0000 0.0000 1825.6117 -7350.5113 313.7601 -9176.1230 -7421.2968 299.8952 678.3063 743.3699 30037.1548 -179.7292 -112.9228
ENERGY: 600000 3.5436 5.9192 1.8591 0.0000 -10642.3185 1433.9901 0.0000 0.0000 1776.3223 -7420.6842 305.2890 -9197.0065 -7415.8197 301.1672 99.6626 129.6000 29764.0956 -46.0877 5.9861
ENERGY: 900000 3.2314 11.2105 1.0517 0.0000 -10432.4150 1355.5500 0.0000 0.0000 1782.5577 -7278.8136 306.3606 -9061.3713 -7389.1887 301.7331 -303.1407 -279.2307 30013.1736 -18.3007 40.3230
ENERGY: 1200000 3.4465 5.6243 2.2734 0.0000 -10517.7573 1386.1579 0.0000 0.0000 1776.3344 -7343.9208 305.2910 -9120.2553 -7388.0665 302.2653 -72.9988 -28.4237 29922.8694 -103.7775 -37.5876
ENERGY: 1500000 1.4959 5.1555 2.0296 0.0000 -10574.8984 1387.3713 0.0000 0.0000 1750.4781 -7428.3681 300.8472 -9178.8463 -7398.0039 301.8249 -421.7685 -370.1691 30311.3858 -95.6550 -27.3459
TCL: Running FEP window  15: Lambda1 0.7000000000000001 Lambda2 0.7500000000000001 [dLambda 0.050000000000000044]
TCL: Setting parameter firsttimestep to 0
TCL: Setting parameter alchLambda to 0.7000000000000001
Info: NONBONDED TABLE R-SQUARED SPACING: 0.0625
Info: NONBONDED TABLE SIZE: 705 POINTS
TCL: Setting parameter alchLambda2 to 0.7500000000000001
Info: NONBONDED TABLE R-SQUARED SPACING: 0.0625
Info: NONBONDED TABLE SIZE: 705 POINTS
TCL: Running for 1500000 steps
ETITLE: TS BOND ANGLE DIHED IMPRP ELECT VDW BOUNDARY MISC KINETIC TOTAL TEMP POTENTIAL TOTALAVG TEMPAVG PRESSURE GPRESSURE VOLUME PRESSAVG GPRESSAVG
ENERGY: 0 1.4959 5.1555 2.0295 0.0000 -10575.5398 1387.0292 0.0000 0.0000 1749.5910 -7430.2388 300.6948 -9179.8298 -7430.2388 300.6948 -445.2959 -364.3702 30311.3858 -445.2959 -364.3702
ENERGY: 300000 5.4665 9.8969 1.8653 0.0000 -10705.5212 1458.3035 0.0000 0.0000 1789.9626 -7440.0263 307.6332 -9229.9889 -7442.9975 298.6756 -15.9665 20.7488 30150.7668 -100.3706 -45.8467
ENERGY: 600000 5.1033 6.2994 1.3109 0.0000 -10572.3431 1428.8786 0.0000 0.0000 1722.7120 -7408.0389 296.0752 -9130.7509 -7421.9438 299.0786 125.1431 154.5885 29724.0439 77.3824 119.3013
ENERGY: 900000 3.8998 4.5038 1.3709 0.0000 -10667.8676 1488.7104 0.0000 0.0000 1716.8565 -7452.5262 295.0688 -9169.3828 -7424.4054 298.5615 583.4255 674.0695 29676.2728 80.1266 134.0289
ENERGY: 1200000 1.7936 7.7409 2.3220 0.0000 -10463.3804 1404.4913 0.0000 0.0000 1740.7212 -7306.3114 299.1703 -9047.0326 -7420.7256 298.2921 13.3615 85.3527 30636.4338 199.2277 257.1220
ENERGY: 1500000 5.1906 5.8257 3.2835 0.0000 -10517.0031 1405.1949 0.0000 0.0000 1710.9673 -7386.5411 294.0567 -9097.5084 -7420.0597 298.4328 -199.5308 -122.8181 30456.7069 118.5539 177.1057
TCL: Running FEP window  16: Lambda1 0.7500000000000001 Lambda2 0.8000000000000002 [dLambda 0.050000000000000044]
TCL: Setting parameter firsttimestep to 0
TCL: Setting parameter alchLambda to 0.7500000000000001
Info: NONBONDED TABLE R-SQUARED SPACING: 0.0625
Info: NONBONDED TABLE SIZE: 705 POINTS
TCL: Setting parameter alchLambda2 to 0.8000000000000002
Info: NONBONDED TABLE R-SQUARED SPACING: 0.0625
Info: NONBONDED TABLE SIZE: 705 POINTS
TCL: Running for 1500000 steps
ETITLE: TS BOND ANGLE DIHED IMPRP ELECT VDW BOUNDARY MISC KINETIC TOTAL TEMP POTENTIAL TOTALAVG TEMPAVG PRESSURE GPRESSURE VOLUME PRESSAVG GPRESSAVG
ENERGY: 0 5.1906 5.8257 3.2835 0.0000 -10517.8962 1405.8762 0.0000 0.0000 1710.1249 -7387.5954 293.9119 -9097.7203 -7387.5954 293.9119 -188.9913 -110.1608 30456.7069 -188.9913 -110.1608
ENERGY: 300000 3.4125 7.5611 2.4796 0.0000 -10533.2495 1422.0407 0.0000 0.0000 1711.9736 -7385.7820 294.2296 -9097.7556 -7413.3738 299.0437 54.6277 152.6231 30108.2216 -40.0212 42.0536
ENERGY: 600000 3.1780 6.7839 1.6637 0.0000 -10652.3426 1442.8520 0.0000 0.0000 1720.5796 -7477.2854 295.7087 -9197.8649 -7413.4132 299.7988 -14.4594 99.6378 29919.6551 -109.5307 -26.0231
ENERGY: 900000 1.3186 7.5689 4.3142 0.0000 -10741.9034 1547.5726 0.0000 0.0000 1783.2494 -7397.8797 306.4795 -9181.1291 -7419.4379 300.4741 1249.4035 1308.9766 29771.9427 62.8688 134.7660
ENERGY: 1200000 0.4056 5.2010 3.5179 0.0000 -10587.8939 1476.1303 0.0000 0.0000 1822.3545 -7280.2847 313.2003 -9102.6392 -7409.2292 301.3448 587.8472 631.3711 30449.2611 55.8112 119.3739
ENERGY: 1500000 1.0248 5.4419 1.1007 0.0000 -10566.3521 1438.8331 0.0000 0.0000 1784.3800 -7335.5717 306.6738 -9119.9517 -7411.0179 300.9608 225.0213 253.2443 30383.2439 -18.1687 40.7162
TCL: Running FEP window  17: Lambda1 0.8000000000000002 Lambda2 0.8500000000000002 [dLambda 0.050000000000000044]
TCL: Setting parameter firsttimestep to 0
TCL: Setting parameter alchLambda to 0.8000000000000002
Info: NONBONDED TABLE R-SQUARED SPACING: 0.0625
Info: NONBONDED TABLE SIZE: 705 POINTS
TCL: Setting parameter alchLambda2 to 0.8500000000000002
Info: NONBONDED TABLE R-SQUARED SPACING: 0.0625
Info: NONBONDED TABLE SIZE: 705 POINTS
TCL: Running for 1500000 steps
ETITLE: TS BOND ANGLE DIHED IMPRP ELECT VDW BOUNDARY MISC KINETIC TOTAL TEMP POTENTIAL TOTALAVG TEMPAVG PRESSURE GPRESSURE VOLUME PRESSAVG GPRESSAVG
ENERGY: 0 1.0248 5.4419 1.1007 0.0000 -10566.7952 1438.4163 0.0000 0.0000 1783.4858 -7337.3258 306.5201 -9120.8116 -7337.3258 306.5201 186.0154 256.7202 30383.2439 186.0154 256.7202
ENERGY: 300000 0.4992 4.4921 3.5814 0.0000 -10649.0188 1438.9326 0.0000 0.0000 1694.8928 -7506.6209 291.2940 -9201.5137 -7438.1657 297.4274 91.1830 176.1446 29842.5068 -186.6444 -125.9093
ENERGY: 600000 1.4954 4.0196 4.0665 0.0000 -10680.5377 1489.1394 0.0000 0.0000 1774.6664 -7407.1504 305.0044 -9181.8168 -7436.7847 297.7556 654.9624 720.4746 29866.1854 -56.7625 13.1209
ENERGY: 900000 2.3099 5.7272 3.1930 0.0000 -10455.9606 1357.3247 0.0000 0.0000 1710.0299 -7377.3759 293.8956 -9087.4058 -7416.5353 298.6684 -466.6029 -414.5561 30096.7798 -154.9222 -88.2792
ENERGY: 1200000 1.1375 6.6001 1.7333 0.0000 -10806.7157 1535.0237 0.0000 0.0000 1772.3199 -7489.9012 304.6011 -9262.2212 -7417.6703 298.9447 669.3083 718.5337 29826.0737 -70.7932 -7.5235
ENERGY: 1500000 2.2434 3.9015 1.9403 0.0000 -10658.6711 1468.4787 0.0000 0.0000 1723.8989 -7458.2083 296.2792 -9182.1072 -7421.3410 298.4296 183.9341 264.1883 30313.8341 -7.2349 55.0753
TCL: Running FEP window  18: Lambda1 0.8500000000000002 Lambda2 0.9000000000000002 [dLambda 0.050000000000000044]
TCL: Setting parameter firsttimestep to 0
TCL: Setting parameter alchLambda to 0.8500000000000002
Info: NONBONDED TABLE R-SQUARED SPACING: 0.0625
Info: NONBONDED TABLE SIZE: 705 POINTS
TCL: Setting parameter alchLambda2 to 0.9000000000000002
Info: NONBONDED TABLE R-SQUARED SPACING: 0.0625
Info: NONBONDED TABLE SIZE: 705 POINTS
TCL: Running for 1500000 steps
ETITLE: TS BOND ANGLE DIHED IMPRP ELECT VDW BOUNDARY MISC KINETIC TOTAL TEMP POTENTIAL TOTALAVG TEMPAVG PRESSURE GPRESSURE VOLUME PRESSAVG GPRESSAVG
ENERGY: 0 2.2434 3.9015 1.9403 0.0000 -10658.7979 1467.9283 0.0000 0.0000 1723.0338 -7459.7508 296.1305 -9182.7845 -7459.7508 296.1305 186.5155 267.0718 30313.8341 186.5155 267.0718
ENERGY: 300000 2.9156 6.3821 3.3409 0.0000 -10651.6095 1458.3868 0.0000 0.0000 1748.0212 -7432.5629 300.4250 -9180.5841 -7449.1588 299.8656 -32.6326 46.6654 30542.0852 -6.3480 77.3037
ENERGY: 600000 3.6130 9.5364 1.2665 0.0000 -10705.8262 1490.8564 0.0000 0.0000 1733.6909 -7466.8631 297.9621 -9200.5540 -7446.0334 299.0066 55.5623 154.2150 30335.2239 -222.3912 -139.7254
ENERGY: 900000 1.7870 5.1853 1.6554 0.0000 -10701.6602 1447.0940 0.0000 0.0000 1719.1520 -7526.7864 295.4633 -9245.9384 -7456.6337 297.5567 -106.2466 -109.5750 30413.9416 -153.2350 -86.1235
ENERGY: 1200000 3.2362 7.2072 2.3908 0.0000 -10547.7389 1435.5867 0.0000 0.0000 1790.2043 -7309.1138 307.6748 -9099.3181 -7438.5657 298.7619 513.5030 537.2607 29734.3530 -158.6399 -91.5344
ENERGY: 1500000 3.4256 7.2945 0.8444 0.0000 -10511.6035 1399.8537 0.0000 0.0000 1682.0544 -7418.1310 289.0875 -9100.1854 -7438.2993 298.2460 44.9605 145.5625 30014.3442 -65.7846 -0.3736
TCL: Running FEP window  19: Lambda1 0.9000000000000002 Lambda2 0.9500000000000003 [dLambda 0.050000000000000044]
TCL: Setting parameter firsttimestep to 0
TCL: Setting parameter alchLambda to 0.9000000000000002
Info: NONBONDED TABLE R-SQUARED SPACING: 0.0625
Info: NONBONDED TABLE SIZE: 705 POINTS
TCL: Setting parameter alchLambda2 to 0.9500000000000003
Info: NONBONDED TABLE R-SQUARED SPACING: 0.0625
Info: NONBONDED TABLE SIZE: 705 POINTS
TCL: Running for 1500000 steps
ETITLE: TS BOND ANGLE DIHED IMPRP ELECT VDW BOUNDARY MISC KINETIC TOTAL TEMP POTENTIAL TOTALAVG TEMPAVG PRESSURE GPRESSURE VOLUME PRESSAVG GPRESSAVG
ENERGY: 0 3.4256 7.2944 0.8444 0.0000 -10512.5711 1399.4761 0.0000 0.0000 1681.1902 -7420.3404 288.9390 -9101.5305 -7420.3404 288.9390 62.9556 150.3286 30014.3442 62.9556 150.3286
ENERGY: 300000 5.0029 7.3223 3.7658 0.0000 -10530.7301 1392.4058 0.0000 0.0000 1754.5937 -7367.6397 301.5545 -9122.2333 -7395.4485 297.5806 -663.8056 -602.6693 31016.1500 -118.3910 -32.8356
ENERGY: 600000 3.0657 3.3095 2.7044 0.0000 -10588.8060 1444.2317 0.0000 0.0000 1725.7132 -7409.7815 296.5910 -9135.4947 -7414.8813 297.2705 212.9017 233.4594 30183.8592 -152.4994 -95.8251
ENERGY: 900000 2.7691 5.4059 1.7978 0.0000 -10612.9488 1414.8924 0.0000 0.0000 1753.2746 -7434.8091 301.3278 -9188.0837 -7400.5383 299.2431 -120.7695 -48.6621 29946.8560 -135.9314 -87.6875
ENERGY: 1200000 4.7720 10.1467 3.4651 0.0000 -10562.9167 1391.5293 0.0000 0.0000 1718.9210 -7434.0825 295.4236 -9153.0035 -7402.8992 299.0178 -289.8735 -267.4494 30130.9310 -225.8585 -173.5915
ENERGY: 1500000 0.5031 7.8875 2.9135 0.0000 -10720.7363 1495.4606 0.0000 0.0000 1765.2836 -7448.6880 303.3918 -9213.9716 -7410.2319 299.5008 529.9002 613.2971 29832.6069 -108.2809 -55.6125
TCL: Running FEP window  20: Lambda1 0.9500000000000003 Lambda2 1.0    [dLambda 0.04999999999999971]
TCL: Setting parameter firsttimestep to 0
TCL: Setting parameter alchLambda to 0.9500000000000003
Info: NONBONDED TABLE R-SQUARED SPACING: 0.0625
Info: NONBONDED TABLE SIZE: 705 POINTS
TCL: Setting parameter alchLambda2 to 1.0
Info: NONBONDED TABLE R-SQUARED SPACING: 0.0625
Info: NONBONDED TABLE SIZE: 705 POINTS
TCL: Running for 1500000 steps
ETITLE: TS BOND ANGLE DIHED IMPRP ELECT VDW BOUNDARY MISC KINETIC TOTAL TEMP POTENTIAL TOTALAVG TEMPAVG PRESSURE GPRESSURE VOLUME PRESSAVG GPRESSAVG
ENERGY: 0 0.5031 7.8875 2.9135 0.0000 -10722.3862 1496.0212 0.0000 0.0000 1764.4447 -7450.6162 303.2476 -9215.0610 -7450.6162 303.2476 548.7692 628.6837 29832.6069 548.7692 628.6837
ENERGY: 300000 2.7710 3.2054 1.3623 0.0000 -10712.1037 1395.1848 0.0000 0.0000 1697.3300 -7612.2502 291.7129 -9309.5802 -7478.5418 299.2675 -625.0587 -585.8609 29813.0379 215.3541 282.6169
ENERGY: 600000 4.2986 5.0817 2.6890 0.0000 -10581.3345 1332.2171 0.0000 0.0000 1778.8906 -7458.1575 305.7304 -9237.0481 -7449.5244 299.7579 -973.0371 -861.9838 30019.9523 -35.1416 32.8382
ENERGY: 900000 2.2004 10.6914 2.6444 0.0000 -10626.0925 1450.4117 0.0000 0.0000 1751.1571 -7408.9876 300.9639 -9160.1447 -7438.9540 300.7511 461.1126 485.4634 29924.0636 43.3465 111.8367
ENERGY: 1200000 4.5787 4.4650 2.4127 0.0000 -10436.3214 1315.5505 0.0000 0.0000 1742.1172 -7367.1973 299.4103 -9109.3145 -7428.0238 300.9143 -935.7144 -862.2814 30541.1883 -46.4330 19.2440
ENERGY: 1500000 1.7991 5.5730 2.0989 0.0000 -10706.4324 1510.1334 0.0000 0.0000 1739.1099 -7447.7181 298.8934 -9186.8280 -7433.7314 300.8305 497.3568 634.1482 30215.8343 17.8198 87.8865
TCL: Exiting due to exit command.
