Info: SIMULATION PARAMETERS:
Info: TIMESTEP               2
Info: NUMBER OF STEPS        0
Info: STEPS PER CYCLE        10
Info: PERIODIC CELL BASIS 1  32.28 0 0
Info: PERIODIC CELL BASIS 2  0 30.2228 0
Info: PERIODIC CELL BASIS 3  0 0 31.5134
Info: PERIODIC CELL CENTER   0 0 0
Info: WRAPPING WATERS AROUND PERIODIC BOUNDARIES ON OUTPUT.
Info: WRAPPING ALL CLUSTERS AROUND PERIODIC BOUNDARIES ON OUTPUT.
Info: FIRST LDB TIMESTEP     50
Info: LAST LDB TIMESTEP     -1
Info: HOM BACKGROUND SCALING 1
Info: PME BACKGROUND SCALING 1
Info: MIN ATOMS PER PATCH    40
Info: EMPTY PATCH LOAD       40 ATOMS
Info: VELOCITY FILE          mobley_1079207_equil.vel
Info: CENTER OF MASS MOVING INITIALLY? NO
Info: DIELECTRIC             1
Info: EXCLUDE                SCALED ONE-FOUR
Info: 1-4 ELECTROSTATICS SCALED BY 0.833333
Info: MODIFIED 1-4 VDW PARAMETERS WILL BE USED
Info: DCD FILENAME           mobley_1079207_prod.dcd
Info: DCD FREQUENCY          100000
Info: DCD FIRST STEP         100000
Info: DCD FILE WILL CONTAIN UNIT CELL DATA
Info: XST FILENAME           mobley_1079207_prod.xst
Info: XST FREQUENCY          100000
Info: NO VELOCITY DCD OUTPUT
Info: NO FORCE DCD OUTPUT
Info: OUTPUT FILENAME        mobley_1079207_prod
Info: BINARY OUTPUT FILES WILL BE USED
Info: RESTART FILENAME       mobley_1079207_prod.restart
Info: RESTART FREQUENCY      100000
Info: BINARY RESTART FILES WILL BE USED
Info: CUTOFF                 9
Info: PAIRLIST DISTANCE      11
Info: PAIRLIST SHRINK RATE   0.01
Info: PAIRLIST GROW RATE     0.01
Info: PAIRLIST TRIGGER       0.3
Info: PAIRLISTS PER CYCLE    2
Info: PAIRLISTS ENABLED
Info: MARGIN                 2
Info: HYDROGEN GROUP CUTOFF  2.5
Info: PATCH DIMENSION        15.5
Info: ENERGY OUTPUT STEPS    100000
Info: ENERGY EVALUATION STEPS    100000
Info: OUTPUT ENERGY PRECISION 4
Info: CROSSTERM ENERGY INCLUDED IN DIHEDRAL
Info: TIMING OUTPUT STEPS    1000000
Info: PRESSURE OUTPUT STEPS  100000
Info: ALCHEMICAL FEP ON
Info: FEP CURRENT LAMBDA VALUE     1
Info: FEP COMPARISON LAMBDA VALUE  0.95
Info: FEP INTRA-ALCHEMICAL NON-BONDED INTERACTIONS WILL BE RETAINED
Info: FEP INTRA-ALCHEMICAL BONDED INTERACTIONS WILL BE RETAINED
Info: FEP VDW SHIFTING COEFFICIENT 5
Info: FEP ELEC. ACTIVE FOR ANNIHILATED PARTICLES BETWEEN LAMBDA = 0 AND LAMBDA = 0.5
Info: FEP ELEC. ACTIVE FOR EXNIHILATED PARTICLES BETWEEN LAMBDA = 0.5 AND LAMBDA = 1
Info: FEP VDW ACTIVE FOR ANNIHILATED PARTICLES BETWEEN LAMBDA = 0 AND LAMBDA = 1
Info: FEP VDW ACTIVE FOR EXNIHILATED PARTICLES BETWEEN LAMBDA = 0 AND LAMBDA = 1
Info: FEP BOND ACTIVE FOR ANNIHILATED PARTICLES BETWEEN LAMBDA = 1 AND LAMBDA = 1
Info: FEP BOND ACTIVE FOR EXNIHILATED PARTICLES BETWEEN LAMBDA = 0 AND LAMBDA = 0
Info: LANGEVIN DYNAMICS ACTIVE
Info: LANGEVIN TEMPERATURE   300
Info: LANGEVIN USING BBK INTEGRATOR
Info: LANGEVIN DAMPING COEFFICIENT IS 1 INVERSE PS
Info: LANGEVIN DYNAMICS APPLIED TO HYDROGENS
Info: LANGEVIN PISTON PRESSURE CONTROL ACTIVE
Info:        TARGET PRESSURE IS 1.01325 BAR
Info:     OSCILLATION PERIOD IS 50 FS
Info:             DECAY TIME IS 25 FS
Info:     PISTON TEMPERATURE IS 300 K
Info:       PRESSURE CONTROL IS GROUP-BASED
Info:    INITIAL STRAIN RATE IS 0.000267637 0.000267637 0.000267637
Info:       CELL FLUCTUATION IS ISOTROPIC
Info: PARTICLE MESH EWALD (PME) ACTIVE
Info: PME TOLERANCE               1e-06
Info: PME EWALD COEFFICIENT       0.348832
Info: PME INTERPOLATION ORDER     4
Info: PME GRID DIMENSIONS         36 32 32
Info: PME MAXIMUM GRID SPACING    1
Info: PME CALCULATION WILL BE PERFORMED ON GPU
Info: FULL ELECTROSTATIC EVALUATION FREQUENCY      2
Info: USING VERLET I (r-RESPA) MTS SCHEME.
Info: C1 SPLITTING OF LONG RANGE ELECTROSTATICS
Info: PLACING ATOMS IN PATCHES BY HYDROGEN GROUPS
Info: RIGID BONDS TO HYDROGEN : ALL
Info:         ERROR TOLERANCE : 1e-08
Info:          MAX ITERATIONS : 100
Info: RIGID WATER USING SETTLE ALGORITHM
Info: RANDOM NUMBER SEED     1743533903
Info: USE HYDROGEN BONDS?    NO
Info: Using AMBER format force field!
Info: AMBER PARM FILE        mobley_1079207.prmtop
Info: COORDINATE PDB         mobley_1079207.pdb
Info: Exclusions will be read from PARM file!
Info: SCNB (VDW SCALING)     2
Info: USING ARITHMETIC MEAN TO COMBINE L-J SIGMA PARAMETERS
Info: BINARY COORDINATES     mobley_1079207_equil.coor
Info: SUMMARY OF PARAMETERS:
Info: 5 BONDS
Info: 3 ANGLES
Info:   3 HARMONIC
Info:   0 COSINE-BASED
Info: 2 DIHEDRAL
Info: 0 IMPROPER
Info: 0 CROSSTERM
Info: 0 VDW
Info: 15 VDW_PAIRS
Info: 0 NBTHOLE_PAIRS
Info: To read alchdata from file: mobley_1079207.pdb
Info: To read alchflag data from column: 5
Info: STRUCTURE SUMMARY:
Info: 2976 ATOMS
Info: 2976 BONDS
Info: 18 ANGLES
Info: 30 DIHEDRALS
Info: 0 IMPROPERS
Info: 0 CROSSTERMS
Info: 3015 EXCLUSIONS
Info: 2968 RIGID BONDS
Info: ALCH: 0 ATOMS TO DISAPPEAR IN FINAL STATE
Info: ALCH: 12 ATOMS TO APPEAR IN FINAL STATE
Info: 5960 DEGREES OF FREEDOM
Info: 996 HYDROGEN GROUPS
Info: 3 ATOMS IN LARGEST HYDROGEN GROUP
Info: 996 MIGRATION GROUPS
Info: 3 ATOMS IN LARGEST MIGRATION GROUP
Info: TOTAL MASS = 17946.8 amu
Info: TOTAL CHARGE = 0.000199996 e
Info: MASS DENSITY = 0.969354 g/cm^3
Info: ATOM DENSITY = 0.0967986 atoms/A^3
Info: ADDED 0 IMPLICIT EXCLUSIONS
Info: NONBONDED TABLE R-SQUARED SPACING: 0.0625
Info: NONBONDED TABLE SIZE: 705 POINTS
Info: REMOVING COM VELOCITY -0.0390241 -0.0244697 -0.290407
Info: Use 3D box decompostion in PME FFT.
Info: Updated CUDA force table with 4096 elements.
Info: Updated CUDA LJ table with 5 x 5 elements.
Info: Found 15 unique exclusion lists needing 28 bytes
TCL: Running for 1500000 steps
ETITLE: TS BOND ANGLE DIHED IMPRP ELECT VDW BOUNDARY MISC KINETIC TOTAL TEMP POTENTIAL TOTALAVG TEMPAVG PRESSURE GPRESSURE VOLUME PRESSAVG GPRESSAVG
ENERGY: 0 1.4671 1.8608 3.7031 0.0000 -10741.1836 1450.5574 0.0000 0.0000 1740.5257 -7543.0695 293.9169 -9283.5952 -7543.0695 293.9169 136.8540 221.2446 30744.2377 136.8540 221.2446
ENERGY: 300000 1.8323 2.6876 2.5777 0.0000 -10839.1303 1481.5649 0.0000 0.0000 1755.8991 -7594.5687 296.5130 -9350.4678 -7568.6971 298.0506 460.5378 494.4286 30365.4386 64.0775 131.8322
ENERGY: 600000 1.4355 3.0308 1.6262 0.0000 -10724.9276 1366.7966 0.0000 0.0000 1769.1796 -7582.8589 298.7556 -9352.0385 -7555.6736 299.9165 -980.4030 -924.2104 31020.4635 165.4787 242.0255
ENERGY: 900000 2.5269 1.7935 2.8424 0.0000 -10726.4108 1428.9562 0.0000 0.0000 1766.0903 -7524.2015 298.2339 -9290.2918 -7554.9614 300.5514 -202.1087 -113.3607 30960.1527 51.3585 136.8509
ENERGY: 1200000 2.6855 1.2883 3.4732 0.0000 -10895.0957 1521.5478 0.0000 0.0000 1760.8952 -7605.2056 297.3566 -9366.1008 -7566.1555 300.4541 573.7705 546.2759 30705.2777 39.1239 107.9430
ENERGY: 1500000 4.6077 3.4250 4.5468 0.0000 -10748.9456 1447.1015 0.0000 0.0000 1769.4374 -7519.8273 298.7991 -9289.2646 -7561.0512 300.3417 -196.9816 -183.5571 31279.9093 -29.0479 35.4345
TCL: Running FEP window   2: Lambda1 0.95   Lambda2 0.8999999999999999 [dLambda -0.050000000000000044]
TCL: Setting parameter firsttimestep to 0
TCL: Setting parameter alchLambda to 0.95
Info: NONBONDED TABLE R-SQUARED SPACING: 0.0625
Info: NONBONDED TABLE SIZE: 705 POINTS
TCL: Setting parameter alchLambda2 to 0.8999999999999999
Info: NONBONDED TABLE R-SQUARED SPACING: 0.0625
Info: NONBONDED TABLE SIZE: 705 POINTS
TCL: Running for 1500000 steps
ETITLE: TS BOND ANGLE DIHED IMPRP ELECT VDW BOUNDARY MISC KINETIC TOTAL TEMP POTENTIAL TOTALAVG TEMPAVG PRESSURE GPRESSURE VOLUME PRESSAVG GPRESSAVG
ENERGY: 0 4.6077 3.4250 4.5468 0.0000 -10748.6564 1447.8175 0.0000 0.0000 1768.5644 -7519.6950 298.6517 -9288.2594 -7519.6950 298.6517 -272.5593 -187.0512 31279.9093 -272.5593 -187.0512
ENERGY: 300000 2.0367 3.1830 1.7755 0.0000 -10795.9167 1465.4607 0.0000 0.0000 1761.7102 -7561.7506 297.4943 -9323.4608 -7538.6371 299.9051 169.3151 249.7664 30833.8832 -182.9219 -111.9236
ENERGY: 600000 2.5687 3.1669 4.4454 0.0000 -10657.2192 1344.2274 0.0000 0.0000 1743.1158 -7559.6949 294.3543 -9302.8108 -7531.0867 299.4713 -736.6054 -695.1357 30811.9215 -132.7790 -47.2738
ENERGY: 900000 1.8797 0.9974 2.2488 0.0000 -10834.9867 1371.7554 0.0000 0.0000 1783.7016 -7674.4038 301.2079 -9458.1054 -7549.8744 299.5246 -922.3356 -855.4718 30837.4196 -177.6847 -90.5888
ENERGY: 1200000 3.4612 2.6844 2.6383 0.0000 -10741.1977 1385.5105 0.0000 0.0000 1767.4567 -7579.4467 298.4646 -9346.9034 -7547.2347 299.8818 -480.7782 -501.6428 30642.8726 -267.0224 -189.7618
ENERGY: 1500000 2.9115 1.2934 0.6856 0.0000 -10747.4110 1432.8934 0.0000 0.0000 1752.6213 -7557.0058 295.9594 -9309.6271 -7554.0416 299.0818 -305.3308 -248.6040 31036.0877 -223.0725 -145.9720
TCL: Running FEP window   3: Lambda1 0.8999999999999999 Lambda2 0.8499999999999999 [dLambda -0.050000000000000044]
TCL: Setting parameter firsttimestep to 0
TCL: Setting parameter alchLambda to 0.8999999999999999
Info: NONBONDED TABLE R-SQUARED SPACING: 0.0625
Info: NONBONDED TABLE SIZE: 705 POINTS
TCL: Setting parameter alchLambda2 to 0.8499999999999999
Info: NONBONDED TABLE R-SQUARED SPACING: 0.0625
Info: NONBONDED TABLE SIZE: 705 POINTS
TCL: Running for 1500000 steps
ETITLE: TS BOND ANGLE DIHED IMPRP ELECT VDW BOUNDARY MISC KINETIC TOTAL TEMP POTENTIAL TOTALAVG TEMPAVG PRESSURE GPRESSURE VOLUME PRESSAVG GPRESSAVG
ENERGY: 0 2.9115 1.2934 0.6856 0.0000 -10747.1953 1432.9798 0.0000 0.0000 1751.7084 -7557.6166 295.8053 -9309.3249 -7557.6166 295.8053 -309.2024 -255.1145 31036.0877 -309.2024 -255.1145
ENERGY: 300000 1.6317 2.6044 2.0652 0.0000 -10862.4105 1495.0185 0.0000 0.0000 1809.6136 -7551.4772 305.5835 -9361.0908 -7589.5502 298.4135 479.5770 580.4070 30501.0029 -89.9290 -36.6598
ENERGY: 600000 2.0769 2.5368 0.9180 0.0000 -10685.5431 1401.4394 0.0000 0.0000 1796.9725 -7481.5995 303.4489 -9278.5720 -7553.5126 299.8594 -471.0846 -310.8367 31134.4333 -76.1648 -2.4168
ENERGY: 900000 1.9188 2.5714 2.1585 0.0000 -10915.4212 1492.2547 0.0000 0.0000 1742.5233 -7673.9945 294.2542 -9416.5178 -7555.1331 299.7475 68.5348 198.6184 30518.8706 -154.4104 -68.9259
ENERGY: 1200000 2.0015 2.9192 1.8195 0.0000 -10785.5731 1396.9154 0.0000 0.0000 1699.6185 -7682.2991 287.0090 -9381.9176 -7551.6451 299.6751 -723.1697 -687.9632 30731.6734 -124.7823 -42.7139
ENERGY: 1500000 1.0470 1.8150 2.0816 0.0000 -10797.4050 1490.4160 0.0000 0.0000 1807.5664 -7494.4790 305.2378 -9302.0453 -7550.7074 300.3093 891.5270 915.0201 30016.1219 -24.2947 49.4197
TCL: Running FEP window   4: Lambda1 0.8499999999999999 Lambda2 0.7999999999999998 [dLambda -0.050000000000000044]
TCL: Setting parameter firsttimestep to 0
TCL: Setting parameter alchLambda to 0.8499999999999999
Info: NONBONDED TABLE R-SQUARED SPACING: 0.0625
Info: NONBONDED TABLE SIZE: 705 POINTS
TCL: Setting parameter alchLambda2 to 0.7999999999999998
Info: NONBONDED TABLE R-SQUARED SPACING: 0.0625
Info: NONBONDED TABLE SIZE: 705 POINTS
TCL: Running for 1500000 steps
ETITLE: TS BOND ANGLE DIHED IMPRP ELECT VDW BOUNDARY MISC KINETIC TOTAL TEMP POTENTIAL TOTALAVG TEMPAVG PRESSURE GPRESSURE VOLUME PRESSAVG GPRESSAVG
ENERGY: 0 1.0470 1.8150 2.0816 0.0000 -10797.1589 1489.9706 0.0000 0.0000 1806.7109 -7495.5337 305.0934 -9302.2447 -7495.5337 305.0934 808.4176 896.4118 30016.1219 808.4176 896.4118
ENERGY: 300000 2.0231 3.5219 3.1916 0.0000 -10959.1041 1595.4503 0.0000 0.0000 1760.8334 -7594.0838 297.3462 -9354.9171 -7607.6938 297.6653 1161.5350 1172.2425 30522.6080 833.5410 884.0179
ENERGY: 600000 1.8305 2.3172 2.8949 0.0000 -10770.6425 1462.6166 0.0000 0.0000 1719.6897 -7581.2936 290.3984 -9300.9834 -7568.8886 299.3100 134.0758 286.9400 30353.7776 439.9626 509.5000
ENERGY: 900000 0.8021 2.5078 1.3922 0.0000 -10760.4427 1445.2055 0.0000 0.0000 1797.7052 -7512.8300 303.5726 -9310.5352 -7560.9228 300.4192 133.4805 208.2065 30517.7076 460.3698 521.9660
ENERGY: 1200000 2.4856 4.4364 6.3059 0.0000 -10824.0229 1486.9766 0.0000 0.0000 1744.1202 -7579.6982 294.5239 -9323.8184 -7565.0656 300.2036 125.1198 225.3946 30807.1113 383.8585 454.7055
ENERGY: 1500000 4.0272 1.4275 1.6653 0.0000 -10911.0900 1511.9566 0.0000 0.0000 1706.6237 -7685.3896 288.1920 -9392.0133 -7566.5368 299.9701 234.4912 270.3534 30707.0272 278.8863 350.8984
TCL: Running FEP window   5: Lambda1 0.7999999999999998 Lambda2 0.7499999999999998 [dLambda -0.050000000000000044]
TCL: Setting parameter firsttimestep to 0
TCL: Setting parameter alchLambda to 0.7999999999999998
Info: NONBONDED TABLE R-SQUARED SPACING: 0.0625
Info: NONBONDED TABLE SIZE: 705 POINTS
TCL: Setting parameter alchLambda2 to 0.7499999999999998
Info: NONBONDED TABLE R-SQUARED SPACING: 0.0625
Info: NONBONDED TABLE SIZE: 705 POINTS
TCL: Running for 1500000 steps
ETITLE: TS BOND ANGLE DIHED IMPRP ELECT VDW BOUNDARY MISC KINETIC TOTAL TEMP POTENTIAL TOTALAVG TEMPAVG PRESSURE GPRESSURE VOLUME PRESSAVG GPRESSAVG
ENERGY: 0 4.0272 1.4275 1.6653 0.0000 -10910.7359 1512.4249 0.0000 0.0000 1705.7744 -7685.4166 288.0486 -9391.1910 -7685.4166 288.0486 179.8666 265.9459 30707.0272 179.8666 265.9459
ENERGY: 300000 2.2996 5.3386 3.3360 0.0000 -10779.9445 1422.4971 0.0000 0.0000 1788.1654 -7558.3078 301.9617 -9346.4733 -7580.9177 298.7253 -230.5096 -125.5296 30531.0761 -98.6616 -11.7756
ENERGY: 600000 5.2116 1.6936 2.1377 0.0000 -10709.7373 1402.2875 0.0000 0.0000 1732.5730 -7565.8340 292.5740 -9298.4069 -7561.7919 299.0409 -515.0537 -518.9899 30898.3767 -189.8533 -129.5825
ENERGY: 900000 2.1291 2.4398 5.2414 0.0000 -10800.0170 1414.3639 0.0000 0.0000 1782.9215 -7592.9213 301.0761 -9375.8428 -7546.8626 300.2335 -394.6937 -386.4477 31262.8613 -47.0665 10.1924
ENERGY: 1200000 2.5749 3.2988 3.1306 0.0000 -10683.9023 1413.1200 0.0000 0.0000 1788.6472 -7473.1308 302.0430 -9261.7780 -7532.5325 300.8185 166.5067 226.8248 30584.3831 -27.9256 33.6164
ENERGY: 1500000 2.0051 1.7163 4.7132 0.0000 -10792.9092 1459.5454 0.0000 0.0000 1757.2748 -7567.6544 296.7453 -9324.9292 -7535.3075 301.2601 184.7249 141.6093 30632.6207 -0.1426 56.9961
TCL: Running FEP window   6: Lambda1 0.7499999999999998 Lambda2 0.6999999999999997 [dLambda -0.050000000000000044]
TCL: Setting parameter firsttimestep to 0
TCL: Setting parameter alchLambda to 0.7499999999999998
Info: NONBONDED TABLE R-SQUARED SPACING: 0.0625
Info: NONBONDED TABLE SIZE: 705 POINTS
TCL: Setting parameter alchLambda2 to 0.6999999999999997
Info: NONBONDED TABLE R-SQUARED SPACING: 0.0625
Info: NONBONDED TABLE SIZE: 705 POINTS
TCL: Running for 1500000 steps
ETITLE: TS BOND ANGLE DIHED IMPRP ELECT VDW BOUNDARY MISC KINETIC TOTAL TEMP POTENTIAL TOTALAVG TEMPAVG PRESSURE GPRESSURE VOLUME PRESSAVG GPRESSAVG
ENERGY: 0 2.0051 1.7163 4.7132 0.0000 -10792.9070 1459.9412 0.0000 0.0000 1756.4237 -7568.1075 296.6015 -9324.5312 -7568.1075 296.6015 53.4368 135.2529 30632.6207 53.4368 135.2529
ENERGY: 300000 5.4541 4.3586 4.7962 0.0000 -10728.1696 1431.3636 0.0000 0.0000 1812.3635 -7469.8336 306.0479 -9282.1971 -7523.9513 303.4467 -180.6873 -185.6186 30819.4552 -73.3510 -24.4962
ENERGY: 600000 0.9221 4.5776 4.3492 0.0000 -10840.8158 1458.5538 0.0000 0.0000 1839.0418 -7533.3713 310.5530 -9372.4132 -7542.1303 302.5663 -34.2631 73.0104 30500.6963 -200.4638 -149.8518
ENERGY: 900000 1.3903 5.1089 2.2203 0.0000 -10869.3341 1527.0836 0.0000 0.0000 1816.2687 -7517.2622 306.7074 -9333.5309 -7544.6940 302.1343 624.5362 680.8112 30399.4341 84.5166 133.4212
ENERGY: 1200000 5.1971 2.3094 2.6007 0.0000 -10676.0660 1381.9571 0.0000 0.0000 1767.2137 -7516.7881 298.4236 -9284.0018 -7534.8299 301.8663 -586.2707 -512.6060 30836.2414 12.7209 68.6236
ENERGY: 1500000 2.2638 3.2188 2.7017 0.0000 -10754.1559 1432.6697 0.0000 0.0000 1806.6798 -7506.6221 305.0881 -9313.3019 -7535.3542 301.4982 -306.8252 -250.8748 31024.0029 -44.0818 13.4190
TCL: Running FEP window   7: Lambda1 0.6999999999999997 Lambda2 0.6499999999999997 [dLambda -0.050000000000000044]
TCL: Setting parameter firsttimestep to 0
TCL: Setting parameter alchLambda to 0.6999999999999997
Info: NONBONDED TABLE R-SQUARED SPACING: 0.0625
Info: NONBONDED TABLE SIZE: 705 POINTS
TCL: Setting parameter alchLambda2 to 0.6499999999999997
Info: NONBONDED TABLE R-SQUARED SPACING: 0.0625
Info: NONBONDED TABLE SIZE: 705 POINTS
TCL: Running for 1500000 steps
ETITLE: TS BOND ANGLE DIHED IMPRP ELECT VDW BOUNDARY MISC KINETIC TOTAL TEMP POTENTIAL TOTALAVG TEMPAVG PRESSURE GPRESSURE VOLUME PRESSAVG GPRESSAVG
ENERGY: 0 2.2637 3.2188 2.7017 0.0000 -10753.6570 1432.5624 0.0000 0.0000 1805.7801 -7507.1302 304.9362 -9312.9103 -7507.1302 304.9362 -340.7721 -261.3793 31024.0029 -340.7721 -261.3793
ENERGY: 300000 4.1327 3.0277 2.5764 0.0000 -10888.4456 1537.0318 0.0000 0.0000 1771.5886 -7570.0884 299.1624 -9341.6770 -7559.4591 304.5456 470.2517 553.5861 30589.7713 185.1666 237.1317
ENERGY: 600000 1.4284 0.6034 3.0889 0.0000 -10698.7870 1414.4885 0.0000 0.0000 1812.4077 -7466.7702 306.0554 -9279.1778 -7549.3348 303.4719 271.6325 301.7982 30270.6038 6.7943 60.4468
ENERGY: 900000 4.1950 2.9450 1.4677 0.0000 -10563.3880 1278.2812 0.0000 0.0000 1755.6404 -7520.8587 296.4693 -9276.4990 -7540.9374 302.0962 -1464.7267 -1333.9214 30964.1048 -193.4501 -124.6664
ENERGY: 1200000 1.6531 4.4310 1.6118 0.0000 -10966.1586 1506.3813 0.0000 0.0000 1757.5553 -7694.5261 296.7926 -9452.0814 -7554.4204 302.2763 -26.3632 63.3969 30441.3099 -71.2554 -9.9174
ENERGY: 1500000 4.8345 3.0979 1.7869 0.0000 -10742.1076 1422.4832 0.0000 0.0000 1779.4241 -7530.4810 300.4856 -9309.9051 -7556.0973 301.7209 -223.6537 -192.8288 30810.0623 10.0095 64.9428
TCL: Running FEP window   8: Lambda1 0.6499999999999997 Lambda2 0.5999999999999996 [dLambda -0.050000000000000044]
TCL: Setting parameter firsttimestep to 0
TCL: Setting parameter alchLambda to 0.6499999999999997
Info: NONBONDED TABLE R-SQUARED SPACING: 0.0625
Info: NONBONDED TABLE SIZE: 705 POINTS
TCL: Setting parameter alchLambda2 to 0.5999999999999996
Info: NONBONDED TABLE R-SQUARED SPACING: 0.0625
Info: NONBONDED TABLE SIZE: 705 POINTS
TCL: Running for 1500000 steps
ETITLE: TS BOND ANGLE DIHED IMPRP ELECT VDW BOUNDARY MISC KINETIC TOTAL TEMP POTENTIAL TOTALAVG TEMPAVG PRESSURE GPRESSURE VOLUME PRESSAVG GPRESSAVG
ENERGY: 0 4.8345 3.0979 1.7869 0.0000 -10741.7868 1422.6663 0.0000 0.0000 1778.5150 -7530.8861 300.3320 -9309.4011 -7530.8861 300.3320 -292.3339 -202.7944 30810.0623 -292.3339 -202.7944
ENERGY: 300000 4.2752 2.9258 1.0911 0.0000 -10928.0032 1589.4504 0.0000 0.0000 1808.0794 -7522.1814 305.3245 -9330.2608 -7533.5355 303.2512 1061.7778 1125.8999 30592.1579 249.3351 332.0459
ENERGY: 600000 9.2089 3.4058 0.8706 0.0000 -10809.1639 1435.5805 0.0000 0.0000 1792.0271 -7568.0711 302.6138 -9360.0981 -7543.2658 301.9981 -139.7974 -119.1516 30548.1980 180.3861 241.4281
ENERGY: 900000 4.5765 1.8891 4.6000 0.0000 -10818.2592 1483.9297 0.0000 0.0000 1750.6296 -7572.6342 295.6231 -9323.2638 -7530.0169 301.4417 380.5570 448.3099 30610.2158 194.6272 251.4200
ENERGY: 1200000 3.3403 3.1332 0.9539 0.0000 -10734.1204 1379.1703 0.0000 0.0000 1782.8019 -7564.7209 301.0559 -9347.5227 -7541.4643 300.7605 -798.8120 -799.3777 30983.8557 72.5003 119.5385
ENERGY: 1500000 2.9331 1.1097 2.8452 0.0000 -10833.9047 1506.3797 0.0000 0.0000 1790.5915 -7530.0455 302.3714 -9320.6370 -7542.3537 301.5524 618.0181 661.3524 30451.4414 55.5416 106.6549
TCL: Running FEP window   9: Lambda1 0.5999999999999996 Lambda2 0.5499999999999996 [dLambda -0.050000000000000044]
TCL: Setting parameter firsttimestep to 0
TCL: Setting parameter alchLambda to 0.5999999999999996
Info: NONBONDED TABLE R-SQUARED SPACING: 0.0625
Info: NONBONDED TABLE SIZE: 705 POINTS
TCL: Setting parameter alchLambda2 to 0.5499999999999996
Info: NONBONDED TABLE R-SQUARED SPACING: 0.0625
Info: NONBONDED TABLE SIZE: 705 POINTS
TCL: Running for 1500000 steps
ETITLE: TS BOND ANGLE DIHED IMPRP ELECT VDW BOUNDARY MISC KINETIC TOTAL TEMP POTENTIAL TOTALAVG TEMPAVG PRESSURE GPRESSURE VOLUME PRESSAVG GPRESSAVG
ENERGY: 0 2.9331 1.1097 2.8452 0.0000 -10834.0028 1506.6130 0.0000 0.0000 1789.7189 -7530.7828 302.2240 -9320.5018 -7530.7828 302.2240 583.4758 653.1989 30451.4414 583.4758 653.1989
ENERGY: 300000 4.5011 0.7604 3.5022 0.0000 -10715.1736 1363.5451 0.0000 0.0000 1848.6601 -7494.2046 312.1772 -9342.8647 -7535.2664 304.9702 -841.1347 -758.8587 30700.6575 -364.9014 -313.4034
ENERGY: 600000 0.6191 0.8081 1.7898 0.0000 -10885.3525 1543.4198 0.0000 0.0000 1795.8360 -7542.8798 303.2570 -9338.7158 -7547.2296 303.9393 588.9198 654.7739 30968.4303 -130.0247 -81.3423
ENERGY: 900000 2.6489 2.2222 1.2503 0.0000 -10821.4878 1436.5484 0.0000 0.0000 1813.3388 -7565.4792 306.2126 -9378.8181 -7547.3104 304.3040 -45.6952 71.1695 30566.3004 -36.8829 18.4945
ENERGY: 1200000 3.2683 1.4193 2.7413 0.0000 -10783.5895 1456.8065 0.0000 0.0000 1814.1197 -7505.2344 306.3445 -9319.3541 -7551.3376 304.1109 81.1560 152.3709 30588.3450 103.0586 159.5287
ENERGY: 1500000 3.8456 1.8913 1.8527 0.0000 -10773.4191 1425.4241 0.0000 0.0000 1726.4932 -7613.9121 291.5473 -9340.4053 -7565.8425 301.9094 -533.5113 -496.9781 30972.4261 129.8866 185.1193
TCL: Running FEP window  10: Lambda1 0.5499999999999996 Lambda2 0.4999999999999996 [dLambda -0.04999999999999999]
TCL: Setting parameter firsttimestep to 0
TCL: Setting parameter alchLambda to 0.5499999999999996
Info: NONBONDED TABLE R-SQUARED SPACING: 0.0625
Info: NONBONDED TABLE SIZE: 705 POINTS
TCL: Setting parameter alchLambda2 to 0.4999999999999996
Info: NONBONDED TABLE R-SQUARED SPACING: 0.0625
Info: NONBONDED TABLE SIZE: 705 POINTS
TCL: Running for 1500000 steps
ETITLE: TS BOND ANGLE DIHED IMPRP ELECT VDW BOUNDARY MISC KINETIC TOTAL TEMP POTENTIAL TOTALAVG TEMPAVG PRESSURE GPRESSURE VOLUME PRESSAVG GPRESSAVG
ENERGY: 0 3.8456 1.8913 1.8527 0.0000 -10773.1753 1425.2174 0.0000 0.0000 1725.5719 -7614.7963 291.3917 -9340.3682 -7614.7963 291.3917 -591.0242 -505.4671 30972.4261 -591.0242 -505.4671
ENERGY: 300000 6.3494 4.3297 2.5066 0.0000 -10805.7380 1450.3061 0.0000 0.0000 1812.0962 -7530.1500 306.0028 -9342.2461 -7543.2112 298.0742 60.4627 134.4064 30534.7854 -232.8428 -177.8245
ENERGY: 600000 1.6263 2.5038 1.4481 0.0000 -10846.8232 1525.3943 0.0000 0.0000 1808.3188 -7507.5319 305.3649 -9315.8507 -7535.1326 299.9605 727.8831 822.4116 30522.6574 -2.9704 72.5755
ENERGY: 900000 2.4458 2.0119 1.4515 0.0000 -10706.7635 1398.7326 0.0000 0.0000 1715.9663 -7586.1554 289.7696 -9302.1217 -7520.9333 299.9349 -469.3491 -448.9776 30639.0679 -3.3705 58.5748
ENERGY: 1200000 2.3276 5.0805 1.8985 0.0000 -10782.0555 1510.5162 0.0000 0.0000 1738.6670 -7523.5657 293.6030 -9262.2327 -7533.1249 298.8038 531.8346 600.9752 30674.1470 -8.8235 54.5897
ENERGY: 1500000 3.9693 2.3130 3.8084 0.0000 -10803.4904 1419.4276 0.0000 0.0000 1784.8846 -7589.0875 301.4076 -9373.9721 -7536.3026 298.9152 -455.7984 -422.6641 30822.7511 -34.0960 28.0051
TCL: Running FEP window  11: Lambda1 0.4999999999999996 Lambda2 0.4499999999999996 [dLambda -0.04999999999999999]
TCL: Setting parameter firsttimestep to 0
TCL: Setting parameter alchLambda to 0.4999999999999996
Info: NONBONDED TABLE R-SQUARED SPACING: 0.0625
Info: NONBONDED TABLE SIZE: 705 POINTS
TCL: Setting parameter alchLambda2 to 0.4499999999999996
Info: NONBONDED TABLE R-SQUARED SPACING: 0.0625
Info: NONBONDED TABLE SIZE: 705 POINTS
TCL: Running for 1500000 steps
ETITLE: TS BOND ANGLE DIHED IMPRP ELECT VDW BOUNDARY MISC KINETIC TOTAL TEMP POTENTIAL TOTALAVG TEMPAVG PRESSURE GPRESSURE VOLUME PRESSAVG GPRESSAVG
ENERGY: 0 3.9693 2.3130 3.8084 0.0000 -10803.6510 1419.6983 0.0000 0.0000 1783.9855 -7589.8765 301.2558 -9373.8620 -7589.8765 301.2558 -519.0707 -428.5527 30822.7511 -519.0707 -428.5527
ENERGY: 300000 1.1620 2.3140 1.3795 0.0000 -10678.2173 1344.8877 0.0000 0.0000 1804.0043 -7524.4697 304.6363 -9328.4740 -7577.4933 300.8245 -730.6607 -666.7704 30768.6048 -144.3436 -79.5997
ENERGY: 600000 2.1717 1.3204 1.9180 0.0000 -10845.2056 1473.4107 0.0000 0.0000 1785.3074 -7581.0774 301.4790 -9366.3848 -7575.2251 301.2044 496.6653 475.8693 30065.9813 258.5077 295.3586
ENERGY: 900000 2.3990 2.2931 2.6239 0.0000 -10815.4946 1432.0441 0.0000 0.0000 1763.8181 -7612.3165 297.8502 -9376.1346 -7576.7598 301.0666 -182.9909 -166.9555 30527.4817 129.5982 165.5512
ENERGY: 1200000 1.9354 1.8345 2.4529 0.0000 -10826.8315 1459.9191 0.0000 0.0000 1772.3849 -7588.3046 299.2969 -9360.6895 -7557.0746 301.1056 197.3756 289.6764 30259.5940 34.1929 86.6802
ENERGY: 1500000 1.8647 2.2938 3.4352 0.0000 -10725.2792 1414.1605 0.0000 0.0000 1760.0086 -7543.5165 297.2069 -9303.5251 -7557.2042 300.6160 -11.6217 25.3371 30481.6791 38.1955 89.3655
TCL: Running FEP window  12: Lambda1 0.4499999999999996 Lambda2 0.39999999999999963 [dLambda -0.04999999999999999]
TCL: Setting parameter firsttimestep to 0
TCL: Setting parameter alchLambda to 0.4499999999999996
Info: NONBONDED TABLE R-SQUARED SPACING: 0.0625
Info: NONBONDED TABLE SIZE: 705 POINTS
TCL: Setting parameter alchLambda2 to 0.39999999999999963
Info: NONBONDED TABLE R-SQUARED SPACING: 0.0625
Info: NONBONDED TABLE SIZE: 705 POINTS
TCL: Running for 1500000 steps
ETITLE: TS BOND ANGLE DIHED IMPRP ELECT VDW BOUNDARY MISC KINETIC TOTAL TEMP POTENTIAL TOTALAVG TEMPAVG PRESSURE GPRESSURE VOLUME PRESSAVG GPRESSAVG
ENERGY: 0 1.8647 2.2938 3.4352 0.0000 -10725.2781 1414.4561 0.0000 0.0000 1759.0939 -7544.1345 297.0524 -9303.2284 -7544.1345 297.0524 -36.7161 23.7418 30481.6791 -36.7161 23.7418
ENERGY: 300000 2.9620 3.2745 1.6822 0.0000 -10836.3532 1474.6167 0.0000 0.0000 1800.0532 -7553.7646 303.9691 -9353.8178 -7552.9664 301.9813 254.8568 284.2559 30321.6497 79.7934 131.0225
ENERGY: 600000 2.2952 3.9276 4.1417 0.0000 -10803.1056 1458.8778 0.0000 0.0000 1782.5862 -7551.2771 301.0195 -9333.8632 -7555.0415 301.1002 188.7229 256.0521 30359.3649 -49.2211 -3.4682
ENERGY: 900000 1.0056 3.0495 0.9389 0.0000 -10869.5286 1493.5899 0.0000 0.0000 1801.6338 -7569.3110 304.2360 -9370.9447 -7554.1127 302.5123 127.7158 235.3252 30665.9395 -65.1448 -11.4091
ENERGY: 1200000 1.8914 1.9280 2.5288 0.0000 -10600.8435 1357.1839 0.0000 0.0000 1815.2066 -7422.1047 306.5280 -9237.3114 -7548.1259 302.2364 -637.1516 -556.1234 31044.9050 -142.9640 -86.6387
ENERGY: 1500000 2.4378 2.0276 5.5471 0.0000 -10785.0770 1444.7374 0.0000 0.0000 1771.2852 -7559.0419 299.1112 -9330.3272 -7556.1730 301.8366 -230.7855 -203.0477 30794.4405 -187.1539 -125.1633
TCL: Running FEP window  13: Lambda1 0.39999999999999963 Lambda2 0.34999999999999964 [dLambda -0.04999999999999999]
TCL: Setting parameter firsttimestep to 0
TCL: Setting parameter alchLambda to 0.39999999999999963
Info: NONBONDED TABLE R-SQUARED SPACING: 0.0625
Info: NONBONDED TABLE SIZE: 705 POINTS
TCL: Setting parameter alchLambda2 to 0.34999999999999964
Info: NONBONDED TABLE R-SQUARED SPACING: 0.0625
Info: NONBONDED TABLE SIZE: 705 POINTS
TCL: Running for 1500000 steps
ETITLE: TS BOND ANGLE DIHED IMPRP ELECT VDW BOUNDARY MISC KINETIC TOTAL TEMP POTENTIAL TOTALAVG TEMPAVG PRESSURE GPRESSURE VOLUME PRESSAVG GPRESSAVG
ENERGY: 0 2.4378 2.0276 5.5471 0.0000 -10785.0778 1445.2367 0.0000 0.0000 1770.4267 -7559.4020 298.9662 -9329.8286 -7559.4020 298.9662 -276.3270 -203.3459 30794.4405 -276.3270 -203.3459
ENERGY: 300000 3.0679 2.7652 1.4296 0.0000 -10846.2345 1494.9252 0.0000 0.0000 1801.9218 -7542.1249 304.2847 -9344.0467 -7587.5317 301.6370 376.6447 439.1926 30440.7906 -80.1993 -36.3754
ENERGY: 600000 2.1814 2.2764 2.0522 0.0000 -10734.4418 1417.8046 0.0000 0.0000 1807.4229 -7502.7042 305.2136 -9310.1271 -7575.3718 302.2554 -294.0461 -180.4031 30795.5459 -191.2289 -139.5797
ENERGY: 900000 0.4503 1.3805 4.7088 0.0000 -10695.8059 1435.6685 0.0000 0.0000 1834.4562 -7419.1416 309.7786 -9253.5978 -7555.6064 303.1258 5.3106 59.8198 31176.6324 -99.7867 -49.1346
ENERGY: 1200000 1.9605 3.3256 3.4211 0.0000 -10839.1871 1524.3734 0.0000 0.0000 1807.5864 -7498.5201 305.2412 -9306.1065 -7564.0552 302.2659 634.5729 691.1925 30749.4552 -40.3591 5.2117
ENERGY: 1500000 1.4602 1.0913 4.4691 0.0000 -10841.7147 1488.8862 0.0000 0.0000 1761.2797 -7584.5283 297.4216 -9345.8080 -7564.8004 302.8090 364.5982 434.8431 30380.2424 36.5239 87.4620
TCL: Running FEP window  14: Lambda1 0.34999999999999964 Lambda2 0.29999999999999966 [dLambda -0.04999999999999999]
TCL: Setting parameter firsttimestep to 0
TCL: Setting parameter alchLambda to 0.34999999999999964
Info: NONBONDED TABLE R-SQUARED SPACING: 0.0625
Info: NONBONDED TABLE SIZE: 705 POINTS
TCL: Setting parameter alchLambda2 to 0.29999999999999966
Info: NONBONDED TABLE R-SQUARED SPACING: 0.0625
Info: NONBONDED TABLE SIZE: 705 POINTS
TCL: Running for 1500000 steps
ETITLE: TS BOND ANGLE DIHED IMPRP ELECT VDW BOUNDARY MISC KINETIC TOTAL TEMP POTENTIAL TOTALAVG TEMPAVG PRESSURE GPRESSURE VOLUME PRESSAVG GPRESSAVG
ENERGY: 0 1.4602 1.0913 4.4691 0.0000 -10841.7158 1488.8311 0.0000 0.0000 1760.3827 -7585.4815 297.2701 -9345.8642 -7585.4815 297.2701 331.0639 428.8947 30380.2424 331.0639 428.8947
ENERGY: 300000 4.1856 0.6570 4.1299 0.0000 -10749.8276 1410.1607 0.0000 0.0000 1742.5618 -7588.1326 294.2607 -9330.6944 -7541.8288 298.8129 -410.6724 -337.0617 30551.9831 -146.2501 -84.7375
ENERGY: 600000 2.1039 3.5422 1.2092 0.0000 -10698.9166 1433.3695 0.0000 0.0000 1805.0237 -7453.6680 304.8085 -9258.6917 -7511.7921 302.6575 112.7374 175.1492 30305.3545 -25.5795 45.6866
ENERGY: 900000 3.1826 1.9874 3.5567 0.0000 -10838.0441 1472.9463 0.0000 0.0000 1722.8121 -7633.5591 290.9257 -9356.3711 -7521.0338 302.4705 349.8957 351.8446 30185.2752 101.0812 158.8350
ENERGY: 1200000 0.9627 4.8801 2.8250 0.0000 -10646.6179 1331.4894 0.0000 0.0000 1766.7997 -7539.6610 298.3537 -9306.4607 -7526.8834 302.2666 -1071.3679 -982.7909 31062.2771 -44.6144 10.8673
ENERGY: 1500000 2.6484 3.5762 2.6441 0.0000 -10769.6390 1455.4512 0.0000 0.0000 1726.4817 -7578.8375 291.5453 -9305.3192 -7525.1641 301.5901 -326.1277 -230.8205 31314.9598 -20.3387 31.7804
TCL: Running FEP window  15: Lambda1 0.29999999999999966 Lambda2 0.24999999999999967 [dLambda -0.04999999999999999]
TCL: Setting parameter firsttimestep to 0
TCL: Setting parameter alchLambda to 0.29999999999999966
Info: NONBONDED TABLE R-SQUARED SPACING: 0.0625
Info: NONBONDED TABLE SIZE: 705 POINTS
TCL: Setting parameter alchLambda2 to 0.24999999999999967
Info: NONBONDED TABLE R-SQUARED SPACING: 0.0625
Info: NONBONDED TABLE SIZE: 705 POINTS
TCL: Running for 1500000 steps
ETITLE: TS BOND ANGLE DIHED IMPRP ELECT VDW BOUNDARY MISC KINETIC TOTAL TEMP POTENTIAL TOTALAVG TEMPAVG PRESSURE GPRESSURE VOLUME PRESSAVG GPRESSAVG
ENERGY: 0 2.6484 3.5762 2.6441 0.0000 -10769.6386 1455.9761 0.0000 0.0000 1725.6046 -7579.1893 291.3972 -9304.7939 -7579.1893 291.3972 -313.8661 -229.2727 31314.9598 -313.8661 -229.2727
ENERGY: 300000 1.4873 3.0048 1.5907 0.0000 -10755.9932 1409.9557 0.0000 0.0000 1731.9137 -7608.0410 292.4626 -9339.9547 -7618.4258 293.7597 -368.4369 -322.4646 30455.8374 -159.2593 -89.2799
ENERGY: 600000 2.4141 2.5286 3.2903 0.0000 -10771.5398 1410.2215 0.0000 0.0000 1701.6632 -7651.4220 287.3543 -9353.0852 -7590.8588 294.5723 -684.4614 -573.1523 31062.6691 -385.3248 -307.2756
ENERGY: 900000 0.5668 2.4754 3.1623 0.0000 -10864.0037 1462.5955 0.0000 0.0000 1741.4836 -7653.7200 294.0787 -9395.2036 -7577.8286 295.9545 18.3984 57.4618 30501.6834 -203.0346 -148.1814
ENERGY: 1200000 1.6794 0.9786 3.9655 0.0000 -10823.9717 1500.8944 0.0000 0.0000 1783.2701 -7533.1837 301.1350 -9316.4538 -7577.4670 296.2759 231.6767 284.2695 30812.5468 -137.2330 -79.1493
ENERGY: 1500000 3.0333 1.7819 3.5156 0.0000 -10877.5135 1453.7645 0.0000 0.0000 1785.8488 -7629.5693 301.5705 -9415.4181 -7582.4614 297.3090 -344.2436 -273.0479 30523.5542 -129.9542 -69.6440
TCL: Running FEP window  16: Lambda1 0.24999999999999967 Lambda2 0.19999999999999968 [dLambda -0.04999999999999999]
TCL: Setting parameter firsttimestep to 0
TCL: Setting parameter alchLambda to 0.24999999999999967
Info: NONBONDED TABLE R-SQUARED SPACING: 0.0625
Info: NONBONDED TABLE SIZE: 705 POINTS
TCL: Setting parameter alchLambda2 to 0.19999999999999968
Info: NONBONDED TABLE R-SQUARED SPACING: 0.0625
Info: NONBONDED TABLE SIZE: 705 POINTS
TCL: Running for 1500000 steps
ETITLE: TS BOND ANGLE DIHED IMPRP ELECT VDW BOUNDARY MISC KINETIC TOTAL TEMP POTENTIAL TOTALAVG TEMPAVG PRESSURE GPRESSURE VOLUME PRESSAVG GPRESSAVG
ENERGY: 0 3.0333 1.7819 3.5156 0.0000 -10877.5127 1454.1833 0.0000 0.0000 1784.9768 -7630.0218 301.4232 -9414.9986 -7630.0218 301.4232 -352.3264 -273.5469 30523.5542 -352.3264 -273.5469
ENERGY: 300000 1.5306 4.2761 3.3505 0.0000 -10763.0820 1401.4043 0.0000 0.0000 1723.3483 -7629.1723 291.0162 -9352.5206 -7610.7519 296.9926 -611.0451 -574.1167 30568.8923 -257.6346 -177.9423
ENERGY: 600000 5.8264 3.5349 2.3781 0.0000 -10719.7306 1492.8215 0.0000 0.0000 1796.2294 -7418.9403 303.3234 -9215.1697 -7568.0960 298.9752 880.0494 886.1401 30611.5445 -118.2862 -79.1386
ENERGY: 900000 2.0180 2.0211 1.1346 0.0000 -10863.7496 1498.3932 0.0000 0.0000 1781.6830 -7578.4997 300.8670 -9360.1827 -7564.6826 299.0966 142.0525 238.6576 30458.9794 -50.3600 -8.3101
ENERGY: 1200000 3.2594 3.0891 6.2827 0.0000 -10803.7308 1456.9483 0.0000 0.0000 1783.6734 -7550.4779 301.2031 -9334.1513 -7572.1676 298.9786 -271.6846 -173.7873 30792.7580 -141.8785 -92.7662
ENERGY: 1500000 0.4279 2.3298 2.1335 0.0000 -10877.5430 1497.3532 0.0000 0.0000 1769.7038 -7605.5948 298.8441 -9375.2986 -7573.0209 299.0634 167.7469 262.8574 30689.9970 -59.2068 -4.3937
TCL: Running FEP window  17: Lambda1 0.19999999999999968 Lambda2 0.1499999999999997 [dLambda -0.04999999999999999]
TCL: Setting parameter firsttimestep to 0
TCL: Setting parameter alchLambda to 0.19999999999999968
Info: NONBONDED TABLE R-SQUARED SPACING: 0.0625
Info: NONBONDED TABLE SIZE: 705 POINTS
TCL: Setting parameter alchLambda2 to 0.1499999999999997
Info: NONBONDED TABLE R-SQUARED SPACING: 0.0625
Info: NONBONDED TABLE SIZE: 705 POINTS
TCL: Running for 1500000 steps
ETITLE: TS BOND ANGLE DIHED IMPRP ELECT VDW BOUNDARY MISC KINETIC TOTAL TEMP POTENTIAL TOTALAVG TEMPAVG PRESSURE GPRESSURE VOLUME PRESSAVG GPRESSAVG
ENERGY: 0 0.4279 2.3298 2.1335 0.0000 -10877.5407 1497.5176 0.0000 0.0000 1768.8467 -7606.2852 298.6994 -9375.1319 -7606.2852 298.6994 178.9358 259.4245 30689.9970 178.9358 259.4245
ENERGY: 300000 2.2486 0.9698 1.3168 0.0000 -10760.6991 1415.1536 0.0000 0.0000 1803.0519 -7537.9584 304.4755 -9341.0103 -7560.2248 298.5167 -220.2227 -121.9668 30389.1863 -252.5705 -198.6246
ENERGY: 600000 1.8781 4.2787 2.2624 0.0000 -10697.1314 1379.3867 0.0000 0.0000 1787.3798 -7521.9458 301.8290 -9309.3256 -7552.0627 299.3467 -514.9762 -426.1061 30363.7669 -193.7101 -133.6812
ENERGY: 900000 1.6577 2.1307 4.5066 0.0000 -10590.7281 1336.6600 0.0000 0.0000 1777.0269 -7468.7463 300.0807 -9245.7732 -7549.0382 297.8934 -797.7043 -755.0641 30903.1787 -279.6156 -225.5674
ENERGY: 1200000 1.9403 2.8880 2.9725 0.0000 -10730.8318 1374.0481 0.0000 0.0000 1841.3933 -7507.5897 310.9501 -9348.9830 -7549.3642 299.6883 -455.6514 -399.9169 30112.2349 -212.3714 -153.6114
ENERGY: 1500000 3.3414 3.0036 2.2157 0.0000 -10728.1824 1453.1096 0.0000 0.0000 1844.4637 -7422.0485 311.4686 -9266.5122 -7527.9519 301.1792 -12.6815 48.2102 30898.7865 -155.8450 -93.2811
TCL: Running FEP window  18: Lambda1 0.1499999999999997 Lambda2 0.09999999999999969 [dLambda -0.05 ]
TCL: Setting parameter firsttimestep to 0
TCL: Setting parameter alchLambda to 0.1499999999999997
Info: NONBONDED TABLE R-SQUARED SPACING: 0.0625
Info: NONBONDED TABLE SIZE: 705 POINTS
TCL: Setting parameter alchLambda2 to 0.09999999999999969
Info: NONBONDED TABLE R-SQUARED SPACING: 0.0625
Info: NONBONDED TABLE SIZE: 705 POINTS
TCL: Running for 1500000 steps
ETITLE: TS BOND ANGLE DIHED IMPRP ELECT VDW BOUNDARY MISC KINETIC TOTAL TEMP POTENTIAL TOTALAVG TEMPAVG PRESSURE GPRESSURE VOLUME PRESSAVG GPRESSAVG
ENERGY: 0 3.3414 3.0036 2.2157 0.0000 -10728.1819 1453.3132 0.0000 0.0000 1843.6105 -7422.6975 311.3245 -9266.3080 -7422.6975 311.3245 -38.6012 43.7538 30898.7865 -38.6012 43.7538
ENERGY: 300000 3.3617 4.2629 6.7200 0.0000 -10780.9248 1445.5016 0.0000 0.0000 1739.6246 -7581.4540 293.7647 -9321.0786 -7509.4756 299.1525 -290.1467 -251.9752 31263.1341 -318.1814 -256.4776
ENERGY: 600000 3.7521 2.3918 1.8633 0.0000 -10873.8744 1492.0055 0.0000 0.0000 1796.3884 -7577.4734 303.3503 -9373.8618 -7531.1472 299.9808 233.5227 287.7255 30267.0678 -256.8323 -186.0212
ENERGY: 900000 1.0372 4.5457 3.1531 0.0000 -10855.1197 1529.1727 0.0000 0.0000 1733.7933 -7583.4178 292.7800 -9317.2111 -7553.6425 298.2314 631.7479 670.7325 30303.2420 -208.0029 -142.4019
ENERGY: 1200000 1.4106 1.9363 1.9405 0.0000 -10924.7760 1560.4903 0.0000 0.0000 1779.4564 -7579.5418 300.4910 -9358.9983 -7544.2140 299.1284 741.9683 828.6535 30291.6102 -150.3518 -78.0564
ENERGY: 1500000 3.0257 3.0518 4.1726 0.0000 -10821.6332 1496.4759 0.0000 0.0000 1826.2325 -7488.6747 308.3899 -9314.9072 -7542.3469 299.3824 507.2311 534.0394 30150.9408 -149.4589 -78.9777
TCL: Running FEP window  19: Lambda1 0.09999999999999969 Lambda2 0.049999999999999684 [dLambda -0.05 ]
TCL: Setting parameter firsttimestep to 0
TCL: Setting parameter alchLambda to 0.09999999999999969
Info: NONBONDED TABLE R-SQUARED SPACING: 0.0625
Info: NONBONDED TABLE SIZE: 705 POINTS
TCL: Setting parameter alchLambda2 to 0.049999999999999684
Info: NONBONDED TABLE R-SQUARED SPACING: 0.0625
Info: NONBONDED TABLE SIZE: 705 POINTS
TCL: Running for 1500000 steps
ETITLE: TS BOND ANGLE DIHED IMPRP ELECT VDW BOUNDARY MISC KINETIC TOTAL TEMP POTENTIAL TOTALAVG TEMPAVG PRESSURE GPRESSURE VOLUME PRESSAVG GPRESSAVG
ENERGY: 0 3.0256 3.0518 4.1726 0.0000 -10821.6326 1495.3240 0.0000 0.0000 1825.3376 -7490.7210 308.2388 -9316.0586 -7490.7210 308.2388 467.3787 528.4104 30150.9408 467.3787 528.4104
ENERGY: 300000 3.3293 1.7006 3.3123 0.0000 -10713.4460 1425.6139 0.0000 0.0000 1820.4978 -7458.9922 307.4215 -9279.4900 -7491.9572 305.5059 96.8690 72.8035 30742.5418 248.6014 298.9807
ENERGY: 600000 2.0716 2.7650 1.9664 0.0000 -10893.1199 1509.7105 0.0000 0.0000 1806.0648 -7570.5416 304.9843 -9376.6064 -7516.0571 304.4252 241.6356 293.3185 30642.8284 140.9376 190.0448
ENERGY: 900000 1.0227 3.9315 2.8838 0.0000 -10746.1472 1436.8675 0.0000 0.0000 1738.4044 -7563.0373 293.5587 -9301.4417 -7527.1778 301.7742 84.5105 89.9377 30587.7910 180.2661 226.1238
ENERGY: 1200000 1.1298 2.6621 2.8271 0.0000 -10759.5998 1459.8873 0.0000 0.0000 1801.1276 -7491.9660 304.1505 -9293.0935 -7528.5761 301.2797 -49.5161 93.3521 30814.2887 74.5617 134.1973
ENERGY: 1500000 2.8724 2.0576 2.8948 0.0000 -10904.3536 1556.7486 0.0000 0.0000 1743.9294 -7595.8508 294.4917 -9339.7801 -7540.5314 300.8745 770.9028 771.8386 30660.9493 107.4018 163.9831
TCL: Running FEP window  20: Lambda1 0.049999999999999684 Lambda2 0.0    [dLambda -0.049999999999999684]
TCL: Setting parameter firsttimestep to 0
TCL: Setting parameter alchLambda to 0.049999999999999684
Info: NONBONDED TABLE R-SQUARED SPACING: 0.0625
Info: NONBONDED TABLE SIZE: 705 POINTS
TCL: Setting parameter alchLambda2 to 0.0
Info: NONBONDED TABLE R-SQUARED SPACING: 0.0625
Info: NONBONDED TABLE SIZE: 705 POINTS
TCL: Running for 1500000 steps
ETITLE: TS BOND ANGLE DIHED IMPRP ELECT VDW BOUNDARY MISC KINETIC TOTAL TEMP POTENTIAL TOTALAVG TEMPAVG PRESSURE GPRESSURE VOLUME PRESSAVG GPRESSAVG
ENERGY: 0 2.8724 2.0576 2.8948 0.0000 -10904.3528 1555.8543 0.0000 0.0000 1743.0550 -7597.6188 294.3440 -9340.6737 -7597.6188 294.3440 676.5558 764.9317 30660.9493 676.5558 764.9317
ENERGY: 300000 2.6145 2.0745 3.2743 0.0000 -10880.8064 1545.7532 0.0000 0.0000 1744.8784 -7582.2114 294.6519 -9327.0898 -7559.2164 298.8800 723.3178 785.1896 30647.0575 -44.2493 14.1978
ENERGY: 600000 0.4846 2.0087 3.1480 0.0000 -10771.1514 1419.1326 0.0000 0.0000 1774.1292 -7572.2484 299.5914 -9346.3776 -7541.9175 299.0920 -306.4512 -259.9789 30387.5395 -87.0541 -30.1622
ENERGY: 900000 1.7009 2.1020 2.9029 0.0000 -10887.8021 1476.7092 0.0000 0.0000 1765.9798 -7638.4074 298.2153 -9404.3872 -7549.0393 299.6213 31.7838 137.5802 30123.2959 59.5646 124.2070
ENERGY: 1200000 3.3337 2.1912 2.2296 0.0000 -10750.2476 1437.2428 0.0000 0.0000 1818.5923 -7486.6581 307.0998 -9305.2504 -7547.2446 300.4704 -247.7356 -188.2575 31018.1179 -5.7078 58.7134
ENERGY: 1500000 1.0620 3.2130 0.8407 0.0000 -10744.8607 1414.3048 0.0000 0.0000 1766.3814 -7559.0588 298.2831 -9325.4402 -7548.9356 300.7635 -26.1154 -3.1428 30218.5382 87.1836 145.0450
TCL: Exiting due to exit command.
