Info: SIMULATION PARAMETERS:
Info: TIMESTEP               2
Info: NUMBER OF STEPS        0
Info: STEPS PER CYCLE        10
Info: PERIODIC CELL BASIS 1  30.8346 0 0
Info: PERIODIC CELL BASIS 2  0 31.0822 0
Info: PERIODIC CELL BASIS 3  0 0 31.4841
Info: PERIODIC CELL CENTER   0 0 0
Info: WRAPPING WATERS AROUND PERIODIC BOUNDARIES ON OUTPUT.
Info: WRAPPING ALL CLUSTERS AROUND PERIODIC BOUNDARIES ON OUTPUT.
Info: FIRST LDB TIMESTEP     50
Info: LAST LDB TIMESTEP     -1
Info: HOM BACKGROUND SCALING 1
Info: PME BACKGROUND SCALING 1
Info: MIN ATOMS PER PATCH    40
Info: EMPTY PATCH LOAD       40 ATOMS
Info: VELOCITY FILE          mobley_951560_equil.vel
Info: CENTER OF MASS MOVING INITIALLY? NO
Info: DIELECTRIC             1
Info: EXCLUDE                SCALED ONE-FOUR
Info: 1-4 ELECTROSTATICS SCALED BY 0.833333
Info: MODIFIED 1-4 VDW PARAMETERS WILL BE USED
Info: DCD FILENAME           mobley_951560_prod.dcd
Info: DCD FREQUENCY          100000
Info: DCD FIRST STEP         100000
Info: DCD FILE WILL CONTAIN UNIT CELL DATA
Info: XST FILENAME           mobley_951560_prod.xst
Info: XST FREQUENCY          100000
Info: NO VELOCITY DCD OUTPUT
Info: NO FORCE DCD OUTPUT
Info: OUTPUT FILENAME        mobley_951560_prod
Info: BINARY OUTPUT FILES WILL BE USED
Info: RESTART FILENAME       mobley_951560_prod.restart
Info: RESTART FREQUENCY      100000
Info: BINARY RESTART FILES WILL BE USED
Info: CUTOFF                 9
Info: PAIRLIST DISTANCE      11
Info: PAIRLIST SHRINK RATE   0.01
Info: PAIRLIST GROW RATE     0.01
Info: PAIRLIST TRIGGER       0.3
Info: PAIRLISTS PER CYCLE    2
Info: PAIRLISTS ENABLED
Info: MARGIN                 2
Info: HYDROGEN GROUP CUTOFF  2.5
Info: PATCH DIMENSION        15.5
Info: ENERGY OUTPUT STEPS    100000
Info: ENERGY EVALUATION STEPS    100000
Info: OUTPUT ENERGY PRECISION 4
Info: CROSSTERM ENERGY INCLUDED IN DIHEDRAL
Info: TIMING OUTPUT STEPS    1000000
Info: PRESSURE OUTPUT STEPS  100000
Info: ALCHEMICAL FEP ON
Info: FEP CURRENT LAMBDA VALUE     1
Info: FEP COMPARISON LAMBDA VALUE  0.95
Info: FEP INTRA-ALCHEMICAL NON-BONDED INTERACTIONS WILL BE RETAINED
Info: FEP INTRA-ALCHEMICAL BONDED INTERACTIONS WILL BE RETAINED
Info: FEP VDW SHIFTING COEFFICIENT 5
Info: FEP ELEC. ACTIVE FOR ANNIHILATED PARTICLES BETWEEN LAMBDA = 0 AND LAMBDA = 0.5
Info: FEP ELEC. ACTIVE FOR EXNIHILATED PARTICLES BETWEEN LAMBDA = 0.5 AND LAMBDA = 1
Info: FEP VDW ACTIVE FOR ANNIHILATED PARTICLES BETWEEN LAMBDA = 0 AND LAMBDA = 1
Info: FEP VDW ACTIVE FOR EXNIHILATED PARTICLES BETWEEN LAMBDA = 0 AND LAMBDA = 1
Info: FEP BOND ACTIVE FOR ANNIHILATED PARTICLES BETWEEN LAMBDA = 1 AND LAMBDA = 1
Info: FEP BOND ACTIVE FOR EXNIHILATED PARTICLES BETWEEN LAMBDA = 0 AND LAMBDA = 0
Info: LANGEVIN DYNAMICS ACTIVE
Info: LANGEVIN TEMPERATURE   300
Info: LANGEVIN USING BBK INTEGRATOR
Info: LANGEVIN DAMPING COEFFICIENT IS 1 INVERSE PS
Info: LANGEVIN DYNAMICS APPLIED TO HYDROGENS
Info: LANGEVIN PISTON PRESSURE CONTROL ACTIVE
Info:        TARGET PRESSURE IS 1.01325 BAR
Info:     OSCILLATION PERIOD IS 50 FS
Info:             DECAY TIME IS 25 FS
Info:     PISTON TEMPERATURE IS 300 K
Info:       PRESSURE CONTROL IS GROUP-BASED
Info:    INITIAL STRAIN RATE IS -2.62296e-06 -2.62296e-06 -2.62296e-06
Info:       CELL FLUCTUATION IS ISOTROPIC
Info: PARTICLE MESH EWALD (PME) ACTIVE
Info: PME TOLERANCE               1e-06
Info: PME EWALD COEFFICIENT       0.348832
Info: PME INTERPOLATION ORDER     4
Info: PME GRID DIMENSIONS         32 32 32
Info: PME MAXIMUM GRID SPACING    1
Info: PME CALCULATION WILL BE PERFORMED ON GPU
Info: FULL ELECTROSTATIC EVALUATION FREQUENCY      2
Info: USING VERLET I (r-RESPA) MTS SCHEME.
Info: C1 SPLITTING OF LONG RANGE ELECTROSTATICS
Info: PLACING ATOMS IN PATCHES BY HYDROGEN GROUPS
Info: RIGID BONDS TO HYDROGEN : ALL
Info:         ERROR TOLERANCE : 1e-08
Info:          MAX ITERATIONS : 100
Info: RIGID WATER USING SETTLE ALGORITHM
Info: RANDOM NUMBER SEED     1743600965
Info: USE HYDROGEN BONDS?    NO
Info: Using AMBER format force field!
Info: AMBER PARM FILE        mobley_951560.prmtop
Info: COORDINATE PDB         mobley_951560.pdb
Info: Exclusions will be read from PARM file!
Info: SCNB (VDW SCALING)     2
Info: USING ARITHMETIC MEAN TO COMBINE L-J SIGMA PARAMETERS
Info: BINARY COORDINATES     mobley_951560_equil.coor
Info: SUMMARY OF PARAMETERS:
Info: 6 BONDS
Info: 6 ANGLES
Info:   6 HARMONIC
Info:   0 COSINE-BASED
Info: 3 DIHEDRAL
Info: 0 IMPROPER
Info: 0 CROSSTERM
Info: 0 VDW
Info: 21 VDW_PAIRS
Info: 0 NBTHOLE_PAIRS
Info: To read alchdata from file: mobley_951560.pdb
Info: To read alchflag data from column: 5
Info: STRUCTURE SUMMARY:
Info: 2962 ATOMS
Info: 2962 BONDS
Info: 30 ANGLES
Info: 46 DIHEDRALS
Info: 0 IMPROPERS
Info: 0 CROSSTERMS
Info: 3031 EXCLUSIONS
Info: 2956 RIGID BONDS
Info: ALCH: 0 ATOMS TO DISAPPEAR IN FINAL STATE
Info: ALCH: 16 ATOMS TO APPEAR IN FINAL STATE
Info: 5930 DEGREES OF FREEDOM
Info: 988 HYDROGEN GROUPS
Info: 3 ATOMS IN LARGEST HYDROGEN GROUP
Info: 988 MIGRATION GROUPS
Info: 3 ATOMS IN LARGEST MIGRATION GROUP
Info: TOTAL MASS = 17777.9 amu
Info: TOTAL CHARGE = 8.9407e-08 e
Info: MASS DENSITY = 0.978357 g/cm^3
Info: ATOM DENSITY = 0.0981621 atoms/A^3
Info: ADDED 0 IMPLICIT EXCLUSIONS
Info: NONBONDED TABLE R-SQUARED SPACING: 0.0625
Info: NONBONDED TABLE SIZE: 705 POINTS
Info: REMOVING COM VELOCITY -0.206287 -0.112542 0.0408463
Info: Use 3D box decompostion in PME FFT.
Info: Updated CUDA force table with 4096 elements.
Info: Updated CUDA LJ table with 6 x 6 elements.
Info: Found 19 unique exclusion lists needing 44 bytes
TCL: Running for 1500000 steps
ETITLE: TS BOND ANGLE DIHED IMPRP ELECT VDW BOUNDARY MISC KINETIC TOTAL TEMP POTENTIAL TOTALAVG TEMPAVG PRESSURE GPRESSURE VOLUME PRESSAVG GPRESSAVG
ENERGY: 0 0.8436 5.8870 3.2173 0.0000 -10844.7331 1541.9233 0.0000 0.0000 1724.4284 -7568.4335 292.6718 -9292.8619 -7568.4335 292.6718 609.6865 692.8612 30174.5708 609.6865 692.8612
ENERGY: 300000 1.4194 9.7622 4.4952 0.0000 -10555.9886 1359.2353 0.0000 0.0000 1726.2599 -7454.8167 292.9826 -9181.0767 -7495.3185 298.9567 -633.9590 -572.6911 30605.3614 -107.0120 -36.1778
ENERGY: 600000 3.4074 5.6336 3.3547 0.0000 -10750.4010 1402.4525 0.0000 0.0000 1840.3580 -7495.1949 312.3475 -9335.5528 -7494.6052 301.3265 -524.6311 -504.5596 30413.5891 -268.5366 -197.5026
ENERGY: 900000 1.6761 10.9319 4.0795 0.0000 -10822.6385 1470.0499 0.0000 0.0000 1741.8239 -7594.0772 295.6242 -9335.9012 -7503.4778 300.3468 23.1088 123.1678 30068.1336 -243.2063 -163.0173
ENERGY: 1200000 0.6594 7.2772 3.5500 0.0000 -10716.7049 1434.1661 0.0000 0.0000 1800.4820 -7470.5701 305.5797 -9271.0521 -7490.4986 300.8560 -130.8694 -35.8358 30664.2076 -177.0857 -102.1999
ENERGY: 1500000 1.9785 9.4027 4.5487 0.0000 -10676.7516 1438.7042 0.0000 0.0000 1829.2672 -7392.8502 310.4651 -9222.1174 -7472.5625 301.2789 -84.5913 -35.4006 30489.6870 -161.5095 -94.9586
TCL: Running FEP window   2: Lambda1 0.95   Lambda2 0.8999999999999999 [dLambda -0.050000000000000044]
TCL: Setting parameter firsttimestep to 0
TCL: Setting parameter alchLambda to 0.95
Info: NONBONDED TABLE R-SQUARED SPACING: 0.0625
Info: NONBONDED TABLE SIZE: 705 POINTS
TCL: Setting parameter alchLambda2 to 0.8999999999999999
Info: NONBONDED TABLE R-SQUARED SPACING: 0.0625
Info: NONBONDED TABLE SIZE: 705 POINTS
TCL: Running for 1500000 steps
ETITLE: TS BOND ANGLE DIHED IMPRP ELECT VDW BOUNDARY MISC KINETIC TOTAL TEMP POTENTIAL TOTALAVG TEMPAVG PRESSURE GPRESSURE VOLUME PRESSAVG GPRESSAVG
ENERGY: 0 1.9785 9.4027 4.5487 0.0000 -10674.3971 1438.0149 0.0000 0.0000 1828.4064 -7392.0458 310.3190 -9220.4521 -7392.0458 310.3190 -130.3647 -46.7902 30489.6870 -130.3647 -46.7902
ENERGY: 300000 2.5206 9.5492 3.4738 0.0000 -10437.8090 1327.5764 0.0000 0.0000 1778.7497 -7315.9393 301.8913 -9094.6891 -7405.5668 303.1439 -672.5949 -615.1546 30705.3664 -9.9635 36.7900
ENERGY: 600000 0.6292 9.2954 3.7520 0.0000 -10818.2588 1585.8122 0.0000 0.0000 1731.3733 -7487.3967 293.8505 -9218.7701 -7431.0323 300.2708 1075.0665 1127.3686 30649.5153 141.9334 190.3544
ENERGY: 900000 0.8350 11.4706 3.9033 0.0000 -10835.7765 1532.9937 0.0000 0.0000 1798.6411 -7487.9329 305.2672 -9286.5740 -7444.8307 302.3700 718.9758 776.7825 30227.0186 59.0331 107.6500
ENERGY: 1200000 3.0853 9.2224 4.2773 0.0000 -10714.0838 1454.0616 0.0000 0.0000 1770.8393 -7472.5979 300.5487 -9243.4372 -7446.0842 302.0103 120.0788 199.7033 30113.7222 43.0846 90.6617
ENERGY: 1500000 2.9826 5.4586 2.9798 0.0000 -10732.4585 1469.6349 0.0000 0.0000 1766.9390 -7484.4636 299.8867 -9251.4026 -7450.9663 301.1776 183.1900 234.9819 30236.9453 15.6638 68.2859
TCL: Running FEP window   3: Lambda1 0.8999999999999999 Lambda2 0.8499999999999999 [dLambda -0.050000000000000044]
TCL: Setting parameter firsttimestep to 0
TCL: Setting parameter alchLambda to 0.8999999999999999
Info: NONBONDED TABLE R-SQUARED SPACING: 0.0625
Info: NONBONDED TABLE SIZE: 705 POINTS
TCL: Setting parameter alchLambda2 to 0.8499999999999999
Info: NONBONDED TABLE R-SQUARED SPACING: 0.0625
Info: NONBONDED TABLE SIZE: 705 POINTS
TCL: Running for 1500000 steps
ETITLE: TS BOND ANGLE DIHED IMPRP ELECT VDW BOUNDARY MISC KINETIC TOTAL TEMP POTENTIAL TOTALAVG TEMPAVG PRESSURE GPRESSURE VOLUME PRESSAVG GPRESSAVG
ENERGY: 0 2.9826 5.4586 2.9798 0.0000 -10730.6125 1469.0871 0.0000 0.0000 1766.0461 -7484.0583 299.7352 -9250.1044 -7484.0583 299.7352 132.0650 224.8098 30236.9453 132.0650 224.8098
ENERGY: 300000 0.7426 8.8297 3.7505 0.0000 -10828.8789 1497.3233 0.0000 0.0000 1787.4260 -7530.8067 303.3638 -9318.2328 -7496.0996 300.9966 283.1853 340.6123 30291.3434 257.9977 318.2046
ENERGY: 600000 1.1170 8.4375 4.5264 0.0000 -10748.7314 1433.6189 0.0000 0.0000 1758.4761 -7542.5555 298.4504 -9301.0317 -7475.0095 301.6019 -85.8461 -7.0214 29986.6888 6.4898 70.0435
ENERGY: 900000 0.6020 8.0204 4.4716 0.0000 -10793.0897 1532.7653 0.0000 0.0000 1802.8054 -7444.4251 305.9740 -9247.2305 -7474.9249 301.0982 919.2691 952.5952 29931.1798 58.7515 114.6970
ENERGY: 1200000 3.6603 9.6553 3.5308 0.0000 -10735.9564 1542.1892 0.0000 0.0000 1799.4973 -7377.4234 305.4126 -9176.9208 -7469.7320 299.9252 770.9385 840.9010 30438.2213 49.1880 104.4473
ENERGY: 1500000 1.3759 6.9268 3.1120 0.0000 -10589.7998 1352.0272 0.0000 0.0000 1799.6195 -7426.7384 305.4333 -9226.3579 -7465.2358 300.5367 -826.6420 -757.4040 30815.0222 -0.7128 54.2518
TCL: Running FEP window   4: Lambda1 0.8499999999999999 Lambda2 0.7999999999999998 [dLambda -0.050000000000000044]
TCL: Setting parameter firsttimestep to 0
TCL: Setting parameter alchLambda to 0.8499999999999999
Info: NONBONDED TABLE R-SQUARED SPACING: 0.0625
Info: NONBONDED TABLE SIZE: 705 POINTS
TCL: Setting parameter alchLambda2 to 0.7999999999999998
Info: NONBONDED TABLE R-SQUARED SPACING: 0.0625
Info: NONBONDED TABLE SIZE: 705 POINTS
TCL: Running for 1500000 steps
ETITLE: TS BOND ANGLE DIHED IMPRP ELECT VDW BOUNDARY MISC KINETIC TOTAL TEMP POTENTIAL TOTALAVG TEMPAVG PRESSURE GPRESSURE VOLUME PRESSAVG GPRESSAVG
ENERGY: 0 1.3759 6.9268 3.1120 0.0000 -10587.4710 1350.8659 0.0000 0.0000 1798.7970 -7426.3935 305.2937 -9225.1904 -7426.3935 305.2937 -862.0079 -774.7537 30815.0222 -862.0079 -774.7537
ENERGY: 300000 5.0352 5.3516 4.5058 0.0000 -10615.0932 1436.2984 0.0000 0.0000 1769.5086 -7394.3937 300.3228 -9163.9023 -7422.2159 303.1518 42.4187 49.7265 30666.4608 -109.8845 -58.5787
ENERGY: 600000 2.5598 9.3856 5.1171 0.0000 -10744.1839 1512.0578 0.0000 0.0000 1801.4822 -7413.5814 305.7494 -9215.0635 -7440.0549 303.4932 404.2589 481.1780 30561.0759 -4.2136 53.3516
ENERGY: 900000 1.7109 8.6069 4.0753 0.0000 -10694.8245 1424.4322 0.0000 0.0000 1771.4641 -7484.5352 300.6547 -9255.9992 -7451.7541 300.3867 -44.0555 -3.5027 30386.6392 -155.0780 -99.2913
ENERGY: 1200000 5.8200 6.6789 3.5657 0.0000 -10641.9740 1376.9507 0.0000 0.0000 1798.5991 -7450.3596 305.2601 -9248.9588 -7445.4626 301.3603 -606.8118 -529.8978 30265.2376 -181.6054 -123.7854
ENERGY: 1500000 3.3795 8.9546 4.6536 0.0000 -10665.4207 1447.6653 0.0000 0.0000 1792.5988 -7408.1689 304.2417 -9200.7677 -7447.7441 301.2774 160.6727 212.2306 30361.3289 -226.9453 -171.1605
TCL: Running FEP window   5: Lambda1 0.7999999999999998 Lambda2 0.7499999999999998 [dLambda -0.050000000000000044]
TCL: Setting parameter firsttimestep to 0
TCL: Setting parameter alchLambda to 0.7999999999999998
Info: NONBONDED TABLE R-SQUARED SPACING: 0.0625
Info: NONBONDED TABLE SIZE: 705 POINTS
TCL: Setting parameter alchLambda2 to 0.7499999999999998
Info: NONBONDED TABLE R-SQUARED SPACING: 0.0625
Info: NONBONDED TABLE SIZE: 705 POINTS
TCL: Running for 1500000 steps
ETITLE: TS BOND ANGLE DIHED IMPRP ELECT VDW BOUNDARY MISC KINETIC TOTAL TEMP POTENTIAL TOTALAVG TEMPAVG PRESSURE GPRESSURE VOLUME PRESSAVG GPRESSAVG
ENERGY: 0 3.3795 8.9546 4.6536 0.0000 -10662.6291 1446.4104 0.0000 0.0000 1791.7080 -7407.5231 304.0905 -9199.2310 -7407.5231 304.0905 94.5657 194.3115 30361.3289 94.5657 194.3115
ENERGY: 300000 0.6849 7.2902 3.5408 0.0000 -10732.6699 1413.4922 0.0000 0.0000 1732.9865 -7574.6753 294.1243 -9307.6618 -7478.7487 300.8791 -636.4079 -577.0855 30794.9160 -83.4001 16.1292
ENERGY: 600000 3.0480 4.6160 3.0474 0.0000 -10656.4310 1442.1448 0.0000 0.0000 1778.2109 -7425.3639 301.7998 -9203.5748 -7471.5750 300.5878 91.8973 171.5822 30393.5294 -157.2986 -56.8859
ENERGY: 900000 4.2125 8.3459 4.2579 0.0000 -10711.2672 1488.7725 0.0000 0.0000 1808.8787 -7396.7997 307.0048 -9205.6784 -7460.0326 300.9632 331.5313 395.3360 30527.5221 -58.5771 27.4682
ENERGY: 1200000 2.8057 10.6524 4.7663 0.0000 -10604.8483 1399.8101 0.0000 0.0000 1777.0273 -7409.7867 301.5989 -9186.8139 -7458.4873 301.1938 -374.8688 -238.5269 30827.2494 -82.0786 1.3466
ENERGY: 1500000 2.3022 6.1774 3.0961 0.0000 -10630.5464 1422.1278 0.0000 0.0000 1705.6027 -7491.2401 289.4767 -9196.8428 -7462.4443 300.4350 -195.9712 -190.1649 30612.4740 -60.8755 21.2254
TCL: Running FEP window   6: Lambda1 0.7499999999999998 Lambda2 0.6999999999999997 [dLambda -0.050000000000000044]
TCL: Setting parameter firsttimestep to 0
TCL: Setting parameter alchLambda to 0.7499999999999998
Info: NONBONDED TABLE R-SQUARED SPACING: 0.0625
Info: NONBONDED TABLE SIZE: 705 POINTS
TCL: Setting parameter alchLambda2 to 0.6999999999999997
Info: NONBONDED TABLE R-SQUARED SPACING: 0.0625
Info: NONBONDED TABLE SIZE: 705 POINTS
TCL: Running for 1500000 steps
ETITLE: TS BOND ANGLE DIHED IMPRP ELECT VDW BOUNDARY MISC KINETIC TOTAL TEMP POTENTIAL TOTALAVG TEMPAVG PRESSURE GPRESSURE VOLUME PRESSAVG GPRESSAVG
ENERGY: 0 2.3022 6.1774 3.0961 0.0000 -10628.1512 1421.8887 0.0000 0.0000 1704.7380 -7489.9488 289.3299 -9194.6868 -7489.9488 289.3299 -272.7076 -193.3281 30612.4740 -272.7076 -193.3281
ENERGY: 300000 3.7370 5.4994 3.2536 0.0000 -10640.2712 1436.1632 0.0000 0.0000 1748.3964 -7443.2216 296.7397 -9191.6180 -7478.1982 295.6922 -405.9453 -307.0077 30857.1835 -278.1372 -215.3145
ENERGY: 600000 1.3213 7.0246 3.1102 0.0000 -10891.3816 1578.0730 0.0000 0.0000 1726.0895 -7575.7629 292.9537 -9301.8523 -7475.2170 299.5560 1145.1406 1181.3870 30027.8348 60.7826 115.5275
ENERGY: 900000 3.3409 3.6986 3.9418 0.0000 -10548.9931 1393.7863 0.0000 0.0000 1778.6548 -7365.5707 301.8751 -9144.2255 -7460.6122 300.6289 -125.5136 -69.4209 30502.7977 75.6117 133.4641
ENERGY: 1200000 2.1238 6.4260 4.2436 0.0000 -10546.1552 1355.2119 0.0000 0.0000 1838.9036 -7339.2463 312.1006 -9178.1499 -7448.1347 301.9425 -621.0055 -561.6532 30753.0138 -6.0741 56.1158
ENERGY: 1500000 2.8276 6.6326 3.7449 0.0000 -10591.4420 1409.5203 0.0000 0.0000 1767.8531 -7400.8636 300.0419 -9168.7167 -7455.6134 302.1918 -64.9126 -25.6496 30331.2977 -6.3920 52.1686
TCL: Running FEP window   7: Lambda1 0.6999999999999997 Lambda2 0.6499999999999997 [dLambda -0.050000000000000044]
TCL: Setting parameter firsttimestep to 0
TCL: Setting parameter alchLambda to 0.6999999999999997
Info: NONBONDED TABLE R-SQUARED SPACING: 0.0625
Info: NONBONDED TABLE SIZE: 705 POINTS
TCL: Setting parameter alchLambda2 to 0.6499999999999997
Info: NONBONDED TABLE R-SQUARED SPACING: 0.0625
Info: NONBONDED TABLE SIZE: 705 POINTS
TCL: Running for 1500000 steps
ETITLE: TS BOND ANGLE DIHED IMPRP ELECT VDW BOUNDARY MISC KINETIC TOTAL TEMP POTENTIAL TOTALAVG TEMPAVG PRESSURE GPRESSURE VOLUME PRESSAVG GPRESSAVG
ENERGY: 0 2.8276 6.6326 3.7449 0.0000 -10588.0380 1408.3947 0.0000 0.0000 1766.9731 -7399.4652 299.8925 -9166.4383 -7399.4652 299.8925 -121.6303 -37.1511 30331.2977 -121.6303 -37.1511
ENERGY: 300000 1.0462 6.5909 3.3959 0.0000 -10691.5969 1466.1111 0.0000 0.0000 1783.6894 -7430.7635 302.7296 -9214.4530 -7443.9168 301.3655 -15.0595 33.1617 30816.9865 -27.3089 18.8529
ENERGY: 600000 4.2372 3.2142 2.9655 0.0000 -10712.3726 1465.7724 0.0000 0.0000 1741.3015 -7494.8818 295.5355 -9236.1833 -7446.6417 300.7209 231.7992 314.1326 30007.0703 37.0030 89.4540
ENERGY: 900000 3.7467 7.0093 3.1423 0.0000 -10681.3813 1416.8270 0.0000 0.0000 1795.2869 -7455.3691 304.6980 -9250.6560 -7443.5932 299.9022 -632.2857 -539.5467 30855.9333 -29.3333 31.9996
ENERGY: 1200000 2.9647 8.0050 3.0158 0.0000 -10633.1727 1444.5162 0.0000 0.0000 1796.0738 -7378.5973 304.8315 -9174.6711 -7437.2761 300.9681 96.6659 154.6978 30331.0200 8.0817 69.1656
ENERGY: 1500000 2.5898 5.8045 3.1177 0.0000 -10584.6177 1417.6970 0.0000 0.0000 1791.4256 -7363.9832 304.0426 -9155.4088 -7438.4951 300.8636 66.0564 119.3434 30298.8385 -40.8368 17.8581
TCL: Running FEP window   8: Lambda1 0.6499999999999997 Lambda2 0.5999999999999996 [dLambda -0.050000000000000044]
TCL: Setting parameter firsttimestep to 0
TCL: Setting parameter alchLambda to 0.6499999999999997
Info: NONBONDED TABLE R-SQUARED SPACING: 0.0625
Info: NONBONDED TABLE SIZE: 705 POINTS
TCL: Setting parameter alchLambda2 to 0.5999999999999996
Info: NONBONDED TABLE R-SQUARED SPACING: 0.0625
Info: NONBONDED TABLE SIZE: 705 POINTS
TCL: Running for 1500000 steps
ETITLE: TS BOND ANGLE DIHED IMPRP ELECT VDW BOUNDARY MISC KINETIC TOTAL TEMP POTENTIAL TOTALAVG TEMPAVG PRESSURE GPRESSURE VOLUME PRESSAVG GPRESSAVG
ENERGY: 0 2.5898 5.8045 3.1177 0.0000 -10583.8961 1417.9269 0.0000 0.0000 1790.5592 -7363.8981 303.8956 -9154.4574 -7363.8981 303.8956 26.0648 115.6861 30298.8385 26.0648 115.6861
ENERGY: 300000 1.9234 5.9191 3.7115 0.0000 -10613.6540 1408.7741 0.0000 0.0000 1740.6388 -7452.6872 295.4230 -9193.3259 -7426.4390 300.3357 -115.7911 -66.7917 30305.3695 -103.0398 -37.5864
ENERGY: 600000 2.4948 6.8887 3.2316 0.0000 -10756.6061 1476.5710 0.0000 0.0000 1729.7099 -7537.7102 293.5682 -9267.4201 -7448.5962 300.2454 372.2203 301.0885 30099.0055 -153.5680 -84.9608
ENERGY: 900000 1.4753 7.6654 4.3918 0.0000 -10775.7613 1479.7154 0.0000 0.0000 1685.9572 -7596.5561 286.1424 -9282.5134 -7459.0411 299.5929 -201.0422 -0.6561 30570.4851 -119.7429 -37.1215
ENERGY: 1200000 1.5833 7.3738 4.2995 0.0000 -10611.7148 1413.4211 0.0000 0.0000 1764.0108 -7421.0263 299.3898 -9185.0371 -7464.9360 298.3774 -226.1309 -104.3246 30627.6049 27.1734 114.8538
ENERGY: 1500000 3.0101 3.2368 3.5465 0.0000 -10703.2970 1488.0555 0.0000 0.0000 1755.4348 -7450.0133 297.9342 -9205.4481 -7453.9549 298.5076 497.1001 543.1995 30255.9520 25.9557 102.5107
TCL: Running FEP window   9: Lambda1 0.5999999999999996 Lambda2 0.5499999999999996 [dLambda -0.050000000000000044]
TCL: Setting parameter firsttimestep to 0
TCL: Setting parameter alchLambda to 0.5999999999999996
Info: NONBONDED TABLE R-SQUARED SPACING: 0.0625
Info: NONBONDED TABLE SIZE: 705 POINTS
TCL: Setting parameter alchLambda2 to 0.5499999999999996
Info: NONBONDED TABLE R-SQUARED SPACING: 0.0625
Info: NONBONDED TABLE SIZE: 705 POINTS
TCL: Running for 1500000 steps
ETITLE: TS BOND ANGLE DIHED IMPRP ELECT VDW BOUNDARY MISC KINETIC TOTAL TEMP POTENTIAL TOTALAVG TEMPAVG PRESSURE GPRESSURE VOLUME PRESSAVG GPRESSAVG
ENERGY: 0 3.0101 3.2368 3.5465 0.0000 -10701.5559 1488.3076 0.0000 0.0000 1754.5779 -7448.8770 297.7888 -9203.4549 -7448.8770 297.7888 448.6192 542.5292 30255.9520 448.6192 542.5292
ENERGY: 300000 4.6255 8.5796 4.0122 0.0000 -10692.9798 1398.0489 0.0000 0.0000 1741.6495 -7536.0642 295.5946 -9277.7136 -7487.2180 296.0532 -703.3081 -603.9971 30333.6183 -104.4250 -28.9475
ENERGY: 600000 3.2750 10.1841 3.3186 0.0000 -10525.8774 1316.4842 0.0000 0.0000 1731.9325 -7460.6830 293.9454 -9192.6155 -7477.1073 295.5941 -1224.4921 -1159.9513 30819.0637 -379.2990 -306.3308
ENERGY: 900000 2.7757 6.2130 3.0302 0.0000 -10769.0357 1475.2084 0.0000 0.0000 1771.7934 -7510.0152 300.7106 -9281.8086 -7462.6548 297.4994 174.7689 212.6164 30064.5606 -235.1967 -167.0566
ENERGY: 1200000 3.5004 7.6698 4.2018 0.0000 -10814.2288 1474.1023 0.0000 0.0000 1761.9795 -7562.7750 299.0450 -9324.7545 -7465.9327 297.7393 59.4930 122.2969 30208.8828 -320.8460 -259.1996
ENERGY: 1500000 1.0593 7.0305 3.8777 0.0000 -10615.9707 1381.8625 0.0000 0.0000 1809.2065 -7412.9342 307.0604 -9222.1407 -7442.1248 299.6911 -323.7472 -329.3684 30355.4499 -318.6060 -259.3838
TCL: Running FEP window  10: Lambda1 0.5499999999999996 Lambda2 0.4999999999999996 [dLambda -0.04999999999999999]
TCL: Setting parameter firsttimestep to 0
TCL: Setting parameter alchLambda to 0.5499999999999996
Info: NONBONDED TABLE R-SQUARED SPACING: 0.0625
Info: NONBONDED TABLE SIZE: 705 POINTS
TCL: Setting parameter alchLambda2 to 0.4999999999999996
Info: NONBONDED TABLE R-SQUARED SPACING: 0.0625
Info: NONBONDED TABLE SIZE: 705 POINTS
TCL: Running for 1500000 steps
ETITLE: TS BOND ANGLE DIHED IMPRP ELECT VDW BOUNDARY MISC KINETIC TOTAL TEMP POTENTIAL TOTALAVG TEMPAVG PRESSURE GPRESSURE VOLUME PRESSAVG GPRESSAVG
ENERGY: 0 1.0593 7.0305 3.8777 0.0000 -10615.6441 1382.3437 0.0000 0.0000 1808.3593 -7412.9735 306.9166 -9221.3328 -7412.9735 306.9166 -411.7449 -330.0584 30355.4499 -411.7449 -330.0584
ENERGY: 300000 0.4441 8.3784 4.0995 0.0000 -10707.7206 1378.5995 0.0000 0.0000 1848.6962 -7467.5030 313.7626 -9316.1992 -7460.8794 303.6077 -751.0042 -691.1539 30616.0787 -160.5815 -98.1708
ENERGY: 600000 1.6343 5.8242 2.9826 0.0000 -10625.4650 1399.9660 0.0000 0.0000 1761.7478 -7453.3103 299.0057 -9215.0580 -7431.7832 304.4552 -448.1300 -403.7534 30613.8310 -97.9523 -31.2382
ENERGY: 900000 5.8368 7.5900 4.7963 0.0000 -10716.0658 1423.4489 0.0000 0.0000 1766.1807 -7508.2130 299.7580 -9274.3938 -7444.6748 302.6967 -412.3732 -407.3558 30620.9813 -131.4265 -65.5494
ENERGY: 1200000 0.5700 9.8020 3.6780 0.0000 -10775.8938 1582.6881 0.0000 0.0000 1776.6873 -7402.4684 301.5412 -9179.1557 -7433.5956 302.0206 1411.3223 1503.3692 29965.3990 -29.2896 33.4279
ENERGY: 1500000 1.8296 11.4989 4.6943 0.0000 -10730.5070 1514.1149 0.0000 0.0000 1722.5464 -7475.8228 292.3524 -9198.3692 -7437.2847 301.6644 490.2835 526.4806 30285.6745 5.9965 69.3051
TCL: Running FEP window  11: Lambda1 0.4999999999999996 Lambda2 0.4499999999999996 [dLambda -0.04999999999999999]
TCL: Setting parameter firsttimestep to 0
TCL: Setting parameter alchLambda to 0.4999999999999996
Info: NONBONDED TABLE R-SQUARED SPACING: 0.0625
Info: NONBONDED TABLE SIZE: 705 POINTS
TCL: Setting parameter alchLambda2 to 0.4499999999999996
Info: NONBONDED TABLE R-SQUARED SPACING: 0.0625
Info: NONBONDED TABLE SIZE: 705 POINTS
TCL: Running for 1500000 steps
ETITLE: TS BOND ANGLE DIHED IMPRP ELECT VDW BOUNDARY MISC KINETIC TOTAL TEMP POTENTIAL TOTALAVG TEMPAVG PRESSURE GPRESSURE VOLUME PRESSAVG GPRESSAVG
ENERGY: 0 1.8296 11.4989 4.6943 0.0000 -10729.9759 1514.1608 0.0000 0.0000 1721.6970 -7476.0952 292.2082 -9197.7922 -7476.0952 292.2082 451.1308 523.1008 30285.6745 451.1308 523.1008
ENERGY: 300000 5.2938 9.7809 4.1094 0.0000 -10703.3454 1478.9986 0.0000 0.0000 1768.9288 -7436.2339 300.2244 -9205.1627 -7443.8790 300.0979 314.6003 339.3833 30386.1729 239.8814 310.7757
ENERGY: 600000 2.2826 7.2182 3.2825 0.0000 -10637.0871 1474.6941 0.0000 0.0000 1793.5961 -7356.0135 304.4110 -9149.6096 -7418.0810 300.5625 107.8644 175.2313 31020.3065 200.0403 269.1171
ENERGY: 900000 1.0876 7.1042 3.4674 0.0000 -10778.9848 1441.7013 0.0000 0.0000 1778.6169 -7547.0074 301.8687 -9325.6243 -7430.7289 301.1942 -621.1250 -575.0749 30836.2755 37.3557 96.8647
ENERGY: 1200000 0.5385 8.0566 3.4088 0.0000 -10675.2795 1443.4334 0.0000 0.0000 1844.4388 -7375.4034 313.0401 -9219.8422 -7431.3287 301.9940 67.5586 146.4595 30470.1134 -2.2756 58.4979
ENERGY: 1500000 4.5030 8.4822 3.2226 0.0000 -10790.8256 1518.0025 0.0000 0.0000 1751.5640 -7505.0513 297.2773 -9256.6154 -7432.1997 301.6355 482.2482 578.1380 30357.2570 -36.6989 27.0261
TCL: Running FEP window  12: Lambda1 0.4499999999999996 Lambda2 0.39999999999999963 [dLambda -0.04999999999999999]
TCL: Setting parameter firsttimestep to 0
TCL: Setting parameter alchLambda to 0.4499999999999996
Info: NONBONDED TABLE R-SQUARED SPACING: 0.0625
Info: NONBONDED TABLE SIZE: 705 POINTS
TCL: Setting parameter alchLambda2 to 0.39999999999999963
Info: NONBONDED TABLE R-SQUARED SPACING: 0.0625
Info: NONBONDED TABLE SIZE: 705 POINTS
TCL: Running for 1500000 steps
ETITLE: TS BOND ANGLE DIHED IMPRP ELECT VDW BOUNDARY MISC KINETIC TOTAL TEMP POTENTIAL TOTALAVG TEMPAVG PRESSURE GPRESSURE VOLUME PRESSAVG GPRESSAVG
ENERGY: 0 4.5030 8.4822 3.2226 0.0000 -10790.8254 1518.5212 0.0000 0.0000 1750.6900 -7505.4064 297.1289 -9256.0964 -7505.4064 297.1289 481.1361 574.5076 30357.2570 481.1361 574.5076
ENERGY: 300000 4.1302 8.9959 3.7144 0.0000 -10598.0820 1426.6013 0.0000 0.0000 1737.7213 -7416.9189 294.9279 -9154.6401 -7464.5156 297.2262 -258.3119 -184.1509 30727.5700 -74.7017 -10.9510
ENERGY: 600000 1.6899 8.3505 3.2345 0.0000 -10755.0476 1430.5114 0.0000 0.0000 1715.5058 -7595.7555 291.1574 -9311.2613 -7480.6357 296.7737 -70.2143 -38.2104 30004.1304 22.9956 77.3765
ENERGY: 900000 2.2695 10.0619 5.4736 0.0000 -10835.8104 1541.5547 0.0000 0.0000 1773.1539 -7503.2967 300.9415 -9276.4506 -7471.9588 298.6469 665.1158 763.4222 30098.3819 78.8683 146.2994
ENERGY: 1200000 2.8581 7.4315 3.6618 0.0000 -10573.8203 1340.7525 0.0000 0.0000 1718.3846 -7500.7318 291.6460 -9219.1164 -7469.0161 298.6869 -724.9788 -742.1780 30441.3686 -15.5702 38.7423
ENERGY: 1500000 2.1155 8.0766 4.0152 0.0000 -10667.5931 1410.5937 0.0000 0.0000 1716.8316 -7525.9604 291.3824 -9242.7920 -7463.2645 299.9503 -276.2846 -218.9586 30205.7399 14.5273 74.0318
TCL: Running FEP window  13: Lambda1 0.39999999999999963 Lambda2 0.34999999999999964 [dLambda -0.04999999999999999]
TCL: Setting parameter firsttimestep to 0
TCL: Setting parameter alchLambda to 0.39999999999999963
Info: NONBONDED TABLE R-SQUARED SPACING: 0.0625
Info: NONBONDED TABLE SIZE: 705 POINTS
TCL: Setting parameter alchLambda2 to 0.34999999999999964
Info: NONBONDED TABLE R-SQUARED SPACING: 0.0625
Info: NONBONDED TABLE SIZE: 705 POINTS
TCL: Running for 1500000 steps
ETITLE: TS BOND ANGLE DIHED IMPRP ELECT VDW BOUNDARY MISC KINETIC TOTAL TEMP POTENTIAL TOTALAVG TEMPAVG PRESSURE GPRESSURE VOLUME PRESSAVG GPRESSAVG
ENERGY: 0 2.1155 8.0766 4.0152 0.0000 -10667.5918 1410.7164 0.0000 0.0000 1715.9981 -7526.6698 291.2410 -9242.6679 -7526.6698 291.2410 -310.4077 -222.1709 30205.7399 -310.4077 -222.1709
ENERGY: 300000 2.4331 8.6364 3.5034 0.0000 -10594.2493 1418.4466 0.0000 0.0000 1761.2727 -7399.9571 298.9250 -9161.2299 -7417.2346 296.5835 218.0021 183.1154 30315.1639 65.5821 118.9687
ENERGY: 600000 1.9606 6.7880 4.1044 0.0000 -10698.2097 1490.8190 0.0000 0.0000 1775.2138 -7419.3239 301.2911 -9194.5377 -7416.3563 299.3974 651.0618 679.1848 30245.6885 -12.0960 50.1535
ENERGY: 900000 2.3792 8.8282 5.3300 0.0000 -10569.1735 1435.5404 0.0000 0.0000 1738.6646 -7378.4311 295.0880 -9117.0957 -7418.3086 298.6919 214.1503 213.4950 30422.6920 40.2797 89.0562
ENERGY: 1200000 1.4518 6.0502 3.8980 0.0000 -10606.3994 1420.2786 0.0000 0.0000 1802.7212 -7371.9997 305.9597 -9174.7209 -7423.8511 298.7191 16.7142 -20.5519 30541.9692 45.3262 83.7044
ENERGY: 1500000 1.6036 6.6352 3.1453 0.0000 -10666.3564 1406.2793 0.0000 0.0000 1778.1633 -7470.5296 301.7917 -9248.6929 -7433.7179 299.1679 -461.6616 -351.2877 30335.6441 77.3106 117.1460
TCL: Running FEP window  14: Lambda1 0.34999999999999964 Lambda2 0.29999999999999966 [dLambda -0.04999999999999999]
TCL: Setting parameter firsttimestep to 0
TCL: Setting parameter alchLambda to 0.34999999999999964
Info: NONBONDED TABLE R-SQUARED SPACING: 0.0625
Info: NONBONDED TABLE SIZE: 705 POINTS
TCL: Setting parameter alchLambda2 to 0.29999999999999966
Info: NONBONDED TABLE R-SQUARED SPACING: 0.0625
Info: NONBONDED TABLE SIZE: 705 POINTS
TCL: Running for 1500000 steps
ETITLE: TS BOND ANGLE DIHED IMPRP ELECT VDW BOUNDARY MISC KINETIC TOTAL TEMP POTENTIAL TOTALAVG TEMPAVG PRESSURE GPRESSURE VOLUME PRESSAVG GPRESSAVG
ENERGY: 0 1.6036 6.6352 3.1453 0.0000 -10666.3552 1406.2091 0.0000 0.0000 1777.2713 -7471.4907 301.6403 -9248.7620 -7471.4907 301.6403 -451.0020 -356.4978 30335.6441 -451.0020 -356.4978
ENERGY: 300000 3.5852 7.8134 4.4757 0.0000 -10726.5752 1488.5111 0.0000 0.0000 1840.3653 -7381.8247 312.3487 -9222.1899 -7426.3365 302.6636 469.4731 531.2074 30099.0103 -250.9956 -174.8572
ENERGY: 600000 3.9232 4.4987 4.3314 0.0000 -10707.2277 1461.7897 0.0000 0.0000 1781.2236 -7451.4611 302.3111 -9232.6847 -7443.4177 301.4671 120.8453 184.3042 30384.5179 -55.8783 13.8805
ENERGY: 900000 2.1285 5.3091 3.3861 0.0000 -10732.9313 1513.2995 0.0000 0.0000 1744.8610 -7463.9472 296.1396 -9208.8082 -7440.5136 301.6672 628.8441 664.9736 30398.5269 114.1130 175.6675
ENERGY: 1200000 4.0996 6.2579 3.2354 0.0000 -10455.7201 1305.7034 0.0000 0.0000 1767.3063 -7369.1176 299.9491 -9136.4238 -7444.3491 300.5855 -1014.6802 -964.9225 30855.3838 79.6865 145.3666
ENERGY: 1500000 2.4346 6.3814 4.8172 0.0000 -10681.0085 1402.3793 0.0000 0.0000 1784.1290 -7480.8671 302.8042 -9264.9961 -7442.7578 299.7190 -274.4559 -329.7902 30456.5359 1.2637 62.0497
TCL: Running FEP window  15: Lambda1 0.29999999999999966 Lambda2 0.24999999999999967 [dLambda -0.04999999999999999]
TCL: Setting parameter firsttimestep to 0
TCL: Setting parameter alchLambda to 0.29999999999999966
Info: NONBONDED TABLE R-SQUARED SPACING: 0.0625
Info: NONBONDED TABLE SIZE: 705 POINTS
TCL: Setting parameter alchLambda2 to 0.24999999999999967
Info: NONBONDED TABLE R-SQUARED SPACING: 0.0625
Info: NONBONDED TABLE SIZE: 705 POINTS
TCL: Running for 1500000 steps
ETITLE: TS BOND ANGLE DIHED IMPRP ELECT VDW BOUNDARY MISC KINETIC TOTAL TEMP POTENTIAL TOTALAVG TEMPAVG PRESSURE GPRESSURE VOLUME PRESSAVG GPRESSAVG
ENERGY: 0 2.4346 6.3814 4.8172 0.0000 -10681.0081 1402.6105 0.0000 0.0000 1783.2356 -7481.5289 302.6526 -9264.7645 -7481.5289 302.6526 -414.6282 -333.3532 30456.5359 -414.6282 -333.3532
ENERGY: 300000 3.1159 6.5219 3.5999 0.0000 -10585.7972 1441.3113 0.0000 0.0000 1794.6028 -7336.6454 304.5819 -9131.2482 -7445.9554 299.6631 -131.0642 20.5336 30651.1484 -133.0846 -61.3574
ENERGY: 600000 0.9366 8.2562 3.4976 0.0000 -10735.3160 1478.7917 0.0000 0.0000 1794.4359 -7449.3980 304.5535 -9243.8339 -7457.6669 299.6061 -12.3964 53.4876 30692.4583 -15.2756 66.5775
ENERGY: 900000 2.7678 8.0533 2.9880 0.0000 -10800.4097 1496.2780 0.0000 0.0000 1757.9532 -7532.3694 298.3616 -9290.3226 -7467.4526 299.4336 -305.4335 -239.9856 31053.3912 -149.4494 -79.8936
ENERGY: 1200000 1.4036 8.1744 3.0953 0.0000 -10678.7771 1489.3570 0.0000 0.0000 1805.4151 -7371.3317 306.4169 -9176.7468 -7466.6912 300.4613 172.7516 316.1646 30710.9466 -229.3092 -155.0810
ENERGY: 1500000 0.6600 6.3822 2.9976 0.0000 -10755.7411 1473.7438 0.0000 0.0000 1744.3513 -7527.6063 296.0531 -9271.9576 -7474.0099 299.1869 243.4269 322.8674 30325.6685 -126.1357 -57.4886
TCL: Running FEP window  16: Lambda1 0.24999999999999967 Lambda2 0.19999999999999968 [dLambda -0.04999999999999999]
TCL: Setting parameter firsttimestep to 0
TCL: Setting parameter alchLambda to 0.24999999999999967
Info: NONBONDED TABLE R-SQUARED SPACING: 0.0625
Info: NONBONDED TABLE SIZE: 705 POINTS
TCL: Setting parameter alchLambda2 to 0.19999999999999968
Info: NONBONDED TABLE R-SQUARED SPACING: 0.0625
Info: NONBONDED TABLE SIZE: 705 POINTS
TCL: Running for 1500000 steps
ETITLE: TS BOND ANGLE DIHED IMPRP ELECT VDW BOUNDARY MISC KINETIC TOTAL TEMP POTENTIAL TOTALAVG TEMPAVG PRESSURE GPRESSURE VOLUME PRESSAVG GPRESSAVG
ENERGY: 0 0.6600 6.3822 2.9976 0.0000 -10755.7414 1472.4961 0.0000 0.0000 1743.4824 -7529.7231 295.9057 -9273.2056 -7529.7231 295.9057 232.0639 311.3813 30325.6685 232.0639 311.3813
ENERGY: 300000 1.2916 9.2039 3.0645 0.0000 -10680.3045 1439.8307 0.0000 0.0000 1804.9912 -7421.9227 306.3450 -9226.9139 -7457.3005 303.6072 317.4452 323.5850 30146.1695 181.5841 244.4480
ENERGY: 600000 2.0111 7.9053 3.5977 0.0000 -10562.9286 1389.8373 0.0000 0.0000 1711.1040 -7448.4731 290.4104 -9159.5771 -7454.1389 300.4380 -484.1792 -418.8051 30560.6352 207.9663 278.9677
ENERGY: 900000 4.2902 6.0459 3.0304 0.0000 -10701.2807 1526.2327 0.0000 0.0000 1782.7439 -7378.9375 302.5691 -9161.6814 -7451.1883 299.8179 821.4212 849.0378 30348.3921 163.4466 225.0265
ENERGY: 1200000 1.1270 6.9147 3.5712 0.0000 -10706.0128 1444.0130 0.0000 0.0000 1708.5699 -7541.8170 289.9803 -9250.3869 -7462.4214 298.4575 -43.4571 -17.9908 30323.2759 -16.6938 42.7437
ENERGY: 1500000 1.6771 6.6930 5.1183 0.0000 -10737.5371 1469.6621 0.0000 0.0000 1805.0121 -7449.3746 306.3485 -9254.3866 -7451.6158 299.3620 31.1691 162.9312 30289.9497 57.2312 112.5456
TCL: Running FEP window  17: Lambda1 0.19999999999999968 Lambda2 0.1499999999999997 [dLambda -0.04999999999999999]
TCL: Setting parameter firsttimestep to 0
TCL: Setting parameter alchLambda to 0.19999999999999968
Info: NONBONDED TABLE R-SQUARED SPACING: 0.0625
Info: NONBONDED TABLE SIZE: 705 POINTS
TCL: Setting parameter alchLambda2 to 0.1499999999999997
Info: NONBONDED TABLE R-SQUARED SPACING: 0.0625
Info: NONBONDED TABLE SIZE: 705 POINTS
TCL: Running for 1500000 steps
ETITLE: TS BOND ANGLE DIHED IMPRP ELECT VDW BOUNDARY MISC KINETIC TOTAL TEMP POTENTIAL TOTALAVG TEMPAVG PRESSURE GPRESSURE VOLUME PRESSAVG GPRESSAVG
ENERGY: 0 1.6771 6.6930 5.1183 0.0000 -10737.5356 1469.8222 0.0000 0.0000 1804.1370 -7450.0880 306.2000 -9254.2250 -7450.0880 306.2000 94.7851 158.7700 30289.9497 94.7851 158.7700
ENERGY: 300000 1.6215 9.3597 3.5167 0.0000 -10662.4417 1436.1038 0.0000 0.0000 1770.4752 -7441.3648 300.4869 -9211.8400 -7433.1226 302.1358 88.3900 87.6166 30132.1382 -259.2584 -179.8369
ENERGY: 600000 5.8554 5.6010 3.3642 0.0000 -10728.5244 1488.7982 0.0000 0.0000 1806.9009 -7418.0048 306.6691 -9224.9057 -7413.4398 302.1355 153.3741 208.7181 30458.3831 -108.7230 -38.6390
ENERGY: 900000 1.8272 7.9740 3.3150 0.0000 -10688.0812 1499.4374 0.0000 0.0000 1758.4927 -7417.0349 298.4532 -9175.5277 -7420.7729 302.1362 643.5176 656.8235 30299.3253 -19.0191 44.8353
ENERGY: 1200000 1.3310 9.3889 3.7669 0.0000 -10562.6064 1401.1112 0.0000 0.0000 1780.0735 -7366.9349 302.1159 -9147.0084 -7420.2197 301.5158 -371.8953 -341.2302 30994.4728 -78.1349 -18.2192
ENERGY: 1500000 2.5819 6.6627 3.1621 0.0000 -10600.4377 1394.8993 0.0000 0.0000 1771.1162 -7422.0155 300.5957 -9193.1317 -7426.2901 300.9149 -618.0527 -502.4766 30850.4103 -95.9795 -33.7388
TCL: Running FEP window  18: Lambda1 0.1499999999999997 Lambda2 0.09999999999999969 [dLambda -0.05 ]
TCL: Setting parameter firsttimestep to 0
TCL: Setting parameter alchLambda to 0.1499999999999997
Info: NONBONDED TABLE R-SQUARED SPACING: 0.0625
Info: NONBONDED TABLE SIZE: 705 POINTS
TCL: Setting parameter alchLambda2 to 0.09999999999999969
Info: NONBONDED TABLE R-SQUARED SPACING: 0.0625
Info: NONBONDED TABLE SIZE: 705 POINTS
TCL: Running for 1500000 steps
ETITLE: TS BOND ANGLE DIHED IMPRP ELECT VDW BOUNDARY MISC KINETIC TOTAL TEMP POTENTIAL TOTALAVG TEMPAVG PRESSURE GPRESSURE VOLUME PRESSAVG GPRESSAVG
ENERGY: 0 2.5819 6.6627 3.1621 0.0000 -10600.4376 1395.2936 0.0000 0.0000 1770.2646 -7422.4727 300.4512 -9192.7373 -7422.4727 300.4512 -604.2741 -503.9470 30850.4103 -604.2741 -503.9470
ENERGY: 300000 1.1350 7.3867 3.3569 0.0000 -10530.3337 1388.4383 0.0000 0.0000 1770.4238 -7359.5929 300.4782 -9130.0167 -7425.1101 301.4012 -229.3025 -146.8303 30564.6304 -306.6211 -233.7142
ENERGY: 600000 3.7986 4.9884 3.3109 0.0000 -10582.0744 1356.9125 0.0000 0.0000 1794.4252 -7418.6388 304.5517 -9213.0640 -7425.5538 301.2530 -765.0012 -678.7008 30365.0873 -206.2066 -132.0584
ENERGY: 900000 1.1262 8.6718 3.6461 0.0000 -10545.3804 1351.7245 0.0000 0.0000 1742.5456 -7437.6662 295.7466 -9180.2118 -7417.2580 302.2500 -602.8516 -577.8654 30390.2201 -122.1806 -52.6134
ENERGY: 1200000 1.4011 6.2141 3.0806 0.0000 -10722.6946 1496.4309 0.0000 0.0000 1753.2570 -7462.3109 297.5646 -9215.5680 -7416.1880 302.2673 222.4596 407.4983 30281.4821 -89.8769 -14.2727
ENERGY: 1500000 0.5329 9.9741 4.4786 0.0000 -10663.8114 1442.9275 0.0000 0.0000 1760.6928 -7445.2055 298.8266 -9205.8983 -7421.0200 301.3849 -148.8859 -91.0562 30779.4333 -55.5108 15.2309
TCL: Running FEP window  19: Lambda1 0.09999999999999969 Lambda2 0.049999999999999684 [dLambda -0.05 ]
TCL: Setting parameter firsttimestep to 0
TCL: Setting parameter alchLambda to 0.09999999999999969
Info: NONBONDED TABLE R-SQUARED SPACING: 0.0625
Info: NONBONDED TABLE SIZE: 705 POINTS
TCL: Setting parameter alchLambda2 to 0.049999999999999684
Info: NONBONDED TABLE R-SQUARED SPACING: 0.0625
Info: NONBONDED TABLE SIZE: 705 POINTS
TCL: Running for 1500000 steps
ETITLE: TS BOND ANGLE DIHED IMPRP ELECT VDW BOUNDARY MISC KINETIC TOTAL TEMP POTENTIAL TOTALAVG TEMPAVG PRESSURE GPRESSURE VOLUME PRESSAVG GPRESSAVG
ENERGY: 0 0.5329 9.9741 4.4786 0.0000 -10663.8099 1443.4692 0.0000 0.0000 1759.8250 -7445.5301 298.6793 -9205.3551 -7445.5301 298.6793 -170.0335 -90.3091 30779.4333 -170.0335 -90.3091
ENERGY: 300000 1.9172 5.3599 3.2770 0.0000 -10693.5756 1427.0126 0.0000 0.0000 1756.3090 -7499.6999 298.0826 -9256.0089 -7452.1898 298.9034 -227.6818 -167.0922 30193.8059 -170.8430 -87.1493
ENERGY: 600000 2.0932 8.2536 4.3390 0.0000 -10761.3488 1504.7237 0.0000 0.0000 1794.1382 -7447.8012 304.5030 -9241.9393 -7469.1164 298.1104 354.3434 460.8800 30261.9149 -60.4181 14.9473
ENERGY: 900000 2.0794 8.0903 3.7955 0.0000 -10696.0468 1464.9617 0.0000 0.0000 1777.7359 -7439.3841 301.7192 -9217.1200 -7467.1354 298.9548 136.2862 152.8243 30554.2982 5.6812 78.6802
ENERGY: 1200000 2.2849 10.7752 4.5552 0.0000 -10776.7015 1539.2350 0.0000 0.0000 1731.9009 -7487.9502 293.9400 -9219.8511 -7460.0692 299.0094 750.5637 783.0681 30108.8446 14.8532 82.3595
ENERGY: 1500000 7.7225 8.4836 3.8135 0.0000 -10772.0357 1484.5591 0.0000 0.0000 1766.4265 -7501.0305 299.7998 -9267.4570 -7456.1510 298.9415 -227.1433 -115.4814 30288.2265 42.4445 115.2142
TCL: Running FEP window  20: Lambda1 0.049999999999999684 Lambda2 0.0    [dLambda -0.049999999999999684]
TCL: Setting parameter firsttimestep to 0
TCL: Setting parameter alchLambda to 0.049999999999999684
Info: NONBONDED TABLE R-SQUARED SPACING: 0.0625
Info: NONBONDED TABLE SIZE: 705 POINTS
TCL: Setting parameter alchLambda2 to 0.0
Info: NONBONDED TABLE R-SQUARED SPACING: 0.0625
Info: NONBONDED TABLE SIZE: 705 POINTS
TCL: Running for 1500000 steps
ETITLE: TS BOND ANGLE DIHED IMPRP ELECT VDW BOUNDARY MISC KINETIC TOTAL TEMP POTENTIAL TOTALAVG TEMPAVG PRESSURE GPRESSURE VOLUME PRESSAVG GPRESSAVG
ENERGY: 0 7.7224 8.4836 3.8135 0.0000 -10772.0361 1484.1512 0.0000 0.0000 1765.5430 -7502.3223 299.6498 -9267.8654 -7502.3223 299.6498 -196.0329 -116.8422 30288.2265 -196.0329 -116.8422
ENERGY: 300000 2.8671 7.9580 3.2917 0.0000 -10729.1640 1485.4271 0.0000 0.0000 1794.0196 -7435.6004 304.4829 -9229.6200 -7483.0631 301.8772 238.0633 279.9366 30309.0470 -137.2683 -50.2013
ENERGY: 600000 1.3797 8.7464 3.3800 0.0000 -10713.1015 1440.6640 0.0000 0.0000 1748.8661 -7510.0653 296.8194 -9258.9315 -7473.9151 300.5916 -464.8973 -373.4918 30348.0027 -137.9078 -66.2154
ENERGY: 900000 1.4557 5.4013 3.7929 0.0000 -10735.8252 1473.0490 0.0000 0.0000 1738.2811 -7513.8452 295.0229 -9252.1263 -7467.0347 300.3845 117.1327 169.6279 30308.2996 -78.5753 -13.2162
ENERGY: 1200000 2.8267 4.8911 3.5032 0.0000 -10667.8150 1458.9717 0.0000 0.0000 1829.7569 -7367.8654 310.5483 -9197.6223 -7465.3762 300.6176 78.6146 169.0210 30524.0167 -72.3684 -12.3661
ENERGY: 1500000 3.1668 5.1227 3.2472 0.0000 -10707.3788 1530.0675 0.0000 0.0000 1817.3448 -7348.4298 308.4417 -9165.7746 -7456.6485 301.2779 832.4125 872.8683 30135.3986 -5.1870 48.4068
TCL: Exiting due to exit command.
