Info: SIMULATION PARAMETERS:
Info: TIMESTEP               2
Info: NUMBER OF STEPS        0
Info: STEPS PER CYCLE        10
Info: PERIODIC CELL BASIS 1  30.4084 0 0
Info: PERIODIC CELL BASIS 2  0 31.3507 0
Info: PERIODIC CELL BASIS 3  0 0 32.1792
Info: PERIODIC CELL CENTER   0 0 0
Info: WRAPPING WATERS AROUND PERIODIC BOUNDARIES ON OUTPUT.
Info: WRAPPING ALL CLUSTERS AROUND PERIODIC BOUNDARIES ON OUTPUT.
Info: FIRST LDB TIMESTEP     50
Info: LAST LDB TIMESTEP     -1
Info: HOM BACKGROUND SCALING 1
Info: PME BACKGROUND SCALING 1
Info: MIN ATOMS PER PATCH    40
Info: EMPTY PATCH LOAD       40 ATOMS
Info: VELOCITY FILE          mobley_337666_equil.vel
Info: CENTER OF MASS MOVING INITIALLY? NO
Info: DIELECTRIC             1
Info: EXCLUDE                SCALED ONE-FOUR
Info: 1-4 ELECTROSTATICS SCALED BY 0.833333
Info: MODIFIED 1-4 VDW PARAMETERS WILL BE USED
Info: DCD FILENAME           mobley_337666_prod.dcd
Info: DCD FREQUENCY          100000
Info: DCD FIRST STEP         100000
Info: DCD FILE WILL CONTAIN UNIT CELL DATA
Info: XST FILENAME           mobley_337666_prod.xst
Info: XST FREQUENCY          100000
Info: NO VELOCITY DCD OUTPUT
Info: NO FORCE DCD OUTPUT
Info: OUTPUT FILENAME        mobley_337666_prod
Info: BINARY OUTPUT FILES WILL BE USED
Info: RESTART FILENAME       mobley_337666_prod.restart
Info: RESTART FREQUENCY      100000
Info: BINARY RESTART FILES WILL BE USED
Info: CUTOFF                 9
Info: PAIRLIST DISTANCE      11
Info: PAIRLIST SHRINK RATE   0.01
Info: PAIRLIST GROW RATE     0.01
Info: PAIRLIST TRIGGER       0.3
Info: PAIRLISTS PER CYCLE    2
Info: PAIRLISTS ENABLED
Info: MARGIN                 2
Info: HYDROGEN GROUP CUTOFF  2.5
Info: PATCH DIMENSION        15.5
Info: ENERGY OUTPUT STEPS    100000
Info: ENERGY EVALUATION STEPS    100000
Info: OUTPUT ENERGY PRECISION 4
Info: CROSSTERM ENERGY INCLUDED IN DIHEDRAL
Info: TIMING OUTPUT STEPS    1000000
Info: PRESSURE OUTPUT STEPS  100000
Info: ALCHEMICAL FEP ON
Info: FEP CURRENT LAMBDA VALUE     1
Info: FEP COMPARISON LAMBDA VALUE  0.95
Info: FEP INTRA-ALCHEMICAL NON-BONDED INTERACTIONS WILL BE RETAINED
Info: FEP INTRA-ALCHEMICAL BONDED INTERACTIONS WILL BE RETAINED
Info: FEP VDW SHIFTING COEFFICIENT 5
Info: FEP ELEC. ACTIVE FOR ANNIHILATED PARTICLES BETWEEN LAMBDA = 0 AND LAMBDA = 0.5
Info: FEP ELEC. ACTIVE FOR EXNIHILATED PARTICLES BETWEEN LAMBDA = 0.5 AND LAMBDA = 1
Info: FEP VDW ACTIVE FOR ANNIHILATED PARTICLES BETWEEN LAMBDA = 0 AND LAMBDA = 1
Info: FEP VDW ACTIVE FOR EXNIHILATED PARTICLES BETWEEN LAMBDA = 0 AND LAMBDA = 1
Info: FEP BOND ACTIVE FOR ANNIHILATED PARTICLES BETWEEN LAMBDA = 1 AND LAMBDA = 1
Info: FEP BOND ACTIVE FOR EXNIHILATED PARTICLES BETWEEN LAMBDA = 0 AND LAMBDA = 0
Info: LANGEVIN DYNAMICS ACTIVE
Info: LANGEVIN TEMPERATURE   300
Info: LANGEVIN USING BBK INTEGRATOR
Info: LANGEVIN DAMPING COEFFICIENT IS 1 INVERSE PS
Info: LANGEVIN DYNAMICS APPLIED TO HYDROGENS
Info: LANGEVIN PISTON PRESSURE CONTROL ACTIVE
Info:        TARGET PRESSURE IS 1.01325 BAR
Info:     OSCILLATION PERIOD IS 50 FS
Info:             DECAY TIME IS 25 FS
Info:     PISTON TEMPERATURE IS 300 K
Info:       PRESSURE CONTROL IS GROUP-BASED
Info:    INITIAL STRAIN RATE IS 0.000319593 0.000319593 0.000319593
Info:       CELL FLUCTUATION IS ISOTROPIC
Info: PARTICLE MESH EWALD (PME) ACTIVE
Info: PME TOLERANCE               1e-06
Info: PME EWALD COEFFICIENT       0.348832
Info: PME INTERPOLATION ORDER     4
Info: PME GRID DIMENSIONS         32 32 36
Info: PME MAXIMUM GRID SPACING    1
Info: PME CALCULATION WILL BE PERFORMED ON GPU
Info: FULL ELECTROSTATIC EVALUATION FREQUENCY      2
Info: USING VERLET I (r-RESPA) MTS SCHEME.
Info: C1 SPLITTING OF LONG RANGE ELECTROSTATICS
Info: PLACING ATOMS IN PATCHES BY HYDROGEN GROUPS
Info: RIGID BONDS TO HYDROGEN : ALL
Info:         ERROR TOLERANCE : 1e-08
Info:          MAX ITERATIONS : 100
Info: RIGID WATER USING SETTLE ALGORITHM
Info: RANDOM NUMBER SEED     1743540282
Info: USE HYDROGEN BONDS?    NO
Info: Using AMBER format force field!
Info: AMBER PARM FILE        mobley_337666.prmtop
Info: COORDINATE PDB         mobley_337666.pdb
Info: Exclusions will be read from PARM file!
Info: SCNB (VDW SCALING)     2
Info: USING ARITHMETIC MEAN TO COMBINE L-J SIGMA PARAMETERS
Info: BINARY COORDINATES     mobley_337666_equil.coor
Info: SUMMARY OF PARAMETERS:
Info: 10 BONDS
Info: 14 ANGLES
Info:   14 HARMONIC
Info:   0 COSINE-BASED
Info: 7 DIHEDRAL
Info: 0 IMPROPER
Info: 0 CROSSTERM
Info: 0 VDW
Info: 36 VDW_PAIRS
Info: 0 NBTHOLE_PAIRS
Info: To read alchdata from file: mobley_337666.pdb
Info: To read alchflag data from column: 5
Info: STRUCTURE SUMMARY:
Info: 2952 ATOMS
Info: 2952 BONDS
Info: 18 ANGLES
Info: 33 DIHEDRALS
Info: 0 IMPROPERS
Info: 0 CROSSTERMS
Info: 2991 EXCLUSIONS
Info: 2943 RIGID BONDS
Info: ALCH: 0 ATOMS TO DISAPPEAR IN FINAL STATE
Info: ALCH: 12 ATOMS TO APPEAR IN FINAL STATE
Info: 5913 DEGREES OF FREEDOM
Info: 989 HYDROGEN GROUPS
Info: 3 ATOMS IN LARGEST HYDROGEN GROUP
Info: 989 MIGRATION GROUPS
Info: 3 ATOMS IN LARGEST MIGRATION GROUP
Info: TOTAL MASS = 17785.8 amu
Info: TOTAL CHARGE = -0.000200007 e
Info: MASS DENSITY = 0.962753 g/cm^3
Info: ATOM DENSITY = 0.0962275 atoms/A^3
Info: ADDED 0 IMPLICIT EXCLUSIONS
Info: NONBONDED TABLE R-SQUARED SPACING: 0.0625
Info: NONBONDED TABLE SIZE: 705 POINTS
Info: REMOVING COM VELOCITY 0.103299 0.0366531 0.111966
Info: Use 3D box decompostion in PME FFT.
Info: Updated CUDA force table with 4096 elements.
Info: Updated CUDA LJ table with 8 x 8 elements.
Info: Found 14 unique exclusion lists needing 24 bytes
TCL: Running for 1500000 steps
ETITLE: TS BOND ANGLE DIHED IMPRP ELECT VDW BOUNDARY MISC KINETIC TOTAL TEMP POTENTIAL TOTALAVG TEMPAVG PRESSURE GPRESSURE VOLUME PRESSAVG GPRESSAVG
ENERGY: 0 4.3134 1.4806 15.9367 0.0000 -10836.1333 1473.3381 0.0000 0.0000 1800.3637 -7540.7007 306.4381 -9341.0644 -7540.7007 306.4381 320.4330 381.0800 30677.2870 320.4330 381.0800
ENERGY: 300000 3.2493 3.3068 15.8232 0.0000 -10939.8716 1487.0980 0.0000 0.0000 1773.0083 -7657.3860 301.7820 -9430.3943 -7623.9949 299.6096 308.8909 297.0580 30467.5914 324.3188 380.4609
ENERGY: 600000 3.1931 2.4320 19.8151 0.0000 -10916.3280 1492.2680 0.0000 0.0000 1802.4911 -7596.1286 306.8002 -9398.6197 -7608.2924 302.0257 273.2332 278.4141 30502.4717 271.9677 331.6111
ENERGY: 900000 2.8436 3.0273 14.0194 0.0000 -10720.5226 1366.5446 0.0000 0.0000 1794.7021 -7539.3857 305.4744 -9334.0877 -7604.1695 300.9570 -148.3864 -74.6933 30121.2460 155.3719 210.3569
ENERGY: 1200000 3.9689 3.4653 16.0652 0.0000 -10827.7427 1433.1503 0.0000 0.0000 1805.5010 -7565.5920 307.3125 -9371.0931 -7611.6278 301.3451 147.3359 206.5285 30394.0563 105.0294 155.1534
ENERGY: 1500000 2.4656 4.7069 15.3096 0.0000 -10780.9405 1324.5049 0.0000 0.0000 1755.7302 -7678.2232 298.8411 -9433.9535 -7608.4102 301.8093 -935.0020 -908.1002 30311.4340 -55.6748 -6.5663
TCL: Running FEP window   2: Lambda1 0.95   Lambda2 0.8999999999999999 [dLambda -0.050000000000000044]
TCL: Setting parameter firsttimestep to 0
TCL: Setting parameter alchLambda to 0.95
Info: NONBONDED TABLE R-SQUARED SPACING: 0.0625
Info: NONBONDED TABLE SIZE: 705 POINTS
TCL: Setting parameter alchLambda2 to 0.8999999999999999
Info: NONBONDED TABLE R-SQUARED SPACING: 0.0625
Info: NONBONDED TABLE SIZE: 705 POINTS
TCL: Running for 1500000 steps
ETITLE: TS BOND ANGLE DIHED IMPRP ELECT VDW BOUNDARY MISC KINETIC TOTAL TEMP POTENTIAL TOTALAVG TEMPAVG PRESSURE GPRESSURE VOLUME PRESSAVG GPRESSAVG
ENERGY: 0 2.4656 4.7069 15.3096 0.0000 -10777.2907 1323.9340 0.0000 0.0000 1754.8261 -7676.0485 298.6872 -9430.8746 -7676.0485 298.6872 -1008.6597 -921.6196 30311.4340 -1008.6597 -921.6196
ENERGY: 300000 3.9349 9.3670 14.3212 0.0000 -10740.6259 1310.6379 0.0000 0.0000 1810.8588 -7591.5061 308.2245 -9402.3650 -7634.5612 300.4438 -1026.6971 -1058.6740 30537.7064 -593.6676 -558.8245
ENERGY: 600000 3.0878 3.9983 15.0185 0.0000 -10971.1540 1487.1944 0.0000 0.0000 1732.0860 -7729.7691 294.8166 -9461.8551 -7658.1127 299.1316 118.5779 203.0139 30491.7949 -317.1675 -273.2390
ENERGY: 900000 5.6757 6.0126 13.8533 0.0000 -10606.8857 1235.0650 0.0000 0.0000 1770.0849 -7576.1941 301.2844 -9346.2791 -7631.1367 301.3398 -1694.1892 -1623.6926 30904.2066 -430.3547 -368.9352
ENERGY: 1200000 3.3479 3.9661 16.6748 0.0000 -10735.8861 1339.7171 0.0000 0.0000 1732.4729 -7639.7073 294.8825 -9372.1803 -7628.8397 300.5737 -858.1274 -800.9977 30543.9810 -472.2177 -413.3149
ENERGY: 1500000 0.8012 1.9069 15.6461 0.0000 -11070.3925 1552.0865 0.0000 0.0000 1788.8096 -7711.1423 304.4715 -9499.9519 -7633.9109 299.9883 751.0208 864.5481 30018.6778 -392.5026 -332.2998
TCL: Running FEP window   3: Lambda1 0.8999999999999999 Lambda2 0.8499999999999999 [dLambda -0.050000000000000044]
TCL: Setting parameter firsttimestep to 0
TCL: Setting parameter alchLambda to 0.8999999999999999
Info: NONBONDED TABLE R-SQUARED SPACING: 0.0625
Info: NONBONDED TABLE SIZE: 705 POINTS
TCL: Setting parameter alchLambda2 to 0.8499999999999999
Info: NONBONDED TABLE R-SQUARED SPACING: 0.0625
Info: NONBONDED TABLE SIZE: 705 POINTS
TCL: Running for 1500000 steps
ETITLE: TS BOND ANGLE DIHED IMPRP ELECT VDW BOUNDARY MISC KINETIC TOTAL TEMP POTENTIAL TOTALAVG TEMPAVG PRESSURE GPRESSURE VOLUME PRESSAVG GPRESSAVG
ENERGY: 0 0.8012 1.9069 15.6461 0.0000 -11066.2523 1551.0364 0.0000 0.0000 1787.8924 -7708.9693 304.3154 -9496.8618 -7708.9693 304.3154 760.3299 843.5134 30018.6778 760.3299 843.5134
ENERGY: 300000 2.3848 3.4740 13.7332 0.0000 -10831.3673 1492.8137 0.0000 0.0000 1772.3244 -7546.6372 301.6656 -9318.9616 -7625.8351 302.7916 766.8003 811.6647 30256.0364 45.2417 106.6906
ENERGY: 600000 3.5703 2.0860 16.5349 0.0000 -10636.1854 1319.2227 0.0000 0.0000 1798.1628 -7496.6087 306.0635 -9294.7716 -7600.9392 304.3008 -737.6760 -697.5681 30563.8717 -21.7802 33.9750
ENERGY: 900000 3.3193 3.6807 15.0346 0.0000 -10910.1182 1448.2730 0.0000 0.0000 1734.6217 -7705.1888 295.2482 -9439.8106 -7610.4416 303.6590 -22.6846 62.3959 30021.7266 -65.0946 -7.8023
ENERGY: 1200000 4.0003 3.2985 13.9510 0.0000 -10961.9718 1484.8491 0.0000 0.0000 1751.1257 -7704.7472 298.0574 -9455.8729 -7626.9206 302.3196 409.4716 510.7169 29505.5942 -99.0888 -29.2066
ENERGY: 1500000 4.0588 2.7705 13.7431 0.0000 -11006.7985 1487.4298 0.0000 0.0000 1781.3436 -7717.4527 303.2007 -9498.7963 -7630.8918 301.3264 42.1259 204.8733 30140.1182 -17.4971 56.0629
TCL: Running FEP window   4: Lambda1 0.8499999999999999 Lambda2 0.7999999999999998 [dLambda -0.050000000000000044]
TCL: Setting parameter firsttimestep to 0
TCL: Setting parameter alchLambda to 0.8499999999999999
Info: NONBONDED TABLE R-SQUARED SPACING: 0.0625
Info: NONBONDED TABLE SIZE: 705 POINTS
TCL: Setting parameter alchLambda2 to 0.7999999999999998
Info: NONBONDED TABLE R-SQUARED SPACING: 0.0625
Info: NONBONDED TABLE SIZE: 705 POINTS
TCL: Running for 1500000 steps
ETITLE: TS BOND ANGLE DIHED IMPRP ELECT VDW BOUNDARY MISC KINETIC TOTAL TEMP POTENTIAL TOTALAVG TEMPAVG PRESSURE GPRESSURE VOLUME PRESSAVG GPRESSAVG
ENERGY: 0 4.0588 2.7705 13.7431 0.0000 -11002.1270 1485.3050 0.0000 0.0000 1780.4164 -7715.8332 303.0429 -9496.2496 -7715.8332 303.0429 69.4425 180.8695 30140.1182 69.4425 180.8695
ENERGY: 300000 3.0728 5.8388 15.8081 0.0000 -10907.2840 1482.2033 0.0000 0.0000 1786.3573 -7614.0038 304.0541 -9400.3611 -7642.6696 300.8628 252.3315 285.4968 30758.1172 328.9137 401.7751
ENERGY: 600000 7.3785 3.3569 13.6726 0.0000 -10839.0925 1400.1121 0.0000 0.0000 1800.2968 -7614.2755 306.4267 -9414.5723 -7647.2736 300.8441 -406.7559 -363.4153 30337.4202 104.5666 174.3120
ENERGY: 900000 5.7504 3.8801 14.9027 0.0000 -10669.8126 1317.0284 0.0000 0.0000 1738.7236 -7589.5274 295.9464 -9328.2510 -7624.4850 300.5049 -1064.0889 -1018.4135 30957.6717 -141.6278 -78.7300
ENERGY: 1200000 4.7829 2.5802 13.4652 0.0000 -10818.0098 1466.3579 0.0000 0.0000 1727.4675 -7603.3561 294.0305 -9330.8236 -7618.7704 300.3131 711.5517 752.0672 30020.2115 -82.9806 -31.3094
ENERGY: 1500000 3.6598 3.8254 13.7920 0.0000 -10926.3477 1469.2209 0.0000 0.0000 1759.3917 -7676.4578 299.4643 -9435.8494 -7636.0235 299.3157 145.4799 155.2096 30159.4876 33.9195 89.4568
TCL: Running FEP window   5: Lambda1 0.7999999999999998 Lambda2 0.7499999999999998 [dLambda -0.050000000000000044]
TCL: Setting parameter firsttimestep to 0
TCL: Setting parameter alchLambda to 0.7999999999999998
Info: NONBONDED TABLE R-SQUARED SPACING: 0.0625
Info: NONBONDED TABLE SIZE: 705 POINTS
TCL: Setting parameter alchLambda2 to 0.7499999999999998
Info: NONBONDED TABLE R-SQUARED SPACING: 0.0625
Info: NONBONDED TABLE SIZE: 705 POINTS
TCL: Running for 1500000 steps
ETITLE: TS BOND ANGLE DIHED IMPRP ELECT VDW BOUNDARY MISC KINETIC TOTAL TEMP POTENTIAL TOTALAVG TEMPAVG PRESSURE GPRESSURE VOLUME PRESSAVG GPRESSAVG
ENERGY: 0 3.6598 3.8254 13.7920 0.0000 -10922.8099 1468.6737 0.0000 0.0000 1758.5365 -7674.3223 299.3187 -9432.8588 -7674.3223 299.3187 59.7159 145.1080 30159.4876 59.7159 145.1080
ENERGY: 300000 2.2059 10.6816 14.2192 0.0000 -10918.0034 1440.8089 0.0000 0.0000 1755.0257 -7695.0620 298.7212 -9450.0877 -7677.1289 299.7986 -22.3908 49.7630 29745.3949 95.8085 169.9050
ENERGY: 600000 0.9513 2.1684 13.8581 0.0000 -10726.9079 1391.1671 0.0000 0.0000 1816.4726 -7502.2904 309.1800 -9318.7630 -7628.7148 300.8181 -266.7944 -235.3068 30337.6150 88.7744 152.9738
ENERGY: 900000 5.2343 4.2367 14.3678 0.0000 -10719.0458 1342.4785 0.0000 0.0000 1810.0734 -7542.6551 308.0908 -9352.7285 -7625.3827 300.2947 -1012.3938 -967.3585 30881.5175 -112.4137 -48.1521
ENERGY: 1200000 2.5946 3.5426 13.1295 0.0000 -10792.5311 1478.8535 0.0000 0.0000 1753.8275 -7540.5836 298.5172 -9294.4110 -7616.2050 300.0659 720.9158 792.9359 30280.0061 -51.7595 6.4698
ENERGY: 1500000 3.5111 2.9424 13.4907 0.0000 -10766.3854 1422.6852 0.0000 0.0000 1772.2983 -7551.4575 301.6611 -9323.7559 -7613.2096 300.9203 257.0593 341.7845 30322.2460 -11.6026 48.1813
TCL: Running FEP window   6: Lambda1 0.7499999999999998 Lambda2 0.6999999999999997 [dLambda -0.050000000000000044]
TCL: Setting parameter firsttimestep to 0
TCL: Setting parameter alchLambda to 0.7499999999999998
Info: NONBONDED TABLE R-SQUARED SPACING: 0.0625
Info: NONBONDED TABLE SIZE: 705 POINTS
TCL: Setting parameter alchLambda2 to 0.6999999999999997
Info: NONBONDED TABLE R-SQUARED SPACING: 0.0625
Info: NONBONDED TABLE SIZE: 705 POINTS
TCL: Running for 1500000 steps
ETITLE: TS BOND ANGLE DIHED IMPRP ELECT VDW BOUNDARY MISC KINETIC TOTAL TEMP POTENTIAL TOTALAVG TEMPAVG PRESSURE GPRESSURE VOLUME PRESSAVG GPRESSAVG
ENERGY: 0 3.5111 2.9425 13.4907 0.0000 -10762.6232 1421.8845 0.0000 0.0000 1771.4123 -7549.3821 301.5103 -9320.7944 -7549.3821 301.5103 253.7742 331.9558 30322.2460 253.7742 331.9558
ENERGY: 300000 2.4602 2.3459 13.2579 0.0000 -10926.9803 1457.5084 0.0000 0.0000 1781.4288 -7669.9792 303.2152 -9451.4079 -7622.7320 300.4113 -122.4657 -11.6911 30362.1727 101.5148 177.1114
ENERGY: 600000 1.4510 1.3355 13.7563 0.0000 -10772.4272 1461.4238 0.0000 0.0000 1763.9444 -7530.5162 300.2392 -9294.4607 -7600.4722 301.3136 78.3709 130.0265 30804.1578 122.4406 190.2474
ENERGY: 900000 1.9816 4.6835 13.4901 0.0000 -10904.9960 1516.7465 0.0000 0.0000 1794.1364 -7573.9578 305.3782 -9368.0943 -7633.4440 299.8233 511.0089 625.7291 30519.2533 10.2201 84.9812
ENERGY: 1200000 2.4655 3.8940 14.6050 0.0000 -10832.5542 1397.9775 0.0000 0.0000 1695.8330 -7717.7793 288.6460 -9413.6123 -7625.2433 300.6319 -679.3372 -640.3361 30715.5571 -68.8059 15.2070
ENERGY: 1500000 2.7560 4.6621 14.3273 0.0000 -10806.2626 1387.6955 0.0000 0.0000 1766.3340 -7630.4877 300.6459 -9396.8217 -7628.0474 300.9441 -704.1945 -626.1154 30851.3664 -109.3999 -31.4045
TCL: Running FEP window   7: Lambda1 0.6999999999999997 Lambda2 0.6499999999999997 [dLambda -0.050000000000000044]
TCL: Setting parameter firsttimestep to 0
TCL: Setting parameter alchLambda to 0.6999999999999997
Info: NONBONDED TABLE R-SQUARED SPACING: 0.0625
Info: NONBONDED TABLE SIZE: 705 POINTS
TCL: Setting parameter alchLambda2 to 0.6499999999999997
Info: NONBONDED TABLE R-SQUARED SPACING: 0.0625
Info: NONBONDED TABLE SIZE: 705 POINTS
TCL: Running for 1500000 steps
ETITLE: TS BOND ANGLE DIHED IMPRP ELECT VDW BOUNDARY MISC KINETIC TOTAL TEMP POTENTIAL TOTALAVG TEMPAVG PRESSURE GPRESSURE VOLUME PRESSAVG GPRESSAVG
ENERGY: 0 2.7560 4.6621 14.3273 0.0000 -10803.8585 1387.7187 0.0000 0.0000 1765.4404 -7628.9540 300.4938 -9394.3944 -7628.9540 300.4938 -716.3470 -629.4189 30851.3664 -716.3470 -629.4189
ENERGY: 300000 4.5088 6.1423 14.1372 0.0000 -10751.0833 1431.9321 0.0000 0.0000 1793.3310 -7501.0319 305.2411 -9294.3629 -7587.1981 303.7029 40.9028 79.1132 30340.5753 -338.6159 -281.7757
ENERGY: 600000 3.7958 5.8718 13.3255 0.0000 -10875.1931 1499.9764 0.0000 0.0000 1800.5648 -7551.6587 306.4723 -9352.2235 -7598.1542 302.3694 590.8644 660.9779 30583.9467 -90.6752 -31.0612
ENERGY: 900000 4.2398 3.1274 15.1629 0.0000 -10741.3028 1350.7462 0.0000 0.0000 1759.8647 -7608.1618 299.5448 -9368.0265 -7595.1612 301.9452 -749.2683 -747.3920 30568.5347 -67.8708 -17.5431
ENERGY: 1200000 2.5696 2.1632 14.1037 0.0000 -10825.9552 1441.4893 0.0000 0.0000 1746.2207 -7619.4087 297.2225 -9365.6294 -7599.7149 301.4116 116.6046 221.1772 30061.6066 -112.7117 -58.5226
ENERGY: 1500000 1.7178 5.7408 14.1964 0.0000 -10801.9308 1368.6502 0.0000 0.0000 1800.1704 -7611.4553 306.4052 -9411.6256 -7597.1960 301.6333 -735.1478 -655.9267 30514.9268 -148.2331 -89.5757
TCL: Running FEP window   8: Lambda1 0.6499999999999997 Lambda2 0.5999999999999996 [dLambda -0.050000000000000044]
TCL: Setting parameter firsttimestep to 0
TCL: Setting parameter alchLambda to 0.6499999999999997
Info: NONBONDED TABLE R-SQUARED SPACING: 0.0625
Info: NONBONDED TABLE SIZE: 705 POINTS
TCL: Setting parameter alchLambda2 to 0.5999999999999996
Info: NONBONDED TABLE R-SQUARED SPACING: 0.0625
Info: NONBONDED TABLE SIZE: 705 POINTS
TCL: Running for 1500000 steps
ETITLE: TS BOND ANGLE DIHED IMPRP ELECT VDW BOUNDARY MISC KINETIC TOTAL TEMP POTENTIAL TOTALAVG TEMPAVG PRESSURE GPRESSURE VOLUME PRESSAVG GPRESSAVG
ENERGY: 0 1.7178 5.7408 14.1964 0.0000 -10799.5240 1369.0797 0.0000 0.0000 1799.3269 -7609.4625 306.2616 -9408.7894 -7609.4625 306.2616 -733.4379 -654.5376 30514.9268 -733.4379 -654.5376
ENERGY: 300000 6.2823 5.5023 13.5521 0.0000 -10795.3375 1443.6255 0.0000 0.0000 1770.7232 -7555.6520 301.3930 -9326.3752 -7615.9012 303.4447 311.4178 383.0691 30179.6145 -39.7879 9.3768
ENERGY: 600000 3.7691 4.8967 14.9255 0.0000 -10793.7001 1399.9319 0.0000 0.0000 1775.6040 -7594.5730 302.2238 -9370.1770 -7593.3113 302.3417 -491.0732 -409.3819 30266.8076 -54.2748 11.2115
ENERGY: 900000 5.0017 4.6565 15.3931 0.0000 -10761.7066 1420.8747 0.0000 0.0000 1771.6630 -7544.1176 301.5530 -9315.7806 -7586.6514 301.9164 -231.9560 -136.2595 30781.5609 -57.5063 3.7705
ENERGY: 1200000 3.7948 1.7744 14.1236 0.0000 -10800.9228 1382.4637 0.0000 0.0000 1786.5454 -7612.2209 304.0861 -9398.7663 -7592.0500 301.5710 -579.2830 -522.2525 30383.7826 -94.3750 -37.2045
ENERGY: 1500000 1.4436 3.2299 15.4363 0.0000 -10934.6563 1476.2331 0.0000 0.0000 1743.1738 -7695.1397 296.7039 -9438.3135 -7611.2781 300.6957 132.4603 170.1450 29966.4244 -104.1490 -49.3040
TCL: Running FEP window   9: Lambda1 0.5999999999999996 Lambda2 0.5499999999999996 [dLambda -0.050000000000000044]
TCL: Setting parameter firsttimestep to 0
TCL: Setting parameter alchLambda to 0.5999999999999996
Info: NONBONDED TABLE R-SQUARED SPACING: 0.0625
Info: NONBONDED TABLE SIZE: 705 POINTS
TCL: Setting parameter alchLambda2 to 0.5499999999999996
Info: NONBONDED TABLE R-SQUARED SPACING: 0.0625
Info: NONBONDED TABLE SIZE: 705 POINTS
TCL: Running for 1500000 steps
ETITLE: TS BOND ANGLE DIHED IMPRP ELECT VDW BOUNDARY MISC KINETIC TOTAL TEMP POTENTIAL TOTALAVG TEMPAVG PRESSURE GPRESSURE VOLUME PRESSAVG GPRESSAVG
ENERGY: 0 1.4436 3.2299 15.4363 0.0000 -10933.5793 1476.3938 0.0000 0.0000 1742.3027 -7694.7731 296.5556 -9437.0759 -7694.7731 296.5556 61.1478 161.8727 29966.4244 61.1478 161.8727
ENERGY: 300000 1.8124 4.6211 14.6590 0.0000 -10762.8163 1402.2858 0.0000 0.0000 1792.4461 -7546.9919 305.0904 -9339.4380 -7641.4306 299.8940 -501.5989 -388.9553 30654.1670 -192.9943 -122.2311
ENERGY: 600000 3.7171 5.5404 13.3158 0.0000 -10802.6249 1444.3236 0.0000 0.0000 1790.6597 -7545.0684 304.7864 -9335.7281 -7584.1925 303.0400 224.4104 229.4674 30142.8180 -136.7202 -87.6802
ENERGY: 900000 2.3465 4.7668 14.7208 0.0000 -10888.4959 1484.4202 0.0000 0.0000 1780.0314 -7602.2102 302.9774 -9382.2416 -7592.3947 301.7175 661.6253 727.5120 29778.4844 -59.2154 -0.5584
ENERGY: 1200000 3.0723 3.7429 14.0315 0.0000 -10956.4246 1461.5964 0.0000 0.0000 1762.0510 -7711.9305 299.9169 -9473.9815 -7602.0030 301.2313 228.7782 297.3670 29733.4429 -65.3207 -4.3335
ENERGY: 1500000 4.8135 4.1026 14.2709 0.0000 -10770.0052 1396.9326 0.0000 0.0000 1718.9376 -7630.9481 292.5786 -9349.8857 -7607.8799 299.9936 -283.1680 -204.3757 30527.8440 -32.8447 26.1239
TCL: Running FEP window  10: Lambda1 0.5499999999999996 Lambda2 0.4999999999999996 [dLambda -0.04999999999999999]
TCL: Setting parameter firsttimestep to 0
TCL: Setting parameter alchLambda to 0.5499999999999996
Info: NONBONDED TABLE R-SQUARED SPACING: 0.0625
Info: NONBONDED TABLE SIZE: 705 POINTS
TCL: Setting parameter alchLambda2 to 0.4999999999999996
Info: NONBONDED TABLE R-SQUARED SPACING: 0.0625
Info: NONBONDED TABLE SIZE: 705 POINTS
TCL: Running for 1500000 steps
ETITLE: TS BOND ANGLE DIHED IMPRP ELECT VDW BOUNDARY MISC KINETIC TOTAL TEMP POTENTIAL TOTALAVG TEMPAVG PRESSURE GPRESSURE VOLUME PRESSAVG GPRESSAVG
ENERGY: 0 4.8134 4.1026 14.2709 0.0000 -10768.7822 1396.8099 0.0000 0.0000 1718.0737 -7630.7118 292.4316 -9348.7854 -7630.7118 292.4316 -290.2861 -212.4260 30527.8440 -290.2861 -212.4260
ENERGY: 300000 3.4051 2.6527 14.6199 0.0000 -10882.6621 1454.0136 0.0000 0.0000 1730.3306 -7677.6400 294.5178 -9407.9707 -7600.7411 299.1486 -79.0669 -18.7337 30415.0506 -186.2923 -134.8925
ENERGY: 600000 2.9688 3.2249 12.4588 0.0000 -10822.0522 1465.9377 0.0000 0.0000 1810.4157 -7527.0464 308.1490 -9337.4620 -7593.7847 299.1800 40.3703 108.7085 30640.1389 -240.8542 -176.0886
ENERGY: 900000 1.5466 2.0174 14.0306 0.0000 -10796.4955 1458.5767 0.0000 0.0000 1752.6211 -7567.7032 298.3119 -9320.3243 -7596.7405 300.1168 403.3553 440.8666 30153.4645 -126.2039 -72.1530
ENERGY: 1200000 1.3192 4.0375 12.6835 0.0000 -10875.9092 1452.6218 0.0000 0.0000 1784.5219 -7620.7253 303.7417 -9405.2472 -7589.6432 300.9420 -59.7026 11.6794 30247.3112 -106.7190 -55.1940
ENERGY: 1500000 4.8336 5.0954 16.9542 0.0000 -10863.2340 1442.6092 0.0000 0.0000 1786.3316 -7607.4100 304.0497 -9393.7416 -7591.7972 300.9919 -22.7765 -16.2774 30443.1149 -71.2009 -21.3219
TCL: Running FEP window  11: Lambda1 0.4999999999999996 Lambda2 0.4499999999999996 [dLambda -0.04999999999999999]
TCL: Setting parameter firsttimestep to 0
TCL: Setting parameter alchLambda to 0.4999999999999996
Info: NONBONDED TABLE R-SQUARED SPACING: 0.0625
Info: NONBONDED TABLE SIZE: 705 POINTS
TCL: Setting parameter alchLambda2 to 0.4499999999999996
Info: NONBONDED TABLE R-SQUARED SPACING: 0.0625
Info: NONBONDED TABLE SIZE: 705 POINTS
TCL: Running for 1500000 steps
ETITLE: TS BOND ANGLE DIHED IMPRP ELECT VDW BOUNDARY MISC KINETIC TOTAL TEMP POTENTIAL TOTALAVG TEMPAVG PRESSURE GPRESSURE VOLUME PRESSAVG GPRESSAVG
ENERGY: 0 4.8336 5.0954 16.9542 0.0000 -10863.5971 1443.2315 0.0000 0.0000 1785.4698 -7608.0126 303.9030 -9393.4824 -7608.0126 303.9030 -92.2206 -18.8297 30443.1149 -92.2206 -18.8297
ENERGY: 300000 2.8894 4.4008 17.4414 0.0000 -10752.7542 1385.9633 0.0000 0.0000 1791.7847 -7550.2746 304.9779 -9342.0593 -7598.3357 300.0631 -575.8014 -508.9572 30639.0554 -36.1890 19.2257
ENERGY: 600000 2.9594 5.3451 14.3466 0.0000 -10812.6543 1398.2964 0.0000 0.0000 1743.1694 -7648.5374 296.7031 -9391.7068 -7612.4165 296.8954 -517.1832 -447.3669 30761.0840 -203.9978 -154.8104
ENERGY: 900000 2.2341 3.8890 14.2119 0.0000 -10868.0420 1429.0888 0.0000 0.0000 1763.9248 -7654.6934 300.2359 -9418.6182 -7599.9630 298.8935 -228.5573 -226.9622 30619.5097 -93.8619 -42.7466
ENERGY: 1200000 4.1668 2.2303 14.5472 0.0000 -10704.2623 1404.2885 0.0000 0.0000 1781.0391 -7497.9904 303.1489 -9279.0295 -7586.1470 301.0438 -84.3281 -73.2252 30494.0594 -129.8440 -80.0511
ENERGY: 1500000 4.6202 5.1712 13.3392 0.0000 -10738.9024 1373.8677 0.0000 0.0000 1744.5701 -7597.3340 296.9415 -9341.9041 -7582.0223 300.6996 -514.6774 -460.3964 30547.9646 -204.0151 -155.1486
TCL: Running FEP window  12: Lambda1 0.4499999999999996 Lambda2 0.39999999999999963 [dLambda -0.04999999999999999]
TCL: Setting parameter firsttimestep to 0
TCL: Setting parameter alchLambda to 0.4499999999999996
Info: NONBONDED TABLE R-SQUARED SPACING: 0.0625
Info: NONBONDED TABLE SIZE: 705 POINTS
TCL: Setting parameter alchLambda2 to 0.39999999999999963
Info: NONBONDED TABLE R-SQUARED SPACING: 0.0625
Info: NONBONDED TABLE SIZE: 705 POINTS
TCL: Running for 1500000 steps
ETITLE: TS BOND ANGLE DIHED IMPRP ELECT VDW BOUNDARY MISC KINETIC TOTAL TEMP POTENTIAL TOTALAVG TEMPAVG PRESSURE GPRESSURE VOLUME PRESSAVG GPRESSAVG
ENERGY: 0 4.6202 5.1712 13.3392 0.0000 -10738.9025 1374.5089 0.0000 0.0000 1743.7392 -7597.5238 296.8001 -9341.2629 -7597.5238 296.8001 -544.4497 -459.7019 30547.9646 -544.4497 -459.7019
ENERGY: 300000 5.3205 2.9113 15.8489 0.0000 -10842.4087 1431.0258 0.0000 0.0000 1744.6589 -7642.6434 296.9566 -9387.3023 -7655.8125 295.7244 -105.7039 -91.5370 30565.3076 -393.8733 -339.7736
ENERGY: 600000 3.4322 4.0067 15.5147 0.0000 -10680.2870 1316.7134 0.0000 0.0000 1781.9143 -7558.7057 303.2978 -9340.6200 -7627.7808 298.4709 -1036.3771 -1029.6768 30371.7440 -298.0895 -240.7707
ENERGY: 900000 5.4010 5.5530 12.5774 0.0000 -10787.0035 1475.9180 0.0000 0.0000 1773.0968 -7514.4573 301.7970 -9287.5541 -7614.7756 298.9934 517.0558 509.1688 30506.6077 -76.2690 -24.4539
ENERGY: 1200000 1.5449 6.1650 15.1224 0.0000 -10728.2279 1388.5610 0.0000 0.0000 1720.0012 -7596.8335 292.7597 -9316.8347 -7609.3224 298.5771 -752.9295 -665.8650 31134.7506 -111.9578 -57.7308
ENERGY: 1500000 1.0500 4.4343 14.5499 0.0000 -10783.1636 1379.3071 0.0000 0.0000 1721.0315 -7662.7908 292.9350 -9383.8223 -7606.9064 298.2911 -517.2916 -494.3253 30245.2312 -85.1718 -27.1854
TCL: Running FEP window  13: Lambda1 0.39999999999999963 Lambda2 0.34999999999999964 [dLambda -0.04999999999999999]
TCL: Setting parameter firsttimestep to 0
TCL: Setting parameter alchLambda to 0.39999999999999963
Info: NONBONDED TABLE R-SQUARED SPACING: 0.0625
Info: NONBONDED TABLE SIZE: 705 POINTS
TCL: Setting parameter alchLambda2 to 0.34999999999999964
Info: NONBONDED TABLE R-SQUARED SPACING: 0.0625
Info: NONBONDED TABLE SIZE: 705 POINTS
TCL: Running for 1500000 steps
ETITLE: TS BOND ANGLE DIHED IMPRP ELECT VDW BOUNDARY MISC KINETIC TOTAL TEMP POTENTIAL TOTALAVG TEMPAVG PRESSURE GPRESSURE VOLUME PRESSAVG GPRESSAVG
ENERGY: 0 1.0500 4.4343 14.5499 0.0000 -10783.1638 1379.6078 0.0000 0.0000 1720.1495 -7663.3723 292.7849 -9383.5217 -7663.3723 292.7849 -585.5011 -497.2811 30245.2312 -585.5011 -497.2811
ENERGY: 300000 3.7235 8.3652 13.8845 0.0000 -10699.1002 1307.4048 0.0000 0.0000 1767.3769 -7598.3452 300.8235 -9365.7222 -7593.5037 298.4364 -1153.7413 -1106.1166 30726.3269 -642.7211 -565.8982
ENERGY: 600000 2.5689 8.9319 14.1675 0.0000 -10804.0071 1468.6343 0.0000 0.0000 1740.6712 -7569.0334 296.2779 -9309.7046 -7591.8842 298.1349 234.4288 226.3444 30272.9726 -263.7719 -212.3059
ENERGY: 900000 3.2893 3.6061 13.9607 0.0000 -10733.4485 1371.5038 0.0000 0.0000 1767.4987 -7573.5899 300.8442 -9341.0886 -7603.5409 299.1120 -479.3781 -430.1602 30395.5135 -251.5713 -188.2463
ENERGY: 1200000 2.6848 2.7966 14.7258 0.0000 -10846.4290 1418.3253 0.0000 0.0000 1737.7525 -7670.1441 295.7811 -9407.8966 -7613.7119 298.7549 -336.6499 -322.5678 30347.6563 -133.5136 -74.7218
ENERGY: 1500000 3.2750 3.1230 14.1154 0.0000 -11056.1947 1575.3689 0.0000 0.0000 1765.6201 -7694.6923 300.5244 -9460.3124 -7612.4175 299.1507 894.9331 881.8485 30196.7428 -79.2391 -26.7642
TCL: Running FEP window  14: Lambda1 0.34999999999999964 Lambda2 0.29999999999999966 [dLambda -0.04999999999999999]
TCL: Setting parameter firsttimestep to 0
TCL: Setting parameter alchLambda to 0.34999999999999964
Info: NONBONDED TABLE R-SQUARED SPACING: 0.0625
Info: NONBONDED TABLE SIZE: 705 POINTS
TCL: Setting parameter alchLambda2 to 0.29999999999999966
Info: NONBONDED TABLE R-SQUARED SPACING: 0.0625
Info: NONBONDED TABLE SIZE: 705 POINTS
TCL: Running for 1500000 steps
ETITLE: TS BOND ANGLE DIHED IMPRP ELECT VDW BOUNDARY MISC KINETIC TOTAL TEMP POTENTIAL TOTALAVG TEMPAVG PRESSURE GPRESSURE VOLUME PRESSAVG GPRESSAVG
ENERGY: 0 3.2750 3.1230 14.1154 0.0000 -11056.1960 1575.5578 0.0000 0.0000 1764.7483 -7695.3764 300.3760 -9460.1247 -7695.3764 300.3760 800.7405 879.2725 30196.7428 800.7405 879.2725
ENERGY: 300000 5.8379 5.9202 13.0980 0.0000 -10787.3812 1376.6864 0.0000 0.0000 1741.7091 -7644.1296 296.4546 -9385.8387 -7660.2252 298.2288 -630.9838 -546.6890 30550.3587 -167.4819 -112.0487
ENERGY: 600000 2.7030 3.7516 14.4225 0.0000 -10843.1363 1442.7520 0.0000 0.0000 1804.7490 -7574.7583 307.1845 -9379.5073 -7634.2664 300.4280 55.0465 61.1294 30191.7060 -161.4124 -108.3688
ENERGY: 900000 2.9925 4.8503 13.1089 0.0000 -10849.8563 1433.0979 0.0000 0.0000 1754.3717 -7641.4350 298.6098 -9395.8066 -7632.2303 299.7188 -116.4769 -53.0351 30091.6911 -90.3229 -32.2515
ENERGY: 1200000 1.9944 5.2236 15.4372 0.0000 -10715.6195 1396.6221 0.0000 0.0000 1707.5941 -7588.7480 290.6479 -9296.3421 -7617.9887 299.7876 -475.4744 -449.8861 30742.0102 -111.8866 -58.4646
ENERGY: 1500000 3.0648 6.8615 14.6861 0.0000 -10865.6313 1453.7279 0.0000 0.0000 1740.1474 -7647.1437 296.1887 -9387.2911 -7621.2094 299.0180 190.7679 271.4510 30058.2447 -171.3274 -115.1325
TCL: Running FEP window  15: Lambda1 0.29999999999999966 Lambda2 0.24999999999999967 [dLambda -0.04999999999999999]
TCL: Setting parameter firsttimestep to 0
TCL: Setting parameter alchLambda to 0.29999999999999966
Info: NONBONDED TABLE R-SQUARED SPACING: 0.0625
Info: NONBONDED TABLE SIZE: 705 POINTS
TCL: Setting parameter alchLambda2 to 0.24999999999999967
Info: NONBONDED TABLE R-SQUARED SPACING: 0.0625
Info: NONBONDED TABLE SIZE: 705 POINTS
TCL: Running for 1500000 steps
ETITLE: TS BOND ANGLE DIHED IMPRP ELECT VDW BOUNDARY MISC KINETIC TOTAL TEMP POTENTIAL TOTALAVG TEMPAVG PRESSURE GPRESSURE VOLUME PRESSAVG GPRESSAVG
ENERGY: 0 3.0648 6.8615 14.6861 0.0000 -10865.6331 1454.0391 0.0000 0.0000 1739.3202 -7647.6613 296.0479 -9386.9815 -7647.6613 296.0479 178.4855 268.3631 30058.2447 178.4855 268.3631
ENERGY: 300000 1.0788 3.7036 15.3663 0.0000 -10787.9780 1428.1653 0.0000 0.0000 1770.7090 -7568.9550 301.3906 -9339.6640 -7616.1822 298.5592 -97.8407 -19.8901 30338.9622 42.9536 102.8175
ENERGY: 600000 3.5265 4.1535 15.3369 0.0000 -10880.9753 1470.0900 0.0000 0.0000 1728.6079 -7659.2606 294.2246 -9387.8685 -7613.4416 299.2070 283.1759 306.6085 29969.2966 98.1844 150.0395
ENERGY: 900000 3.6240 3.7126 13.9465 0.0000 -10756.6877 1348.4441 0.0000 0.0000 1739.4715 -7647.4889 296.0737 -9386.9604 -7609.9697 298.0104 -724.7280 -674.5541 30472.9922 33.9060 80.5192
ENERGY: 1200000 2.4446 5.4518 13.9503 0.0000 -10815.8327 1442.5020 0.0000 0.0000 1766.8436 -7584.6405 300.7327 -9351.4841 -7609.7794 297.6105 -141.8565 -63.9981 30507.8866 -38.3656 16.6176
ENERGY: 1500000 2.1461 1.9233 12.7821 0.0000 -10763.0717 1439.0822 0.0000 0.0000 1697.7838 -7609.3543 288.9781 -9307.1381 -7622.8218 296.2378 -65.6788 -5.8375 30619.4449 -158.9241 -105.4020
TCL: Running FEP window  16: Lambda1 0.24999999999999967 Lambda2 0.19999999999999968 [dLambda -0.04999999999999999]
TCL: Setting parameter firsttimestep to 0
TCL: Setting parameter alchLambda to 0.24999999999999967
Info: NONBONDED TABLE R-SQUARED SPACING: 0.0625
Info: NONBONDED TABLE SIZE: 705 POINTS
TCL: Setting parameter alchLambda2 to 0.19999999999999968
Info: NONBONDED TABLE R-SQUARED SPACING: 0.0625
Info: NONBONDED TABLE SIZE: 705 POINTS
TCL: Running for 1500000 steps
ETITLE: TS BOND ANGLE DIHED IMPRP ELECT VDW BOUNDARY MISC KINETIC TOTAL TEMP POTENTIAL TOTALAVG TEMPAVG PRESSURE GPRESSURE VOLUME PRESSAVG GPRESSAVG
ENERGY: 0 2.1461 1.9233 12.7821 0.0000 -10763.0708 1439.1251 0.0000 0.0000 1696.8883 -7610.2060 288.8256 -9307.0943 -7610.2060 288.8256 -99.0215 -11.3232 30619.4449 -99.0215 -11.3232
ENERGY: 300000 1.8972 4.4367 16.7106 0.0000 -10885.3176 1497.5275 0.0000 0.0000 1747.0107 -7617.7349 297.3569 -9364.7456 -7607.9395 297.1701 571.2053 617.8385 29827.8954 357.1681 429.6601
ENERGY: 600000 6.1336 2.4295 14.4726 0.0000 -10967.5954 1498.4982 0.0000 0.0000 1724.1393 -7721.9221 293.4640 -9446.0614 -7620.2078 297.5667 157.9116 241.4969 30547.1660 180.4915 247.4771
ENERGY: 900000 5.2845 5.3382 12.5789 0.0000 -10793.4935 1432.2004 0.0000 0.0000 1757.9435 -7580.1481 299.2178 -9338.0915 -7598.6943 299.5657 -64.0651 3.3713 30415.9622 193.9286 267.3850
ENERGY: 1200000 3.0694 3.7378 13.4049 0.0000 -10831.7687 1441.5000 0.0000 0.0000 1753.8103 -7616.2462 298.5143 -9370.0566 -7609.1372 298.8718 -137.6795 -122.7180 30730.0382 163.0994 223.5150
ENERGY: 1500000 2.7648 5.3036 12.8897 0.0000 -10719.5914 1359.9892 0.0000 0.0000 1754.5935 -7584.0505 298.6476 -9338.6440 -7612.8931 298.6192 -574.3479 -541.4327 30319.2453 100.1057 160.9858
TCL: Running FEP window  17: Lambda1 0.19999999999999968 Lambda2 0.1499999999999997 [dLambda -0.04999999999999999]
TCL: Setting parameter firsttimestep to 0
TCL: Setting parameter alchLambda to 0.19999999999999968
Info: NONBONDED TABLE R-SQUARED SPACING: 0.0625
Info: NONBONDED TABLE SIZE: 705 POINTS
TCL: Setting parameter alchLambda2 to 0.1499999999999997
Info: NONBONDED TABLE R-SQUARED SPACING: 0.0625
Info: NONBONDED TABLE SIZE: 705 POINTS
TCL: Running for 1500000 steps
ETITLE: TS BOND ANGLE DIHED IMPRP ELECT VDW BOUNDARY MISC KINETIC TOTAL TEMP POTENTIAL TOTALAVG TEMPAVG PRESSURE GPRESSURE VOLUME PRESSAVG GPRESSAVG
ENERGY: 0 2.7648 5.3036 12.8897 0.0000 -10719.5914 1360.3332 0.0000 0.0000 1753.6661 -7584.6340 298.4897 -9338.3001 -7584.6340 298.4897 -628.2176 -543.6871 30319.2453 -628.2176 -543.6871
ENERGY: 300000 2.5294 3.4280 13.6736 0.0000 -10849.5328 1441.2183 0.0000 0.0000 1685.5314 -7703.1520 286.8926 -9388.6835 -7647.3947 296.8192 -90.7920 -77.3650 30140.4638 -277.8233 -242.6651
ENERGY: 600000 1.8101 2.3774 16.3231 0.0000 -10824.8094 1398.1016 0.0000 0.0000 1779.5715 -7626.6257 302.8991 -9406.1972 -7626.9786 299.1902 -478.5850 -417.9798 30250.9597 -173.6170 -129.7287
ENERGY: 900000 3.0071 5.8750 16.3018 0.0000 -10878.5230 1385.7274 0.0000 0.0000 1720.4576 -7747.1540 292.8374 -9467.6117 -7636.7994 299.4788 -754.2864 -683.3871 30143.8461 -226.6550 -173.9749
ENERGY: 1200000 9.2622 5.2365 14.4265 0.0000 -10829.8645 1429.8935 0.0000 0.0000 1720.8719 -7650.1739 292.9079 -9371.0458 -7642.0654 297.5275 -101.0197 -49.5868 30375.9934 -187.4359 -130.7249
ENERGY: 1500000 5.1947 2.5498 14.9166 0.0000 -10852.4303 1499.4772 0.0000 0.0000 1858.4092 -7471.8828 316.3180 -9330.2920 -7621.1912 299.2533 490.0997 517.5278 30525.6452 -168.0545 -113.6781
TCL: Running FEP window  18: Lambda1 0.1499999999999997 Lambda2 0.09999999999999969 [dLambda -0.05 ]
TCL: Setting parameter firsttimestep to 0
TCL: Setting parameter alchLambda to 0.1499999999999997
Info: NONBONDED TABLE R-SQUARED SPACING: 0.0625
Info: NONBONDED TABLE SIZE: 705 POINTS
TCL: Setting parameter alchLambda2 to 0.09999999999999969
Info: NONBONDED TABLE R-SQUARED SPACING: 0.0625
Info: NONBONDED TABLE SIZE: 705 POINTS
TCL: Running for 1500000 steps
ETITLE: TS BOND ANGLE DIHED IMPRP ELECT VDW BOUNDARY MISC KINETIC TOTAL TEMP POTENTIAL TOTALAVG TEMPAVG PRESSURE GPRESSURE VOLUME PRESSAVG GPRESSAVG
ENERGY: 0 5.1947 2.5498 14.9166 0.0000 -10852.4307 1498.1801 0.0000 0.0000 1857.5593 -7474.0303 316.1733 -9331.5895 -7474.0303 316.1733 424.5837 505.8590 30525.6452 424.5837 505.8590
ENERGY: 300000 3.6816 6.3415 21.6352 0.0000 -10909.7321 1434.7908 0.0000 0.0000 1742.5491 -7700.7339 296.5975 -9443.2830 -7633.5134 303.0461 -614.5416 -570.7357 30772.8598 -306.0126 -239.4048
ENERGY: 600000 4.4585 3.9530 17.3468 0.0000 -10881.8193 1452.9846 0.0000 0.0000 1757.4905 -7645.5859 299.1407 -9403.0764 -7622.8297 301.2854 -34.3606 15.0637 30065.9123 -19.4327 34.6095
ENERGY: 900000 5.0846 5.0544 16.0918 0.0000 -10769.8750 1376.0232 0.0000 0.0000 1746.7049 -7620.9161 297.3049 -9367.6210 -7614.1614 301.5481 -717.4709 -654.7452 30697.0246 -74.3663 -12.5391
ENERGY: 1200000 2.5276 8.2272 13.7359 0.0000 -10896.6325 1517.0763 0.0000 0.0000 1811.1444 -7543.9211 308.2731 -9355.0655 -7606.2080 301.2753 668.3101 664.8560 30204.3716 8.2759 67.6168
ENERGY: 1500000 2.8999 4.2261 13.3237 0.0000 -10893.0172 1472.1001 0.0000 0.0000 1807.4379 -7593.0295 307.6422 -9400.4674 -7600.3399 301.2507 247.2324 282.2124 29901.6199 46.6284 100.6821
TCL: Running FEP window  19: Lambda1 0.09999999999999969 Lambda2 0.049999999999999684 [dLambda -0.05 ]
TCL: Setting parameter firsttimestep to 0
TCL: Setting parameter alchLambda to 0.09999999999999969
Info: NONBONDED TABLE R-SQUARED SPACING: 0.0625
Info: NONBONDED TABLE SIZE: 705 POINTS
TCL: Setting parameter alchLambda2 to 0.049999999999999684
Info: NONBONDED TABLE R-SQUARED SPACING: 0.0625
Info: NONBONDED TABLE SIZE: 705 POINTS
TCL: Running for 1500000 steps
ETITLE: TS BOND ANGLE DIHED IMPRP ELECT VDW BOUNDARY MISC KINETIC TOTAL TEMP POTENTIAL TOTALAVG TEMPAVG PRESSURE GPRESSURE VOLUME PRESSAVG GPRESSAVG
ENERGY: 0 2.8999 4.2261 13.3237 0.0000 -10893.0174 1472.3775 0.0000 0.0000 1806.5663 -7593.6238 307.4938 -9400.1901 -7593.6238 307.4938 193.3153 280.6041 29901.6199 193.3153 280.6041
ENERGY: 300000 3.4755 2.2225 15.6266 0.0000 -10856.7076 1423.1296 0.0000 0.0000 1814.4735 -7597.7799 308.8397 -9412.2534 -7611.0259 304.6736 -3.6583 20.9490 29579.1189 252.7161 312.1392
ENERGY: 600000 3.6633 8.9418 17.0249 0.0000 -10779.3374 1362.9565 0.0000 0.0000 1800.0066 -7586.7443 306.3773 -9386.7509 -7614.4687 304.2450 -825.1915 -660.0180 30211.6811 -94.3966 -20.8233
ENERGY: 900000 6.5666 2.9367 13.9324 0.0000 -10691.0403 1316.2016 0.0000 0.0000 1722.4756 -7628.9274 293.1808 -9351.4030 -7614.5037 303.5850 -969.0708 -910.4637 30177.4552 -141.6609 -75.2537
ENERGY: 1200000 1.0972 3.7108 14.6466 0.0000 -10859.9054 1473.5717 0.0000 0.0000 1761.1576 -7605.7215 299.7649 -9366.8791 -7619.0176 302.1370 37.4325 88.8981 30549.9976 -121.0046 -53.4739
ENERGY: 1500000 3.2473 4.1195 14.3117 0.0000 -10800.6436 1437.7790 0.0000 0.0000 1777.4823 -7563.7039 302.5435 -9341.1862 -7610.3177 301.8201 -194.2391 -165.5098 30730.7360 -132.7933 -69.8290
TCL: Running FEP window  20: Lambda1 0.049999999999999684 Lambda2 0.0    [dLambda -0.049999999999999684]
TCL: Setting parameter firsttimestep to 0
TCL: Setting parameter alchLambda to 0.049999999999999684
Info: NONBONDED TABLE R-SQUARED SPACING: 0.0625
Info: NONBONDED TABLE SIZE: 705 POINTS
TCL: Setting parameter alchLambda2 to 0.0
Info: NONBONDED TABLE R-SQUARED SPACING: 0.0625
Info: NONBONDED TABLE SIZE: 705 POINTS
TCL: Running for 1500000 steps
ETITLE: TS BOND ANGLE DIHED IMPRP ELECT VDW BOUNDARY MISC KINETIC TOTAL TEMP POTENTIAL TOTALAVG TEMPAVG PRESSURE GPRESSURE VOLUME PRESSAVG GPRESSAVG
ENERGY: 0 3.2473 4.1195 14.3117 0.0000 -10800.6431 1438.0094 0.0000 0.0000 1776.5811 -7564.3742 302.3901 -9340.9553 -7564.3742 302.3901 -247.3916 -166.4915 30730.7360 -247.3916 -166.4915
ENERGY: 300000 2.9717 2.4958 16.2619 0.0000 -10917.0793 1509.4251 0.0000 0.0000 1782.5247 -7603.4001 303.4017 -9385.9248 -7587.2132 301.8650 471.2191 562.1867 30113.9362 -163.8933 -89.7922
ENERGY: 600000 1.8898 4.0272 15.4067 0.0000 -10787.5742 1453.7969 0.0000 0.0000 1739.3849 -7573.0688 296.0589 -9312.4536 -7585.5185 301.2924 248.5165 313.6257 30453.8182 58.1562 125.5736
ENERGY: 900000 2.3575 5.4365 14.2839 0.0000 -10804.6231 1466.8953 0.0000 0.0000 1768.8645 -7546.7853 301.0766 -9315.6498 -7579.0307 303.0023 298.3931 358.5126 30183.2140 25.7142 89.3652
ENERGY: 1200000 6.6613 4.5532 16.0621 0.0000 -10749.8651 1363.5774 0.0000 0.0000 1752.1213 -7606.8898 298.2268 -9359.0111 -7575.7706 302.5789 -546.0003 -488.6566 30477.7967 19.2919 79.3612
ENERGY: 1500000 5.1293 3.4114 14.6791 0.0000 -10873.2456 1402.0035 0.0000 0.0000 1781.4726 -7666.5497 303.2227 -9448.0223 -7585.0319 302.1948 -465.1306 -369.4613 30088.8158 22.3909 89.4751
TCL: Exiting due to exit command.
