Info: SIMULATION PARAMETERS:
Info: TIMESTEP               2
Info: NUMBER OF STEPS        0
Info: STEPS PER CYCLE        10
Info: PERIODIC CELL BASIS 1  31.6051 0 0
Info: PERIODIC CELL BASIS 2  0 31.0564 0
Info: PERIODIC CELL BASIS 3  0 0 31.458
Info: PERIODIC CELL CENTER   0 0 0
Info: WRAPPING WATERS AROUND PERIODIC BOUNDARIES ON OUTPUT.
Info: WRAPPING ALL CLUSTERS AROUND PERIODIC BOUNDARIES ON OUTPUT.
Info: FIRST LDB TIMESTEP     50
Info: LAST LDB TIMESTEP     -1
Info: HOM BACKGROUND SCALING 1
Info: PME BACKGROUND SCALING 1
Info: MIN ATOMS PER PATCH    40
Info: EMPTY PATCH LOAD       40 ATOMS
Info: VELOCITY FILE          mobley_3034976_equil.vel
Info: CENTER OF MASS MOVING INITIALLY? NO
Info: DIELECTRIC             1
Info: EXCLUDE                SCALED ONE-FOUR
Info: 1-4 ELECTROSTATICS SCALED BY 0.833333
Info: MODIFIED 1-4 VDW PARAMETERS WILL BE USED
Info: DCD FILENAME           mobley_3034976_prod.dcd
Info: DCD FREQUENCY          100000
Info: DCD FIRST STEP         100000
Info: DCD FILE WILL CONTAIN UNIT CELL DATA
Info: XST FILENAME           mobley_3034976_prod.xst
Info: XST FREQUENCY          100000
Info: NO VELOCITY DCD OUTPUT
Info: NO FORCE DCD OUTPUT
Info: OUTPUT FILENAME        mobley_3034976_prod
Info: BINARY OUTPUT FILES WILL BE USED
Info: RESTART FILENAME       mobley_3034976_prod.restart
Info: RESTART FREQUENCY      100000
Info: BINARY RESTART FILES WILL BE USED
Info: CUTOFF                 9
Info: PAIRLIST DISTANCE      11
Info: PAIRLIST SHRINK RATE   0.01
Info: PAIRLIST GROW RATE     0.01
Info: PAIRLIST TRIGGER       0.3
Info: PAIRLISTS PER CYCLE    2
Info: PAIRLISTS ENABLED
Info: MARGIN                 2
Info: HYDROGEN GROUP CUTOFF  2.5
Info: PATCH DIMENSION        15.5
Info: ENERGY OUTPUT STEPS    100000
Info: ENERGY EVALUATION STEPS    100000
Info: OUTPUT ENERGY PRECISION 4
Info: CROSSTERM ENERGY INCLUDED IN DIHEDRAL
Info: TIMING OUTPUT STEPS    1000000
Info: PRESSURE OUTPUT STEPS  100000
Info: ALCHEMICAL FEP ON
Info: FEP CURRENT LAMBDA VALUE     0
Info: FEP COMPARISON LAMBDA VALUE  0.05
Info: FEP INTRA-ALCHEMICAL NON-BONDED INTERACTIONS WILL BE RETAINED
Info: FEP INTRA-ALCHEMICAL BONDED INTERACTIONS WILL BE RETAINED
Info: FEP VDW SHIFTING COEFFICIENT 5
Info: FEP ELEC. ACTIVE FOR ANNIHILATED PARTICLES BETWEEN LAMBDA = 0 AND LAMBDA = 0.5
Info: FEP ELEC. ACTIVE FOR EXNIHILATED PARTICLES BETWEEN LAMBDA = 0.5 AND LAMBDA = 1
Info: FEP VDW ACTIVE FOR ANNIHILATED PARTICLES BETWEEN LAMBDA = 0 AND LAMBDA = 1
Info: FEP VDW ACTIVE FOR EXNIHILATED PARTICLES BETWEEN LAMBDA = 0 AND LAMBDA = 1
Info: FEP BOND ACTIVE FOR ANNIHILATED PARTICLES BETWEEN LAMBDA = 1 AND LAMBDA = 1
Info: FEP BOND ACTIVE FOR EXNIHILATED PARTICLES BETWEEN LAMBDA = 0 AND LAMBDA = 0
Info: LANGEVIN DYNAMICS ACTIVE
Info: LANGEVIN TEMPERATURE   300
Info: LANGEVIN USING BBK INTEGRATOR
Info: LANGEVIN DAMPING COEFFICIENT IS 1 INVERSE PS
Info: LANGEVIN DYNAMICS APPLIED TO HYDROGENS
Info: LANGEVIN PISTON PRESSURE CONTROL ACTIVE
Info:        TARGET PRESSURE IS 1.01325 BAR
Info:     OSCILLATION PERIOD IS 50 FS
Info:             DECAY TIME IS 25 FS
Info:     PISTON TEMPERATURE IS 300 K
Info:       PRESSURE CONTROL IS GROUP-BASED
Info:    INITIAL STRAIN RATE IS 3.40107e-05 3.40107e-05 3.40107e-05
Info:       CELL FLUCTUATION IS ISOTROPIC
Info: PARTICLE MESH EWALD (PME) ACTIVE
Info: PME TOLERANCE               1e-06
Info: PME EWALD COEFFICIENT       0.348832
Info: PME INTERPOLATION ORDER     4
Info: PME GRID DIMENSIONS         32 32 32
Info: PME MAXIMUM GRID SPACING    1
Info: PME CALCULATION WILL BE PERFORMED ON GPU
Info: FULL ELECTROSTATIC EVALUATION FREQUENCY      2
Info: USING VERLET I (r-RESPA) MTS SCHEME.
Info: C1 SPLITTING OF LONG RANGE ELECTROSTATICS
Info: PLACING ATOMS IN PATCHES BY HYDROGEN GROUPS
Info: RIGID BONDS TO HYDROGEN : ALL
Info:         ERROR TOLERANCE : 1e-08
Info:          MAX ITERATIONS : 100
Info: RIGID WATER USING SETTLE ALGORITHM
Info: RANDOM NUMBER SEED     1743487020
Info: USE HYDROGEN BONDS?    NO
Info: Using AMBER format force field!
Info: AMBER PARM FILE        mobley_3034976.prmtop
Info: COORDINATE PDB         mobley_3034976.pdb
Info: Exclusions will be read from PARM file!
Info: SCNB (VDW SCALING)     2
Info: USING ARITHMETIC MEAN TO COMBINE L-J SIGMA PARAMETERS
Info: BINARY COORDINATES     mobley_3034976_equil.coor
Info: SUMMARY OF PARAMETERS:
Info: 7 BONDS
Info: 6 ANGLES
Info:   6 HARMONIC
Info:   0 COSINE-BASED
Info: 7 DIHEDRAL
Info: 0 IMPROPER
Info: 0 CROSSTERM
Info: 0 VDW
Info: 28 VDW_PAIRS
Info: 0 NBTHOLE_PAIRS
Info: To read alchdata from file: mobley_3034976.pdb
Info: To read alchflag data from column: 5
Info: STRUCTURE SUMMARY:
Info: 2984 ATOMS
Info: 2983 BONDS
Info: 10 ANGLES
Info: 16 DIHEDRALS
Info: 0 IMPROPERS
Info: 0 CROSSTERMS
Info: 3001 EXCLUSIONS
Info: 2980 RIGID BONDS
Info: ALCH: 0 ATOMS TO DISAPPEAR IN FINAL STATE
Info: ALCH: 8 ATOMS TO APPEAR IN FINAL STATE
Info: 5972 DEGREES OF FREEDOM
Info: 996 HYDROGEN GROUPS
Info: 4 ATOMS IN LARGEST HYDROGEN GROUP
Info: 996 MIGRATION GROUPS
Info: 4 ATOMS IN LARGEST MIGRATION GROUP
Info: TOTAL MASS = 17931.9 amu
Info: TOTAL CHARGE = -9.98899e-05 e
Info: MASS DENSITY = 0.964378 g/cm^3
Info: ATOM DENSITY = 0.0966406 atoms/A^3
Info: ADDED 0 IMPLICIT EXCLUSIONS
Info: NONBONDED TABLE R-SQUARED SPACING: 0.0625
Info: NONBONDED TABLE SIZE: 705 POINTS
Info: REDUCING NUMBER OF PATCHES TO IMPROVE LOAD BALANCE
Info: REMOVING COM VELOCITY 0.0164514 0.0610391 -0.0195249
Info: Use 3D box decompostion in PME FFT.
Info: Updated CUDA force table with 4096 elements.
Info: Updated CUDA LJ table with 7 x 7 elements.
Info: Found 11 unique exclusion lists needing 16 bytes
TCL: Running for 1500000 steps
ETITLE: TS BOND ANGLE DIHED IMPRP ELECT VDW BOUNDARY MISC KINETIC TOTAL TEMP POTENTIAL TOTALAVG TEMPAVG PRESSURE GPRESSURE VOLUME PRESSAVG GPRESSAVG
ENERGY: 0 0.2419 4.4125 2.9046 0.0000 -10853.6209 1458.5272 0.0000 0.0000 1741.0231 -7646.5117 293.4101 -9387.5347 -7646.5117 293.4101 -1.3229 74.7042 30877.2771 -1.3229 74.7042
ENERGY: 300000 1.1967 1.9055 2.8516 0.0000 -10913.2404 1425.3945 0.0000 0.0000 1807.1181 -7674.7740 304.5490 -9481.8921 -7674.9579 296.7905 -474.1917 -423.7343 30664.6203 -285.9172 -229.3319
ENERGY: 600000 0.1801 3.0551 2.6737 0.0000 -10916.6676 1413.5082 0.0000 0.0000 1754.4675 -7742.7830 295.6759 -9497.2505 -7675.7723 296.9161 -452.3577 -390.3815 30433.7297 -81.3734 -16.7360
ENERGY: 900000 0.3921 2.5267 2.4196 0.0000 -10735.8838 1369.4248 0.0000 0.0000 1786.0914 -7575.0293 301.0054 -9361.1207 -7644.1467 298.4909 -596.3409 -532.9764 30823.1326 -169.9982 -97.8874
ENERGY: 1200000 0.3384 3.9736 2.9925 0.0000 -11017.1574 1502.8579 0.0000 0.0000 1730.7346 -7776.2603 291.6762 -9506.9949 -7652.4881 298.4482 249.0969 276.2244 30207.9892 -54.0460 6.8709
ENERGY: 1500000 2.0425 2.7097 2.9788 0.0000 -11032.5851 1526.0487 0.0000 0.0000 1763.7298 -7735.0756 297.2368 -9498.8054 -7651.2240 298.8711 563.3899 638.8542 29827.5352 -42.6251 19.4388
TCL: Running FEP window   2: Lambda1 0.05   Lambda2 0.1    [dLambda 0.05  ]
TCL: Setting parameter firsttimestep to 0
TCL: Setting parameter alchLambda to 0.05
Info: NONBONDED TABLE R-SQUARED SPACING: 0.0625
Info: NONBONDED TABLE SIZE: 705 POINTS
TCL: Setting parameter alchLambda2 to 0.1
Info: NONBONDED TABLE R-SQUARED SPACING: 0.0625
Info: NONBONDED TABLE SIZE: 705 POINTS
TCL: Running for 1500000 steps
ETITLE: TS BOND ANGLE DIHED IMPRP ELECT VDW BOUNDARY MISC KINETIC TOTAL TEMP POTENTIAL TOTALAVG TEMPAVG PRESSURE GPRESSURE VOLUME PRESSAVG GPRESSAVG
ENERGY: 0 2.0425 2.7097 2.9788 0.0000 -11032.5835 1527.4628 0.0000 0.0000 1762.9007 -7734.4889 297.0971 -9497.3896 -7734.4889 297.0971 560.3452 643.3623 29827.5352 560.3452 643.3623
ENERGY: 300000 1.3073 3.1866 3.2693 0.0000 -10902.7527 1456.5207 0.0000 0.0000 1781.3310 -7657.1378 300.2031 -9438.4688 -7628.5584 303.4088 -142.3214 -73.7556 30858.5691 194.0214 238.0306
ENERGY: 600000 0.8779 2.8493 2.8426 0.0000 -10709.4217 1314.7004 0.0000 0.0000 1789.6667 -7598.4849 301.6079 -9388.1516 -7608.7934 303.5961 -1187.1031 -1085.3081 30868.7175 -215.4158 -150.6708
ENERGY: 900000 2.2692 4.6791 3.5934 0.0000 -10837.1907 1482.8972 0.0000 0.0000 1793.5706 -7550.1814 302.2658 -9343.7519 -7608.5846 303.3833 194.7502 201.5704 30814.8191 -140.6116 -85.3862
ENERGY: 1200000 1.9110 3.4962 5.6159 0.0000 -10840.2285 1401.8616 0.0000 0.0000 1753.7463 -7673.5975 295.5544 -9427.3438 -7614.2027 301.9033 -355.5622 -267.5660 30444.5364 -180.5223 -119.1200
ENERGY: 1500000 0.0705 3.6142 3.4200 0.0000 -10977.9613 1441.9706 0.0000 0.0000 1788.4487 -7740.4372 301.4027 -9528.8860 -7625.7289 301.5675 -437.1957 -300.7020 30342.4492 -200.4330 -139.4981
TCL: Running FEP window   3: Lambda1 0.1    Lambda2 0.15000000000000002 [dLambda 0.05000000000000002]
TCL: Setting parameter firsttimestep to 0
TCL: Setting parameter alchLambda to 0.1
Info: NONBONDED TABLE R-SQUARED SPACING: 0.0625
Info: NONBONDED TABLE SIZE: 705 POINTS
TCL: Setting parameter alchLambda2 to 0.15000000000000002
Info: NONBONDED TABLE R-SQUARED SPACING: 0.0625
Info: NONBONDED TABLE SIZE: 705 POINTS
TCL: Running for 1500000 steps
ETITLE: TS BOND ANGLE DIHED IMPRP ELECT VDW BOUNDARY MISC KINETIC TOTAL TEMP POTENTIAL TOTALAVG TEMPAVG PRESSURE GPRESSURE VOLUME PRESSAVG GPRESSAVG
ENERGY: 0 0.0705 3.6142 3.4200 0.0000 -10977.9606 1442.6580 0.0000 0.0000 1787.5608 -7740.6371 301.2530 -9528.1980 -7740.6371 301.2530 -387.8696 -296.0590 30342.4492 -387.8696 -296.0590
ENERGY: 300000 0.0554 2.6361 2.5615 0.0000 -10998.2809 1551.3908 0.0000 0.0000 1769.4622 -7672.1748 298.2029 -9441.6370 -7692.5873 295.9775 366.5629 445.2752 31105.6076 216.5753 299.6182
ENERGY: 600000 1.8348 1.9198 3.6837 0.0000 -10895.8900 1447.7924 0.0000 0.0000 1810.4215 -7630.2378 305.1057 -9440.6593 -7655.5219 297.5309 -279.0196 -196.0459 30980.5341 -10.1824 67.1145
ENERGY: 900000 0.6248 3.9113 2.4918 0.0000 -10778.9913 1371.7614 0.0000 0.0000 1793.8656 -7606.3364 302.3155 -9400.2020 -7654.9436 298.3321 -805.5418 -700.5095 30916.3253 18.5846 98.0167
ENERGY: 1200000 3.0518 3.9848 4.0446 0.0000 -10864.6035 1437.9890 0.0000 0.0000 1771.1672 -7644.3661 298.4903 -9415.5333 -7652.9665 299.1428 -245.5840 -220.5546 30961.2309 32.7879 102.7025
ENERGY: 1500000 0.5587 4.0151 2.5499 0.0000 -10881.1757 1491.7258 0.0000 0.0000 1781.1381 -7601.1882 300.1706 -9382.3263 -7648.2677 298.8528 217.4678 346.7287 30589.9943 44.6302 120.2642
TCL: Running FEP window   4: Lambda1 0.15000000000000002 Lambda2 0.2    [dLambda 0.04999999999999999]
TCL: Setting parameter firsttimestep to 0
TCL: Setting parameter alchLambda to 0.15000000000000002
Info: NONBONDED TABLE R-SQUARED SPACING: 0.0625
Info: NONBONDED TABLE SIZE: 705 POINTS
TCL: Setting parameter alchLambda2 to 0.2
Info: NONBONDED TABLE R-SQUARED SPACING: 0.0625
Info: NONBONDED TABLE SIZE: 705 POINTS
TCL: Running for 1500000 steps
ETITLE: TS BOND ANGLE DIHED IMPRP ELECT VDW BOUNDARY MISC KINETIC TOTAL TEMP POTENTIAL TOTALAVG TEMPAVG PRESSURE GPRESSURE VOLUME PRESSAVG GPRESSAVG
ENERGY: 0 0.5587 4.0151 2.5499 0.0000 -10881.1763 1491.7825 0.0000 0.0000 1780.2798 -7601.9904 300.0260 -9382.2702 -7601.9904 300.0260 266.0832 346.1254 30589.9943 266.0832 346.1254
ENERGY: 300000 1.7938 2.0875 2.7177 0.0000 -10985.5433 1489.6548 0.0000 0.0000 1824.9743 -7664.3153 307.5582 -9489.2896 -7658.5725 298.0682 108.0811 161.5196 30488.6819 161.1930 250.2958
ENERGY: 600000 0.9043 2.7307 2.5343 0.0000 -10925.4582 1451.9736 0.0000 0.0000 1736.4463 -7730.8691 292.6388 -9467.3154 -7631.9289 298.9685 -159.7843 -124.2921 30524.8243 -8.9564 67.4304
ENERGY: 900000 0.9756 4.3588 3.7412 0.0000 -11005.8987 1516.9329 0.0000 0.0000 1770.3894 -7709.5008 298.3592 -9479.8901 -7637.8876 299.6056 146.0471 156.8620 30685.4259 -48.6136 22.1522
ENERGY: 1200000 0.3975 1.5749 4.7352 0.0000 -10773.6284 1407.0440 0.0000 0.0000 1831.0475 -7528.8292 308.5817 -9359.8767 -7622.8876 300.1501 -219.4563 -193.1508 30598.2806 -74.7394 -8.2282
ENERGY: 1500000 0.8546 3.4288 3.3104 0.0000 -10741.2453 1383.6644 0.0000 0.0000 1770.1655 -7579.8216 298.3214 -9349.9870 -7621.4629 300.0260 -210.3200 -118.4217 30170.1110 -68.2972 -3.8379
TCL: Running FEP window   5: Lambda1 0.2    Lambda2 0.25   [dLambda 0.04999999999999999]
TCL: Setting parameter firsttimestep to 0
TCL: Setting parameter alchLambda to 0.2
Info: NONBONDED TABLE R-SQUARED SPACING: 0.0625
Info: NONBONDED TABLE SIZE: 705 POINTS
TCL: Setting parameter alchLambda2 to 0.25
Info: NONBONDED TABLE R-SQUARED SPACING: 0.0625
Info: NONBONDED TABLE SIZE: 705 POINTS
TCL: Running for 1500000 steps
ETITLE: TS BOND ANGLE DIHED IMPRP ELECT VDW BOUNDARY MISC KINETIC TOTAL TEMP POTENTIAL TOTALAVG TEMPAVG PRESSURE GPRESSURE VOLUME PRESSAVG GPRESSAVG
ENERGY: 0 0.8546 3.4288 3.3104 0.0000 -10741.2456 1384.0564 0.0000 0.0000 1769.2718 -7580.3235 298.1708 -9349.5953 -7580.3235 298.1708 -194.7382 -113.2726 30170.1110 -194.7382 -113.2726
ENERGY: 300000 0.1835 2.5119 2.8481 0.0000 -10834.0658 1460.5387 0.0000 0.0000 1851.2422 -7516.7413 311.9851 -9367.9835 -7579.0640 303.5753 401.3273 416.4902 30439.2688 -353.8519 -293.6805
ENERGY: 600000 0.3372 4.7061 3.9920 0.0000 -10952.1094 1513.8808 0.0000 0.0000 1745.2973 -7683.8958 294.1305 -9429.1932 -7604.8379 299.7585 252.5704 360.0065 30668.8475 -286.4219 -196.4616
ENERGY: 900000 2.4570 2.4995 4.5757 0.0000 -10772.6719 1412.4356 0.0000 0.0000 1791.3518 -7559.3523 301.8919 -9350.7042 -7595.1397 300.9249 -98.8818 -70.8542 30729.0866 -265.5394 -186.4227
ENERGY: 1200000 0.7668 2.8980 3.2394 0.0000 -10793.8188 1439.5187 0.0000 0.0000 1801.9226 -7545.4732 303.6734 -9347.3959 -7594.2214 301.2752 57.8449 54.2983 30694.4215 -119.2495 -44.3054
ENERGY: 1500000 0.9813 3.1055 2.8558 0.0000 -10935.1594 1470.7350 0.0000 0.0000 1812.9222 -7644.5596 305.5271 -9457.4818 -7613.1258 301.0860 129.1778 180.1956 30353.2702 -65.0724 8.4577
TCL: Running FEP window   6: Lambda1 0.25   Lambda2 0.3    [dLambda 0.04999999999999999]
TCL: Setting parameter firsttimestep to 0
TCL: Setting parameter alchLambda to 0.25
Info: NONBONDED TABLE R-SQUARED SPACING: 0.0625
Info: NONBONDED TABLE SIZE: 705 POINTS
TCL: Setting parameter alchLambda2 to 0.3
Info: NONBONDED TABLE R-SQUARED SPACING: 0.0625
Info: NONBONDED TABLE SIZE: 705 POINTS
TCL: Running for 1500000 steps
ETITLE: TS BOND ANGLE DIHED IMPRP ELECT VDW BOUNDARY MISC KINETIC TOTAL TEMP POTENTIAL TOTALAVG TEMPAVG PRESSURE GPRESSURE VOLUME PRESSAVG GPRESSAVG
ENERGY: 0 0.9813 3.1055 2.8558 0.0000 -10935.1593 1471.1910 0.0000 0.0000 1812.0314 -7644.9943 305.3770 -9457.0257 -7644.9943 305.3770 104.1975 184.4502 30353.2702 104.1975 184.4502
ENERGY: 300000 0.7060 1.4564 5.7238 0.0000 -10882.8174 1439.0656 0.0000 0.0000 1763.7670 -7672.0986 297.2431 -9435.8656 -7651.8725 299.0350 -365.9112 -248.6684 30584.6568 -44.9163 48.3617
ENERGY: 600000 0.2256 1.0468 2.9507 0.0000 -10770.5484 1407.9408 0.0000 0.0000 1823.5561 -7534.8283 307.3192 -9358.3844 -7612.5022 301.5559 -191.4601 -150.2053 30495.0541 -131.2125 -47.3017
ENERGY: 900000 0.9106 1.7148 2.9715 0.0000 -10895.4501 1473.3148 0.0000 0.0000 1763.9387 -7652.5997 297.2720 -9416.5384 -7611.8618 301.7918 359.8958 457.2383 29986.8929 -54.8129 18.5467
ENERGY: 1200000 1.2430 3.3868 4.6101 0.0000 -10788.6562 1415.5766 0.0000 0.0000 1823.7972 -7540.0425 307.3598 -9363.8397 -7607.4349 302.0836 -377.8828 -298.3360 31130.3799 -132.3499 -57.4281
ENERGY: 1500000 2.2354 1.3582 2.5123 0.0000 -10851.9400 1486.6746 0.0000 0.0000 1814.1121 -7545.0474 305.7276 -9359.1595 -7599.7020 302.2447 612.1970 561.4530 30550.3417 -107.5488 -44.4038
TCL: Running FEP window   7: Lambda1 0.3    Lambda2 0.35   [dLambda 0.04999999999999999]
TCL: Setting parameter firsttimestep to 0
TCL: Setting parameter alchLambda to 0.3
Info: NONBONDED TABLE R-SQUARED SPACING: 0.0625
Info: NONBONDED TABLE SIZE: 705 POINTS
TCL: Setting parameter alchLambda2 to 0.35
Info: NONBONDED TABLE R-SQUARED SPACING: 0.0625
Info: NONBONDED TABLE SIZE: 705 POINTS
TCL: Running for 1500000 steps
ETITLE: TS BOND ANGLE DIHED IMPRP ELECT VDW BOUNDARY MISC KINETIC TOTAL TEMP POTENTIAL TOTALAVG TEMPAVG PRESSURE GPRESSURE VOLUME PRESSAVG GPRESSAVG
ENERGY: 0 2.2354 1.3582 2.5123 0.0000 -10851.9398 1486.3684 0.0000 0.0000 1813.2347 -7546.2307 305.5798 -9359.4654 -7546.2307 305.5798 477.8148 561.6904 30550.3417 477.8148 561.6904
ENERGY: 300000 0.5365 1.9948 3.8534 0.0000 -10977.0259 1483.0026 0.0000 0.0000 1745.4160 -7742.2227 294.1505 -9487.6387 -7622.9066 300.7868 -51.4949 -18.7954 30655.8419 18.2739 95.1141
ENERGY: 600000 2.7533 2.7599 2.5628 0.0000 -11024.5424 1487.4126 0.0000 0.0000 1766.7677 -7762.2862 297.7488 -9529.0539 -7652.6706 300.9865 177.8226 252.9578 30040.0997 -1.0160 75.7895
ENERGY: 900000 0.7334 3.8234 7.6120 0.0000 -10870.6735 1486.2895 0.0000 0.0000 1819.7499 -7552.4654 306.6778 -9372.2152 -7638.7693 301.0616 206.3734 331.6094 30625.9466 143.9122 221.7664
ENERGY: 1200000 0.9548 3.6881 6.6167 0.0000 -10792.4192 1414.3687 0.0000 0.0000 1763.4208 -7603.3700 297.1848 -9366.7908 -7638.9873 300.2867 -556.2566 -435.1293 30885.2092 39.4305 118.9629
ENERGY: 1500000 0.2602 1.7435 6.5785 0.0000 -10823.6607 1375.9858 0.0000 0.0000 1808.5514 -7630.5414 304.7905 -9439.0927 -7628.5645 301.0647 -796.7996 -715.1897 30836.9878 -46.6723 27.3155
TCL: Running FEP window   8: Lambda1 0.35   Lambda2 0.39999999999999997 [dLambda 0.04999999999999999]
TCL: Setting parameter firsttimestep to 0
TCL: Setting parameter alchLambda to 0.35
Info: NONBONDED TABLE R-SQUARED SPACING: 0.0625
Info: NONBONDED TABLE SIZE: 705 POINTS
TCL: Setting parameter alchLambda2 to 0.39999999999999997
Info: NONBONDED TABLE R-SQUARED SPACING: 0.0625
Info: NONBONDED TABLE SIZE: 705 POINTS
TCL: Running for 1500000 steps
ETITLE: TS BOND ANGLE DIHED IMPRP ELECT VDW BOUNDARY MISC KINETIC TOTAL TEMP POTENTIAL TOTALAVG TEMPAVG PRESSURE GPRESSURE VOLUME PRESSAVG GPRESSAVG
ENERGY: 0 0.2602 1.7435 6.5785 0.0000 -10823.6604 1375.7200 0.0000 0.0000 1807.7035 -7631.6547 304.6476 -9439.3582 -7631.6547 304.6476 -802.6054 -715.5335 30836.9878 -802.6054 -715.5335
ENERGY: 300000 2.3488 2.5030 7.1586 0.0000 -10729.1072 1371.2085 0.0000 0.0000 1757.0831 -7588.8051 296.1167 -9345.8882 -7619.2106 299.1406 -388.6058 -347.7948 30629.8070 -94.9931 -55.6435
ENERGY: 600000 0.5435 4.3303 7.1825 0.0000 -10952.1581 1526.9064 0.0000 0.0000 1794.7991 -7618.3963 302.4729 -9413.1954 -7611.7853 301.5611 606.9800 676.8169 30506.7540 33.6869 83.4403
ENERGY: 900000 1.8221 2.9339 6.8879 0.0000 -10784.9315 1409.2572 0.0000 0.0000 1792.0938 -7571.9367 302.0169 -9364.0305 -7600.9540 302.2051 -370.2333 -335.9700 31091.2454 -35.9504 16.5984
ENERGY: 1200000 0.5545 8.3319 6.7203 0.0000 -10828.5468 1416.4304 0.0000 0.0000 1795.1021 -7601.4076 302.5239 -9396.5097 -7607.4460 302.8236 -401.4448 -333.3770 30995.0412 -98.3828 -40.5310
ENERGY: 1500000 0.9987 3.2820 6.5931 0.0000 -10845.3736 1369.5761 0.0000 0.0000 1767.4192 -7697.5045 297.8586 -9464.9237 -7610.1896 302.9883 -815.4986 -685.5811 30587.5930 -131.3721 -69.6615
TCL: Running FEP window   9: Lambda1 0.39999999999999997 Lambda2 0.44999999999999996 [dLambda 0.04999999999999999]
TCL: Setting parameter firsttimestep to 0
TCL: Setting parameter alchLambda to 0.39999999999999997
Info: NONBONDED TABLE R-SQUARED SPACING: 0.0625
Info: NONBONDED TABLE SIZE: 705 POINTS
TCL: Setting parameter alchLambda2 to 0.44999999999999996
Info: NONBONDED TABLE R-SQUARED SPACING: 0.0625
Info: NONBONDED TABLE SIZE: 705 POINTS
TCL: Running for 1500000 steps
ETITLE: TS BOND ANGLE DIHED IMPRP ELECT VDW BOUNDARY MISC KINETIC TOTAL TEMP POTENTIAL TOTALAVG TEMPAVG PRESSURE GPRESSURE VOLUME PRESSAVG GPRESSAVG
ENERGY: 0 0.9987 3.2820 6.5931 0.0000 -10845.3744 1369.6264 0.0000 0.0000 1766.5545 -7698.3197 297.7129 -9464.8742 -7698.3197 297.7129 -774.0581 -677.6567 30587.5930 -774.0581 -677.6567
ENERGY: 300000 0.4692 5.3034 6.9915 0.0000 -10819.1782 1427.2470 0.0000 0.0000 1765.9668 -7613.2004 297.6138 -9379.1672 -7686.0422 296.1827 -356.1011 -327.9990 31058.1790 -301.3023 -255.2730
ENERGY: 600000 0.8795 3.3020 6.3761 0.0000 -10691.0395 1324.5983 0.0000 0.0000 1788.9268 -7566.9568 301.4832 -9355.8836 -7649.0845 297.7127 -895.6202 -821.6340 30714.0837 -410.0665 -372.1943
ENERGY: 900000 0.1071 5.2375 6.5440 0.0000 -10841.5859 1362.1623 0.0000 0.0000 1713.6798 -7753.8552 288.8020 -9467.5350 -7665.8524 296.6881 -959.8580 -856.5408 30699.2566 -458.3432 -409.5720
ENERGY: 1200000 0.8854 6.4219 6.7425 0.0000 -10722.4893 1351.9151 0.0000 0.0000 1743.6340 -7612.8903 293.8502 -9356.5244 -7662.1451 296.2255 -645.7014 -665.0373 31053.0958 -504.9786 -456.9868
ENERGY: 1500000 1.6763 3.0615 6.4524 0.0000 -10853.2424 1440.9203 0.0000 0.0000 1772.3916 -7628.7404 298.6966 -9401.1319 -7655.1425 296.5744 -254.4867 -265.1301 31219.6987 -444.3744 -401.0889
TCL: Running FEP window  10: Lambda1 0.44999999999999996 Lambda2 0.49999999999999994 [dLambda 0.04999999999999999]
TCL: Setting parameter firsttimestep to 0
TCL: Setting parameter alchLambda to 0.44999999999999996
Info: NONBONDED TABLE R-SQUARED SPACING: 0.0625
Info: NONBONDED TABLE SIZE: 705 POINTS
TCL: Setting parameter alchLambda2 to 0.49999999999999994
Info: NONBONDED TABLE R-SQUARED SPACING: 0.0625
Info: NONBONDED TABLE SIZE: 705 POINTS
TCL: Running for 1500000 steps
ETITLE: TS BOND ANGLE DIHED IMPRP ELECT VDW BOUNDARY MISC KINETIC TOTAL TEMP POTENTIAL TOTALAVG TEMPAVG PRESSURE GPRESSURE VOLUME PRESSAVG GPRESSAVG
ENERGY: 0 1.6763 3.0615 6.4524 0.0000 -10853.2437 1441.3003 0.0000 0.0000 1771.4898 -7629.2634 298.5446 -9400.7532 -7629.2634 298.5446 -343.3347 -260.9307 31219.6987 -343.3347 -260.9307
ENERGY: 300000 0.1157 3.9041 6.8768 0.0000 -10797.8881 1395.5916 0.0000 0.0000 1783.6268 -7607.7732 300.5900 -9391.4000 -7585.3999 301.6404 -472.3164 -408.0401 30860.5854 -458.4057 -393.5338
ENERGY: 600000 0.1072 4.7374 6.5296 0.0000 -10784.0606 1427.6577 0.0000 0.0000 1830.1290 -7514.8997 308.4269 -9345.0287 -7590.3815 301.2771 -85.0585 27.8636 30630.6413 -199.8171 -122.7999
ENERGY: 900000 0.7339 4.1285 6.8049 0.0000 -10973.5370 1501.9147 0.0000 0.0000 1770.1686 -7689.7864 298.3220 -9459.9550 -7616.4315 300.4126 -155.7181 -115.4547 31195.7976 -126.2718 -57.9242
ENERGY: 1200000 1.1522 3.7999 6.6780 0.0000 -10733.3609 1399.8892 0.0000 0.0000 1730.6844 -7591.1572 291.6678 -9321.8416 -7608.0018 300.0188 -180.1900 -118.1016 30510.2723 -115.3370 -54.1895
ENERGY: 1500000 0.1054 3.4534 7.8314 0.0000 -10962.6635 1516.9870 0.0000 0.0000 1805.5130 -7628.7733 304.2785 -9434.2863 -7608.6996 300.7645 495.9287 518.2225 30570.0712 -64.9447 -3.0108
TCL: Running FEP window  11: Lambda1 0.49999999999999994 Lambda2 0.5499999999999999 [dLambda 0.04999999999999999]
TCL: Setting parameter firsttimestep to 0
TCL: Setting parameter alchLambda to 0.49999999999999994
Info: NONBONDED TABLE R-SQUARED SPACING: 0.0625
Info: NONBONDED TABLE SIZE: 705 POINTS
TCL: Setting parameter alchLambda2 to 0.5499999999999999
Info: NONBONDED TABLE R-SQUARED SPACING: 0.0625
Info: NONBONDED TABLE SIZE: 705 POINTS
TCL: Running for 1500000 steps
ETITLE: TS BOND ANGLE DIHED IMPRP ELECT VDW BOUNDARY MISC KINETIC TOTAL TEMP POTENTIAL TOTALAVG TEMPAVG PRESSURE GPRESSURE VOLUME PRESSAVG GPRESSAVG
ENERGY: 0 0.1054 3.4534 7.8314 0.0000 -10962.6644 1517.3034 0.0000 0.0000 1804.6012 -7629.3696 304.1248 -9433.9708 -7629.3696 304.1248 442.0960 523.0840 30570.0712 442.0960 523.0840
ENERGY: 300000 1.0579 5.1617 7.5114 0.0000 -10981.5569 1524.9335 0.0000 0.0000 1831.4458 -7611.4465 308.6488 -9442.8923 -7628.1301 301.5724 487.6542 556.2938 30494.3836 344.5824 399.7869
ENERGY: 600000 0.4348 7.1413 7.0273 0.0000 -10841.6230 1397.0946 0.0000 0.0000 1831.3280 -7598.5970 308.6290 -9429.9250 -7618.0268 302.5689 -307.6755 -143.2838 30158.1437 139.3977 213.1624
ENERGY: 900000 0.6127 4.1542 6.9284 0.0000 -10885.9132 1419.9022 0.0000 0.0000 1819.9406 -7634.3752 306.7099 -9454.3158 -7611.0631 303.0259 -186.9797 -185.6832 30484.2852 165.6517 225.8061
ENERGY: 1200000 0.2688 2.0029 6.3892 0.0000 -10785.1803 1397.7729 0.0000 0.0000 1770.9447 -7607.8018 298.4528 -9378.7465 -7619.3527 301.7899 -223.5279 -152.4443 30481.9022 20.5729 79.3634
ENERGY: 1500000 3.8727 3.1614 7.3936 0.0000 -10973.9761 1525.2110 0.0000 0.0000 1695.4505 -7738.8868 285.7299 -9434.3373 -7631.7672 300.6920 422.8834 443.0649 30595.5720 -37.9192 18.0106
TCL: Running FEP window  12: Lambda1 0.5499999999999999 Lambda2 0.6    [dLambda 0.050000000000000044]
TCL: Setting parameter firsttimestep to 0
TCL: Setting parameter alchLambda to 0.5499999999999999
Info: NONBONDED TABLE R-SQUARED SPACING: 0.0625
Info: NONBONDED TABLE SIZE: 705 POINTS
TCL: Setting parameter alchLambda2 to 0.6
Info: NONBONDED TABLE R-SQUARED SPACING: 0.0625
Info: NONBONDED TABLE SIZE: 705 POINTS
TCL: Running for 1500000 steps
ETITLE: TS BOND ANGLE DIHED IMPRP ELECT VDW BOUNDARY MISC KINETIC TOTAL TEMP POTENTIAL TOTALAVG TEMPAVG PRESSURE GPRESSURE VOLUME PRESSAVG GPRESSAVG
ENERGY: 0 3.8727 3.1614 7.3936 0.0000 -10973.7769 1524.9518 0.0000 0.0000 1694.5514 -7739.8460 285.5784 -9434.3974 -7739.8460 285.5784 365.0705 445.3899 30595.5720 365.0705 445.3899
ENERGY: 300000 0.7097 3.6410 6.5791 0.0000 -10939.8751 1497.9344 0.0000 0.0000 1775.6003 -7655.4105 299.2373 -9431.0108 -7644.7716 293.2648 178.5011 201.4637 30784.3517 -29.0155 17.9366
ENERGY: 600000 0.3400 7.3239 6.7270 0.0000 -10863.0720 1456.8282 0.0000 0.0000 1846.5247 -7545.3282 311.1901 -9391.8529 -7628.7813 298.6290 304.9892 302.6504 30547.3312 169.7099 221.9943
ENERGY: 900000 0.4711 4.2439 6.6066 0.0000 -10779.0598 1399.2588 0.0000 0.0000 1827.7585 -7540.7209 308.0274 -9368.4794 -7618.0661 300.3552 -379.7559 -329.9353 30901.3904 -42.5869 8.8570
ENERGY: 1200000 1.5024 5.7251 7.6136 0.0000 -10888.1115 1473.1427 0.0000 0.0000 1764.9119 -7635.2158 297.4361 -9400.1277 -7624.0687 300.2744 427.1513 441.4074 30270.1383 19.6844 72.2763
ENERGY: 1500000 2.7171 4.1589 7.0048 0.0000 -10844.3604 1434.5269 0.0000 0.0000 1792.4065 -7603.5463 302.0697 -9395.9528 -7631.5056 300.1732 -203.3274 -103.7992 30843.6005 -122.4655 -65.6418
TCL: Running FEP window  13: Lambda1 0.6    Lambda2 0.65   [dLambda 0.050000000000000044]
TCL: Setting parameter firsttimestep to 0
TCL: Setting parameter alchLambda to 0.6
Info: NONBONDED TABLE R-SQUARED SPACING: 0.0625
Info: NONBONDED TABLE SIZE: 705 POINTS
TCL: Setting parameter alchLambda2 to 0.65
Info: NONBONDED TABLE R-SQUARED SPACING: 0.0625
Info: NONBONDED TABLE SIZE: 705 POINTS
TCL: Running for 1500000 steps
ETITLE: TS BOND ANGLE DIHED IMPRP ELECT VDW BOUNDARY MISC KINETIC TOTAL TEMP POTENTIAL TOTALAVG TEMPAVG PRESSURE GPRESSURE VOLUME PRESSAVG GPRESSAVG
ENERGY: 0 2.7170 4.1589 7.0048 0.0000 -10844.8941 1435.0148 0.0000 0.0000 1791.5511 -7604.4475 301.9255 -9395.9986 -7604.4475 301.9255 -183.8808 -95.8881 30843.6005 -183.8808 -95.8881
ENERGY: 300000 0.9813 5.3009 6.4077 0.0000 -10919.0047 1484.7394 0.0000 0.0000 1817.3714 -7604.2041 306.2769 -9421.5755 -7649.2634 301.5069 188.0493 302.1738 30494.5497 -18.0667 52.8888
ENERGY: 600000 3.1554 2.3899 7.0027 0.0000 -10770.0841 1401.3949 0.0000 0.0000 1852.7107 -7503.4305 312.2326 -9356.1412 -7639.5465 301.9492 -149.3231 -72.5081 30783.1081 -66.3077 0.6137
ENERGY: 900000 0.9410 3.5750 8.1969 0.0000 -10743.1473 1409.4266 0.0000 0.0000 1793.6268 -7527.3810 302.2753 -9321.0078 -7621.7498 301.5152 -19.9612 26.4860 30285.2142 -139.0128 -75.9060
ENERGY: 1200000 0.4595 6.7850 7.7247 0.0000 -10905.4569 1494.1180 0.0000 0.0000 1785.5237 -7610.8459 300.9097 -9396.3697 -7631.4398 300.2410 323.0112 278.4081 30557.3570 -7.2386 42.6088
ENERGY: 1500000 0.5117 4.9499 7.0940 0.0000 -10813.7878 1452.7833 0.0000 0.0000 1781.9909 -7566.4580 300.3143 -9348.4489 -7627.8751 300.4672 -122.8178 -53.7110 31063.5472 -9.7875 48.6368
TCL: Running FEP window  14: Lambda1 0.65   Lambda2 0.7000000000000001 [dLambda 0.050000000000000044]
TCL: Setting parameter firsttimestep to 0
TCL: Setting parameter alchLambda to 0.65
Info: NONBONDED TABLE R-SQUARED SPACING: 0.0625
Info: NONBONDED TABLE SIZE: 705 POINTS
TCL: Setting parameter alchLambda2 to 0.7000000000000001
Info: NONBONDED TABLE R-SQUARED SPACING: 0.0625
Info: NONBONDED TABLE SIZE: 705 POINTS
TCL: Running for 1500000 steps
ETITLE: TS BOND ANGLE DIHED IMPRP ELECT VDW BOUNDARY MISC KINETIC TOTAL TEMP POTENTIAL TOTALAVG TEMPAVG PRESSURE GPRESSURE VOLUME PRESSAVG GPRESSAVG
ENERGY: 0 0.5117 4.9499 7.0940 0.0000 -10813.9979 1452.8023 0.0000 0.0000 1781.0904 -7567.5496 300.1626 -9348.6399 -7567.5496 300.1626 -132.6191 -52.0295 31063.5472 -132.6191 -52.0295
ENERGY: 300000 0.3404 2.3299 6.7099 0.0000 -10794.5792 1339.2288 0.0000 0.0000 1770.1053 -7675.8649 298.3113 -9445.9702 -7618.3342 298.3910 -895.7940 -804.2544 30315.1753 -627.8602 -538.3624
ENERGY: 600000 1.7697 4.5992 7.1184 0.0000 -10847.7961 1438.9279 0.0000 0.0000 1758.9702 -7636.4107 296.4347 -9395.3809 -7635.1793 297.3213 -124.7287 -70.3693 30698.2615 -378.8220 -308.3695
ENERGY: 900000 0.1981 2.9032 7.5812 0.0000 -10796.4846 1367.7011 0.0000 0.0000 1828.7450 -7589.3560 308.1937 -9418.1010 -7615.6973 300.9837 -755.4820 -736.3748 30903.7321 -282.1862 -229.5490
ENERGY: 1200000 0.3418 4.6149 6.5013 0.0000 -10888.3448 1475.0858 0.0000 0.0000 1801.2443 -7600.5567 303.5591 -9401.8010 -7615.0123 301.6050 149.8326 177.7552 30874.4637 -158.5941 -108.3332
ENERGY: 1500000 0.1332 2.9383 6.8841 0.0000 -10895.8809 1422.5880 0.0000 0.0000 1755.5515 -7707.7857 295.8586 -9463.3372 -7623.0895 301.5170 -516.2168 -471.4254 30860.6908 -186.8177 -136.7886
TCL: Running FEP window  15: Lambda1 0.7000000000000001 Lambda2 0.7500000000000001 [dLambda 0.050000000000000044]
TCL: Setting parameter firsttimestep to 0
TCL: Setting parameter alchLambda to 0.7000000000000001
Info: NONBONDED TABLE R-SQUARED SPACING: 0.0625
Info: NONBONDED TABLE SIZE: 705 POINTS
TCL: Setting parameter alchLambda2 to 0.7500000000000001
Info: NONBONDED TABLE R-SQUARED SPACING: 0.0625
Info: NONBONDED TABLE SIZE: 705 POINTS
TCL: Running for 1500000 steps
ETITLE: TS BOND ANGLE DIHED IMPRP ELECT VDW BOUNDARY MISC KINETIC TOTAL TEMP POTENTIAL TOTALAVG TEMPAVG PRESSURE GPRESSURE VOLUME PRESSAVG GPRESSAVG
ENERGY: 0 0.1332 2.9383 6.8841 0.0000 -10897.2886 1424.3546 0.0000 0.0000 1754.6851 -7708.2933 295.7126 -9462.9783 -7708.2933 295.7126 -524.5117 -450.4394 30860.6908 -524.5117 -450.4394
ENERGY: 300000 0.3439 3.4681 7.7486 0.0000 -10706.3304 1361.7280 0.0000 0.0000 1766.2630 -7566.7787 297.6638 -9333.0418 -7639.5299 299.8707 -501.8454 -459.0744 30809.5678 -303.9162 -231.5510
ENERGY: 600000 0.8685 2.7082 7.1247 0.0000 -10889.3504 1422.7695 0.0000 0.0000 1776.4229 -7679.4566 299.3760 -9455.8796 -7642.7289 299.0868 -649.8304 -612.8087 31114.4619 -165.3244 -99.9847
ENERGY: 900000 0.5862 3.1316 6.5242 0.0000 -10919.9577 1437.6475 0.0000 0.0000 1809.3326 -7662.7356 304.9222 -9472.0682 -7633.4760 301.0367 -167.6439 -80.8716 30498.5796 -52.6793 23.9083
ENERGY: 1200000 0.3055 5.0200 6.9901 0.0000 -10727.5874 1367.0473 0.0000 0.0000 1702.6723 -7645.5523 286.9470 -9348.2245 -7620.4231 300.0501 -764.7862 -775.6981 31279.1748 -95.6875 -25.7319
ENERGY: 1500000 2.5292 2.8999 6.4716 0.0000 -10904.1469 1443.3953 0.0000 0.0000 1729.5854 -7719.2655 291.4826 -9448.8509 -7624.1018 299.3738 -436.0850 -343.8535 31021.6203 -76.8359 -4.5313
TCL: Running FEP window  16: Lambda1 0.7500000000000001 Lambda2 0.8000000000000002 [dLambda 0.050000000000000044]
TCL: Setting parameter firsttimestep to 0
TCL: Setting parameter alchLambda to 0.7500000000000001
Info: NONBONDED TABLE R-SQUARED SPACING: 0.0625
Info: NONBONDED TABLE SIZE: 705 POINTS
TCL: Setting parameter alchLambda2 to 0.8000000000000002
Info: NONBONDED TABLE R-SQUARED SPACING: 0.0625
Info: NONBONDED TABLE SIZE: 705 POINTS
TCL: Running for 1500000 steps
ETITLE: TS BOND ANGLE DIHED IMPRP ELECT VDW BOUNDARY MISC KINETIC TOTAL TEMP POTENTIAL TOTALAVG TEMPAVG PRESSURE GPRESSURE VOLUME PRESSAVG GPRESSAVG
ENERGY: 0 2.5292 2.8999 6.4716 0.0000 -10905.7285 1444.3665 0.0000 0.0000 1728.6439 -7720.8173 291.3239 -9449.4612 -7720.8173 291.3239 -424.2679 -333.3126 31021.6203 -424.2679 -333.3126
ENERGY: 300000 2.2523 4.2287 6.4423 0.0000 -10812.8966 1412.3605 0.0000 0.0000 1753.6034 -7634.0094 295.5303 -9387.6128 -7672.8475 295.7015 -165.8830 -134.7602 30634.5175 -298.5341 -237.9931
ENERGY: 600000 0.4389 3.9921 6.8049 0.0000 -10894.9100 1507.7431 0.0000 0.0000 1798.3677 -7577.5633 303.0743 -9375.9310 -7650.3361 298.5932 469.1473 540.0242 30664.3856 -84.8130 -20.2559
ENERGY: 900000 0.0869 3.2155 6.7450 0.0000 -10863.6691 1481.2514 0.0000 0.0000 1800.4981 -7571.8723 303.4333 -9372.3704 -7637.2204 298.6363 273.5793 299.8193 30767.7449 -79.1657 -22.1184
ENERGY: 1200000 1.1378 2.8054 7.3389 0.0000 -10890.8106 1393.3214 0.0000 0.0000 1773.7317 -7712.4754 298.9224 -9486.2071 -7638.8683 299.5358 -371.2589 -280.6176 30234.6025 -95.1553 -29.7458
ENERGY: 1500000 0.8554 4.8975 6.3331 0.0000 -10916.1468 1475.0641 0.0000 0.0000 1824.6712 -7604.3255 307.5071 -9428.9967 -7641.3771 300.0490 20.7276 79.5964 30581.1324 -61.9375 2.2654
TCL: Running FEP window  17: Lambda1 0.8000000000000002 Lambda2 0.8500000000000002 [dLambda 0.050000000000000044]
TCL: Setting parameter firsttimestep to 0
TCL: Setting parameter alchLambda to 0.8000000000000002
Info: NONBONDED TABLE R-SQUARED SPACING: 0.0625
Info: NONBONDED TABLE SIZE: 705 POINTS
TCL: Setting parameter alchLambda2 to 0.8500000000000002
Info: NONBONDED TABLE R-SQUARED SPACING: 0.0625
Info: NONBONDED TABLE SIZE: 705 POINTS
TCL: Running for 1500000 steps
ETITLE: TS BOND ANGLE DIHED IMPRP ELECT VDW BOUNDARY MISC KINETIC TOTAL TEMP POTENTIAL TOTALAVG TEMPAVG PRESSURE GPRESSURE VOLUME PRESSAVG GPRESSAVG
ENERGY: 0 0.8554 4.8975 6.3331 0.0000 -10918.3644 1476.0442 0.0000 0.0000 1823.7877 -7606.4466 307.3582 -9430.2343 -7606.4466 307.3582 17.2733 89.6624 30581.1324 17.2733 89.6624
ENERGY: 300000 0.5378 3.0175 6.9061 0.0000 -10894.8662 1443.6951 0.0000 0.0000 1812.4735 -7628.2361 305.4515 -9440.7096 -7601.7192 303.1610 -271.7594 -221.9802 31073.6463 -70.6640 6.8821
ENERGY: 600000 0.4484 2.8717 8.2159 0.0000 -10986.9556 1513.6506 0.0000 0.0000 1829.0943 -7632.6748 308.2525 -9461.7690 -7605.9822 302.6411 48.8393 118.3785 31192.7452 -212.7027 -146.8353
ENERGY: 900000 1.4897 2.3651 7.2598 0.0000 -10857.9631 1382.9583 0.0000 0.0000 1750.8877 -7713.0024 295.0726 -9463.8902 -7626.4799 300.6828 -709.3203 -697.2704 30831.0232 -146.7620 -102.0057
ENERGY: 1200000 0.6105 2.0139 7.4681 0.0000 -10882.7073 1434.4576 0.0000 0.0000 1809.3366 -7628.8208 304.9228 -9438.1574 -7626.7376 301.0037 -307.7024 -285.4430 30715.4013 -90.6071 -38.1946
ENERGY: 1500000 1.9677 4.1492 7.3728 0.0000 -10907.8581 1443.5988 0.0000 0.0000 1854.5357 -7596.2338 312.5401 -9450.7695 -7619.5092 301.8103 -131.2939 -73.7462 30972.6210 -186.6751 -137.0199
TCL: Running FEP window  18: Lambda1 0.8500000000000002 Lambda2 0.9000000000000002 [dLambda 0.050000000000000044]
TCL: Setting parameter firsttimestep to 0
TCL: Setting parameter alchLambda to 0.8500000000000002
Info: NONBONDED TABLE R-SQUARED SPACING: 0.0625
Info: NONBONDED TABLE SIZE: 705 POINTS
TCL: Setting parameter alchLambda2 to 0.9000000000000002
Info: NONBONDED TABLE R-SQUARED SPACING: 0.0625
Info: NONBONDED TABLE SIZE: 705 POINTS
TCL: Running for 1500000 steps
ETITLE: TS BOND ANGLE DIHED IMPRP ELECT VDW BOUNDARY MISC KINETIC TOTAL TEMP POTENTIAL TOTALAVG TEMPAVG PRESSURE GPRESSURE VOLUME PRESSAVG GPRESSAVG
ENERGY: 0 1.9677 4.1492 7.3728 0.0000 -10908.7156 1445.2660 0.0000 0.0000 1853.6661 -7596.2937 312.3936 -9449.9598 -7596.2937 312.3936 -124.0803 -49.5261 30972.6210 -124.0803 -49.5261
ENERGY: 300000 4.4245 4.7608 7.1553 0.0000 -10928.0520 1545.5936 0.0000 0.0000 1757.2370 -7608.8808 296.1426 -9366.1178 -7626.6841 301.5071 953.0315 971.3205 30658.7649 92.7480 149.7444
ENERGY: 600000 0.4970 2.8448 6.5235 0.0000 -10639.9195 1345.0565 0.0000 0.0000 1794.0567 -7490.9411 302.3477 -9284.9977 -7606.5682 301.5488 -719.3485 -617.6452 31356.8661 -96.9335 -41.3482
ENERGY: 900000 0.8043 3.4313 7.2671 0.0000 -10939.2438 1465.8326 0.0000 0.0000 1825.3679 -7636.5407 307.6245 -9461.9086 -7612.4894 302.0485 -28.0767 38.0192 30681.0904 -73.2821 -11.4751
ENERGY: 1200000 1.4839 1.7676 7.4592 0.0000 -11036.3057 1576.4034 0.0000 0.0000 1834.6015 -7614.5903 309.1807 -9449.1917 -7616.0061 302.6562 1028.2854 1009.7558 30465.2855 72.2758 129.9227
ENERGY: 1500000 1.3939 1.7324 6.7056 0.0000 -10801.1177 1377.4386 0.0000 0.0000 1813.5182 -7600.3290 305.6276 -9413.8472 -7614.9796 303.2438 -614.6888 -621.6683 30795.8500 -79.8276 -20.4137
TCL: Running FEP window  19: Lambda1 0.9000000000000002 Lambda2 0.9500000000000003 [dLambda 0.050000000000000044]
TCL: Setting parameter firsttimestep to 0
TCL: Setting parameter alchLambda to 0.9000000000000002
Info: NONBONDED TABLE R-SQUARED SPACING: 0.0625
Info: NONBONDED TABLE SIZE: 705 POINTS
TCL: Setting parameter alchLambda2 to 0.9500000000000003
Info: NONBONDED TABLE R-SQUARED SPACING: 0.0625
Info: NONBONDED TABLE SIZE: 705 POINTS
TCL: Running for 1500000 steps
ETITLE: TS BOND ANGLE DIHED IMPRP ELECT VDW BOUNDARY MISC KINETIC TOTAL TEMP POTENTIAL TOTALAVG TEMPAVG PRESSURE GPRESSURE VOLUME PRESSAVG GPRESSAVG
ENERGY: 0 1.3939 1.7324 6.7056 0.0000 -10802.1911 1378.5720 0.0000 0.0000 1812.6408 -7601.1464 305.4797 -9413.7873 -7601.1464 305.4797 -687.5587 -605.5444 30795.8500 -687.5587 -605.5444
ENERGY: 300000 0.4723 2.9338 8.3162 0.0000 -11027.0069 1537.8391 0.0000 0.0000 1792.9161 -7684.5294 302.1555 -9477.4456 -7687.3021 297.5414 702.1247 803.5622 30204.6086 -295.4707 -201.6948
ENERGY: 600000 0.6097 3.6938 7.9043 0.0000 -10780.8958 1409.5023 0.0000 0.0000 1736.8277 -7622.3580 292.7031 -9359.1857 -7662.9092 298.1388 -457.2298 -406.2903 30959.2402 -272.9311 -206.3230
ENERGY: 900000 0.1114 5.5943 7.7036 0.0000 -10826.8431 1418.7031 0.0000 0.0000 1814.8490 -7579.8817 305.8518 -9394.7307 -7653.7155 298.5323 -357.6577 -219.3645 31016.6919 -215.7450 -139.5064
ENERGY: 1200000 0.8675 2.0291 6.5717 0.0000 -11059.2826 1587.6045 0.0000 0.0000 1737.4819 -7724.7279 292.8134 -9462.2098 -7651.1678 298.7153 991.0226 1024.8154 30511.0311 -138.4515 -65.6331
ENERGY: 1500000 0.3433 4.8573 8.0327 0.0000 -10855.2675 1413.7379 0.0000 0.0000 1780.4654 -7647.8309 300.0572 -9428.2963 -7640.0630 299.8116 -394.1590 -283.8691 30479.1172 -124.5058 -51.4093
TCL: Running FEP window  20: Lambda1 0.9500000000000003 Lambda2 1.0    [dLambda 0.04999999999999971]
TCL: Setting parameter firsttimestep to 0
TCL: Setting parameter alchLambda to 0.9500000000000003
Info: NONBONDED TABLE R-SQUARED SPACING: 0.0625
Info: NONBONDED TABLE SIZE: 705 POINTS
TCL: Setting parameter alchLambda2 to 1.0
Info: NONBONDED TABLE R-SQUARED SPACING: 0.0625
Info: NONBONDED TABLE SIZE: 705 POINTS
TCL: Running for 1500000 steps
ETITLE: TS BOND ANGLE DIHED IMPRP ELECT VDW BOUNDARY MISC KINETIC TOTAL TEMP POTENTIAL TOTALAVG TEMPAVG PRESSURE GPRESSURE VOLUME PRESSAVG GPRESSAVG
ENERGY: 0 0.3433 4.8573 8.0327 0.0000 -10856.6533 1414.6254 0.0000 0.0000 1779.5450 -7649.2495 299.9021 -9428.7946 -7649.2495 299.9021 -356.6411 -266.7617 30479.1172 -356.6411 -266.7617
ENERGY: 300000 0.2091 1.7004 6.8188 0.0000 -10904.3886 1455.7467 0.0000 0.0000 1792.8704 -7647.0432 302.1478 -9439.9136 -7668.6594 298.2756 117.0589 157.3439 30562.3393 -21.4983 44.8313
ENERGY: 600000 1.0255 6.2709 7.3573 0.0000 -10953.4411 1484.3154 0.0000 0.0000 1792.8140 -7661.6581 302.1383 -9454.4720 -7657.1263 299.4131 82.6093 188.4223 30549.5735 -1.9143 58.6648
ENERGY: 900000 1.7189 2.6724 8.0814 0.0000 -10822.0650 1381.0554 0.0000 0.0000 1823.8776 -7604.6594 307.3734 -9428.5370 -7639.8921 301.0463 -464.9200 -426.6897 30721.6160 -99.8393 -35.6859
ENERGY: 1200000 1.3705 1.2602 7.0919 0.0000 -10959.5985 1507.6522 0.0000 0.0000 1829.4355 -7612.7882 308.3101 -9442.2237 -7631.6111 301.5411 414.3267 441.8692 30744.0415 -88.8552 -29.8006
ENERGY: 1500000 1.6832 3.2948 7.8903 0.0000 -10750.4503 1341.2341 0.0000 0.0000 1800.7949 -7595.5530 303.4833 -9396.3479 -7628.2800 301.9171 -763.2515 -655.3592 30504.0867 -141.3536 -83.9710
TCL: Exiting due to exit command.
