Info: SIMULATION PARAMETERS:
Info: TIMESTEP               2
Info: NUMBER OF STEPS        0
Info: STEPS PER CYCLE        10
Info: PERIODIC CELL BASIS 1  30.2847 0 0
Info: PERIODIC CELL BASIS 2  0 31.2231 0
Info: PERIODIC CELL BASIS 3  0 0 31.7446
Info: PERIODIC CELL CENTER   0 0 0
Info: WRAPPING WATERS AROUND PERIODIC BOUNDARIES ON OUTPUT.
Info: WRAPPING ALL CLUSTERS AROUND PERIODIC BOUNDARIES ON OUTPUT.
Info: FIRST LDB TIMESTEP     50
Info: LAST LDB TIMESTEP     -1
Info: HOM BACKGROUND SCALING 1
Info: PME BACKGROUND SCALING 1
Info: MIN ATOMS PER PATCH    40
Info: EMPTY PATCH LOAD       40 ATOMS
Info: VELOCITY FILE          mobley_9557440_equil.vel
Info: CENTER OF MASS MOVING INITIALLY? NO
Info: DIELECTRIC             1
Info: EXCLUDE                SCALED ONE-FOUR
Info: 1-4 ELECTROSTATICS SCALED BY 0.833333
Info: MODIFIED 1-4 VDW PARAMETERS WILL BE USED
Info: DCD FILENAME           mobley_9557440_prod.dcd
Info: DCD FREQUENCY          100000
Info: DCD FIRST STEP         100000
Info: DCD FILE WILL CONTAIN UNIT CELL DATA
Info: XST FILENAME           mobley_9557440_prod.xst
Info: XST FREQUENCY          100000
Info: NO VELOCITY DCD OUTPUT
Info: NO FORCE DCD OUTPUT
Info: OUTPUT FILENAME        mobley_9557440_prod
Info: BINARY OUTPUT FILES WILL BE USED
Info: RESTART FILENAME       mobley_9557440_prod.restart
Info: RESTART FREQUENCY      100000
Info: BINARY RESTART FILES WILL BE USED
Info: CUTOFF                 9
Info: PAIRLIST DISTANCE      11
Info: PAIRLIST SHRINK RATE   0.01
Info: PAIRLIST GROW RATE     0.01
Info: PAIRLIST TRIGGER       0.3
Info: PAIRLISTS PER CYCLE    2
Info: PAIRLISTS ENABLED
Info: MARGIN                 2
Info: HYDROGEN GROUP CUTOFF  2.5
Info: PATCH DIMENSION        15.5
Info: ENERGY OUTPUT STEPS    100000
Info: ENERGY EVALUATION STEPS    100000
Info: OUTPUT ENERGY PRECISION 4
Info: CROSSTERM ENERGY INCLUDED IN DIHEDRAL
Info: TIMING OUTPUT STEPS    1000000
Info: PRESSURE OUTPUT STEPS  100000
Info: ALCHEMICAL FEP ON
Info: FEP CURRENT LAMBDA VALUE     0
Info: FEP COMPARISON LAMBDA VALUE  0.05
Info: FEP INTRA-ALCHEMICAL NON-BONDED INTERACTIONS WILL BE RETAINED
Info: FEP INTRA-ALCHEMICAL BONDED INTERACTIONS WILL BE RETAINED
Info: FEP VDW SHIFTING COEFFICIENT 5
Info: FEP ELEC. ACTIVE FOR ANNIHILATED PARTICLES BETWEEN LAMBDA = 0 AND LAMBDA = 0.5
Info: FEP ELEC. ACTIVE FOR EXNIHILATED PARTICLES BETWEEN LAMBDA = 0.5 AND LAMBDA = 1
Info: FEP VDW ACTIVE FOR ANNIHILATED PARTICLES BETWEEN LAMBDA = 0 AND LAMBDA = 1
Info: FEP VDW ACTIVE FOR EXNIHILATED PARTICLES BETWEEN LAMBDA = 0 AND LAMBDA = 1
Info: FEP BOND ACTIVE FOR ANNIHILATED PARTICLES BETWEEN LAMBDA = 1 AND LAMBDA = 1
Info: FEP BOND ACTIVE FOR EXNIHILATED PARTICLES BETWEEN LAMBDA = 0 AND LAMBDA = 0
Info: LANGEVIN DYNAMICS ACTIVE
Info: LANGEVIN TEMPERATURE   300
Info: LANGEVIN USING BBK INTEGRATOR
Info: LANGEVIN DAMPING COEFFICIENT IS 1 INVERSE PS
Info: LANGEVIN DYNAMICS APPLIED TO HYDROGENS
Info: LANGEVIN PISTON PRESSURE CONTROL ACTIVE
Info:        TARGET PRESSURE IS 1.01325 BAR
Info:     OSCILLATION PERIOD IS 50 FS
Info:             DECAY TIME IS 25 FS
Info:     PISTON TEMPERATURE IS 300 K
Info:       PRESSURE CONTROL IS GROUP-BASED
Info:    INITIAL STRAIN RATE IS 0.000388635 0.000388635 0.000388635
Info:       CELL FLUCTUATION IS ISOTROPIC
Info: PARTICLE MESH EWALD (PME) ACTIVE
Info: PME TOLERANCE               1e-06
Info: PME EWALD COEFFICIENT       0.348832
Info: PME INTERPOLATION ORDER     4
Info: PME GRID DIMENSIONS         32 32 32
Info: PME MAXIMUM GRID SPACING    1
Info: PME CALCULATION WILL BE PERFORMED ON GPU
Info: FULL ELECTROSTATIC EVALUATION FREQUENCY      2
Info: USING VERLET I (r-RESPA) MTS SCHEME.
Info: C1 SPLITTING OF LONG RANGE ELECTROSTATICS
Info: PLACING ATOMS IN PATCHES BY HYDROGEN GROUPS
Info: RIGID BONDS TO HYDROGEN : ALL
Info:         ERROR TOLERANCE : 1e-08
Info:          MAX ITERATIONS : 100
Info: RIGID WATER USING SETTLE ALGORITHM
Info: RANDOM NUMBER SEED     1743541884
Info: USE HYDROGEN BONDS?    NO
Info: Using AMBER format force field!
Info: AMBER PARM FILE        mobley_9557440.prmtop
Info: COORDINATE PDB         mobley_9557440.pdb
Info: Exclusions will be read from PARM file!
Info: SCNB (VDW SCALING)     2
Info: USING ARITHMETIC MEAN TO COMBINE L-J SIGMA PARAMETERS
Info: BINARY COORDINATES     mobley_9557440_equil.coor
Info: SUMMARY OF PARAMETERS:
Info: 10 BONDS
Info: 14 ANGLES
Info:   14 HARMONIC
Info:   0 COSINE-BASED
Info: 7 DIHEDRAL
Info: 0 IMPROPER
Info: 0 CROSSTERM
Info: 0 VDW
Info: 36 VDW_PAIRS
Info: 0 NBTHOLE_PAIRS
Info: To read alchdata from file: mobley_9557440.pdb
Info: To read alchflag data from column: 5
Info: STRUCTURE SUMMARY:
Info: 2922 ATOMS
Info: 2922 BONDS
Info: 18 ANGLES
Info: 33 DIHEDRALS
Info: 0 IMPROPERS
Info: 0 CROSSTERMS
Info: 2961 EXCLUSIONS
Info: 2913 RIGID BONDS
Info: ALCH: 0 ATOMS TO DISAPPEAR IN FINAL STATE
Info: ALCH: 12 ATOMS TO APPEAR IN FINAL STATE
Info: 5853 DEGREES OF FREEDOM
Info: 979 HYDROGEN GROUPS
Info: 3 ATOMS IN LARGEST HYDROGEN GROUP
Info: 979 MIGRATION GROUPS
Info: 3 ATOMS IN LARGEST MIGRATION GROUP
Info: TOTAL MASS = 17622.1 amu
Info: TOTAL CHARGE = 0.000100046 e
Info: MASS DENSITY = 0.974869 g/cm^3
Info: ATOM DENSITY = 0.0973443 atoms/A^3
Info: ADDED 0 IMPLICIT EXCLUSIONS
Info: NONBONDED TABLE R-SQUARED SPACING: 0.0625
Info: NONBONDED TABLE SIZE: 705 POINTS
Info: REMOVING COM VELOCITY -0.168401 -0.0351409 0.100635
Info: Use 3D box decompostion in PME FFT.
Info: Updated CUDA force table with 4096 elements.
Info: Updated CUDA LJ table with 8 x 8 elements.
Info: Found 14 unique exclusion lists needing 24 bytes
TCL: Running for 1500000 steps
ETITLE: TS BOND ANGLE DIHED IMPRP ELECT VDW BOUNDARY MISC KINETIC TOTAL TEMP POTENTIAL TOTALAVG TEMPAVG PRESSURE GPRESSURE VOLUME PRESSAVG GPRESSAVG
ENERGY: 0 2.0120 3.9530 16.9950 0.0000 -10791.9372 1424.0726 0.0000 0.0000 1786.6736 -7558.2310 307.2254 -9344.9046 -7558.2310 307.2254 -247.3411 -177.9448 30017.1547 -247.3411 -177.9448
ENERGY: 300000 2.0893 3.1833 12.5085 0.0000 -10736.7047 1419.3659 0.0000 0.0000 1735.3781 -7564.1797 298.4049 -9299.5578 -7566.5334 300.5845 -298.6837 -236.0933 30217.2647 83.2626 151.5369
ENERGY: 600000 9.4897 3.4488 15.5227 0.0000 -10772.7703 1464.5112 0.0000 0.0000 1743.1826 -7536.6152 299.7469 -9279.7978 -7561.5551 298.5334 462.2373 486.2860 30092.1971 201.3466 269.0440
ENERGY: 900000 3.6461 5.3136 14.0684 0.0000 -10841.6162 1439.3027 0.0000 0.0000 1760.1731 -7619.1124 302.6685 -9379.2854 -7567.4776 299.8183 -21.2524 10.5516 30031.0148 238.3067 304.9985
ENERGY: 1200000 0.7495 3.2601 14.6656 0.0000 -10762.0012 1427.0919 0.0000 0.0000 1750.5444 -7565.6897 301.0128 -9316.2341 -7564.6817 300.9194 -282.4665 -221.8697 30156.4347 173.1809 234.3427
ENERGY: 1500000 4.0234 1.8110 12.8646 0.0000 -10644.7428 1391.1812 0.0000 0.0000 1781.9277 -7452.9348 306.4093 -9234.8626 -7553.3815 300.6102 -305.4331 -295.7093 30575.0323 164.9594 225.6301
TCL: Running FEP window   2: Lambda1 0.05   Lambda2 0.1    [dLambda 0.05  ]
TCL: Setting parameter firsttimestep to 0
TCL: Setting parameter alchLambda to 0.05
Info: NONBONDED TABLE R-SQUARED SPACING: 0.0625
Info: NONBONDED TABLE SIZE: 705 POINTS
TCL: Setting parameter alchLambda2 to 0.1
Info: NONBONDED TABLE R-SQUARED SPACING: 0.0625
Info: NONBONDED TABLE SIZE: 705 POINTS
TCL: Running for 1500000 steps
ETITLE: TS BOND ANGLE DIHED IMPRP ELECT VDW BOUNDARY MISC KINETIC TOTAL TEMP POTENTIAL TOTALAVG TEMPAVG PRESSURE GPRESSURE VOLUME PRESSAVG GPRESSAVG
ENERGY: 0 4.0234 1.8110 12.8646 0.0000 -10644.7430 1393.2180 0.0000 0.0000 1781.0379 -7451.7881 306.2563 -9232.8260 -7451.7881 306.2563 -368.2397 -287.5777 30575.0323 -368.2397 -287.5777
ENERGY: 300000 2.9632 4.4773 13.9938 0.0000 -10853.8188 1450.6248 0.0000 0.0000 1680.4416 -7701.3181 288.9584 -9381.7597 -7544.4778 302.0243 -31.4217 -4.7222 29818.9275 126.3127 178.2716
ENERGY: 600000 4.5353 1.7280 15.0933 0.0000 -10738.8323 1417.0489 0.0000 0.0000 1682.4189 -7618.0079 289.2984 -9300.4268 -7549.4701 301.3497 -60.0345 24.4870 29816.1813 138.0825 191.9189
ENERGY: 900000 0.8002 5.4088 17.3289 0.0000 -10689.7775 1374.2606 0.0000 0.0000 1748.6136 -7543.3655 300.6808 -9291.9791 -7553.3487 300.5146 -538.4455 -487.9835 30115.6975 -22.4713 30.8235
ENERGY: 1200000 0.7859 2.5356 14.2786 0.0000 -10863.4736 1519.3382 0.0000 0.0000 1730.5709 -7595.9643 297.5783 -9326.5352 -7548.4341 301.0443 731.0859 765.7363 29890.5311 57.3158 112.7004
ENERGY: 1500000 1.6669 5.5057 13.0081 0.0000 -10607.9620 1309.6670 0.0000 0.0000 1745.4296 -7532.6847 300.1333 -9278.1143 -7555.2765 300.3983 -1070.3119 -1082.5717 30410.6719 -27.0086 26.5188
TCL: Running FEP window   3: Lambda1 0.1    Lambda2 0.15000000000000002 [dLambda 0.05000000000000002]
TCL: Setting parameter firsttimestep to 0
TCL: Setting parameter alchLambda to 0.1
Info: NONBONDED TABLE R-SQUARED SPACING: 0.0625
Info: NONBONDED TABLE SIZE: 705 POINTS
TCL: Setting parameter alchLambda2 to 0.15000000000000002
Info: NONBONDED TABLE R-SQUARED SPACING: 0.0625
Info: NONBONDED TABLE SIZE: 705 POINTS
TCL: Running for 1500000 steps
ETITLE: TS BOND ANGLE DIHED IMPRP ELECT VDW BOUNDARY MISC KINETIC TOTAL TEMP POTENTIAL TOTALAVG TEMPAVG PRESSURE GPRESSURE VOLUME PRESSAVG GPRESSAVG
ENERGY: 0 1.6669 5.5057 13.0081 0.0000 -10607.9644 1309.8316 0.0000 0.0000 1744.5886 -7533.3636 299.9887 -9277.9522 -7533.3636 299.9887 -1158.5878 -1082.4410 30410.6719 -1158.5878 -1082.4410
ENERGY: 300000 1.6493 3.5996 14.9046 0.0000 -10763.9497 1406.6677 0.0000 0.0000 1735.1046 -7602.0238 298.3579 -9337.1284 -7529.7348 302.5054 -305.5276 -204.3267 29882.6971 2.3722 58.8723
ENERGY: 600000 6.9938 3.5281 20.1885 0.0000 -10679.9833 1382.6030 0.0000 0.0000 1744.5564 -7522.1136 299.9832 -9266.6699 -7542.8982 302.2324 -385.3903 -286.0821 30286.7220 -142.6258 -79.7612
ENERGY: 900000 3.8507 5.0905 15.4001 0.0000 -10884.1013 1467.7316 0.0000 0.0000 1679.2970 -7712.7314 288.7616 -9392.0285 -7576.4680 299.8745 286.6608 312.5686 29607.4101 -192.6667 -139.5945
ENERGY: 1200000 7.0349 7.0920 14.4523 0.0000 -10727.5610 1388.7774 0.0000 0.0000 1765.8336 -7544.3708 303.6418 -9310.2043 -7569.9022 299.6940 -495.3321 -467.4790 30159.2320 -226.0053 -178.0480
ENERGY: 1500000 2.0594 6.7617 15.6369 0.0000 -10741.6100 1452.8020 0.0000 0.0000 1794.1396 -7470.2103 308.5092 -9264.3500 -7555.6557 300.4331 147.8613 223.8027 29973.3694 -178.5002 -121.3253
TCL: Running FEP window   4: Lambda1 0.15000000000000002 Lambda2 0.2    [dLambda 0.04999999999999999]
TCL: Setting parameter firsttimestep to 0
TCL: Setting parameter alchLambda to 0.15000000000000002
Info: NONBONDED TABLE R-SQUARED SPACING: 0.0625
Info: NONBONDED TABLE SIZE: 705 POINTS
TCL: Setting parameter alchLambda2 to 0.2
Info: NONBONDED TABLE R-SQUARED SPACING: 0.0625
Info: NONBONDED TABLE SIZE: 705 POINTS
TCL: Running for 1500000 steps
ETITLE: TS BOND ANGLE DIHED IMPRP ELECT VDW BOUNDARY MISC KINETIC TOTAL TEMP POTENTIAL TOTALAVG TEMPAVG PRESSURE GPRESSURE VOLUME PRESSAVG GPRESSAVG
ENERGY: 0 2.0594 6.7617 15.6369 0.0000 -10741.6108 1454.9670 0.0000 0.0000 1793.2596 -7468.9262 308.3579 -9262.1859 -7468.9262 308.3579 146.8370 231.4872 29973.3694 146.8370 231.4872
ENERGY: 300000 3.0386 7.6926 15.9401 0.0000 -10648.4894 1367.3231 0.0000 0.0000 1767.6569 -7486.8380 303.9554 -9254.4949 -7502.9484 304.2627 -317.4226 -278.6756 29945.6208 -245.3903 -195.8004
ENERGY: 600000 5.4348 3.4971 16.1104 0.0000 -10760.7216 1432.8262 0.0000 0.0000 1729.4903 -7573.3628 297.3925 -9302.8531 -7541.9100 300.9004 -71.7970 2.9384 30034.1040 -192.4975 -134.5078
ENERGY: 900000 4.3005 4.1101 14.8698 0.0000 -10781.3549 1447.6928 0.0000 0.0000 1764.4167 -7545.9651 303.3982 -9310.3817 -7542.9027 300.7034 269.0242 374.8255 29814.2724 -84.1602 -28.6417
ENERGY: 1200000 2.9066 5.9463 15.6009 0.0000 -10697.0012 1388.2971 0.0000 0.0000 1760.9624 -7523.2879 302.8042 -9284.2502 -7542.5952 299.9170 -559.2650 -445.7472 30460.2736 -120.3810 -59.8062
ENERGY: 1500000 4.0783 4.2163 14.5583 0.0000 -10748.8179 1388.3539 0.0000 0.0000 1736.6323 -7600.9788 298.6206 -9337.6111 -7547.4792 300.2904 -399.7837 -406.6888 29828.1324 -121.6624 -66.7302
TCL: Running FEP window   5: Lambda1 0.2    Lambda2 0.25   [dLambda 0.04999999999999999]
TCL: Setting parameter firsttimestep to 0
TCL: Setting parameter alchLambda to 0.2
Info: NONBONDED TABLE R-SQUARED SPACING: 0.0625
Info: NONBONDED TABLE SIZE: 705 POINTS
TCL: Setting parameter alchLambda2 to 0.25
Info: NONBONDED TABLE R-SQUARED SPACING: 0.0625
Info: NONBONDED TABLE SIZE: 705 POINTS
TCL: Running for 1500000 steps
ETITLE: TS BOND ANGLE DIHED IMPRP ELECT VDW BOUNDARY MISC KINETIC TOTAL TEMP POTENTIAL TOTALAVG TEMPAVG PRESSURE GPRESSURE VOLUME PRESSAVG GPRESSAVG
ENERGY: 0 4.0783 4.2163 14.5583 0.0000 -10748.8193 1389.9026 0.0000 0.0000 1735.7623 -7600.3016 298.4710 -9336.0639 -7600.3016 298.4710 -484.8054 -396.8657 29828.1324 -484.8054 -396.8657
ENERGY: 300000 4.4853 4.5040 13.2158 0.0000 -10704.6826 1410.3784 0.0000 0.0000 1836.3627 -7435.7364 315.7696 -9272.0991 -7508.5410 305.5677 -77.1815 -19.2382 29963.9503 -332.5313 -281.3221
ENERGY: 600000 2.7669 4.9844 15.7623 0.0000 -10713.5440 1420.9341 0.0000 0.0000 1744.7230 -7524.3732 300.0118 -9269.0962 -7528.0163 301.9807 -112.9565 17.7773 30090.8943 -166.4164 -93.5522
ENERGY: 900000 3.7208 5.8308 13.8850 0.0000 -10754.7079 1444.0577 0.0000 0.0000 1683.7158 -7603.4977 289.5214 -9287.2136 -7541.6605 300.2862 253.3918 265.2521 29735.1289 -101.0760 -37.4784
ENERGY: 1200000 4.4043 5.7485 14.8765 0.0000 -10819.0171 1475.8989 0.0000 0.0000 1733.5962 -7584.4927 298.0985 -9318.0889 -7555.3781 298.9561 266.6548 433.9469 29981.9697 -26.7381 44.4289
ENERGY: 1500000 4.2227 5.1773 15.0851 0.0000 -10701.1040 1333.0208 0.0000 0.0000 1776.8867 -7566.7114 305.5425 -9343.5981 -7559.7850 300.0178 -895.8808 -919.4122 30052.3564 -51.5031 9.4702
TCL: Running FEP window   6: Lambda1 0.25   Lambda2 0.3    [dLambda 0.04999999999999999]
TCL: Setting parameter firsttimestep to 0
TCL: Setting parameter alchLambda to 0.25
Info: NONBONDED TABLE R-SQUARED SPACING: 0.0625
Info: NONBONDED TABLE SIZE: 705 POINTS
TCL: Setting parameter alchLambda2 to 0.3
Info: NONBONDED TABLE R-SQUARED SPACING: 0.0625
Info: NONBONDED TABLE SIZE: 705 POINTS
TCL: Running for 1500000 steps
ETITLE: TS BOND ANGLE DIHED IMPRP ELECT VDW BOUNDARY MISC KINETIC TOTAL TEMP POTENTIAL TOTALAVG TEMPAVG PRESSURE GPRESSURE VOLUME PRESSAVG GPRESSAVG
ENERGY: 0 4.2227 5.1773 15.0851 0.0000 -10701.1052 1332.7288 0.0000 0.0000 1776.0054 -7567.8859 305.3909 -9343.8913 -7567.8859 305.3909 -991.9716 -917.7013 30052.3564 -991.9716 -917.7013
ENERGY: 300000 3.0385 3.2394 16.3205 0.0000 -10761.1043 1402.8206 0.0000 0.0000 1698.4786 -7637.2067 292.0599 -9335.6853 -7612.1648 296.3577 -495.6346 -441.0246 30350.3134 -336.5759 -292.6328
ENERGY: 600000 4.2848 2.9706 13.1778 0.0000 -10585.7364 1314.3038 0.0000 0.0000 1784.4892 -7466.5102 306.8498 -9250.9995 -7571.8572 298.1980 -869.9950 -832.6466 30033.4450 -393.7530 -348.0129
ENERGY: 900000 0.7818 4.3291 14.5480 0.0000 -10727.1469 1383.5323 0.0000 0.0000 1772.6015 -7551.3543 304.8056 -9323.9558 -7565.1424 300.9994 -439.2171 -335.5768 29945.6175 -283.7548 -229.1356
ENERGY: 1200000 6.7639 3.1651 13.9891 0.0000 -10691.1149 1396.0832 0.0000 0.0000 1758.0937 -7513.0199 302.3110 -9271.1137 -7562.9485 301.1706 235.6373 304.4350 29850.3476 -91.4470 -31.6017
ENERGY: 1500000 9.8115 5.2103 14.0766 0.0000 -10778.8630 1437.0769 0.0000 0.0000 1768.1060 -7544.5817 304.0326 -9312.6877 -7558.8935 301.0681 -85.3231 13.3696 30133.5849 -80.3243 -11.0117
TCL: Running FEP window   7: Lambda1 0.3    Lambda2 0.35   [dLambda 0.04999999999999999]
TCL: Setting parameter firsttimestep to 0
TCL: Setting parameter alchLambda to 0.3
Info: NONBONDED TABLE R-SQUARED SPACING: 0.0625
Info: NONBONDED TABLE SIZE: 705 POINTS
TCL: Setting parameter alchLambda2 to 0.35
Info: NONBONDED TABLE R-SQUARED SPACING: 0.0625
Info: NONBONDED TABLE SIZE: 705 POINTS
TCL: Running for 1500000 steps
ETITLE: TS BOND ANGLE DIHED IMPRP ELECT VDW BOUNDARY MISC KINETIC TOTAL TEMP POTENTIAL TOTALAVG TEMPAVG PRESSURE GPRESSURE VOLUME PRESSAVG GPRESSAVG
ENERGY: 0 9.8115 5.2103 14.0765 0.0000 -10778.8629 1437.8810 0.0000 0.0000 1767.2616 -7544.6220 303.8874 -9311.8836 -7544.6220 303.8874 -57.8974 24.1801 30133.5849 -57.8974 24.1801
ENERGY: 300000 1.7871 6.3201 15.5970 0.0000 -10625.8399 1333.9907 0.0000 0.0000 1762.5194 -7505.6255 303.0720 -9268.1449 -7547.5455 302.6708 -672.0426 -650.1390 30289.4095 36.4355 85.3552
ENERGY: 600000 2.6349 2.8553 15.9438 0.0000 -10668.9293 1403.7445 0.0000 0.0000 1783.9923 -7459.7585 306.7643 -9243.7508 -7543.6584 301.3075 -165.1181 -84.1632 30141.9352 -5.5571 51.8617
ENERGY: 900000 2.0850 4.6001 12.8446 0.0000 -10689.6385 1357.6991 0.0000 0.0000 1780.6948 -7531.7150 306.1973 -9312.4098 -7554.0041 300.7893 -559.0912 -521.3483 29800.1686 -88.5635 -40.0321
ENERGY: 1200000 4.3975 6.4111 14.4887 0.0000 -10901.1826 1491.0733 0.0000 0.0000 1794.3091 -7590.5028 308.5383 -9384.8119 -7558.0092 300.8433 515.4114 552.3181 29639.8076 -23.9518 30.0055
ENERGY: 1500000 1.7935 2.2333 16.1324 0.0000 -10896.9207 1485.6822 0.0000 0.0000 1750.5023 -7640.5770 301.0056 -9391.0793 -7563.2988 300.8461 -14.1543 19.5443 30092.7288 -91.4077 -39.3583
TCL: Running FEP window   8: Lambda1 0.35   Lambda2 0.39999999999999997 [dLambda 0.04999999999999999]
TCL: Setting parameter firsttimestep to 0
TCL: Setting parameter alchLambda to 0.35
Info: NONBONDED TABLE R-SQUARED SPACING: 0.0625
Info: NONBONDED TABLE SIZE: 705 POINTS
TCL: Setting parameter alchLambda2 to 0.39999999999999997
Info: NONBONDED TABLE R-SQUARED SPACING: 0.0625
Info: NONBONDED TABLE SIZE: 705 POINTS
TCL: Running for 1500000 steps
ETITLE: TS BOND ANGLE DIHED IMPRP ELECT VDW BOUNDARY MISC KINETIC TOTAL TEMP POTENTIAL TOTALAVG TEMPAVG PRESSURE GPRESSURE VOLUME PRESSAVG GPRESSAVG
ENERGY: 0 1.7935 2.2333 16.1324 0.0000 -10896.9198 1485.5022 0.0000 0.0000 1749.6512 -7641.6073 300.8592 -9391.2585 -7641.6073 300.8592 -59.4068 22.5376 30092.7288 -59.4068 22.5376
ENERGY: 300000 5.0046 3.1735 13.8449 0.0000 -10768.4715 1492.9423 0.0000 0.0000 1743.4850 -7510.0212 299.7989 -9253.5062 -7578.1009 299.4572 567.7362 460.3117 30504.7759 19.0086 34.9911
ENERGY: 600000 4.1891 5.0353 14.4438 0.0000 -10651.0257 1374.1129 0.0000 0.0000 1756.7053 -7496.5392 302.0722 -9253.2445 -7569.4362 299.4677 -527.3603 -430.8673 30312.0308 -184.2186 -123.9059
ENERGY: 900000 1.3565 4.4559 16.3258 0.0000 -10779.6406 1413.9969 0.0000 0.0000 1773.7776 -7569.7280 305.0079 -9343.5055 -7557.8429 299.1396 -205.6973 -144.8942 29828.6860 -217.9043 -154.1211
ENERGY: 1200000 4.0165 3.3351 14.9705 0.0000 -10858.4701 1489.5704 0.0000 0.0000 1771.8757 -7574.7019 304.6808 -9346.5776 -7560.9563 300.5255 479.9581 541.7048 29911.4298 -73.5170 -9.9407
ENERGY: 1500000 4.9796 6.7295 17.3494 0.0000 -10874.2718 1442.8230 0.0000 0.0000 1730.1862 -7672.2040 297.5122 -9402.3903 -7559.7153 300.4056 -55.9150 16.1017 29752.9182 -70.2184 -3.7791
TCL: Running FEP window   9: Lambda1 0.39999999999999997 Lambda2 0.44999999999999996 [dLambda 0.04999999999999999]
TCL: Setting parameter firsttimestep to 0
TCL: Setting parameter alchLambda to 0.39999999999999997
Info: NONBONDED TABLE R-SQUARED SPACING: 0.0625
Info: NONBONDED TABLE SIZE: 705 POINTS
TCL: Setting parameter alchLambda2 to 0.44999999999999996
Info: NONBONDED TABLE R-SQUARED SPACING: 0.0625
Info: NONBONDED TABLE SIZE: 705 POINTS
TCL: Running for 1500000 steps
ETITLE: TS BOND ANGLE DIHED IMPRP ELECT VDW BOUNDARY MISC KINETIC TOTAL TEMP POTENTIAL TOTALAVG TEMPAVG PRESSURE GPRESSURE VOLUME PRESSAVG GPRESSAVG
ENERGY: 0 4.9795 6.7295 17.3495 0.0000 -10874.2711 1442.5446 0.0000 0.0000 1729.3016 -7673.3665 297.3600 -9402.6681 -7673.3665 297.3600 -49.2970 19.3796 29752.9182 -49.2970 19.3796
ENERGY: 300000 2.7135 6.9195 14.1554 0.0000 -10743.0266 1392.9700 0.0000 0.0000 1742.7748 -7583.4934 299.6768 -9326.2682 -7589.0243 301.0370 -349.3342 -328.1077 30246.4314 81.1331 152.7051
ENERGY: 600000 3.6049 6.2741 16.0181 0.0000 -10717.4343 1408.2000 0.0000 0.0000 1716.4713 -7566.8660 295.1538 -9283.3373 -7580.1800 298.0598 -398.1164 -371.2062 30747.7555 -99.6647 -40.3157
ENERGY: 900000 2.8665 6.2380 13.2248 0.0000 -10829.5539 1432.6199 0.0000 0.0000 1770.3787 -7604.2260 304.4234 -9374.6047 -7584.9787 299.0475 -280.6419 -196.6763 30023.9445 21.2386 79.5659
ENERGY: 1200000 3.2434 2.7106 15.0438 0.0000 -10882.6478 1455.5815 0.0000 0.0000 1779.2881 -7626.7803 305.9554 -9406.0684 -7587.8515 298.7703 145.3669 200.2330 29796.1285 9.8183 63.4502
ENERGY: 1500000 4.0150 3.4960 14.2756 0.0000 -10804.3052 1457.6608 0.0000 0.0000 1728.1080 -7596.7498 297.1548 -9324.8578 -7586.0907 298.5724 193.2366 246.4573 29826.0042 35.7748 90.8649
TCL: Running FEP window  10: Lambda1 0.44999999999999996 Lambda2 0.49999999999999994 [dLambda 0.04999999999999999]
TCL: Setting parameter firsttimestep to 0
TCL: Setting parameter alchLambda to 0.44999999999999996
Info: NONBONDED TABLE R-SQUARED SPACING: 0.0625
Info: NONBONDED TABLE SIZE: 705 POINTS
TCL: Setting parameter alchLambda2 to 0.49999999999999994
Info: NONBONDED TABLE R-SQUARED SPACING: 0.0625
Info: NONBONDED TABLE SIZE: 705 POINTS
TCL: Running for 1500000 steps
ETITLE: TS BOND ANGLE DIHED IMPRP ELECT VDW BOUNDARY MISC KINETIC TOTAL TEMP POTENTIAL TOTALAVG TEMPAVG PRESSURE GPRESSURE VOLUME PRESSAVG GPRESSAVG
ENERGY: 0 4.0150 3.4960 14.2756 0.0000 -10804.3056 1457.9997 0.0000 0.0000 1727.2353 -7597.2840 297.0047 -9324.5193 -7597.2840 297.0047 157.9508 253.6082 29826.0042 157.9508 253.6082
ENERGY: 300000 2.3323 3.0232 15.2996 0.0000 -10724.7661 1444.4150 0.0000 0.0000 1758.7056 -7500.9905 302.4162 -9259.6961 -7514.6581 304.7081 170.6490 209.9129 30118.9716 18.2143 73.3391
ENERGY: 600000 4.0352 3.7661 13.8119 0.0000 -10705.0604 1365.0470 0.0000 0.0000 1844.4756 -7473.9246 317.1646 -9318.4001 -7491.5421 307.5812 -653.0486 -539.6928 30204.9288 69.2058 129.8246
ENERGY: 900000 3.9949 5.8856 14.3441 0.0000 -10706.6208 1366.6988 0.0000 0.0000 1731.4807 -7584.2167 297.7347 -9315.6974 -7503.0794 306.2374 -436.0921 -374.1757 29872.4810 50.0912 116.3806
ENERGY: 1200000 3.4066 3.3159 14.6036 0.0000 -10596.3452 1326.3744 0.0000 0.0000 1749.2205 -7499.4241 300.7852 -9248.6446 -7512.7955 305.4506 -619.7212 -510.3559 30029.7467 -5.3479 59.7190
ENERGY: 1500000 7.0984 1.8075 13.2134 0.0000 -10664.4922 1347.4789 0.0000 0.0000 1722.2211 -7572.6729 296.1425 -9294.8941 -7525.6421 304.3679 -701.0593 -708.7144 30465.3411 -29.4724 32.7391
TCL: Running FEP window  11: Lambda1 0.49999999999999994 Lambda2 0.5499999999999999 [dLambda 0.04999999999999999]
TCL: Setting parameter firsttimestep to 0
TCL: Setting parameter alchLambda to 0.49999999999999994
Info: NONBONDED TABLE R-SQUARED SPACING: 0.0625
Info: NONBONDED TABLE SIZE: 705 POINTS
TCL: Setting parameter alchLambda2 to 0.5499999999999999
Info: NONBONDED TABLE R-SQUARED SPACING: 0.0625
Info: NONBONDED TABLE SIZE: 705 POINTS
TCL: Running for 1500000 steps
ETITLE: TS BOND ANGLE DIHED IMPRP ELECT VDW BOUNDARY MISC KINETIC TOTAL TEMP POTENTIAL TOTALAVG TEMPAVG PRESSURE GPRESSURE VOLUME PRESSAVG GPRESSAVG
ENERGY: 0 7.0984 1.8075 13.2134 0.0000 -10664.4918 1347.9097 0.0000 0.0000 1721.3095 -7573.1533 295.9858 -9294.4628 -7573.1533 295.9858 -776.7800 -698.4772 30465.3411 -776.7800 -698.4772
ENERGY: 300000 2.9510 4.2901 13.5733 0.0000 -10876.7424 1563.6699 0.0000 0.0000 1787.6800 -7504.5781 307.3984 -9292.2580 -7526.2460 300.1197 1405.7420 1453.8002 29914.5981 200.1995 270.1731
ENERGY: 600000 2.7100 2.9897 13.8478 0.0000 -10790.4984 1386.8185 0.0000 0.0000 1803.5122 -7580.6201 310.1208 -9384.1324 -7547.7699 301.3611 -229.3084 -157.9481 29336.6048 194.9035 249.6753
ENERGY: 900000 4.3442 6.7881 15.2643 0.0000 -10662.2661 1370.3524 0.0000 0.0000 1769.9010 -7495.6160 304.3413 -9265.5170 -7549.9149 301.5187 -529.4503 -511.0601 30153.1670 133.7410 190.8213
ENERGY: 1200000 1.0406 6.3308 15.7426 0.0000 -10838.3613 1463.7318 0.0000 0.0000 1743.6114 -7607.9041 299.8207 -9351.5155 -7554.4804 301.7655 361.5821 395.8977 29391.2252 76.8720 130.6775
ENERGY: 1500000 2.1443 1.8494 15.7144 0.0000 -10699.6005 1403.4624 0.0000 0.0000 1729.7786 -7546.6514 297.4421 -9276.4300 -7548.9065 301.9813 -139.1822 -75.1706 30311.6777 43.7312 96.6554
TCL: Running FEP window  12: Lambda1 0.5499999999999999 Lambda2 0.6    [dLambda 0.050000000000000044]
TCL: Setting parameter firsttimestep to 0
TCL: Setting parameter alchLambda to 0.5499999999999999
Info: NONBONDED TABLE R-SQUARED SPACING: 0.0625
Info: NONBONDED TABLE SIZE: 705 POINTS
TCL: Setting parameter alchLambda2 to 0.6
Info: NONBONDED TABLE R-SQUARED SPACING: 0.0625
Info: NONBONDED TABLE SIZE: 705 POINTS
TCL: Running for 1500000 steps
ETITLE: TS BOND ANGLE DIHED IMPRP ELECT VDW BOUNDARY MISC KINETIC TOTAL TEMP POTENTIAL TOTALAVG TEMPAVG PRESSURE GPRESSURE VOLUME PRESSAVG GPRESSAVG
ENERGY: 0 2.1443 1.8494 15.7144 0.0000 -10699.6860 1403.1488 0.0000 0.0000 1728.8843 -7547.9448 297.2883 -9276.8291 -7547.9448 297.2883 -161.2222 -72.0530 30311.6777 -161.2222 -72.0530
ENERGY: 300000 3.8126 3.4595 14.2153 0.0000 -10755.6219 1389.3545 0.0000 0.0000 1769.5925 -7575.1875 304.2882 -9344.7801 -7581.8976 301.6819 -341.0042 -321.2339 29910.3344 -50.1853 3.5506
ENERGY: 600000 1.3739 2.9974 14.7121 0.0000 -10732.8565 1405.0250 0.0000 0.0000 1769.5658 -7539.1823 304.2836 -9308.7481 -7557.5037 302.1855 -358.9664 -278.3056 30427.1074 -30.5325 31.1003
ENERGY: 900000 2.3239 6.0387 14.6960 0.0000 -10669.3920 1385.9642 0.0000 0.0000 1763.5213 -7496.8479 303.2443 -9260.3692 -7552.3580 302.1768 23.9621 65.1604 29927.7216 -97.1363 -41.8221
ENERGY: 1200000 2.1699 3.1246 14.3048 0.0000 -10799.1163 1483.8019 0.0000 0.0000 1718.9268 -7576.7884 295.5760 -9295.7151 -7558.4796 301.0112 591.5896 724.3250 29580.2472 -72.8918 -10.3405
ENERGY: 1500000 4.2663 5.9034 12.4680 0.0000 -10717.2885 1321.7693 0.0000 0.0000 1772.1240 -7600.7574 304.7235 -9372.8815 -7560.0720 301.2567 -830.1774 -746.0625 29764.2582 -128.0127 -57.3757
TCL: Running FEP window  13: Lambda1 0.6    Lambda2 0.65   [dLambda 0.050000000000000044]
TCL: Setting parameter firsttimestep to 0
TCL: Setting parameter alchLambda to 0.6
Info: NONBONDED TABLE R-SQUARED SPACING: 0.0625
Info: NONBONDED TABLE SIZE: 705 POINTS
TCL: Setting parameter alchLambda2 to 0.65
Info: NONBONDED TABLE R-SQUARED SPACING: 0.0625
Info: NONBONDED TABLE SIZE: 705 POINTS
TCL: Running for 1500000 steps
ETITLE: TS BOND ANGLE DIHED IMPRP ELECT VDW BOUNDARY MISC KINETIC TOTAL TEMP POTENTIAL TOTALAVG TEMPAVG PRESSURE GPRESSURE VOLUME PRESSAVG GPRESSAVG
ENERGY: 0 4.2663 5.9034 12.4680 0.0000 -10719.3579 1322.1068 0.0000 0.0000 1771.2457 -7603.3677 304.5725 -9374.6134 -7603.3677 304.5725 -822.1946 -741.2849 29764.2582 -822.1946 -741.2849
ENERGY: 300000 2.7982 5.0795 14.1192 0.0000 -10834.1064 1496.9697 0.0000 0.0000 1766.0980 -7549.0417 303.6873 -9315.1397 -7558.3608 302.9466 542.5342 514.6731 30065.3763 27.0461 73.7005
ENERGY: 600000 2.7486 6.4091 13.1855 0.0000 -10797.9583 1455.9178 0.0000 0.0000 1730.6313 -7589.0661 297.5887 -9319.6974 -7552.5753 300.7960 152.0501 213.7606 29740.9250 -61.0230 -16.0461
ENERGY: 900000 1.3607 2.5447 14.1941 0.0000 -10709.5514 1443.2150 0.0000 0.0000 1753.1811 -7495.0559 301.4662 -9248.2369 -7555.4660 300.2154 371.6538 369.1258 29850.1022 -56.2499 -10.9094
ENERGY: 1200000 0.9341 3.3385 14.2823 0.0000 -10740.8170 1446.7720 0.0000 0.0000 1770.5756 -7504.9144 304.4573 -9275.4900 -7559.5003 299.6636 371.4719 422.7083 30219.6190 0.2012 42.6625
ENERGY: 1500000 5.0076 6.5996 13.9032 0.0000 -10716.8905 1410.4411 0.0000 0.0000 1731.1258 -7549.8133 297.6737 -9280.9390 -7561.3770 299.0596 -185.1756 -97.2117 30158.3076 -42.7422 9.0300
TCL: Running FEP window  14: Lambda1 0.65   Lambda2 0.7000000000000001 [dLambda 0.050000000000000044]
TCL: Setting parameter firsttimestep to 0
TCL: Setting parameter alchLambda to 0.65
Info: NONBONDED TABLE R-SQUARED SPACING: 0.0625
Info: NONBONDED TABLE SIZE: 705 POINTS
TCL: Setting parameter alchLambda2 to 0.7000000000000001
Info: NONBONDED TABLE R-SQUARED SPACING: 0.0625
Info: NONBONDED TABLE SIZE: 705 POINTS
TCL: Running for 1500000 steps
ETITLE: TS BOND ANGLE DIHED IMPRP ELECT VDW BOUNDARY MISC KINETIC TOTAL TEMP POTENTIAL TOTALAVG TEMPAVG PRESSURE GPRESSURE VOLUME PRESSAVG GPRESSAVG
ENERGY: 0 5.0076 6.5996 13.9032 0.0000 -10719.4819 1410.2413 0.0000 0.0000 1730.2816 -7553.4485 297.5286 -9283.7302 -7553.4485 297.5286 -180.1248 -97.4323 30158.3076 -180.1248 -97.4323
ENERGY: 300000 3.3667 3.7551 14.3470 0.0000 -10718.4098 1431.0992 0.0000 0.0000 1750.1410 -7515.7008 300.9434 -9265.8418 -7524.8919 302.2046 138.0927 199.1959 30265.4887 -86.6495 -18.9128
ENERGY: 600000 3.5969 1.8990 14.9266 0.0000 -10717.4387 1414.5898 0.0000 0.0000 1720.1082 -7562.3182 295.7792 -9282.4264 -7536.6477 300.8259 -87.1518 -5.1165 30415.1379 -175.0473 -91.4406
ENERGY: 900000 2.8684 5.3051 14.3359 0.0000 -10672.3111 1380.5674 0.0000 0.0000 1720.9161 -7548.3181 295.9181 -9269.2341 -7538.0278 300.0963 -196.7280 -144.7689 30132.7932 -151.5391 -80.2395
ENERGY: 1200000 2.2511 6.2123 16.1015 0.0000 -10750.7746 1399.7584 0.0000 0.0000 1785.7475 -7540.7038 307.0661 -9326.4514 -7547.8901 300.6896 -404.6007 -337.9404 30377.9889 -154.3614 -85.6790
ENERGY: 1500000 2.3733 2.6822 12.9694 0.0000 -10666.0515 1374.3613 0.0000 0.0000 1710.2953 -7563.3700 294.0918 -9273.6653 -7557.7767 300.0023 -684.8378 -562.2227 30563.4650 -241.2409 -167.5521
TCL: Running FEP window  15: Lambda1 0.7000000000000001 Lambda2 0.7500000000000001 [dLambda 0.050000000000000044]
TCL: Setting parameter firsttimestep to 0
TCL: Setting parameter alchLambda to 0.7000000000000001
Info: NONBONDED TABLE R-SQUARED SPACING: 0.0625
Info: NONBONDED TABLE SIZE: 705 POINTS
TCL: Setting parameter alchLambda2 to 0.7500000000000001
Info: NONBONDED TABLE R-SQUARED SPACING: 0.0625
Info: NONBONDED TABLE SIZE: 705 POINTS
TCL: Running for 1500000 steps
ETITLE: TS BOND ANGLE DIHED IMPRP ELECT VDW BOUNDARY MISC KINETIC TOTAL TEMP POTENTIAL TOTALAVG TEMPAVG PRESSURE GPRESSURE VOLUME PRESSAVG GPRESSAVG
ENERGY: 0 2.3733 2.6822 12.9694 0.0000 -10668.4687 1374.8319 0.0000 0.0000 1709.4223 -7566.1897 293.9417 -9275.6119 -7566.1897 293.9417 -636.2726 -553.1917 30563.4650 -636.2726 -553.1917
ENERGY: 300000 3.1550 4.9493 15.4158 0.0000 -10834.5827 1511.5903 0.0000 0.0000 1799.3406 -7500.1316 309.4035 -9299.4723 -7537.6714 301.3272 785.8886 872.3664 29746.7397 152.8139 254.1454
ENERGY: 600000 4.2901 4.1021 14.6010 0.0000 -10807.7121 1436.0796 0.0000 0.0000 1772.8958 -7575.7434 304.8562 -9348.6392 -7567.4334 300.8349 76.9648 151.9006 29920.0872 -88.5740 2.6558
ENERGY: 900000 1.7502 3.1833 14.7935 0.0000 -10636.2036 1422.4965 0.0000 0.0000 1765.0858 -7428.8944 303.5133 -9193.9801 -7547.8214 300.6675 351.1464 346.9360 30049.8145 74.6975 144.4980
ENERGY: 1200000 3.6404 3.1425 16.0542 0.0000 -10841.8401 1478.6279 0.0000 0.0000 1754.2532 -7586.1219 301.6506 -9340.3750 -7548.2307 300.8370 467.2815 505.1366 30001.6304 19.4290 80.7847
ENERGY: 1500000 4.0044 3.7358 12.6364 0.0000 -10903.0878 1507.2156 0.0000 0.0000 1736.1792 -7639.3165 298.5427 -9375.4956 -7559.1373 300.2362 570.3293 664.7892 29753.8447 23.1290 88.4356
TCL: Running FEP window  16: Lambda1 0.7500000000000001 Lambda2 0.8000000000000002 [dLambda 0.050000000000000044]
TCL: Setting parameter firsttimestep to 0
TCL: Setting parameter alchLambda to 0.7500000000000001
Info: NONBONDED TABLE R-SQUARED SPACING: 0.0625
Info: NONBONDED TABLE SIZE: 705 POINTS
TCL: Setting parameter alchLambda2 to 0.8000000000000002
Info: NONBONDED TABLE R-SQUARED SPACING: 0.0625
Info: NONBONDED TABLE SIZE: 705 POINTS
TCL: Running for 1500000 steps
ETITLE: TS BOND ANGLE DIHED IMPRP ELECT VDW BOUNDARY MISC KINETIC TOTAL TEMP POTENTIAL TOTALAVG TEMPAVG PRESSURE GPRESSURE VOLUME PRESSAVG GPRESSAVG
ENERGY: 0 4.0044 3.7358 12.6364 0.0000 -10906.0135 1507.3435 0.0000 0.0000 1735.3035 -7642.9899 298.3921 -9378.2933 -7642.9899 298.3921 569.4067 670.8721 29753.8447 569.4067 670.8721
ENERGY: 300000 3.7011 1.5628 16.6765 0.0000 -10829.4788 1479.6105 0.0000 0.0000 1716.0080 -7611.9199 295.0742 -9327.9280 -7587.5419 299.8554 77.5204 167.8377 30258.3007 431.8920 514.4898
ENERGY: 600000 3.5112 2.6180 13.6878 0.0000 -10758.1864 1429.7216 0.0000 0.0000 1759.3922 -7549.2555 302.5342 -9308.6477 -7568.0792 300.5881 161.3216 249.1505 29864.4087 199.4249 266.8577
ENERGY: 900000 1.8115 3.6937 13.5846 0.0000 -10806.2906 1526.3309 0.0000 0.0000 1777.1061 -7483.7638 305.5802 -9260.8699 -7562.6915 300.5090 952.3126 971.7630 30212.3135 47.9988 110.9556
ENERGY: 1200000 2.3705 3.4464 17.8348 0.0000 -10556.9374 1356.3545 0.0000 0.0000 1680.7174 -7496.2137 289.0058 -9176.9311 -7557.4321 299.7587 -399.9235 -323.7961 30505.8508 14.8133 80.6352
ENERGY: 1500000 4.5938 1.3715 15.0008 0.0000 -10591.5290 1332.7423 0.0000 0.0000 1670.3887 -7567.4318 287.2297 -9237.8205 -7561.6880 298.3625 -943.7832 -876.3484 30755.7197 -58.2653 12.9315
TCL: Running FEP window  17: Lambda1 0.8000000000000002 Lambda2 0.8500000000000002 [dLambda 0.050000000000000044]
TCL: Setting parameter firsttimestep to 0
TCL: Setting parameter alchLambda to 0.8000000000000002
Info: NONBONDED TABLE R-SQUARED SPACING: 0.0625
Info: NONBONDED TABLE SIZE: 705 POINTS
TCL: Setting parameter alchLambda2 to 0.8500000000000002
Info: NONBONDED TABLE R-SQUARED SPACING: 0.0625
Info: NONBONDED TABLE SIZE: 705 POINTS
TCL: Running for 1500000 steps
ETITLE: TS BOND ANGLE DIHED IMPRP ELECT VDW BOUNDARY MISC KINETIC TOTAL TEMP POTENTIAL TOTALAVG TEMPAVG PRESSURE GPRESSURE VOLUME PRESSAVG GPRESSAVG
ENERGY: 0 4.5939 1.3715 15.0008 0.0000 -10594.5626 1333.9605 0.0000 0.0000 1669.5379 -7570.0980 287.0834 -9239.6359 -7570.0980 287.0834 -945.7045 -860.3977 30755.7197 -945.7045 -860.3977
ENERGY: 300000 2.1770 7.5237 15.7919 0.0000 -10798.7865 1461.7932 0.0000 0.0000 1687.8972 -7623.6035 290.2404 -9311.5008 -7578.5229 298.1360 273.2774 300.5611 30041.5590 -90.1515 -24.0710
ENERGY: 600000 8.6886 7.2909 14.0205 0.0000 -10744.3430 1424.6034 0.0000 0.0000 1699.5118 -7590.2278 292.2376 -9289.7396 -7568.1096 298.3097 94.1691 159.9627 30315.1345 -33.8601 23.2344
ENERGY: 900000 2.9386 2.5154 14.0014 0.0000 -10843.0237 1457.4165 0.0000 0.0000 1701.1072 -7665.0447 292.5119 -9366.1519 -7573.3615 297.9796 -46.5415 -49.5540 30408.7246 -63.0410 -6.2581
ENERGY: 1200000 3.7270 5.3238 14.8902 0.0000 -10954.9000 1527.0724 0.0000 0.0000 1819.4507 -7584.4358 312.8615 -9403.8865 -7576.3541 299.6905 680.1991 711.9031 29648.9387 2.4207 58.1227
ENERGY: 1500000 3.8674 1.6555 13.7535 0.0000 -10748.5017 1437.2387 0.0000 0.0000 1755.1740 -7536.8126 301.8089 -9291.9866 -7566.9756 299.9730 139.1961 233.1118 30070.6317 -54.7723 1.5289
TCL: Running FEP window  18: Lambda1 0.8500000000000002 Lambda2 0.9000000000000002 [dLambda 0.050000000000000044]
TCL: Setting parameter firsttimestep to 0
TCL: Setting parameter alchLambda to 0.8500000000000002
Info: NONBONDED TABLE R-SQUARED SPACING: 0.0625
Info: NONBONDED TABLE SIZE: 705 POINTS
TCL: Setting parameter alchLambda2 to 0.9000000000000002
Info: NONBONDED TABLE R-SQUARED SPACING: 0.0625
Info: NONBONDED TABLE SIZE: 705 POINTS
TCL: Running for 1500000 steps
ETITLE: TS BOND ANGLE DIHED IMPRP ELECT VDW BOUNDARY MISC KINETIC TOTAL TEMP POTENTIAL TOTALAVG TEMPAVG PRESSURE GPRESSURE VOLUME PRESSAVG GPRESSAVG
ENERGY: 0 3.8674 1.6555 13.7535 0.0000 -10751.8916 1438.9026 0.0000 0.0000 1754.3151 -7539.3975 301.6612 -9293.7126 -7539.3975 301.6612 166.7117 257.1733 30070.6317 166.7117 257.1733
ENERGY: 300000 2.8414 3.9487 17.1149 0.0000 -10668.4029 1436.2094 0.0000 0.0000 1710.8292 -7497.4595 294.1836 -9208.2886 -7502.1842 298.7211 358.0450 449.9667 30144.2014 -29.4715 44.6027
ENERGY: 600000 3.8683 7.3919 13.4965 0.0000 -10710.6710 1377.9466 0.0000 0.0000 1765.0676 -7542.9002 303.5101 -9307.9678 -7507.8525 300.4188 -547.9055 -549.8935 30470.2928 -156.5523 -95.5135
ENERGY: 900000 4.9810 5.6865 13.8240 0.0000 -10775.4156 1408.0804 0.0000 0.0000 1763.5312 -7579.3124 303.2459 -9342.8436 -7548.4764 300.3874 -161.1988 -41.9557 30278.1571 -131.3694 -57.7492
ENERGY: 1200000 4.6076 3.8975 13.6820 0.0000 -10777.6192 1415.0821 0.0000 0.0000 1732.0054 -7608.3445 297.8250 -9340.3499 -7556.0462 299.7975 -172.6385 -73.1839 30103.0242 -120.9721 -51.0402
ENERGY: 1500000 1.3827 3.0490 13.7093 0.0000 -10789.0567 1459.6485 0.0000 0.0000 1699.4614 -7611.8058 292.2289 -9311.2672 -7560.2872 299.4958 303.1757 361.0975 29875.3168 -122.2465 -55.0375
TCL: Running FEP window  19: Lambda1 0.9000000000000002 Lambda2 0.9500000000000003 [dLambda 0.050000000000000044]
TCL: Setting parameter firsttimestep to 0
TCL: Setting parameter alchLambda to 0.9000000000000002
Info: NONBONDED TABLE R-SQUARED SPACING: 0.0625
Info: NONBONDED TABLE SIZE: 705 POINTS
TCL: Setting parameter alchLambda2 to 0.9500000000000003
Info: NONBONDED TABLE R-SQUARED SPACING: 0.0625
Info: NONBONDED TABLE SIZE: 705 POINTS
TCL: Running for 1500000 steps
ETITLE: TS BOND ANGLE DIHED IMPRP ELECT VDW BOUNDARY MISC KINETIC TOTAL TEMP POTENTIAL TOTALAVG TEMPAVG PRESSURE GPRESSURE VOLUME PRESSAVG GPRESSAVG
ENERGY: 0 1.3827 3.0490 13.7093 0.0000 -10792.1728 1460.0063 0.0000 0.0000 1698.6156 -7615.4100 292.0835 -9314.0255 -7615.4100 292.0835 294.9472 373.8574 29875.3168 294.9472 373.8574
ENERGY: 300000 4.2261 5.9130 15.6324 0.0000 -10821.8240 1430.0284 0.0000 0.0000 1734.3674 -7631.6569 298.2311 -9366.0242 -7591.4961 299.6374 -273.4615 -148.6583 30237.7683 -212.6485 -138.0994
ENERGY: 600000 4.4624 3.0348 15.8910 0.0000 -10734.0887 1385.7334 0.0000 0.0000 1706.4286 -7618.5385 293.4269 -9324.9670 -7591.9839 298.9247 -192.4093 -143.2800 29912.0781 -56.3097 -0.9382
ENERGY: 900000 2.7686 3.0012 13.4399 0.0000 -10792.0476 1398.2770 0.0000 0.0000 1692.6840 -7681.8770 291.0635 -9374.5610 -7591.5063 297.4282 -480.7864 -450.9802 30413.4394 -12.1529 38.6646
ENERGY: 1200000 9.7836 4.2331 16.9737 0.0000 -10808.0676 1441.8996 0.0000 0.0000 1742.8573 -7592.3203 299.6910 -9335.1776 -7585.6421 297.9350 393.6606 441.8733 29669.1940 11.8898 68.7631
ENERGY: 1500000 2.3575 1.6953 16.7686 0.0000 -10842.3095 1447.0975 0.0000 0.0000 1798.1225 -7576.2681 309.1940 -9374.3906 -7575.1176 300.3136 -28.0192 -32.7752 30295.0360 23.4830 70.8722
TCL: Running FEP window  20: Lambda1 0.9500000000000003 Lambda2 1.0    [dLambda 0.04999999999999971]
TCL: Setting parameter firsttimestep to 0
TCL: Setting parameter alchLambda to 0.9500000000000003
Info: NONBONDED TABLE R-SQUARED SPACING: 0.0625
Info: NONBONDED TABLE SIZE: 705 POINTS
TCL: Setting parameter alchLambda2 to 1.0
Info: NONBONDED TABLE R-SQUARED SPACING: 0.0625
Info: NONBONDED TABLE SIZE: 705 POINTS
TCL: Running for 1500000 steps
ETITLE: TS BOND ANGLE DIHED IMPRP ELECT VDW BOUNDARY MISC KINETIC TOTAL TEMP POTENTIAL TOTALAVG TEMPAVG PRESSURE GPRESSURE VOLUME PRESSAVG GPRESSAVG
ENERGY: 0 2.3575 1.6953 16.7686 0.0000 -10846.1356 1448.4558 0.0000 0.0000 1797.2621 -7579.5963 309.0461 -9376.8584 -7579.5963 309.0461 -77.8887 -8.9451 30295.0360 -77.8887 -8.9451
ENERGY: 300000 7.4070 7.2603 12.6206 0.0000 -10757.3302 1464.5283 0.0000 0.0000 1745.0078 -7520.5063 300.0608 -9265.5140 -7551.6105 301.3363 418.1558 517.4333 30306.0934 191.6986 287.4048
ENERGY: 600000 3.3245 5.9169 15.8352 0.0000 -10888.9737 1498.6660 0.0000 0.0000 1785.5968 -7579.6343 307.0402 -9365.2311 -7555.9838 301.0338 424.7989 440.6674 30038.8550 175.3505 256.5291
ENERGY: 900000 4.4153 2.6028 15.2044 0.0000 -10762.7688 1438.1542 0.0000 0.0000 1755.9308 -7546.4612 301.9390 -9302.3921 -7547.4302 300.9197 90.5934 218.4355 30185.0524 125.0629 205.2561
ENERGY: 1200000 6.8782 2.0092 12.6067 0.0000 -10875.4225 1503.0447 0.0000 0.0000 1697.9149 -7652.9688 291.9630 -9350.8837 -7559.9644 299.4676 485.2108 513.6464 30246.1704 102.5778 170.8218
ENERGY: 1500000 2.0645 6.4194 13.9340 0.0000 -10795.7303 1442.3020 0.0000 0.0000 1753.9856 -7577.0249 301.6045 -9331.0106 -7559.1509 300.2476 127.0905 230.7423 29956.3306 105.8326 172.9440
TCL: Exiting due to exit command.
