Info: SIMULATION PARAMETERS:
Info: TIMESTEP               2
Info: NUMBER OF STEPS        0
Info: STEPS PER CYCLE        10
Info: PERIODIC CELL BASIS 1  31.0245 0 0
Info: PERIODIC CELL BASIS 2  0 29.5418 0
Info: PERIODIC CELL BASIS 3  0 0 33.3762
Info: PERIODIC CELL CENTER   0 0 0
Info: WRAPPING WATERS AROUND PERIODIC BOUNDARIES ON OUTPUT.
Info: WRAPPING ALL CLUSTERS AROUND PERIODIC BOUNDARIES ON OUTPUT.
Info: FIRST LDB TIMESTEP     50
Info: LAST LDB TIMESTEP     -1
Info: HOM BACKGROUND SCALING 1
Info: PME BACKGROUND SCALING 1
Info: MIN ATOMS PER PATCH    40
Info: EMPTY PATCH LOAD       40 ATOMS
Info: VELOCITY FILE          mobley_2451097_equil.vel
Info: CENTER OF MASS MOVING INITIALLY? NO
Info: DIELECTRIC             1
Info: EXCLUDE                SCALED ONE-FOUR
Info: 1-4 ELECTROSTATICS SCALED BY 0.833333
Info: MODIFIED 1-4 VDW PARAMETERS WILL BE USED
Info: DCD FILENAME           mobley_2451097_prod.dcd
Info: DCD FREQUENCY          100000
Info: DCD FIRST STEP         100000
Info: DCD FILE WILL CONTAIN UNIT CELL DATA
Info: XST FILENAME           mobley_2451097_prod.xst
Info: XST FREQUENCY          100000
Info: NO VELOCITY DCD OUTPUT
Info: NO FORCE DCD OUTPUT
Info: OUTPUT FILENAME        mobley_2451097_prod
Info: BINARY OUTPUT FILES WILL BE USED
Info: RESTART FILENAME       mobley_2451097_prod.restart
Info: RESTART FREQUENCY      100000
Info: BINARY RESTART FILES WILL BE USED
Info: CUTOFF                 9
Info: PAIRLIST DISTANCE      11
Info: PAIRLIST SHRINK RATE   0.01
Info: PAIRLIST GROW RATE     0.01
Info: PAIRLIST TRIGGER       0.3
Info: PAIRLISTS PER CYCLE    2
Info: PAIRLISTS ENABLED
Info: MARGIN                 2
Info: HYDROGEN GROUP CUTOFF  2.5
Info: PATCH DIMENSION        15.5
Info: ENERGY OUTPUT STEPS    100000
Info: ENERGY EVALUATION STEPS    100000
Info: OUTPUT ENERGY PRECISION 4
Info: CROSSTERM ENERGY INCLUDED IN DIHEDRAL
Info: TIMING OUTPUT STEPS    1000000
Info: PRESSURE OUTPUT STEPS  100000
Info: ALCHEMICAL FEP ON
Info: FEP CURRENT LAMBDA VALUE     0
Info: FEP COMPARISON LAMBDA VALUE  0.05
Info: FEP INTRA-ALCHEMICAL NON-BONDED INTERACTIONS WILL BE RETAINED
Info: FEP INTRA-ALCHEMICAL BONDED INTERACTIONS WILL BE RETAINED
Info: FEP VDW SHIFTING COEFFICIENT 5
Info: FEP ELEC. ACTIVE FOR ANNIHILATED PARTICLES BETWEEN LAMBDA = 0 AND LAMBDA = 0.5
Info: FEP ELEC. ACTIVE FOR EXNIHILATED PARTICLES BETWEEN LAMBDA = 0.5 AND LAMBDA = 1
Info: FEP VDW ACTIVE FOR ANNIHILATED PARTICLES BETWEEN LAMBDA = 0 AND LAMBDA = 1
Info: FEP VDW ACTIVE FOR EXNIHILATED PARTICLES BETWEEN LAMBDA = 0 AND LAMBDA = 1
Info: FEP BOND ACTIVE FOR ANNIHILATED PARTICLES BETWEEN LAMBDA = 1 AND LAMBDA = 1
Info: FEP BOND ACTIVE FOR EXNIHILATED PARTICLES BETWEEN LAMBDA = 0 AND LAMBDA = 0
Info: LANGEVIN DYNAMICS ACTIVE
Info: LANGEVIN TEMPERATURE   300
Info: LANGEVIN USING BBK INTEGRATOR
Info: LANGEVIN DAMPING COEFFICIENT IS 1 INVERSE PS
Info: LANGEVIN DYNAMICS APPLIED TO HYDROGENS
Info: LANGEVIN PISTON PRESSURE CONTROL ACTIVE
Info:        TARGET PRESSURE IS 1.01325 BAR
Info:     OSCILLATION PERIOD IS 50 FS
Info:             DECAY TIME IS 25 FS
Info:     PISTON TEMPERATURE IS 300 K
Info:       PRESSURE CONTROL IS GROUP-BASED
Info:    INITIAL STRAIN RATE IS 0.000530122 0.000530122 0.000530122
Info:       CELL FLUCTUATION IS ISOTROPIC
Info: PARTICLE MESH EWALD (PME) ACTIVE
Info: PME TOLERANCE               1e-06
Info: PME EWALD COEFFICIENT       0.348832
Info: PME INTERPOLATION ORDER     4
Info: PME GRID DIMENSIONS         32 32 36
Info: PME MAXIMUM GRID SPACING    1
Info: PME CALCULATION WILL BE PERFORMED ON GPU
Info: FULL ELECTROSTATIC EVALUATION FREQUENCY      2
Info: USING VERLET I (r-RESPA) MTS SCHEME.
Info: C1 SPLITTING OF LONG RANGE ELECTROSTATICS
Info: PLACING ATOMS IN PATCHES BY HYDROGEN GROUPS
Info: RIGID BONDS TO HYDROGEN : ALL
Info:         ERROR TOLERANCE : 1e-08
Info:          MAX ITERATIONS : 100
Info: RIGID WATER USING SETTLE ALGORITHM
Info: RANDOM NUMBER SEED     1743545463
Info: USE HYDROGEN BONDS?    NO
Info: Using AMBER format force field!
Info: AMBER PARM FILE        mobley_2451097.prmtop
Info: COORDINATE PDB         mobley_2451097.pdb
Info: Exclusions will be read from PARM file!
Info: SCNB (VDW SCALING)     2
Info: USING ARITHMETIC MEAN TO COMBINE L-J SIGMA PARAMETERS
Info: BINARY COORDINATES     mobley_2451097_equil.coor
Info: SUMMARY OF PARAMETERS:
Info: 6 BONDS
Info: 4 ANGLES
Info:   4 HARMONIC
Info:   0 COSINE-BASED
Info: 3 DIHEDRAL
Info: 0 IMPROPER
Info: 0 CROSSTERM
Info: 0 VDW
Info: 21 VDW_PAIRS
Info: 0 NBTHOLE_PAIRS
Info: To read alchdata from file: mobley_2451097.pdb
Info: To read alchflag data from column: 5
Info: STRUCTURE SUMMARY:
Info: 2950 ATOMS
Info: 2950 BONDS
Info: 19 ANGLES
Info: 32 DIHEDRALS
Info: 0 IMPROPERS
Info: 0 CROSSTERMS
Info: 2992 EXCLUSIONS
Info: 2942 RIGID BONDS
Info: ALCH: 0 ATOMS TO DISAPPEAR IN FINAL STATE
Info: ALCH: 13 ATOMS TO APPEAR IN FINAL STATE
Info: 5908 DEGREES OF FREEDOM
Info: 987 HYDROGEN GROUPS
Info: 3 ATOMS IN LARGEST HYDROGEN GROUP
Info: 987 MIGRATION GROUPS
Info: 3 ATOMS IN LARGEST MIGRATION GROUP
Info: TOTAL MASS = 17740.8 amu
Info: TOTAL CHARGE = -9.99905e-05 e
Info: MASS DENSITY = 0.963057 g/cm^3
Info: ATOM DENSITY = 0.0964366 atoms/A^3
Info: ADDED 0 IMPLICIT EXCLUSIONS
Info: NONBONDED TABLE R-SQUARED SPACING: 0.0625
Info: NONBONDED TABLE SIZE: 705 POINTS
Info: REMOVING COM VELOCITY 0.0948117 -0.187655 -0.117285
Info: Use 3D box decompostion in PME FFT.
Info: Updated CUDA force table with 4096 elements.
Info: Updated CUDA LJ table with 6 x 6 elements.
Info: Found 15 unique exclusion lists needing 28 bytes
TCL: Running for 1500000 steps
ETITLE: TS BOND ANGLE DIHED IMPRP ELECT VDW BOUNDARY MISC KINETIC TOTAL TEMP POTENTIAL TOTALAVG TEMPAVG PRESSURE GPRESSURE VOLUME PRESSAVG GPRESSAVG
ENERGY: 0 2.3253 5.4157 3.9520 0.0000 -10661.7210 1406.9712 0.0000 0.0000 1770.9946 -7472.0623 301.6943 -9243.0569 -7472.0623 301.6943 -508.0998 -431.3256 30590.0317 -508.0998 -431.3256
ENERGY: 300000 2.0597 3.1353 2.6587 0.0000 -10613.7564 1434.9496 0.0000 0.0000 1799.1001 -7371.8531 306.4822 -9170.9531 -7462.6166 298.6114 36.8156 42.2246 30629.9066 -505.6674 -442.9355
ENERGY: 600000 1.6954 1.6275 2.3555 0.0000 -10703.8595 1404.6645 0.0000 0.0000 1742.6533 -7550.8634 296.8663 -9293.5166 -7491.5457 298.1979 -648.2978 -596.5965 30535.2601 -307.3897 -239.7483
ENERGY: 900000 3.4947 3.2441 1.2792 0.0000 -10763.9091 1522.7467 0.0000 0.0000 1814.3426 -7418.8017 309.0788 -9233.1443 -7484.9928 299.4041 1022.7290 1074.0737 29605.6477 -157.4343 -92.5822
ENERGY: 1200000 1.8917 3.7836 3.5756 0.0000 -10694.6440 1448.6731 0.0000 0.0000 1754.7707 -7481.9494 298.9305 -9236.7201 -7490.8024 298.9509 -48.7558 69.1571 30084.0293 -171.5649 -108.7090
ENERGY: 1500000 4.7771 3.7238 1.9907 0.0000 -10591.3793 1385.0141 0.0000 0.0000 1749.1110 -7446.7627 297.9664 -9195.8737 -7480.4419 299.7841 -710.4299 -654.9352 30661.2126 -222.5912 -158.8870
TCL: Running FEP window   2: Lambda1 0.05   Lambda2 0.1    [dLambda 0.05  ]
TCL: Setting parameter firsttimestep to 0
TCL: Setting parameter alchLambda to 0.05
Info: NONBONDED TABLE R-SQUARED SPACING: 0.0625
Info: NONBONDED TABLE SIZE: 705 POINTS
TCL: Setting parameter alchLambda2 to 0.1
Info: NONBONDED TABLE R-SQUARED SPACING: 0.0625
Info: NONBONDED TABLE SIZE: 705 POINTS
TCL: Running for 1500000 steps
ETITLE: TS BOND ANGLE DIHED IMPRP ELECT VDW BOUNDARY MISC KINETIC TOTAL TEMP POTENTIAL TOTALAVG TEMPAVG PRESSURE GPRESSURE VOLUME PRESSAVG GPRESSAVG
ENERGY: 0 4.7771 3.7238 1.9907 0.0000 -10591.3792 1389.2386 0.0000 0.0000 1748.2265 -7443.4226 297.8157 -9191.6491 -7443.4226 297.8157 -714.2540 -644.8500 30661.2126 -714.2540 -644.8500
ENERGY: 300000 2.9824 2.7816 2.0335 0.0000 -10690.1078 1445.9551 0.0000 0.0000 1745.2445 -7491.1108 297.3077 -9236.3553 -7443.7359 302.2563 28.8788 56.5818 30262.2393 -33.4916 10.3792
ENERGY: 600000 0.2126 4.4635 1.5842 0.0000 -10654.2669 1464.2568 0.0000 0.0000 1790.3758 -7393.3741 304.9960 -9183.7499 -7422.5971 303.6151 398.2862 370.5997 30446.6287 -106.6486 -62.5517
ENERGY: 900000 1.5281 4.9399 5.7319 0.0000 -10797.9012 1501.4154 0.0000 0.0000 1753.9726 -7530.3133 298.7946 -9284.2859 -7444.9533 301.2612 74.2650 195.8732 30428.9974 -181.2780 -128.6413
ENERGY: 1200000 0.7028 3.2505 0.5082 0.0000 -10732.1910 1486.4398 0.0000 0.0000 1760.4998 -7480.7899 299.9065 -9241.2897 -7445.4171 301.3451 298.2574 348.9785 30409.5034 -131.4282 -83.1476
ENERGY: 1500000 3.2811 2.8239 2.2389 0.0000 -10697.4712 1468.9693 0.0000 0.0000 1750.2510 -7469.9071 298.1606 -9220.1581 -7445.1519 300.9953 249.0929 338.2529 30139.2153 -115.8417 -66.4189
TCL: Running FEP window   3: Lambda1 0.1    Lambda2 0.15000000000000002 [dLambda 0.05000000000000002]
TCL: Setting parameter firsttimestep to 0
TCL: Setting parameter alchLambda to 0.1
Info: NONBONDED TABLE R-SQUARED SPACING: 0.0625
Info: NONBONDED TABLE SIZE: 705 POINTS
TCL: Setting parameter alchLambda2 to 0.15000000000000002
Info: NONBONDED TABLE R-SQUARED SPACING: 0.0625
Info: NONBONDED TABLE SIZE: 705 POINTS
TCL: Running for 1500000 steps
ETITLE: TS BOND ANGLE DIHED IMPRP ELECT VDW BOUNDARY MISC KINETIC TOTAL TEMP POTENTIAL TOTALAVG TEMPAVG PRESSURE GPRESSURE VOLUME PRESSAVG GPRESSAVG
ENERGY: 0 3.2811 2.8239 2.2389 0.0000 -10697.4721 1469.0858 0.0000 0.0000 1749.3921 -7470.6503 298.0143 -9220.0424 -7470.6503 298.0143 253.7461 341.3715 30139.2153 253.7461 341.3715
ENERGY: 300000 1.1969 3.2978 3.6451 0.0000 -10409.6954 1293.4135 0.0000 0.0000 1741.1963 -7366.9458 296.6181 -9108.1421 -7441.5547 296.5685 -796.7788 -764.0878 30657.2157 -57.9149 -34.1294
ENERGY: 600000 2.2582 7.1076 1.7054 0.0000 -10825.7403 1519.4804 0.0000 0.0000 1752.0932 -7543.0956 298.4744 -9295.1887 -7466.9194 298.9657 554.2541 646.7335 29935.0048 -53.6958 -3.9652
ENERGY: 900000 2.4692 3.0507 0.9400 0.0000 -10753.0760 1482.1503 0.0000 0.0000 1763.0053 -7501.4605 300.3333 -9264.4658 -7472.2253 299.7450 504.2207 558.8568 30088.6035 -36.3736 6.5879
ENERGY: 1200000 1.5086 5.1367 1.4748 0.0000 -10851.8522 1515.0641 0.0000 0.0000 1779.5116 -7549.1564 303.1452 -9328.6680 -7475.1674 300.1888 469.7805 449.4891 29992.4750 -10.5281 31.9815
ENERGY: 1500000 3.4281 6.4707 3.3729 0.0000 -10752.0208 1497.5733 0.0000 0.0000 1764.8175 -7476.3582 300.6420 -9241.1757 -7471.4421 299.8932 345.1872 348.2950 30406.3359 32.9564 80.3050
TCL: Running FEP window   4: Lambda1 0.15000000000000002 Lambda2 0.2    [dLambda 0.04999999999999999]
TCL: Setting parameter firsttimestep to 0
TCL: Setting parameter alchLambda to 0.15000000000000002
Info: NONBONDED TABLE R-SQUARED SPACING: 0.0625
Info: NONBONDED TABLE SIZE: 705 POINTS
TCL: Setting parameter alchLambda2 to 0.2
Info: NONBONDED TABLE R-SQUARED SPACING: 0.0625
Info: NONBONDED TABLE SIZE: 705 POINTS
TCL: Running for 1500000 steps
ETITLE: TS BOND ANGLE DIHED IMPRP ELECT VDW BOUNDARY MISC KINETIC TOTAL TEMP POTENTIAL TOTALAVG TEMPAVG PRESSURE GPRESSURE VOLUME PRESSAVG GPRESSAVG
ENERGY: 0 3.4281 6.4707 3.3729 0.0000 -10752.0212 1498.2759 0.0000 0.0000 1763.9437 -7476.5299 300.4932 -9240.4736 -7476.5299 300.4932 285.8718 357.2236 30406.3359 285.8718 357.2236
ENERGY: 300000 5.7248 5.6686 0.8525 0.0000 -10837.5873 1536.8819 0.0000 0.0000 1808.8082 -7479.6512 308.1360 -9288.4594 -7474.9182 299.9628 543.7050 626.8692 29981.2645 557.5227 616.4453
ENERGY: 600000 3.1129 4.2239 1.3576 0.0000 -10723.6142 1488.2629 0.0000 0.0000 1815.7072 -7410.9497 309.3112 -9226.6568 -7479.2778 298.4935 156.9073 255.1359 30738.8176 292.6365 344.6127
ENERGY: 900000 6.9119 2.1146 4.2456 0.0000 -10646.4699 1427.8556 0.0000 0.0000 1687.7530 -7517.5893 287.5139 -9205.3423 -7490.0366 297.6332 -284.3767 -224.1768 30348.7864 230.6503 276.6945
ENERGY: 1200000 1.5921 4.3458 1.6747 0.0000 -10783.2116 1534.5204 0.0000 0.0000 1828.2109 -7412.8677 311.4413 -9241.0786 -7480.1742 298.9319 1079.1276 1154.7730 29597.3622 321.2028 370.1091
ENERGY: 1500000 2.1451 2.4380 4.1645 0.0000 -10560.8240 1423.2908 0.0000 0.0000 1806.5322 -7322.2533 307.7483 -9128.7855 -7472.1738 299.3416 86.3867 161.8884 30210.9757 241.7298 297.5203
TCL: Running FEP window   5: Lambda1 0.2    Lambda2 0.25   [dLambda 0.04999999999999999]
TCL: Setting parameter firsttimestep to 0
TCL: Setting parameter alchLambda to 0.2
Info: NONBONDED TABLE R-SQUARED SPACING: 0.0625
Info: NONBONDED TABLE SIZE: 705 POINTS
TCL: Setting parameter alchLambda2 to 0.25
Info: NONBONDED TABLE R-SQUARED SPACING: 0.0625
Info: NONBONDED TABLE SIZE: 705 POINTS
TCL: Running for 1500000 steps
ETITLE: TS BOND ANGLE DIHED IMPRP ELECT VDW BOUNDARY MISC KINETIC TOTAL TEMP POTENTIAL TOTALAVG TEMPAVG PRESSURE GPRESSURE VOLUME PRESSAVG GPRESSAVG
ENERGY: 0 2.1451 2.4380 4.1645 0.0000 -10560.8238 1423.1288 0.0000 0.0000 1805.6723 -7323.2751 307.6018 -9128.9474 -7323.2751 307.6018 71.6378 160.8281 30210.9757 71.6378 160.8281
ENERGY: 300000 3.3163 2.6768 2.6922 0.0000 -10704.5429 1490.2239 0.0000 0.0000 1743.9059 -7461.7278 297.0797 -9205.6337 -7457.0574 299.3673 569.2552 608.0409 29852.5393 113.1390 209.7571
ENERGY: 600000 1.9010 2.0758 3.3169 0.0000 -10814.7421 1518.8010 0.0000 0.0000 1780.3470 -7508.3004 303.2875 -9288.6474 -7461.6103 301.1450 370.2231 464.5235 30278.8648 71.4139 155.3697
ENERGY: 900000 3.8845 1.2132 2.9498 0.0000 -10618.4161 1384.9040 0.0000 0.0000 1777.9546 -7447.5101 302.8800 -9225.4646 -7458.0731 301.6969 -451.5688 -347.7039 30335.3355 -69.9025 16.3391
ENERGY: 1200000 3.1987 2.9952 3.1749 0.0000 -10659.7085 1434.9116 0.0000 0.0000 1784.1908 -7431.2372 303.9423 -9215.4280 -7459.6753 301.5435 344.5099 438.8065 29665.1975 -81.2094 4.4972
ENERGY: 1500000 3.7791 2.0912 2.9787 0.0000 -10658.5360 1442.9766 0.0000 0.0000 1727.3457 -7479.3647 294.2586 -9206.7104 -7456.2993 301.3663 -129.3957 -68.4558 30398.8762 -102.5659 -22.1203
TCL: Running FEP window   6: Lambda1 0.25   Lambda2 0.3    [dLambda 0.04999999999999999]
TCL: Setting parameter firsttimestep to 0
TCL: Setting parameter alchLambda to 0.25
Info: NONBONDED TABLE R-SQUARED SPACING: 0.0625
Info: NONBONDED TABLE SIZE: 705 POINTS
TCL: Setting parameter alchLambda2 to 0.3
Info: NONBONDED TABLE R-SQUARED SPACING: 0.0625
Info: NONBONDED TABLE SIZE: 705 POINTS
TCL: Running for 1500000 steps
ETITLE: TS BOND ANGLE DIHED IMPRP ELECT VDW BOUNDARY MISC KINETIC TOTAL TEMP POTENTIAL TOTALAVG TEMPAVG PRESSURE GPRESSURE VOLUME PRESSAVG GPRESSAVG
ENERGY: 0 3.7791 2.0912 2.9787 0.0000 -10658.5375 1443.1018 0.0000 0.0000 1726.4791 -7480.1076 294.1110 -9206.5867 -7480.1076 294.1110 -166.9502 -66.0777 30398.8762 -166.9502 -66.0777
ENERGY: 300000 4.3062 1.9459 2.7729 0.0000 -10725.1567 1420.5734 0.0000 0.0000 1748.8401 -7546.7182 297.9202 -9295.5583 -7506.9962 294.1322 -117.9388 -47.0017 29880.5627 -255.4380 -218.1734
ENERGY: 600000 2.0968 1.8574 3.3648 0.0000 -10782.6971 1535.8160 0.0000 0.0000 1774.8069 -7464.7551 302.3438 -9239.5620 -7470.8044 299.5226 1032.7708 1062.6450 29830.9069 144.6815 186.1718
ENERGY: 900000 1.0505 4.2507 3.7917 0.0000 -10621.3200 1405.9117 0.0000 0.0000 1740.8584 -7465.4571 296.5605 -9206.3154 -7464.6842 299.2448 61.0169 147.8957 30054.3551 156.7060 200.1375
ENERGY: 1200000 1.9781 2.3722 1.0980 0.0000 -10689.9482 1403.2692 0.0000 0.0000 1767.1495 -7514.0813 301.0393 -9281.2308 -7458.9349 299.9673 -463.0046 -409.5945 30192.9791 96.5491 145.4153
ENERGY: 1500000 3.5173 2.8437 2.2749 0.0000 -10719.1701 1427.3121 0.0000 0.0000 1767.9086 -7515.3135 301.1686 -9283.2221 -7473.3961 300.0398 -596.5406 -494.5862 30700.7723 61.3271 108.4901
TCL: Running FEP window   7: Lambda1 0.3    Lambda2 0.35   [dLambda 0.04999999999999999]
TCL: Setting parameter firsttimestep to 0
TCL: Setting parameter alchLambda to 0.3
Info: NONBONDED TABLE R-SQUARED SPACING: 0.0625
Info: NONBONDED TABLE SIZE: 705 POINTS
TCL: Setting parameter alchLambda2 to 0.35
Info: NONBONDED TABLE R-SQUARED SPACING: 0.0625
Info: NONBONDED TABLE SIZE: 705 POINTS
TCL: Running for 1500000 steps
ETITLE: TS BOND ANGLE DIHED IMPRP ELECT VDW BOUNDARY MISC KINETIC TOTAL TEMP POTENTIAL TOTALAVG TEMPAVG PRESSURE GPRESSURE VOLUME PRESSAVG GPRESSAVG
ENERGY: 0 3.5173 2.8437 2.2749 0.0000 -10719.1708 1427.6427 0.0000 0.0000 1767.0440 -7515.8481 301.0213 -9282.8921 -7515.8481 301.0213 -568.4001 -488.1321 30700.7723 -568.4001 -488.1321
ENERGY: 300000 3.0781 2.2960 4.3657 0.0000 -10713.6418 1460.4245 0.0000 0.0000 1800.4496 -7443.0278 306.7121 -9243.4774 -7455.9029 303.7352 -151.4542 -77.3882 30388.9593 -512.9385 -452.4972
ENERGY: 600000 3.4526 2.9440 1.8751 0.0000 -10750.8974 1493.7650 0.0000 0.0000 1697.7661 -7551.0946 289.2196 -9248.8607 -7447.9562 301.4874 444.5345 461.6092 30426.2231 -286.6737 -235.9628
ENERGY: 900000 3.3072 2.8083 1.5157 0.0000 -10810.0083 1573.2413 0.0000 0.0000 1710.3920 -7518.7436 291.3705 -9229.1357 -7453.8846 299.2729 965.6025 1000.3283 30195.9308 -23.0113 23.5125
ENERGY: 1200000 2.0387 5.4653 5.9712 0.0000 -10680.0323 1447.3114 0.0000 0.0000 1793.4961 -7425.7497 305.5275 -9219.2458 -7448.5820 300.0788 299.1023 384.8164 29918.7784 44.5854 92.6300
ENERGY: 1500000 2.8854 2.4206 2.2777 0.0000 -10659.8712 1374.6233 0.0000 0.0000 1721.2361 -7556.4280 293.2178 -9277.6641 -7458.0092 298.6341 -678.5478 -695.5695 30423.9501 -24.3582 22.8475
TCL: Running FEP window   8: Lambda1 0.35   Lambda2 0.39999999999999997 [dLambda 0.04999999999999999]
TCL: Setting parameter firsttimestep to 0
TCL: Setting parameter alchLambda to 0.35
Info: NONBONDED TABLE R-SQUARED SPACING: 0.0625
Info: NONBONDED TABLE SIZE: 705 POINTS
TCL: Setting parameter alchLambda2 to 0.39999999999999997
Info: NONBONDED TABLE R-SQUARED SPACING: 0.0625
Info: NONBONDED TABLE SIZE: 705 POINTS
TCL: Running for 1500000 steps
ETITLE: TS BOND ANGLE DIHED IMPRP ELECT VDW BOUNDARY MISC KINETIC TOTAL TEMP POTENTIAL TOTALAVG TEMPAVG PRESSURE GPRESSURE VOLUME PRESSAVG GPRESSAVG
ENERGY: 0 2.8854 2.4206 2.2777 0.0000 -10659.8703 1375.1052 0.0000 0.0000 1720.3613 -7556.8201 293.0688 -9277.1813 -7556.8201 293.0688 -769.6900 -689.1063 30423.9501 -769.6900 -689.1063
ENERGY: 300000 3.8083 1.9587 2.7411 0.0000 -10677.7203 1416.2642 0.0000 0.0000 1780.1506 -7472.7974 303.2541 -9252.9480 -7505.1735 299.4340 112.0858 176.9326 29801.4398 -133.3240 -50.5191
ENERGY: 600000 0.8866 2.6152 3.0074 0.0000 -10749.3297 1449.4173 0.0000 0.0000 1731.1653 -7562.2379 294.9093 -9293.4033 -7503.5611 298.3323 29.0313 43.3874 30138.9825 -30.1861 40.6624
ENERGY: 900000 5.3525 5.1160 1.7734 0.0000 -10646.9543 1431.9398 0.0000 0.0000 1783.5055 -7419.2672 303.8256 -9202.7726 -7496.1820 297.4926 43.3221 141.1616 30260.2578 -83.4806 -9.2309
ENERGY: 1200000 6.2735 2.2233 1.7756 0.0000 -10732.3129 1455.2863 0.0000 0.0000 1778.6836 -7488.0705 303.0042 -9266.7541 -7488.1200 298.2905 98.9331 143.5740 30087.3683 -52.7344 23.1170
ENERGY: 1500000 2.2130 1.5910 0.5538 0.0000 -10820.3048 1499.1307 0.0000 0.0000 1769.0538 -7547.7625 301.3637 -9316.8163 -7492.4128 298.3780 102.5446 152.3054 30232.6579 -62.3588 11.8528
TCL: Running FEP window   9: Lambda1 0.39999999999999997 Lambda2 0.44999999999999996 [dLambda 0.04999999999999999]
TCL: Setting parameter firsttimestep to 0
TCL: Setting parameter alchLambda to 0.39999999999999997
Info: NONBONDED TABLE R-SQUARED SPACING: 0.0625
Info: NONBONDED TABLE SIZE: 705 POINTS
TCL: Setting parameter alchLambda2 to 0.44999999999999996
Info: NONBONDED TABLE R-SQUARED SPACING: 0.0625
Info: NONBONDED TABLE SIZE: 705 POINTS
TCL: Running for 1500000 steps
ETITLE: TS BOND ANGLE DIHED IMPRP ELECT VDW BOUNDARY MISC KINETIC TOTAL TEMP POTENTIAL TOTALAVG TEMPAVG PRESSURE GPRESSURE VOLUME PRESSAVG GPRESSAVG
ENERGY: 0 2.2130 1.5910 0.5538 0.0000 -10820.3049 1499.3872 0.0000 0.0000 1768.1833 -7548.3766 301.2154 -9316.5599 -7548.3766 301.2154 76.7892 158.7584 30232.6579 76.7892 158.7584
ENERGY: 300000 3.3687 2.3999 2.2067 0.0000 -10650.1144 1446.8683 0.0000 0.0000 1762.5693 -7432.7015 300.2591 -9195.2709 -7487.9796 299.0269 -56.5303 -27.6099 30759.7505 158.3923 210.3431
ENERGY: 600000 2.8033 4.3073 4.4384 0.0000 -10582.7568 1385.6754 0.0000 0.0000 1739.3370 -7446.1954 296.3014 -9185.5325 -7491.8497 298.8112 -265.5183 -245.6573 30404.3416 -28.2291 19.7401
ENERGY: 900000 3.6448 2.5106 2.1762 0.0000 -10546.9963 1366.0986 0.0000 0.0000 1831.0510 -7341.5151 311.9251 -9172.5662 -7481.8415 299.9343 -470.0361 -422.4498 30486.5122 -83.7683 -36.7143
ENERGY: 1200000 2.0925 2.2365 2.2581 0.0000 -10602.7440 1402.1987 0.0000 0.0000 1781.8724 -7412.0858 303.5474 -9193.9582 -7478.3335 300.2664 -319.2715 -282.0026 30551.3038 -159.7294 -108.9714
ENERGY: 1500000 2.9873 2.8161 2.6259 0.0000 -10631.7908 1419.2376 0.0000 0.0000 1779.9684 -7424.1555 303.2230 -9204.1239 -7477.4500 300.5913 -27.8782 1.8947 30228.9267 -165.2449 -113.7303
TCL: Running FEP window  10: Lambda1 0.44999999999999996 Lambda2 0.49999999999999994 [dLambda 0.04999999999999999]
TCL: Setting parameter firsttimestep to 0
TCL: Setting parameter alchLambda to 0.44999999999999996
Info: NONBONDED TABLE R-SQUARED SPACING: 0.0625
Info: NONBONDED TABLE SIZE: 705 POINTS
TCL: Setting parameter alchLambda2 to 0.49999999999999994
Info: NONBONDED TABLE R-SQUARED SPACING: 0.0625
Info: NONBONDED TABLE SIZE: 705 POINTS
TCL: Running for 1500000 steps
ETITLE: TS BOND ANGLE DIHED IMPRP ELECT VDW BOUNDARY MISC KINETIC TOTAL TEMP POTENTIAL TOTALAVG TEMPAVG PRESSURE GPRESSURE VOLUME PRESSAVG GPRESSAVG
ENERGY: 0 2.9873 2.8161 2.6259 0.0000 -10631.7903 1419.2116 0.0000 0.0000 1779.1101 -7425.0394 303.0768 -9204.1495 -7425.0394 303.0768 -70.8374 8.7338 30228.9267 -70.8374 8.7338
ENERGY: 300000 2.6322 2.2524 3.4671 0.0000 -10591.6491 1390.8110 0.0000 0.0000 1742.2436 -7450.2428 296.7965 -9192.4864 -7445.7989 301.2321 -227.9231 -230.9541 30176.6503 84.2261 146.8124
ENERGY: 600000 1.8979 3.2475 3.7787 0.0000 -10558.4988 1344.1591 0.0000 0.0000 1703.2720 -7502.1435 290.1576 -9205.4155 -7455.2223 299.6885 -887.3296 -790.0765 30476.8095 17.9634 79.6385
ENERGY: 900000 1.7659 2.3444 3.9520 0.0000 -10700.9195 1415.8460 0.0000 0.0000 1719.5896 -7557.4215 292.9373 -9277.0111 -7463.7919 299.2965 -265.4302 -245.9732 30568.4779 -67.5353 -5.2667
ENERGY: 1200000 4.7070 4.5302 1.9519 0.0000 -10506.9093 1372.3612 0.0000 0.0000 1744.7902 -7378.5687 297.2303 -9123.3589 -7465.3972 298.6371 -851.9739 -740.5876 31077.0890 -165.7233 -96.8842
ENERGY: 1500000 1.1317 2.2705 2.0895 0.0000 -10729.0204 1436.5262 0.0000 0.0000 1788.6235 -7498.3790 304.6975 -9287.0025 -7468.4438 299.9480 11.7767 39.1065 30249.7080 -216.0883 -150.8126
TCL: Running FEP window  11: Lambda1 0.49999999999999994 Lambda2 0.5499999999999999 [dLambda 0.04999999999999999]
TCL: Setting parameter firsttimestep to 0
TCL: Setting parameter alchLambda to 0.49999999999999994
Info: NONBONDED TABLE R-SQUARED SPACING: 0.0625
Info: NONBONDED TABLE SIZE: 705 POINTS
TCL: Setting parameter alchLambda2 to 0.5499999999999999
Info: NONBONDED TABLE R-SQUARED SPACING: 0.0625
Info: NONBONDED TABLE SIZE: 705 POINTS
TCL: Running for 1500000 steps
ETITLE: TS BOND ANGLE DIHED IMPRP ELECT VDW BOUNDARY MISC KINETIC TOTAL TEMP POTENTIAL TOTALAVG TEMPAVG PRESSURE GPRESSURE VOLUME PRESSAVG GPRESSAVG
ENERGY: 0 1.1317 2.2705 2.0895 0.0000 -10729.0212 1436.4233 0.0000 0.0000 1787.7205 -7499.3859 304.5436 -9287.1064 -7499.3859 304.5436 -47.4567 43.5900 30249.7080 -47.4567 43.5900
ENERGY: 300000 1.6225 1.0509 2.9458 0.0000 -10678.2192 1408.7255 0.0000 0.0000 1741.2837 -7522.5908 296.6330 -9263.8744 -7485.4799 300.8212 -269.8905 -247.3631 30249.0642 -27.3533 37.6759
ENERGY: 600000 2.4904 1.9700 3.6048 0.0000 -10696.3439 1473.0592 0.0000 0.0000 1723.8694 -7491.3501 293.6664 -9215.2195 -7468.4337 301.5582 320.9563 367.1929 30302.4567 -76.1922 -8.6054
ENERGY: 900000 3.0130 2.0478 2.2346 0.0000 -10832.9875 1523.9430 0.0000 0.0000 1786.5605 -7515.1886 304.3460 -9301.7492 -7474.1325 302.0214 390.0847 395.5260 30124.3865 -9.1332 36.4094
ENERGY: 1200000 4.0111 2.7662 3.4303 0.0000 -10583.2461 1375.5037 0.0000 0.0000 1749.1752 -7448.3596 297.9773 -9197.5348 -7467.3953 300.1944 -535.1550 -450.4317 30547.7972 -19.1933 31.2337
ENERGY: 1500000 1.0424 2.7066 1.2379 0.0000 -10722.3267 1451.1943 0.0000 0.0000 1725.2000 -7540.9454 293.8931 -9266.1454 -7470.3207 300.2093 107.0532 215.1041 30011.9382 6.7778 59.8419
TCL: Running FEP window  12: Lambda1 0.5499999999999999 Lambda2 0.6    [dLambda 0.050000000000000044]
TCL: Setting parameter firsttimestep to 0
TCL: Setting parameter alchLambda to 0.5499999999999999
Info: NONBONDED TABLE R-SQUARED SPACING: 0.0625
Info: NONBONDED TABLE SIZE: 705 POINTS
TCL: Setting parameter alchLambda2 to 0.6
Info: NONBONDED TABLE R-SQUARED SPACING: 0.0625
Info: NONBONDED TABLE SIZE: 705 POINTS
TCL: Running for 1500000 steps
ETITLE: TS BOND ANGLE DIHED IMPRP ELECT VDW BOUNDARY MISC KINETIC TOTAL TEMP POTENTIAL TOTALAVG TEMPAVG PRESSURE GPRESSURE VOLUME PRESSAVG GPRESSAVG
ENERGY: 0 1.0424 2.7066 1.2379 0.0000 -10722.2922 1451.3750 0.0000 0.0000 1724.3151 -7541.6152 293.7423 -9265.9303 -7541.6152 293.7423 136.5346 227.1833 30011.9382 136.5346 227.1833
ENERGY: 300000 6.4281 2.9027 4.9321 0.0000 -10638.1925 1448.4914 0.0000 0.0000 1718.3864 -7457.0519 292.7324 -9175.4384 -7479.4927 295.9004 267.2787 347.4376 30068.7700 -4.9239 80.3628
ENERGY: 600000 3.8723 3.5284 3.7123 0.0000 -10746.5790 1485.3075 0.0000 0.0000 1790.1414 -7460.0171 304.9560 -9250.1585 -7474.0235 298.0707 205.1805 320.9487 30076.4935 53.9921 141.4784
ENERGY: 900000 3.2754 2.0442 3.1245 0.0000 -10698.2083 1484.7786 0.0000 0.0000 1779.1000 -7425.8857 303.0751 -9204.9857 -7475.0531 298.3182 150.9309 231.4621 31247.4834 104.8666 195.6610
ENERGY: 1200000 1.8432 4.4647 2.2060 0.0000 -10803.2408 1553.1015 0.0000 0.0000 1797.0212 -7444.6042 306.1280 -9241.6254 -7465.4318 299.6496 1069.3420 1147.9918 30214.0398 143.0365 230.2409
ENERGY: 1500000 2.4000 1.7784 1.4508 0.0000 -10742.2095 1455.9570 0.0000 0.0000 1772.6036 -7508.0197 301.9684 -9280.6233 -7465.1793 299.1587 138.5774 163.0276 30267.7486 97.8154 171.6666
TCL: Running FEP window  13: Lambda1 0.6    Lambda2 0.65   [dLambda 0.050000000000000044]
TCL: Setting parameter firsttimestep to 0
TCL: Setting parameter alchLambda to 0.6
Info: NONBONDED TABLE R-SQUARED SPACING: 0.0625
Info: NONBONDED TABLE SIZE: 705 POINTS
TCL: Setting parameter alchLambda2 to 0.65
Info: NONBONDED TABLE R-SQUARED SPACING: 0.0625
Info: NONBONDED TABLE SIZE: 705 POINTS
TCL: Running for 1500000 steps
ETITLE: TS BOND ANGLE DIHED IMPRP ELECT VDW BOUNDARY MISC KINETIC TOTAL TEMP POTENTIAL TOTALAVG TEMPAVG PRESSURE GPRESSURE VOLUME PRESSAVG GPRESSAVG
ENERGY: 0 2.4000 1.7784 1.4508 0.0000 -10742.8009 1455.8843 0.0000 0.0000 1771.7093 -7509.5781 301.8161 -9281.2874 -7509.5781 301.8161 89.5272 170.4649 30267.7486 89.5272 170.4649
ENERGY: 300000 2.6070 3.1032 1.6385 0.0000 -10622.3805 1428.3870 0.0000 0.0000 1753.2043 -7433.4403 298.6637 -9186.6446 -7479.4015 296.4211 -97.7939 -39.2261 30808.8157 319.5289 375.9556
ENERGY: 600000 4.6947 3.9582 3.7651 0.0000 -10682.8047 1449.4203 0.0000 0.0000 1748.8979 -7472.0685 297.9301 -9220.9665 -7494.7643 297.0259 -64.3978 -7.4684 30949.1065 82.8159 138.3710
ENERGY: 900000 1.9077 3.3189 1.2738 0.0000 -10695.7211 1458.8772 0.0000 0.0000 1717.9928 -7512.3509 292.6653 -9230.3436 -7495.5843 296.6395 128.2432 216.4128 30518.5653 20.7836 86.9503
ENERGY: 1200000 2.7825 2.6039 1.6861 0.0000 -10595.4879 1376.7656 0.0000 0.0000 1721.7693 -7489.8805 293.3086 -9211.6498 -7491.6828 297.1416 -667.6351 -646.9018 30644.9508 -51.1266 13.0007
ENERGY: 1500000 1.6454 3.7313 0.8917 0.0000 -10584.6442 1407.5378 0.0000 0.0000 1753.6677 -7417.1702 298.7426 -9170.8379 -7485.4776 297.8209 102.5353 125.7661 30337.7878 -53.3043 8.1602
TCL: Running FEP window  14: Lambda1 0.65   Lambda2 0.7000000000000001 [dLambda 0.050000000000000044]
TCL: Setting parameter firsttimestep to 0
TCL: Setting parameter alchLambda to 0.65
Info: NONBONDED TABLE R-SQUARED SPACING: 0.0625
Info: NONBONDED TABLE SIZE: 705 POINTS
TCL: Setting parameter alchLambda2 to 0.7000000000000001
Info: NONBONDED TABLE R-SQUARED SPACING: 0.0625
Info: NONBONDED TABLE SIZE: 705 POINTS
TCL: Running for 1500000 steps
ETITLE: TS BOND ANGLE DIHED IMPRP ELECT VDW BOUNDARY MISC KINETIC TOTAL TEMP POTENTIAL TOTALAVG TEMPAVG PRESSURE GPRESSURE VOLUME PRESSAVG GPRESSAVG
ENERGY: 0 1.6454 3.7313 0.8917 0.0000 -10585.0356 1407.1824 0.0000 0.0000 1752.7575 -7418.8273 298.5876 -9171.5848 -7418.8273 298.5876 44.7470 128.8956 30337.7878 44.7470 128.8956
ENERGY: 300000 2.4387 2.6195 4.4373 0.0000 -10715.7604 1492.1210 0.0000 0.0000 1775.6199 -7438.5239 302.4823 -9214.1438 -7442.9734 300.9749 232.8420 324.6136 30539.8833 0.4528 95.3680
ENERGY: 600000 4.0532 0.6652 2.8905 0.0000 -10775.9582 1476.2665 0.0000 0.0000 1736.5017 -7555.5811 295.8183 -9292.0828 -7471.7894 298.0529 6.0389 -4.0796 30342.6860 96.9528 183.2491
ENERGY: 900000 3.2331 4.3138 1.8374 0.0000 -10653.7643 1435.1739 0.0000 0.0000 1785.7487 -7423.4574 304.2077 -9209.2061 -7473.3245 298.8793 -54.3190 -10.7789 30316.9533 17.9298 93.9841
ENERGY: 1200000 1.8999 2.9030 1.4155 0.0000 -10662.4769 1438.5218 0.0000 0.0000 1795.4974 -7422.2392 305.8684 -9217.7366 -7459.4104 300.2360 171.4181 164.7114 30096.0626 -111.0724 -44.7877
ENERGY: 1500000 1.9330 2.9533 3.7868 0.0000 -10681.6650 1447.5098 0.0000 0.0000 1800.5859 -7424.8962 306.7353 -9225.4821 -7446.3515 301.8996 178.9122 254.7312 30131.9795 -120.0703 -51.4547
TCL: Running FEP window  15: Lambda1 0.7000000000000001 Lambda2 0.7500000000000001 [dLambda 0.050000000000000044]
TCL: Setting parameter firsttimestep to 0
TCL: Setting parameter alchLambda to 0.7000000000000001
Info: NONBONDED TABLE R-SQUARED SPACING: 0.0625
Info: NONBONDED TABLE SIZE: 705 POINTS
TCL: Setting parameter alchLambda2 to 0.7500000000000001
Info: NONBONDED TABLE R-SQUARED SPACING: 0.0625
Info: NONBONDED TABLE SIZE: 705 POINTS
TCL: Running for 1500000 steps
ETITLE: TS BOND ANGLE DIHED IMPRP ELECT VDW BOUNDARY MISC KINETIC TOTAL TEMP POTENTIAL TOTALAVG TEMPAVG PRESSURE GPRESSURE VOLUME PRESSAVG GPRESSAVG
ENERGY: 0 1.9330 2.9533 3.7868 0.0000 -10682.3768 1447.6444 0.0000 0.0000 1799.6816 -7426.3777 306.5812 -9226.0593 -7426.3777 306.5812 165.7825 261.4428 30131.9795 165.7825 261.4428
ENERGY: 300000 0.7188 2.2661 1.7283 0.0000 -10698.4534 1413.0376 0.0000 0.0000 1713.1471 -7567.5556 291.8398 -9280.7027 -7519.2338 297.9369 -383.4084 -349.9675 30330.0663 -107.5087 -30.4301
ENERGY: 600000 1.4716 3.2538 3.6661 0.0000 -10748.3143 1457.1988 0.0000 0.0000 1746.7464 -7535.9776 297.5636 -9282.7240 -7515.6826 298.3301 244.7578 309.6392 29888.8149 37.9903 103.2998
ENERGY: 900000 3.4893 2.7314 4.2213 0.0000 -10833.7508 1530.5095 0.0000 0.0000 1758.1533 -7534.6460 299.5068 -9292.7993 -7514.8839 298.5442 516.8381 644.7288 30587.9999 33.0981 105.2766
ENERGY: 1200000 1.8646 5.6040 3.3968 0.0000 -10723.3773 1441.5753 0.0000 0.0000 1731.9970 -7538.9395 295.0510 -9270.9365 -7525.0747 297.6330 170.2826 197.0608 30042.4877 27.5662 88.8128
ENERGY: 1500000 0.7303 0.9605 0.4450 0.0000 -10622.8106 1442.7590 0.0000 0.0000 1797.0378 -7380.8780 306.1309 -9177.9157 -7509.8737 298.8592 251.8629 316.8401 30666.3112 -38.5246 19.8062
TCL: Running FEP window  16: Lambda1 0.7500000000000001 Lambda2 0.8000000000000002 [dLambda 0.050000000000000044]
TCL: Setting parameter firsttimestep to 0
TCL: Setting parameter alchLambda to 0.7500000000000001
Info: NONBONDED TABLE R-SQUARED SPACING: 0.0625
Info: NONBONDED TABLE SIZE: 705 POINTS
TCL: Setting parameter alchLambda2 to 0.8000000000000002
Info: NONBONDED TABLE R-SQUARED SPACING: 0.0625
Info: NONBONDED TABLE SIZE: 705 POINTS
TCL: Running for 1500000 steps
ETITLE: TS BOND ANGLE DIHED IMPRP ELECT VDW BOUNDARY MISC KINETIC TOTAL TEMP POTENTIAL TOTALAVG TEMPAVG PRESSURE GPRESSURE VOLUME PRESSAVG GPRESSAVG
ENERGY: 0 0.7303 0.9605 0.4450 0.0000 -10623.1592 1442.6697 0.0000 0.0000 1796.1592 -7382.1945 305.9812 -9178.3537 -7382.1945 305.9812 231.1743 324.7047 30666.3112 231.1743 324.7047
ENERGY: 300000 1.7309 4.8931 1.5550 0.0000 -10575.2408 1362.1423 0.0000 0.0000 1805.1770 -7399.7423 307.5174 -9204.9194 -7424.6350 301.1256 -634.4467 -568.2733 30719.2364 -355.3684 -293.4920
ENERGY: 600000 2.1691 4.7691 2.7452 0.0000 -10629.2909 1414.5781 0.0000 0.0000 1781.3999 -7423.6296 303.4669 -9205.0295 -7451.8839 300.2509 -227.5985 -152.1857 30376.5059 -323.5069 -265.3677
ENERGY: 900000 3.9564 4.2560 5.9556 0.0000 -10646.4915 1450.7407 0.0000 0.0000 1779.5167 -7402.0661 303.1461 -9181.5828 -7454.8773 300.8698 91.0872 64.6361 31007.2887 -265.5321 -222.2300
ENERGY: 1200000 3.5552 3.7265 3.0228 0.0000 -10557.9833 1370.5906 0.0000 0.0000 1766.0157 -7411.0726 300.8462 -9177.0883 -7450.9441 300.4798 -204.5040 -184.7461 30521.7381 -161.4770 -119.4714
ENERGY: 1500000 0.9656 2.4057 3.7199 0.0000 -10650.2729 1425.3424 0.0000 0.0000 1784.3470 -7433.4923 303.9689 -9217.8393 -7460.5647 300.4654 84.7462 102.0429 30527.2100 -156.7791 -113.0105
TCL: Running FEP window  17: Lambda1 0.8000000000000002 Lambda2 0.8500000000000002 [dLambda 0.050000000000000044]
TCL: Setting parameter firsttimestep to 0
TCL: Setting parameter alchLambda to 0.8000000000000002
Info: NONBONDED TABLE R-SQUARED SPACING: 0.0625
Info: NONBONDED TABLE SIZE: 705 POINTS
TCL: Setting parameter alchLambda2 to 0.8500000000000002
Info: NONBONDED TABLE R-SQUARED SPACING: 0.0625
Info: NONBONDED TABLE SIZE: 705 POINTS
TCL: Running for 1500000 steps
ETITLE: TS BOND ANGLE DIHED IMPRP ELECT VDW BOUNDARY MISC KINETIC TOTAL TEMP POTENTIAL TOTALAVG TEMPAVG PRESSURE GPRESSURE VOLUME PRESSAVG GPRESSAVG
ENERGY: 0 0.9656 2.4057 3.7199 0.0000 -10650.8439 1425.2753 0.0000 0.0000 1783.4658 -7435.0116 303.8188 -9218.4774 -7435.0116 303.8188 33.6250 111.2097 30527.2100 33.6250 111.2097
ENERGY: 300000 3.1218 1.2002 4.4743 0.0000 -10651.6566 1411.0963 0.0000 0.0000 1756.9748 -7474.7891 299.3060 -9231.7639 -7500.8052 297.8674 -274.7780 -263.2532 30724.1116 45.6460 97.8014
ENERGY: 600000 3.4449 3.0586 1.9926 0.0000 -10626.4809 1366.3892 0.0000 0.0000 1744.7365 -7506.8592 297.2212 -9251.5957 -7488.7952 298.0431 -498.9684 -468.0342 30147.8989 -173.0092 -115.3011
ENERGY: 900000 1.5679 4.1007 3.4542 0.0000 -10824.6728 1507.2005 0.0000 0.0000 1759.0070 -7549.3425 299.6522 -9308.3495 -7498.9959 297.8930 288.9038 367.4749 30337.6525 -59.4155 -0.2265
ENERGY: 1200000 1.9965 3.1656 2.5781 0.0000 -10721.8791 1496.2622 0.0000 0.0000 1789.7773 -7428.0995 304.8940 -9217.8767 -7495.3952 299.0865 669.4519 742.8506 30167.4690 8.3973 75.7385
ENERGY: 1500000 1.7239 4.1526 2.1300 0.0000 -10654.0079 1392.6888 0.0000 0.0000 1814.5786 -7438.7342 309.1190 -9253.3128 -7482.3635 300.5041 -274.2887 -239.4228 30372.5879 -58.3828 3.9727
TCL: Running FEP window  18: Lambda1 0.8500000000000002 Lambda2 0.9000000000000002 [dLambda 0.050000000000000044]
TCL: Setting parameter firsttimestep to 0
TCL: Setting parameter alchLambda to 0.8500000000000002
Info: NONBONDED TABLE R-SQUARED SPACING: 0.0625
Info: NONBONDED TABLE SIZE: 705 POINTS
TCL: Setting parameter alchLambda2 to 0.9000000000000002
Info: NONBONDED TABLE R-SQUARED SPACING: 0.0625
Info: NONBONDED TABLE SIZE: 705 POINTS
TCL: Running for 1500000 steps
ETITLE: TS BOND ANGLE DIHED IMPRP ELECT VDW BOUNDARY MISC KINETIC TOTAL TEMP POTENTIAL TOTALAVG TEMPAVG PRESSURE GPRESSURE VOLUME PRESSAVG GPRESSAVG
ENERGY: 0 1.7239 4.1526 2.1300 0.0000 -10654.9617 1392.8383 0.0000 0.0000 1813.7281 -7440.3890 308.9741 -9254.1171 -7440.3890 308.9741 -310.8601 -226.5661 30372.5879 -310.8601 -226.5661
ENERGY: 300000 3.6118 3.7061 2.1407 0.0000 -10817.2369 1533.1984 0.0000 0.0000 1795.1905 -7479.3895 305.8162 -9274.5800 -7482.2431 301.2933 474.6320 574.0116 30378.7258 -451.8818 -371.9027
ENERGY: 600000 4.5174 1.6422 1.3299 0.0000 -10808.1714 1523.5702 0.0000 0.0000 1742.6090 -7534.5028 296.8587 -9277.1117 -7502.0081 300.3055 628.1628 715.4743 30159.9570 -156.4483 -83.0154
ENERGY: 900000 2.0851 2.4253 2.3011 0.0000 -10699.8712 1433.2377 0.0000 0.0000 1761.6959 -7498.1261 300.1103 -9259.8220 -7495.4770 300.2837 -230.7990 -234.2856 30831.1203 -108.5152 -48.2504
ENERGY: 1200000 1.1958 3.2077 2.4659 0.0000 -10893.4845 1601.0333 0.0000 0.0000 1711.3130 -7574.2688 291.5274 -9285.5818 -7501.5063 299.4993 1333.1351 1387.3462 29940.2271 -33.6160 22.6396
ENERGY: 1500000 2.9437 1.9361 2.0159 0.0000 -10808.1942 1553.0440 0.0000 0.0000 1779.5172 -7468.7374 303.1462 -9248.2546 -7501.9011 299.7249 928.9633 976.4119 30320.3273 -11.6540 45.5305
TCL: Running FEP window  19: Lambda1 0.9000000000000002 Lambda2 0.9500000000000003 [dLambda 0.050000000000000044]
TCL: Setting parameter firsttimestep to 0
TCL: Setting parameter alchLambda to 0.9000000000000002
Info: NONBONDED TABLE R-SQUARED SPACING: 0.0625
Info: NONBONDED TABLE SIZE: 705 POINTS
TCL: Setting parameter alchLambda2 to 0.9500000000000003
Info: NONBONDED TABLE R-SQUARED SPACING: 0.0625
Info: NONBONDED TABLE SIZE: 705 POINTS
TCL: Running for 1500000 steps
ETITLE: TS BOND ANGLE DIHED IMPRP ELECT VDW BOUNDARY MISC KINETIC TOTAL TEMP POTENTIAL TOTALAVG TEMPAVG PRESSURE GPRESSURE VOLUME PRESSAVG GPRESSAVG
ENERGY: 0 2.9437 1.9361 2.0159 0.0000 -10808.9090 1554.6950 0.0000 0.0000 1778.6194 -7468.6989 302.9932 -9247.3183 -7468.6989 302.9932 928.1064 1001.8215 30320.3273 928.1064 1001.8215
ENERGY: 300000 3.3357 4.4366 3.4963 0.0000 -10676.4139 1401.0299 0.0000 0.0000 1773.5320 -7490.5833 302.1266 -9264.1153 -7469.3083 300.7102 205.4572 196.8814 29888.0644 194.9862 233.2703
ENERGY: 600000 2.3076 7.2062 3.2943 0.0000 -10700.6955 1469.8273 0.0000 0.0000 1778.2306 -7439.8295 302.9270 -9218.0601 -7457.3555 299.1743 530.5892 582.8811 30298.4247 221.0152 247.7296
ENERGY: 900000 2.5885 3.2921 2.9615 0.0000 -10617.1111 1360.3836 0.0000 0.0000 1711.9441 -7535.9413 291.6349 -9247.8854 -7472.8849 297.9499 -591.4695 -474.9811 30416.0189 61.4224 102.8443
ENERGY: 1200000 3.4544 1.7454 1.7657 0.0000 -10835.8932 1487.0486 0.0000 0.0000 1773.3166 -7568.5625 302.0899 -9341.8791 -7479.1670 297.3101 297.4423 346.0342 29893.6893 29.9386 71.8145
ENERGY: 1500000 4.0768 2.3390 1.1316 0.0000 -10812.4083 1487.0388 0.0000 0.0000 1777.8409 -7539.9812 302.8606 -9317.8220 -7481.6159 297.5948 243.0104 332.9661 30123.3070 27.0551 80.0773
TCL: Running FEP window  20: Lambda1 0.9500000000000003 Lambda2 1.0    [dLambda 0.04999999999999971]
TCL: Setting parameter firsttimestep to 0
TCL: Setting parameter alchLambda to 0.9500000000000003
Info: NONBONDED TABLE R-SQUARED SPACING: 0.0625
Info: NONBONDED TABLE SIZE: 705 POINTS
TCL: Setting parameter alchLambda2 to 1.0
Info: NONBONDED TABLE R-SQUARED SPACING: 0.0625
Info: NONBONDED TABLE SIZE: 705 POINTS
TCL: Running for 1500000 steps
ETITLE: TS BOND ANGLE DIHED IMPRP ELECT VDW BOUNDARY MISC KINETIC TOTAL TEMP POTENTIAL TOTALAVG TEMPAVG PRESSURE GPRESSURE VOLUME PRESSAVG GPRESSAVG
ENERGY: 0 4.0768 2.3390 1.1316 0.0000 -10813.2728 1487.4706 0.0000 0.0000 1776.9341 -7541.3207 302.7061 -9318.2548 -7541.3207 302.7061 261.2714 348.6725 30123.3070 261.2714 348.6725
ENERGY: 300000 1.4394 2.1853 3.0053 0.0000 -10733.5208 1454.9484 0.0000 0.0000 1766.0272 -7505.9153 300.8481 -9271.9424 -7479.3587 302.0058 246.9794 359.2907 29990.6810 6.1079 88.4998
ENERGY: 600000 2.8233 2.5828 3.5340 0.0000 -10708.0045 1414.2356 0.0000 0.0000 1751.6703 -7533.1584 298.4024 -9284.8287 -7504.7110 300.7778 -183.0741 -71.5927 29834.5581 -70.7916 23.0104
ENERGY: 900000 6.0566 8.4652 4.0658 0.0000 -10604.6479 1374.4187 0.0000 0.0000 1734.3588 -7477.2827 295.4533 -9211.6415 -7488.5782 299.7360 -672.7746 -601.7568 30649.0832 -123.4525 -35.1864
ENERGY: 1200000 1.0831 3.8339 1.5505 0.0000 -10756.1002 1494.4365 0.0000 0.0000 1788.8759 -7466.3204 304.7405 -9255.1963 -7489.2951 299.4591 184.1630 293.7610 30736.2345 -131.6211 -42.9389
ENERGY: 1500000 3.5526 2.2398 1.6467 0.0000 -10691.4450 1408.9994 0.0000 0.0000 1749.3157 -7525.6909 298.0012 -9275.0065 -7484.8125 299.9206 -202.7266 -135.2842 30250.4876 -209.9838 -130.6921
TCL: Exiting due to exit command.
