Info: SIMULATION PARAMETERS:
Info: TIMESTEP               2
Info: NUMBER OF STEPS        0
Info: STEPS PER CYCLE        10
Info: PERIODIC CELL BASIS 1  30.8346 0 0
Info: PERIODIC CELL BASIS 2  0 31.0822 0
Info: PERIODIC CELL BASIS 3  0 0 31.4841
Info: PERIODIC CELL CENTER   0 0 0
Info: WRAPPING WATERS AROUND PERIODIC BOUNDARIES ON OUTPUT.
Info: WRAPPING ALL CLUSTERS AROUND PERIODIC BOUNDARIES ON OUTPUT.
Info: FIRST LDB TIMESTEP     50
Info: LAST LDB TIMESTEP     -1
Info: HOM BACKGROUND SCALING 1
Info: PME BACKGROUND SCALING 1
Info: MIN ATOMS PER PATCH    40
Info: EMPTY PATCH LOAD       40 ATOMS
Info: VELOCITY FILE          mobley_951560_equil.vel
Info: CENTER OF MASS MOVING INITIALLY? NO
Info: DIELECTRIC             1
Info: EXCLUDE                SCALED ONE-FOUR
Info: 1-4 ELECTROSTATICS SCALED BY 0.833333
Info: MODIFIED 1-4 VDW PARAMETERS WILL BE USED
Info: DCD FILENAME           mobley_951560_prod.dcd
Info: DCD FREQUENCY          100000
Info: DCD FIRST STEP         100000
Info: DCD FILE WILL CONTAIN UNIT CELL DATA
Info: XST FILENAME           mobley_951560_prod.xst
Info: XST FREQUENCY          100000
Info: NO VELOCITY DCD OUTPUT
Info: NO FORCE DCD OUTPUT
Info: OUTPUT FILENAME        mobley_951560_prod
Info: BINARY OUTPUT FILES WILL BE USED
Info: RESTART FILENAME       mobley_951560_prod.restart
Info: RESTART FREQUENCY      100000
Info: BINARY RESTART FILES WILL BE USED
Info: CUTOFF                 9
Info: PAIRLIST DISTANCE      11
Info: PAIRLIST SHRINK RATE   0.01
Info: PAIRLIST GROW RATE     0.01
Info: PAIRLIST TRIGGER       0.3
Info: PAIRLISTS PER CYCLE    2
Info: PAIRLISTS ENABLED
Info: MARGIN                 2
Info: HYDROGEN GROUP CUTOFF  2.5
Info: PATCH DIMENSION        15.5
Info: ENERGY OUTPUT STEPS    100000
Info: ENERGY EVALUATION STEPS    100000
Info: OUTPUT ENERGY PRECISION 4
Info: CROSSTERM ENERGY INCLUDED IN DIHEDRAL
Info: TIMING OUTPUT STEPS    1000000
Info: PRESSURE OUTPUT STEPS  100000
Info: ALCHEMICAL FEP ON
Info: FEP CURRENT LAMBDA VALUE     0
Info: FEP COMPARISON LAMBDA VALUE  0.05
Info: FEP INTRA-ALCHEMICAL NON-BONDED INTERACTIONS WILL BE RETAINED
Info: FEP INTRA-ALCHEMICAL BONDED INTERACTIONS WILL BE RETAINED
Info: FEP VDW SHIFTING COEFFICIENT 5
Info: FEP ELEC. ACTIVE FOR ANNIHILATED PARTICLES BETWEEN LAMBDA = 0 AND LAMBDA = 0.5
Info: FEP ELEC. ACTIVE FOR EXNIHILATED PARTICLES BETWEEN LAMBDA = 0.5 AND LAMBDA = 1
Info: FEP VDW ACTIVE FOR ANNIHILATED PARTICLES BETWEEN LAMBDA = 0 AND LAMBDA = 1
Info: FEP VDW ACTIVE FOR EXNIHILATED PARTICLES BETWEEN LAMBDA = 0 AND LAMBDA = 1
Info: FEP BOND ACTIVE FOR ANNIHILATED PARTICLES BETWEEN LAMBDA = 1 AND LAMBDA = 1
Info: FEP BOND ACTIVE FOR EXNIHILATED PARTICLES BETWEEN LAMBDA = 0 AND LAMBDA = 0
Info: LANGEVIN DYNAMICS ACTIVE
Info: LANGEVIN TEMPERATURE   300
Info: LANGEVIN USING BBK INTEGRATOR
Info: LANGEVIN DAMPING COEFFICIENT IS 1 INVERSE PS
Info: LANGEVIN DYNAMICS APPLIED TO HYDROGENS
Info: LANGEVIN PISTON PRESSURE CONTROL ACTIVE
Info:        TARGET PRESSURE IS 1.01325 BAR
Info:     OSCILLATION PERIOD IS 50 FS
Info:             DECAY TIME IS 25 FS
Info:     PISTON TEMPERATURE IS 300 K
Info:       PRESSURE CONTROL IS GROUP-BASED
Info:    INITIAL STRAIN RATE IS -2.62296e-06 -2.62296e-06 -2.62296e-06
Info:       CELL FLUCTUATION IS ISOTROPIC
Info: PARTICLE MESH EWALD (PME) ACTIVE
Info: PME TOLERANCE               1e-06
Info: PME EWALD COEFFICIENT       0.348832
Info: PME INTERPOLATION ORDER     4
Info: PME GRID DIMENSIONS         32 32 32
Info: PME MAXIMUM GRID SPACING    1
Info: PME CALCULATION WILL BE PERFORMED ON GPU
Info: FULL ELECTROSTATIC EVALUATION FREQUENCY      2
Info: USING VERLET I (r-RESPA) MTS SCHEME.
Info: C1 SPLITTING OF LONG RANGE ELECTROSTATICS
Info: PLACING ATOMS IN PATCHES BY HYDROGEN GROUPS
Info: RIGID BONDS TO HYDROGEN : ALL
Info:         ERROR TOLERANCE : 1e-08
Info:          MAX ITERATIONS : 100
Info: RIGID WATER USING SETTLE ALGORITHM
Info: RANDOM NUMBER SEED     1743586507
Info: USE HYDROGEN BONDS?    NO
Info: Using AMBER format force field!
Info: AMBER PARM FILE        mobley_951560.prmtop
Info: COORDINATE PDB         mobley_951560.pdb
Info: Exclusions will be read from PARM file!
Info: SCNB (VDW SCALING)     2
Info: USING ARITHMETIC MEAN TO COMBINE L-J SIGMA PARAMETERS
Info: BINARY COORDINATES     mobley_951560_equil.coor
Info: SUMMARY OF PARAMETERS:
Info: 6 BONDS
Info: 6 ANGLES
Info:   6 HARMONIC
Info:   0 COSINE-BASED
Info: 3 DIHEDRAL
Info: 0 IMPROPER
Info: 0 CROSSTERM
Info: 0 VDW
Info: 21 VDW_PAIRS
Info: 0 NBTHOLE_PAIRS
Info: To read alchdata from file: mobley_951560.pdb
Info: To read alchflag data from column: 5
Info: STRUCTURE SUMMARY:
Info: 2962 ATOMS
Info: 2962 BONDS
Info: 30 ANGLES
Info: 46 DIHEDRALS
Info: 0 IMPROPERS
Info: 0 CROSSTERMS
Info: 3031 EXCLUSIONS
Info: 2956 RIGID BONDS
Info: ALCH: 0 ATOMS TO DISAPPEAR IN FINAL STATE
Info: ALCH: 16 ATOMS TO APPEAR IN FINAL STATE
Info: 5930 DEGREES OF FREEDOM
Info: 988 HYDROGEN GROUPS
Info: 3 ATOMS IN LARGEST HYDROGEN GROUP
Info: 988 MIGRATION GROUPS
Info: 3 ATOMS IN LARGEST MIGRATION GROUP
Info: TOTAL MASS = 17777.9 amu
Info: TOTAL CHARGE = 8.9407e-08 e
Info: MASS DENSITY = 0.978357 g/cm^3
Info: ATOM DENSITY = 0.0981621 atoms/A^3
Info: ADDED 0 IMPLICIT EXCLUSIONS
Info: NONBONDED TABLE R-SQUARED SPACING: 0.0625
Info: NONBONDED TABLE SIZE: 705 POINTS
Info: REMOVING COM VELOCITY -0.206287 -0.112542 0.0408463
Info: Use 3D box decompostion in PME FFT.
Info: Updated CUDA force table with 4096 elements.
Info: Updated CUDA LJ table with 6 x 6 elements.
Info: Found 19 unique exclusion lists needing 44 bytes
TCL: Running for 1500000 steps
ETITLE: TS BOND ANGLE DIHED IMPRP ELECT VDW BOUNDARY MISC KINETIC TOTAL TEMP POTENTIAL TOTALAVG TEMPAVG PRESSURE GPRESSURE VOLUME PRESSAVG GPRESSAVG
ENERGY: 0 0.8436 5.8870 3.2173 0.0000 -10826.8908 1549.4509 0.0000 0.0000 1724.4283 -7543.0637 292.6718 -9267.4920 -7543.0637 292.6718 622.8214 705.9252 30174.5708 622.8214 705.9252
ENERGY: 300000 3.9677 9.1016 5.0289 0.0000 -10611.8840 1368.0153 0.0000 0.0000 1699.2520 -7526.5186 288.3988 -9225.7706 -7472.2334 296.8493 -937.3695 -828.3053 30475.9764 -239.6250 -173.9035
ENERGY: 600000 2.0938 7.9767 4.3522 0.0000 -10682.8648 1427.9313 0.0000 0.0000 1730.6390 -7509.8719 293.7259 -9240.5109 -7472.1237 297.8141 -234.5437 -270.2349 30324.1979 -137.6524 -84.9733
ENERGY: 900000 1.9544 6.1629 3.6856 0.0000 -10612.7914 1431.5668 0.0000 0.0000 1788.6303 -7380.7915 303.5682 -9169.4217 -7457.6621 298.5380 21.5310 55.2569 30597.4595 -145.1502 -99.7849
ENERGY: 1200000 2.0758 8.1217 4.7520 0.0000 -10660.1525 1440.9281 0.0000 0.0000 1774.9344 -7429.3405 301.2437 -9204.2749 -7453.6777 298.7080 -125.5600 -37.3212 30363.9834 -109.3930 -62.9654
ENERGY: 1500000 4.9086 6.4758 4.9907 0.0000 -10718.3877 1481.2841 0.0000 0.0000 1765.7106 -7455.0178 299.6782 -9220.7284 -7454.8338 298.7087 332.4505 376.4795 29855.0787 -64.3413 -19.4535
TCL: Running FEP window   2: Lambda1 0.05   Lambda2 0.1    [dLambda 0.05  ]
TCL: Setting parameter firsttimestep to 0
TCL: Setting parameter alchLambda to 0.05
Info: NONBONDED TABLE R-SQUARED SPACING: 0.0625
Info: NONBONDED TABLE SIZE: 705 POINTS
TCL: Setting parameter alchLambda2 to 0.1
Info: NONBONDED TABLE R-SQUARED SPACING: 0.0625
Info: NONBONDED TABLE SIZE: 705 POINTS
TCL: Running for 1500000 steps
ETITLE: TS BOND ANGLE DIHED IMPRP ELECT VDW BOUNDARY MISC KINETIC TOTAL TEMP POTENTIAL TOTALAVG TEMPAVG PRESSURE GPRESSURE VOLUME PRESSAVG GPRESSAVG
ENERGY: 0 4.9087 6.4759 4.9907 0.0000 -10718.3862 1484.1890 0.0000 0.0000 1764.8480 -7452.9740 299.5318 -9217.8221 -7452.9740 299.5318 281.4495 378.4335 29855.0787 281.4495 378.4335
ENERGY: 300000 2.8703 10.8313 3.8740 0.0000 -10691.7492 1450.6066 0.0000 0.0000 1752.1006 -7471.4664 297.3683 -9223.5671 -7474.3366 298.8722 132.6928 163.4243 30049.5248 74.5405 117.3447
ENERGY: 600000 3.2312 7.5792 3.3739 0.0000 -10671.8191 1450.4057 0.0000 0.0000 1762.2186 -7445.0104 299.0856 -9207.2290 -7449.9101 298.0574 -33.2981 39.0777 30262.0856 -107.0011 -53.9924
ENERGY: 900000 2.1749 7.8747 3.0695 0.0000 -10789.1836 1517.0437 0.0000 0.0000 1745.8146 -7513.2063 296.3015 -9259.0209 -7458.3043 298.7733 545.9543 635.7069 30016.0354 19.3785 76.5325
ENERGY: 1200000 4.8112 6.5786 4.3032 0.0000 -10560.5494 1439.1990 0.0000 0.0000 1773.7169 -7331.9405 301.0371 -9105.6573 -7450.0263 299.0723 155.5359 285.2092 30218.2651 60.8529 130.1400
ENERGY: 1500000 2.7427 6.6521 3.2079 0.0000 -10698.4758 1475.4535 0.0000 0.0000 1755.1612 -7455.2584 297.8878 -9210.4196 -7443.9924 300.0950 62.6209 125.1610 30562.1571 86.1202 149.9496
TCL: Running FEP window   3: Lambda1 0.1    Lambda2 0.15000000000000002 [dLambda 0.05000000000000002]
TCL: Setting parameter firsttimestep to 0
TCL: Setting parameter alchLambda to 0.1
Info: NONBONDED TABLE R-SQUARED SPACING: 0.0625
Info: NONBONDED TABLE SIZE: 705 POINTS
TCL: Setting parameter alchLambda2 to 0.15000000000000002
Info: NONBONDED TABLE R-SQUARED SPACING: 0.0625
Info: NONBONDED TABLE SIZE: 705 POINTS
TCL: Running for 1500000 steps
ETITLE: TS BOND ANGLE DIHED IMPRP ELECT VDW BOUNDARY MISC KINETIC TOTAL TEMP POTENTIAL TOTALAVG TEMPAVG PRESSURE GPRESSURE VOLUME PRESSAVG GPRESSAVG
ENERGY: 0 2.7427 6.6521 3.2079 0.0000 -10698.4761 1477.8886 0.0000 0.0000 1754.2559 -7453.7289 297.7341 -9207.9848 -7453.7289 297.7341 52.7640 131.8873 30562.1571 52.7640 131.8873
ENERGY: 300000 1.9190 10.0328 3.4011 0.0000 -10542.8839 1359.0864 0.0000 0.0000 1847.3088 -7321.1356 313.5272 -9168.4444 -7419.3080 301.5921 -478.5695 -404.0018 30365.7217 -326.2423 -238.3241
ENERGY: 600000 2.7346 7.3489 3.5029 0.0000 -10656.2892 1428.8756 0.0000 0.0000 1722.4746 -7491.3526 292.3402 -9213.8272 -7429.3965 302.7466 -318.2908 -220.1809 30443.5620 -500.8116 -427.4918
ENERGY: 900000 3.6539 9.7246 4.3113 0.0000 -10685.7475 1486.6797 0.0000 0.0000 1722.7143 -7458.6635 292.3809 -9181.3779 -7427.5469 301.8005 319.8694 371.5606 30257.8467 -297.1533 -224.0286
ENERGY: 1200000 1.3695 3.2252 3.3783 0.0000 -10581.2835 1410.7496 0.0000 0.0000 1790.1738 -7372.3871 303.8302 -9162.5608 -7419.0417 301.6969 19.2109 8.1377 30569.2650 -296.7639 -238.6945
ENERGY: 1500000 1.7906 6.9906 3.4189 0.0000 -10671.1777 1416.6638 0.0000 0.0000 1696.3981 -7545.9157 287.9144 -9242.3138 -7433.6284 301.0770 -346.6477 -256.7724 30258.8918 -182.2495 -123.9419
TCL: Running FEP window   4: Lambda1 0.15000000000000002 Lambda2 0.2    [dLambda 0.04999999999999999]
TCL: Setting parameter firsttimestep to 0
TCL: Setting parameter alchLambda to 0.15000000000000002
Info: NONBONDED TABLE R-SQUARED SPACING: 0.0625
Info: NONBONDED TABLE SIZE: 705 POINTS
TCL: Setting parameter alchLambda2 to 0.2
Info: NONBONDED TABLE R-SQUARED SPACING: 0.0625
Info: NONBONDED TABLE SIZE: 705 POINTS
TCL: Running for 1500000 steps
ETITLE: TS BOND ANGLE DIHED IMPRP ELECT VDW BOUNDARY MISC KINETIC TOTAL TEMP POTENTIAL TOTALAVG TEMPAVG PRESSURE GPRESSURE VOLUME PRESSAVG GPRESSAVG
ENERGY: 0 1.7906 6.9906 3.4189 0.0000 -10671.1788 1416.6613 0.0000 0.0000 1695.5479 -7546.7695 287.7702 -9242.3174 -7546.7695 287.7702 -347.7344 -256.2148 30258.8918 -347.7344 -256.2148
ENERGY: 300000 3.4018 5.2876 3.0245 0.0000 -10668.7236 1458.2877 0.0000 0.0000 1786.4372 -7412.2846 303.1960 -9198.7219 -7445.2785 298.1906 -53.9894 -61.7156 30822.9594 46.1203 90.9196
ENERGY: 600000 0.9572 4.9980 4.4195 0.0000 -10732.6220 1491.0566 0.0000 0.0000 1744.9861 -7486.2046 296.1609 -9231.1907 -7459.4516 299.3076 227.1517 260.8408 30473.8188 -47.0620 1.1526
ENERGY: 900000 0.5690 5.0409 3.0576 0.0000 -10558.9326 1371.6001 0.0000 0.0000 1784.0377 -7394.6273 302.7887 -9178.6650 -7450.0826 300.3265 -525.5495 -413.2886 30292.4135 0.0566 51.8271
ENERGY: 1200000 1.8754 5.2575 3.0455 0.0000 -10652.2238 1465.9497 0.0000 0.0000 1793.4396 -7382.6560 304.3844 -9176.0956 -7451.4776 300.8155 334.1823 377.3955 30181.1050 73.3838 122.5646
ENERGY: 1500000 0.7990 4.9877 2.9109 0.0000 -10641.6117 1429.4356 0.0000 0.0000 1811.9406 -7391.5378 307.5245 -9203.4785 -7441.8762 301.9896 165.4082 204.5552 30038.4778 51.0510 102.1477
TCL: Running FEP window   5: Lambda1 0.2    Lambda2 0.25   [dLambda 0.04999999999999999]
TCL: Setting parameter firsttimestep to 0
TCL: Setting parameter alchLambda to 0.2
Info: NONBONDED TABLE R-SQUARED SPACING: 0.0625
Info: NONBONDED TABLE SIZE: 705 POINTS
TCL: Setting parameter alchLambda2 to 0.25
Info: NONBONDED TABLE R-SQUARED SPACING: 0.0625
Info: NONBONDED TABLE SIZE: 705 POINTS
TCL: Running for 1500000 steps
ETITLE: TS BOND ANGLE DIHED IMPRP ELECT VDW BOUNDARY MISC KINETIC TOTAL TEMP POTENTIAL TOTALAVG TEMPAVG PRESSURE GPRESSURE VOLUME PRESSAVG GPRESSAVG
ENERGY: 0 0.7990 4.9877 2.9109 0.0000 -10641.6110 1429.7006 0.0000 0.0000 1811.0770 -7392.1358 307.3779 -9203.2128 -7392.1358 307.3779 103.5979 210.4763 30038.4778 103.5979 210.4763
ENERGY: 300000 2.4339 5.7348 4.0882 0.0000 -10583.8460 1401.2490 0.0000 0.0000 1699.0329 -7471.3071 288.3616 -9170.3400 -7417.6445 301.8282 -386.2266 -301.2423 30446.1125 -274.5228 -188.7386
ENERGY: 600000 2.6514 9.5324 4.1349 0.0000 -10635.3320 1412.8705 0.0000 0.0000 1732.7915 -7473.3513 294.0912 -9206.1428 -7430.0762 301.9133 -349.6903 -306.6094 30395.8312 -197.5601 -125.6981
ENERGY: 900000 2.1409 4.7267 4.4606 0.0000 -10639.8936 1364.8440 0.0000 0.0000 1748.3970 -7515.3245 296.7398 -9263.7215 -7456.9549 300.3165 -1020.0693 -966.1077 30657.6933 -249.8963 -185.5624
ENERGY: 1200000 2.5354 7.0668 3.3045 0.0000 -10691.0111 1412.8985 0.0000 0.0000 1708.7990 -7556.4069 290.0191 -9265.2059 -7456.9204 300.3585 -604.0015 -535.2640 30570.2803 -182.2067 -122.9897
ENERGY: 1500000 1.0253 6.4012 3.2484 0.0000 -10736.6950 1437.0431 0.0000 0.0000 1810.9330 -7478.0440 307.3534 -9288.9769 -7456.0986 300.6358 -238.0005 -230.3287 30410.9048 -187.4346 -137.0791
TCL: Running FEP window   6: Lambda1 0.25   Lambda2 0.3    [dLambda 0.04999999999999999]
TCL: Setting parameter firsttimestep to 0
TCL: Setting parameter alchLambda to 0.25
Info: NONBONDED TABLE R-SQUARED SPACING: 0.0625
Info: NONBONDED TABLE SIZE: 705 POINTS
TCL: Setting parameter alchLambda2 to 0.3
Info: NONBONDED TABLE R-SQUARED SPACING: 0.0625
Info: NONBONDED TABLE SIZE: 705 POINTS
TCL: Running for 1500000 steps
ETITLE: TS BOND ANGLE DIHED IMPRP ELECT VDW BOUNDARY MISC KINETIC TOTAL TEMP POTENTIAL TOTALAVG TEMPAVG PRESSURE GPRESSURE VOLUME PRESSAVG GPRESSAVG
ENERGY: 0 1.0253 6.4012 3.2484 0.0000 -10736.6948 1437.2006 0.0000 0.0000 1810.0419 -7478.7773 307.2022 -9288.8192 -7478.7773 307.2022 -311.3585 -227.6529 30410.9048 -311.3585 -227.6529
ENERGY: 300000 4.2527 10.7859 3.6211 0.0000 -10705.0002 1484.4336 0.0000 0.0000 1800.4393 -7401.4676 305.5724 -9201.9069 -7439.7494 305.7894 53.1768 141.6274 30796.7317 -454.9768 -371.9255
ENERGY: 600000 5.0248 6.4733 3.8251 0.0000 -10613.1221 1466.0416 0.0000 0.0000 1726.4945 -7405.2627 293.0224 -9131.7572 -7431.7159 301.8326 402.7615 498.7191 30041.2174 -406.7773 -313.5946
ENERGY: 900000 2.3368 10.5151 3.9061 0.0000 -10680.6397 1471.0364 0.0000 0.0000 1760.5908 -7432.2546 298.8093 -9192.8454 -7426.3257 300.5577 -31.9846 12.4345 30680.9251 -266.4162 -181.2512
ENERGY: 1200000 0.5430 6.5569 3.2959 0.0000 -10624.6236 1474.6964 0.0000 0.0000 1769.3894 -7370.1420 300.3026 -9139.5314 -7427.0102 300.8740 465.8575 513.8755 30449.8815 -189.7745 -115.7102
ENERGY: 1500000 2.2665 8.1036 3.1402 0.0000 -10735.2333 1531.0306 0.0000 0.0000 1763.7817 -7426.9107 299.3509 -9190.6924 -7425.9928 301.0879 583.1086 651.5583 30537.1992 -75.8891 -2.1238
TCL: Running FEP window   7: Lambda1 0.3    Lambda2 0.35   [dLambda 0.04999999999999999]
TCL: Setting parameter firsttimestep to 0
TCL: Setting parameter alchLambda to 0.3
Info: NONBONDED TABLE R-SQUARED SPACING: 0.0625
Info: NONBONDED TABLE SIZE: 705 POINTS
TCL: Setting parameter alchLambda2 to 0.35
Info: NONBONDED TABLE R-SQUARED SPACING: 0.0625
Info: NONBONDED TABLE SIZE: 705 POINTS
TCL: Running for 1500000 steps
ETITLE: TS BOND ANGLE DIHED IMPRP ELECT VDW BOUNDARY MISC KINETIC TOTAL TEMP POTENTIAL TOTALAVG TEMPAVG PRESSURE GPRESSURE VOLUME PRESSAVG GPRESSAVG
ENERGY: 0 2.2665 8.1036 3.1402 0.0000 -10735.2332 1530.8183 0.0000 0.0000 1762.8642 -7428.0404 299.1952 -9190.9046 -7428.0404 299.1952 565.0169 659.6018 30537.1992 565.0169 659.6018
ENERGY: 300000 1.2291 8.0581 3.5532 0.0000 -10669.4815 1417.6297 0.0000 0.0000 1784.2383 -7454.7732 302.8228 -9239.0115 -7458.1296 298.8435 -102.4902 -56.6434 30440.0101 -129.0412 -63.5023
ENERGY: 600000 3.1207 10.0433 4.2542 0.0000 -10628.8180 1343.7950 0.0000 0.0000 1746.1257 -7521.4790 296.3543 -9267.6048 -7462.8229 300.1258 -887.0453 -777.4649 30347.4548 -280.5603 -216.2858
ENERGY: 900000 2.0405 5.6302 3.6430 0.0000 -10561.6272 1432.1104 0.0000 0.0000 1782.3186 -7335.8846 302.4970 -9118.2032 -7440.8814 301.4590 128.4309 239.7018 30448.9635 -249.7881 -182.4013
ENERGY: 1200000 2.7703 11.3559 4.2997 0.0000 -10583.1255 1397.7922 0.0000 0.0000 1821.0451 -7345.8623 309.0697 -9166.9074 -7428.9228 302.3667 -236.9354 -157.6360 30254.0465 -193.4904 -126.7719
ENERGY: 1500000 0.9014 10.4978 4.5298 0.0000 -10636.6918 1419.9417 0.0000 0.0000 1808.6311 -7392.1899 306.9628 -9200.8210 -7425.4184 302.3611 101.0890 175.5523 30052.5104 -121.1123 -50.9415
TCL: Running FEP window   8: Lambda1 0.35   Lambda2 0.39999999999999997 [dLambda 0.04999999999999999]
TCL: Setting parameter firsttimestep to 0
TCL: Setting parameter alchLambda to 0.35
Info: NONBONDED TABLE R-SQUARED SPACING: 0.0625
Info: NONBONDED TABLE SIZE: 705 POINTS
TCL: Setting parameter alchLambda2 to 0.39999999999999997
Info: NONBONDED TABLE R-SQUARED SPACING: 0.0625
Info: NONBONDED TABLE SIZE: 705 POINTS
TCL: Running for 1500000 steps
ETITLE: TS BOND ANGLE DIHED IMPRP ELECT VDW BOUNDARY MISC KINETIC TOTAL TEMP POTENTIAL TOTALAVG TEMPAVG PRESSURE GPRESSURE VOLUME PRESSAVG GPRESSAVG
ENERGY: 0 0.9014 10.4978 4.5298 0.0000 -10636.6922 1419.9661 0.0000 0.0000 1807.7432 -7393.0539 306.8121 -9200.7971 -7393.0539 306.8121 106.2981 178.0698 30052.5104 106.2981 178.0698
ENERGY: 300000 1.4823 7.3879 3.4328 0.0000 -10640.2342 1429.3099 0.0000 0.0000 1777.1139 -7421.5073 301.6136 -9198.6212 -7441.9479 301.1748 53.4191 107.5699 30165.0507 -366.4143 -302.1291
ENERGY: 600000 2.4977 10.0454 3.9670 0.0000 -10626.6558 1419.7592 0.0000 0.0000 1773.2535 -7417.1330 300.9584 -9190.3865 -7436.6548 301.7309 -169.2421 -132.2684 30725.6136 -200.9016 -139.5605
ENERGY: 900000 2.7411 7.7721 4.1026 0.0000 -10574.6050 1399.7673 0.0000 0.0000 1830.5086 -7329.7134 310.6758 -9160.2219 -7423.2927 303.8929 -498.1987 -401.3108 30794.4325 -180.1594 -114.7574
ENERGY: 1200000 2.5899 4.8670 3.0538 0.0000 -10675.3959 1449.5553 0.0000 0.0000 1715.8424 -7499.4874 291.2146 -9215.3298 -7431.3692 302.2224 -203.3916 -181.8881 30766.9185 -151.2038 -88.5250
ENERGY: 1500000 2.6345 4.0048 3.5481 0.0000 -10659.6522 1434.9839 0.0000 0.0000 1817.9432 -7396.5376 308.5432 -9214.4808 -7437.9645 302.4042 58.2765 122.1540 30205.6184 -124.9927 -67.6473
TCL: Running FEP window   9: Lambda1 0.39999999999999997 Lambda2 0.44999999999999996 [dLambda 0.04999999999999999]
TCL: Setting parameter firsttimestep to 0
TCL: Setting parameter alchLambda to 0.39999999999999997
Info: NONBONDED TABLE R-SQUARED SPACING: 0.0625
Info: NONBONDED TABLE SIZE: 705 POINTS
TCL: Setting parameter alchLambda2 to 0.44999999999999996
Info: NONBONDED TABLE R-SQUARED SPACING: 0.0625
Info: NONBONDED TABLE SIZE: 705 POINTS
TCL: Running for 1500000 steps
ETITLE: TS BOND ANGLE DIHED IMPRP ELECT VDW BOUNDARY MISC KINETIC TOTAL TEMP POTENTIAL TOTALAVG TEMPAVG PRESSURE GPRESSURE VOLUME PRESSAVG GPRESSAVG
ENERGY: 0 2.6345 4.0048 3.5481 0.0000 -10659.6521 1434.6852 0.0000 0.0000 1817.0498 -7397.7297 308.3916 -9214.7795 -7397.7297 308.3916 27.0012 124.5667 30205.6184 27.0012 124.5667
ENERGY: 300000 2.7868 6.5855 3.6485 0.0000 -10677.9279 1447.4187 0.0000 0.0000 1783.1393 -7434.3491 302.6363 -9217.4884 -7441.7345 302.9127 176.2190 288.0444 30190.3896 195.2175 261.6711
ENERGY: 600000 3.2491 6.2436 4.2125 0.0000 -10673.8985 1427.2804 0.0000 0.0000 1744.3532 -7488.5597 296.0534 -9232.9129 -7454.9203 301.0479 -313.6259 -234.8987 30836.5445 144.7021 212.6610
ENERGY: 900000 1.5634 9.5089 3.6572 0.0000 -10562.7885 1408.3304 0.0000 0.0000 1744.8593 -7394.8694 296.1393 -9139.7286 -7451.1332 300.4000 -166.2467 -129.9915 30629.2394 86.0019 157.8890
ENERGY: 1200000 0.3810 5.3754 3.8483 0.0000 -10658.2522 1494.2978 0.0000 0.0000 1779.1984 -7375.1512 301.9674 -9154.3497 -7444.9816 300.4662 516.8397 536.9650 30648.9854 0.5418 68.7391
ENERGY: 1500000 2.8362 9.4020 3.4980 0.0000 -10725.9550 1504.4026 0.0000 0.0000 1800.5593 -7405.2569 305.5928 -9205.8163 -7448.8451 300.6453 514.0513 600.6359 30104.9227 18.5836 95.4160
TCL: Running FEP window  10: Lambda1 0.44999999999999996 Lambda2 0.49999999999999994 [dLambda 0.04999999999999999]
TCL: Setting parameter firsttimestep to 0
TCL: Setting parameter alchLambda to 0.44999999999999996
Info: NONBONDED TABLE R-SQUARED SPACING: 0.0625
Info: NONBONDED TABLE SIZE: 705 POINTS
TCL: Setting parameter alchLambda2 to 0.49999999999999994
Info: NONBONDED TABLE R-SQUARED SPACING: 0.0625
Info: NONBONDED TABLE SIZE: 705 POINTS
TCL: Running for 1500000 steps
ETITLE: TS BOND ANGLE DIHED IMPRP ELECT VDW BOUNDARY MISC KINETIC TOTAL TEMP POTENTIAL TOTALAVG TEMPAVG PRESSURE GPRESSURE VOLUME PRESSAVG GPRESSAVG
ENERGY: 0 2.8362 9.4020 3.4980 0.0000 -10725.9563 1503.7960 0.0000 0.0000 1799.6624 -7406.7616 305.4406 -9206.4240 -7406.7616 305.4406 501.3149 597.4709 30104.9227 501.3149 597.4709
ENERGY: 300000 2.0493 5.4745 3.0798 0.0000 -10609.5056 1409.7193 0.0000 0.0000 1721.9473 -7467.2354 292.2507 -9189.1828 -7448.2990 302.3069 -229.0461 -151.5427 30567.1534 76.8949 138.7470
ENERGY: 600000 2.1771 11.2443 4.1550 0.0000 -10645.3496 1397.9574 0.0000 0.0000 1742.9720 -7486.8438 295.8190 -9229.8158 -7470.2820 300.5890 -555.6481 -497.3727 30465.5190 -174.7199 -103.5899
ENERGY: 900000 2.9918 7.8865 3.3878 0.0000 -10638.4729 1432.5467 0.0000 0.0000 1728.6165 -7463.0435 293.3826 -9191.6601 -7453.4375 300.1257 -169.3515 -104.1062 30359.0142 -290.6568 -219.6579
ENERGY: 1200000 0.8645 4.3152 3.2739 0.0000 -10913.2112 1598.5691 0.0000 0.0000 1732.1131 -7574.0754 293.9760 -9306.1885 -7466.1258 299.2224 1170.0299 1172.7966 30056.2600 -180.9498 -119.8237
ENERGY: 1500000 3.3421 11.1720 3.7929 0.0000 -10672.6676 1436.6772 0.0000 0.0000 1782.5886 -7435.0948 302.5428 -9217.6834 -7468.1815 299.5948 46.5036 59.1127 30513.3107 -151.3557 -90.9950
TCL: Running FEP window  11: Lambda1 0.49999999999999994 Lambda2 0.5499999999999999 [dLambda 0.04999999999999999]
TCL: Setting parameter firsttimestep to 0
TCL: Setting parameter alchLambda to 0.49999999999999994
Info: NONBONDED TABLE R-SQUARED SPACING: 0.0625
Info: NONBONDED TABLE SIZE: 705 POINTS
TCL: Setting parameter alchLambda2 to 0.5499999999999999
Info: NONBONDED TABLE R-SQUARED SPACING: 0.0625
Info: NONBONDED TABLE SIZE: 705 POINTS
TCL: Running for 1500000 steps
ETITLE: TS BOND ANGLE DIHED IMPRP ELECT VDW BOUNDARY MISC KINETIC TOTAL TEMP POTENTIAL TOTALAVG TEMPAVG PRESSURE GPRESSURE VOLUME PRESSAVG GPRESSAVG
ENERGY: 0 3.3421 11.1720 3.7929 0.0000 -10672.6674 1437.1042 0.0000 0.0000 1781.7231 -7435.5332 302.3959 -9217.2562 -7435.5332 302.3959 -7.0642 68.2603 30513.3107 -7.0642 68.2603
ENERGY: 300000 1.0751 7.9438 3.4729 0.0000 -10706.7662 1473.3531 0.0000 0.0000 1801.4889 -7419.4324 305.7506 -9220.9213 -7435.1925 299.8517 205.4042 291.6389 30469.1394 -249.9620 -160.2417
ENERGY: 600000 3.5626 7.1686 3.1023 0.0000 -10782.3537 1471.5449 0.0000 0.0000 1770.7889 -7526.1863 300.5401 -9296.9752 -7463.9752 299.7921 147.8637 268.1912 29967.7089 -63.3666 17.8861
ENERGY: 900000 0.9448 9.2924 4.2665 0.0000 -10741.9846 1472.0141 0.0000 0.0000 1775.1857 -7480.2811 301.2864 -9255.4668 -7473.8097 300.1621 -133.6017 -22.4900 30920.9061 -62.8480 20.6442
ENERGY: 1200000 1.4061 8.5552 4.0006 0.0000 -10696.5243 1472.7856 0.0000 0.0000 1761.3600 -7448.4168 298.9398 -9209.7768 -7471.9284 300.5256 216.8066 295.5213 30235.0822 6.0874 90.2000
ENERGY: 1500000 1.6857 7.4780 4.9731 0.0000 -10659.3888 1437.0870 0.0000 0.0000 1807.3924 -7400.7726 306.7525 -9208.1651 -7464.1438 300.7631 -270.2711 -153.7772 31048.5369 -17.4117 69.2486
TCL: Running FEP window  12: Lambda1 0.5499999999999999 Lambda2 0.6    [dLambda 0.050000000000000044]
TCL: Setting parameter firsttimestep to 0
TCL: Setting parameter alchLambda to 0.5499999999999999
Info: NONBONDED TABLE R-SQUARED SPACING: 0.0625
Info: NONBONDED TABLE SIZE: 705 POINTS
TCL: Setting parameter alchLambda2 to 0.6
Info: NONBONDED TABLE R-SQUARED SPACING: 0.0625
Info: NONBONDED TABLE SIZE: 705 POINTS
TCL: Running for 1500000 steps
ETITLE: TS BOND ANGLE DIHED IMPRP ELECT VDW BOUNDARY MISC KINETIC TOTAL TEMP POTENTIAL TOTALAVG TEMPAVG PRESSURE GPRESSURE VOLUME PRESSAVG GPRESSAVG
ENERGY: 0 1.6857 7.4780 4.9731 0.0000 -10658.8720 1436.6702 0.0000 0.0000 1806.4917 -7401.5734 306.5997 -9208.0651 -7401.5734 306.5997 -230.2294 -151.9879 31048.5369 -230.2294 -151.9879
ENERGY: 300000 2.9867 6.0643 2.9689 0.0000 -10616.1475 1351.5115 0.0000 0.0000 1743.2176 -7509.3986 295.8607 -9252.6161 -7439.6991 301.7768 -620.5344 -593.7044 30208.0759 -251.1406 -207.3028
ENERGY: 600000 2.8848 7.8734 3.8192 0.0000 -10792.3181 1521.1919 0.0000 0.0000 1710.1486 -7546.4001 290.2482 -9256.5488 -7451.7619 299.6863 555.6307 675.6680 30101.3369 77.1688 116.8506
ENERGY: 900000 1.9125 9.2854 3.5447 0.0000 -10648.6027 1413.9794 0.0000 0.0000 1774.0505 -7445.8302 301.0937 -9219.8807 -7458.0759 298.2798 -164.9520 -139.2281 30315.9504 2.3724 34.0245
ENERGY: 1200000 5.3059 7.1535 3.6720 0.0000 -10709.8427 1429.6031 0.0000 0.0000 1744.9563 -7519.1519 296.1558 -9264.1082 -7462.8312 297.3165 -486.5999 -437.7868 30489.2872 -94.3211 -57.4507
ENERGY: 1500000 2.0167 3.1066 4.1016 0.0000 -10673.3633 1487.1097 0.0000 0.0000 1728.8319 -7448.1968 293.4192 -9177.0287 -7453.5116 297.7961 628.3385 709.7967 30034.4131 -118.7637 -78.2482
TCL: Running FEP window  13: Lambda1 0.6    Lambda2 0.65   [dLambda 0.050000000000000044]
TCL: Setting parameter firsttimestep to 0
TCL: Setting parameter alchLambda to 0.6
Info: NONBONDED TABLE R-SQUARED SPACING: 0.0625
Info: NONBONDED TABLE SIZE: 705 POINTS
TCL: Setting parameter alchLambda2 to 0.65
Info: NONBONDED TABLE R-SQUARED SPACING: 0.0625
Info: NONBONDED TABLE SIZE: 705 POINTS
TCL: Running for 1500000 steps
ETITLE: TS BOND ANGLE DIHED IMPRP ELECT VDW BOUNDARY MISC KINETIC TOTAL TEMP POTENTIAL TOTALAVG TEMPAVG PRESSURE GPRESSURE VOLUME PRESSAVG GPRESSAVG
ENERGY: 0 2.0167 3.1066 4.1016 0.0000 -10673.1752 1486.8571 0.0000 0.0000 1727.9516 -7449.1417 293.2697 -9177.0933 -7449.1417 293.2697 629.7836 716.6249 30034.4131 629.7836 716.6249
ENERGY: 300000 2.4138 6.7793 3.4817 0.0000 -10503.6571 1353.5323 0.0000 0.0000 1758.7960 -7378.6539 298.5047 -9137.4499 -7466.6316 296.6927 -619.5600 -540.3452 30663.6928 -156.0704 -83.7513
ENERGY: 600000 3.2468 7.9986 3.7885 0.0000 -10659.2996 1493.9097 0.0000 0.0000 1798.4008 -7351.9553 305.2265 -9150.3561 -7440.4019 297.7668 633.7311 647.6863 30430.3282 -64.4203 -4.1738
ENERGY: 900000 4.6258 9.2917 3.1584 0.0000 -10606.3112 1466.9763 0.0000 0.0000 1799.6145 -7322.6446 305.4324 -9122.2590 -7446.3624 298.1802 157.3719 246.0014 30820.3454 -66.8595 -5.6074
ENERGY: 1200000 2.9066 6.6954 4.0471 0.0000 -10739.7372 1469.0440 0.0000 0.0000 1702.9377 -7554.1065 289.0244 -9257.0441 -7452.4871 298.5896 23.3131 83.1284 30173.3050 -53.8265 10.5779
ENERGY: 1500000 1.1113 4.0897 3.0211 0.0000 -10812.1463 1511.5218 0.0000 0.0000 1700.2089 -7592.1935 288.5612 -9292.4024 -7451.6965 298.5516 465.5798 524.5463 29895.8820 21.2715 82.1866
TCL: Running FEP window  14: Lambda1 0.65   Lambda2 0.7000000000000001 [dLambda 0.050000000000000044]
TCL: Setting parameter firsttimestep to 0
TCL: Setting parameter alchLambda to 0.65
Info: NONBONDED TABLE R-SQUARED SPACING: 0.0625
Info: NONBONDED TABLE SIZE: 705 POINTS
TCL: Setting parameter alchLambda2 to 0.7000000000000001
Info: NONBONDED TABLE R-SQUARED SPACING: 0.0625
Info: NONBONDED TABLE SIZE: 705 POINTS
TCL: Running for 1500000 steps
ETITLE: TS BOND ANGLE DIHED IMPRP ELECT VDW BOUNDARY MISC KINETIC TOTAL TEMP POTENTIAL TOTALAVG TEMPAVG PRESSURE GPRESSURE VOLUME PRESSAVG GPRESSAVG
ENERGY: 0 1.1113 4.0897 3.0211 0.0000 -10812.3941 1511.6535 0.0000 0.0000 1699.3463 -7593.1723 288.4148 -9292.5186 -7593.1723 288.4148 450.0775 529.6430 29895.8820 450.0775 529.6430
ENERGY: 300000 3.9830 6.5544 3.2937 0.0000 -10677.6320 1451.2460 0.0000 0.0000 1782.2864 -7430.2685 302.4915 -9212.5549 -7499.6748 296.8086 329.2189 345.4657 30018.5319 226.0656 269.5470
ENERGY: 600000 1.9558 8.4403 3.2090 0.0000 -10593.5208 1426.4497 0.0000 0.0000 1768.2483 -7385.2177 300.1090 -9153.4660 -7471.9665 297.3713 92.0271 162.6358 30508.8714 110.8788 152.2362
ENERGY: 900000 1.5451 5.4387 3.7175 0.0000 -10686.4390 1411.9213 0.0000 0.0000 1835.6905 -7428.1259 311.5553 -9263.8164 -7461.7124 299.9866 -477.8824 -367.5792 30681.0720 101.0933 154.7346
ENERGY: 1200000 2.0280 9.6101 3.0486 0.0000 -10647.7157 1428.8828 0.0000 0.0000 1821.7233 -7382.4228 309.1848 -9204.1461 -7458.3579 300.9647 171.2948 187.4264 30116.7993 98.2500 146.5516
ENERGY: 1500000 1.8833 4.1656 4.2963 0.0000 -10700.9258 1443.7723 0.0000 0.0000 1779.2690 -7467.5394 301.9794 -9246.8084 -7458.2236 301.0977 -156.3121 -142.3785 30721.7868 112.2488 156.4238
TCL: Running FEP window  15: Lambda1 0.7000000000000001 Lambda2 0.7500000000000001 [dLambda 0.050000000000000044]
TCL: Setting parameter firsttimestep to 0
TCL: Setting parameter alchLambda to 0.7000000000000001
Info: NONBONDED TABLE R-SQUARED SPACING: 0.0625
Info: NONBONDED TABLE SIZE: 705 POINTS
TCL: Setting parameter alchLambda2 to 0.7500000000000001
Info: NONBONDED TABLE R-SQUARED SPACING: 0.0625
Info: NONBONDED TABLE SIZE: 705 POINTS
TCL: Running for 1500000 steps
ETITLE: TS BOND ANGLE DIHED IMPRP ELECT VDW BOUNDARY MISC KINETIC TOTAL TEMP POTENTIAL TOTALAVG TEMPAVG PRESSURE GPRESSURE VOLUME PRESSAVG GPRESSAVG
ENERGY: 0 1.8833 4.1656 4.2963 0.0000 -10701.4477 1443.4828 0.0000 0.0000 1778.4036 -7469.2161 301.8325 -9247.6197 -7469.2161 301.8325 -210.4301 -139.9306 30721.7868 -210.4301 -139.9306
ENERGY: 300000 1.8241 7.1762 4.2787 0.0000 -10836.2491 1497.9384 0.0000 0.0000 1796.9194 -7528.1125 304.9750 -9325.0319 -7494.5444 301.0270 213.4974 288.8032 30070.3653 -98.8787 -14.0880
ENERGY: 600000 0.9844 9.2962 4.9891 0.0000 -10732.8952 1508.3643 0.0000 0.0000 1793.7554 -7415.5060 304.4380 -9209.2613 -7476.6058 302.8676 570.2195 635.7117 30507.7547 94.8592 173.5529
ENERGY: 900000 0.9555 8.3859 3.4319 0.0000 -10576.5077 1375.1930 0.0000 0.0000 1729.6467 -7458.8947 293.5574 -9188.5415 -7464.8572 301.5316 -457.8234 -347.9120 30344.8507 26.3133 102.7200
ENERGY: 1200000 2.2222 6.9874 3.3049 0.0000 -10809.0428 1498.2273 0.0000 0.0000 1789.3747 -7508.9264 303.6945 -9298.3011 -7465.5988 300.3601 314.4234 347.6191 29954.3749 31.3109 105.6310
ENERGY: 1500000 1.7582 4.9442 3.6700 0.0000 -10725.3203 1451.9138 0.0000 0.0000 1780.6047 -7482.4294 302.2061 -9263.0341 -7467.9847 299.9203 -230.6552 -159.4867 30818.9025 -31.1376 40.6311
TCL: Running FEP window  16: Lambda1 0.7500000000000001 Lambda2 0.8000000000000002 [dLambda 0.050000000000000044]
TCL: Setting parameter firsttimestep to 0
TCL: Setting parameter alchLambda to 0.7500000000000001
Info: NONBONDED TABLE R-SQUARED SPACING: 0.0625
Info: NONBONDED TABLE SIZE: 705 POINTS
TCL: Setting parameter alchLambda2 to 0.8000000000000002
Info: NONBONDED TABLE R-SQUARED SPACING: 0.0625
Info: NONBONDED TABLE SIZE: 705 POINTS
TCL: Running for 1500000 steps
ETITLE: TS BOND ANGLE DIHED IMPRP ELECT VDW BOUNDARY MISC KINETIC TOTAL TEMP POTENTIAL TOTALAVG TEMPAVG PRESSURE GPRESSURE VOLUME PRESSAVG GPRESSAVG
ENERGY: 0 1.7582 4.9442 3.6700 0.0000 -10726.9076 1452.2626 0.0000 0.0000 1779.7215 -7484.5512 302.0562 -9264.2727 -7484.5512 302.0562 -226.3130 -148.2595 30818.9025 -226.3130 -148.2595
ENERGY: 300000 4.8709 5.0286 3.7244 0.0000 -10707.0928 1470.0002 0.0000 0.0000 1814.7478 -7408.7209 308.0009 -9223.4687 -7470.6923 303.1106 -35.9012 41.3056 30808.3020 -80.7147 -12.4906
ENERGY: 600000 4.0123 7.8635 3.7057 0.0000 -10627.3966 1462.5565 0.0000 0.0000 1825.9355 -7323.3231 309.8997 -9149.2587 -7456.2882 301.6557 495.1342 598.4413 30132.7993 128.1069 197.7933
ENERGY: 900000 0.4530 6.6717 3.6556 0.0000 -10743.4823 1473.1536 0.0000 0.0000 1782.2415 -7477.3069 302.4839 -9259.5484 -7465.9623 300.5101 329.7107 349.2228 30280.1216 -1.2437 62.2062
ENERGY: 1200000 1.5627 4.5018 3.3451 0.0000 -10674.5395 1379.2118 0.0000 0.0000 1772.3225 -7513.5956 300.8004 -9285.9181 -7452.9732 301.4740 -671.6212 -584.5787 30209.6934 -145.7235 -84.1608
ENERGY: 1500000 5.6256 10.3141 3.8127 0.0000 -10591.7055 1419.4981 0.0000 0.0000 1724.9550 -7427.5000 292.7612 -9152.4550 -7457.6861 300.3735 -248.6255 -203.0919 30630.2335 -72.9098 -11.8549
TCL: Running FEP window  17: Lambda1 0.8000000000000002 Lambda2 0.8500000000000002 [dLambda 0.050000000000000044]
TCL: Setting parameter firsttimestep to 0
TCL: Setting parameter alchLambda to 0.8000000000000002
Info: NONBONDED TABLE R-SQUARED SPACING: 0.0625
Info: NONBONDED TABLE SIZE: 705 POINTS
TCL: Setting parameter alchLambda2 to 0.8500000000000002
Info: NONBONDED TABLE R-SQUARED SPACING: 0.0625
Info: NONBONDED TABLE SIZE: 705 POINTS
TCL: Running for 1500000 steps
ETITLE: TS BOND ANGLE DIHED IMPRP ELECT VDW BOUNDARY MISC KINETIC TOTAL TEMP POTENTIAL TOTALAVG TEMPAVG PRESSURE GPRESSURE VOLUME PRESSAVG GPRESSAVG
ENERGY: 0 5.6256 10.3141 3.8127 0.0000 -10594.8080 1420.6683 0.0000 0.0000 1724.0704 -7430.3170 292.6110 -9154.3874 -7430.3170 292.6110 -277.7061 -188.9485 30630.2335 -277.7061 -188.9485
ENERGY: 300000 2.3152 6.6258 4.9773 0.0000 -10599.3124 1401.8405 0.0000 0.0000 1840.5743 -7342.9793 312.3842 -9183.5535 -7413.5173 302.7188 -410.1655 -346.7238 30839.3837 48.1635 111.6047
ENERGY: 600000 2.7772 5.8091 3.3645 0.0000 -10536.9620 1353.2425 0.0000 0.0000 1778.1846 -7393.5840 301.7953 -9171.7686 -7411.4440 303.0812 -562.5795 -515.1079 30335.3477 -113.1823 -47.8012
ENERGY: 900000 4.3227 4.2891 3.3420 0.0000 -10552.7812 1357.3993 0.0000 0.0000 1794.0957 -7389.3323 304.4958 -9183.4280 -7411.6536 302.2294 -926.9235 -798.8588 30986.0656 -91.8799 -21.5406
ENERGY: 1200000 4.7721 4.4325 3.2725 0.0000 -10595.4037 1414.0742 0.0000 0.0000 1761.8774 -7406.9749 299.0277 -9168.8523 -7412.5029 301.5437 -189.5099 -149.4871 30685.1419 -111.1386 -43.6099
ENERGY: 1500000 1.1886 5.1763 3.3490 0.0000 -10804.5327 1528.0347 0.0000 0.0000 1781.1427 -7485.6412 302.2974 -9266.7840 -7430.7975 301.5856 341.0987 463.0382 30640.0923 -172.1428 -99.1919
TCL: Running FEP window  18: Lambda1 0.8500000000000002 Lambda2 0.9000000000000002 [dLambda 0.050000000000000044]
TCL: Setting parameter firsttimestep to 0
TCL: Setting parameter alchLambda to 0.8500000000000002
Info: NONBONDED TABLE R-SQUARED SPACING: 0.0625
Info: NONBONDED TABLE SIZE: 705 POINTS
TCL: Setting parameter alchLambda2 to 0.9000000000000002
Info: NONBONDED TABLE R-SQUARED SPACING: 0.0625
Info: NONBONDED TABLE SIZE: 705 POINTS
TCL: Running for 1500000 steps
ETITLE: TS BOND ANGLE DIHED IMPRP ELECT VDW BOUNDARY MISC KINETIC TOTAL TEMP POTENTIAL TOTALAVG TEMPAVG PRESSURE GPRESSURE VOLUME PRESSAVG GPRESSAVG
ENERGY: 0 1.1886 5.1763 3.3490 0.0000 -10806.7965 1529.7818 0.0000 0.0000 1780.2504 -7487.0503 302.1459 -9267.3007 -7487.0503 302.1459 407.0633 484.7290 30640.0923 407.0633 484.7290
ENERGY: 300000 0.6403 4.8498 3.3151 0.0000 -10665.8868 1474.3599 0.0000 0.0000 1773.2110 -7409.5107 300.9512 -9182.7218 -7466.6855 301.0710 201.2812 244.4383 30990.4695 160.6011 234.6687
ENERGY: 600000 5.2577 9.5655 3.3418 0.0000 -10690.3851 1451.2343 0.0000 0.0000 1761.0996 -7459.8863 298.8957 -9220.9859 -7479.4748 302.2914 94.6829 142.0144 30211.8830 39.1267 100.8906
ENERGY: 900000 1.8806 9.0753 3.7875 0.0000 -10664.6710 1456.0642 0.0000 0.0000 1755.5800 -7438.2833 297.9589 -9193.8634 -7451.6468 302.1474 237.3923 342.2006 30363.4277 -17.4441 57.5312
ENERGY: 1200000 1.6772 11.9105 3.4112 0.0000 -10622.3716 1384.3978 0.0000 0.0000 1815.4320 -7405.5430 308.1170 -9220.9749 -7455.4062 303.2811 -399.3848 -381.7462 30601.6184 -105.0057 -36.9607
ENERGY: 1500000 1.0421 9.1339 4.0414 0.0000 -10775.2142 1535.9220 0.0000 0.0000 1762.7508 -7462.3241 299.1759 -9225.0749 -7459.2962 302.6371 809.1535 852.1774 30378.1669 -47.8494 19.5512
TCL: Running FEP window  19: Lambda1 0.9000000000000002 Lambda2 0.9500000000000003 [dLambda 0.050000000000000044]
TCL: Setting parameter firsttimestep to 0
TCL: Setting parameter alchLambda to 0.9000000000000002
Info: NONBONDED TABLE R-SQUARED SPACING: 0.0625
Info: NONBONDED TABLE SIZE: 705 POINTS
TCL: Setting parameter alchLambda2 to 0.9500000000000003
Info: NONBONDED TABLE R-SQUARED SPACING: 0.0625
Info: NONBONDED TABLE SIZE: 705 POINTS
TCL: Running for 1500000 steps
ETITLE: TS BOND ANGLE DIHED IMPRP ELECT VDW BOUNDARY MISC KINETIC TOTAL TEMP POTENTIAL TOTALAVG TEMPAVG PRESSURE GPRESSURE VOLUME PRESSAVG GPRESSAVG
ENERGY: 0 1.0421 9.1339 4.0414 0.0000 -10777.3760 1537.1644 0.0000 0.0000 1761.9073 -7464.0869 299.0327 -9225.9943 -7464.0869 299.0327 794.2625 872.3795 30378.1669 794.2625 872.3795
ENERGY: 300000 1.7272 5.6881 3.1283 0.0000 -10719.8744 1483.5921 0.0000 0.0000 1797.4923 -7428.2464 305.0723 -9225.7387 -7468.3211 297.5151 201.7784 258.8605 30690.8394 293.3453 360.9645
ENERGY: 600000 1.3732 8.1333 3.7232 0.0000 -10578.4785 1328.8458 0.0000 0.0000 1804.3082 -7432.0948 306.2291 -9236.4030 -7465.4904 301.0069 -778.7294 -673.5076 30361.0156 47.9300 131.0138
ENERGY: 900000 4.1461 5.3492 3.4634 0.0000 -10782.3552 1474.8669 0.0000 0.0000 1721.9484 -7572.5812 292.2509 -9294.5296 -7468.2746 300.7273 68.6481 133.8470 30262.9907 149.7321 229.5447
ENERGY: 1200000 0.7309 8.0708 4.1005 0.0000 -10873.6050 1551.4052 0.0000 0.0000 1783.3385 -7525.9592 302.6701 -9309.2976 -7462.9869 301.5550 798.0656 918.4177 29942.5057 164.0795 240.7598
ENERGY: 1500000 1.9324 9.3565 4.2162 0.0000 -10627.4442 1425.6514 0.0000 0.0000 1764.8725 -7421.4151 299.5360 -9186.2876 -7456.8379 302.0246 136.9187 157.9931 30271.2492 71.9344 143.4249
TCL: Running FEP window  20: Lambda1 0.9500000000000003 Lambda2 1.0    [dLambda 0.04999999999999971]
TCL: Setting parameter firsttimestep to 0
TCL: Setting parameter alchLambda to 0.9500000000000003
Info: NONBONDED TABLE R-SQUARED SPACING: 0.0625
Info: NONBONDED TABLE SIZE: 705 POINTS
TCL: Setting parameter alchLambda2 to 1.0
Info: NONBONDED TABLE R-SQUARED SPACING: 0.0625
Info: NONBONDED TABLE SIZE: 705 POINTS
TCL: Running for 1500000 steps
ETITLE: TS BOND ANGLE DIHED IMPRP ELECT VDW BOUNDARY MISC KINETIC TOTAL TEMP POTENTIAL TOTALAVG TEMPAVG PRESSURE GPRESSURE VOLUME PRESSAVG GPRESSAVG
ENERGY: 0 1.9324 9.3565 4.2162 0.0000 -10629.5089 1426.1322 0.0000 0.0000 1764.0001 -7423.8715 299.3879 -9187.8716 -7423.8715 299.3879 94.9183 170.8039 30271.2492 94.9183 170.8039
ENERGY: 300000 3.6796 10.6475 4.3560 0.0000 -10761.4735 1499.4436 0.0000 0.0000 1788.5771 -7454.7697 303.5592 -9243.3467 -7436.0273 302.1532 272.3678 319.1002 30799.4516 -15.9373 43.5704
ENERGY: 600000 2.2046 8.8821 4.0943 0.0000 -10537.9905 1379.9119 0.0000 0.0000 1834.5921 -7308.3054 311.3689 -9142.8975 -7417.3793 303.7575 -450.1188 -356.7997 30635.9980 -35.0627 26.1064
ENERGY: 900000 2.3615 6.8729 4.0020 0.0000 -10532.1788 1393.9273 0.0000 0.0000 1831.7769 -7293.2382 310.8911 -9125.0150 -7421.9972 303.3882 -55.2383 -30.7368 30767.6103 -96.7845 -43.5954
ENERGY: 1200000 0.4195 8.1373 5.5620 0.0000 -10839.9449 1546.4919 0.0000 0.0000 1767.8787 -7511.4556 300.0462 -9279.3343 -7435.8697 302.2086 825.9625 852.5089 30203.2402 -58.4750 -12.1353
ENERGY: 1500000 2.3796 8.5857 3.8223 0.0000 -10701.0015 1456.1195 0.0000 0.0000 1750.3867 -7479.7077 297.0775 -9230.0944 -7441.8904 302.1989 93.2456 168.0883 30313.7908 -30.1202 18.0516
TCL: Exiting due to exit command.
