Info: SIMULATION PARAMETERS:
Info: TIMESTEP               2
Info: NUMBER OF STEPS        0
Info: STEPS PER CYCLE        10
Info: PERIODIC CELL BASIS 1  31.0242 0 0
Info: PERIODIC CELL BASIS 2  0 30.7671 0
Info: PERIODIC CELL BASIS 3  0 0 31.6077
Info: PERIODIC CELL CENTER   0 0 0
Info: WRAPPING WATERS AROUND PERIODIC BOUNDARIES ON OUTPUT.
Info: WRAPPING ALL CLUSTERS AROUND PERIODIC BOUNDARIES ON OUTPUT.
Info: FIRST LDB TIMESTEP     50
Info: LAST LDB TIMESTEP     -1
Info: HOM BACKGROUND SCALING 1
Info: PME BACKGROUND SCALING 1
Info: MIN ATOMS PER PATCH    40
Info: EMPTY PATCH LOAD       40 ATOMS
Info: VELOCITY FILE          mobley_2310185_equil.vel
Info: CENTER OF MASS MOVING INITIALLY? NO
Info: DIELECTRIC             1
Info: EXCLUDE                SCALED ONE-FOUR
Info: 1-4 ELECTROSTATICS SCALED BY 0.833333
Info: MODIFIED 1-4 VDW PARAMETERS WILL BE USED
Info: DCD FILENAME           mobley_2310185_prod.dcd
Info: DCD FREQUENCY          100000
Info: DCD FIRST STEP         100000
Info: DCD FILE WILL CONTAIN UNIT CELL DATA
Info: XST FILENAME           mobley_2310185_prod.xst
Info: XST FREQUENCY          100000
Info: NO VELOCITY DCD OUTPUT
Info: NO FORCE DCD OUTPUT
Info: OUTPUT FILENAME        mobley_2310185_prod
Info: BINARY OUTPUT FILES WILL BE USED
Info: RESTART FILENAME       mobley_2310185_prod.restart
Info: RESTART FREQUENCY      100000
Info: BINARY RESTART FILES WILL BE USED
Info: CUTOFF                 9
Info: PAIRLIST DISTANCE      11
Info: PAIRLIST SHRINK RATE   0.01
Info: PAIRLIST GROW RATE     0.01
Info: PAIRLIST TRIGGER       0.3
Info: PAIRLISTS PER CYCLE    2
Info: PAIRLISTS ENABLED
Info: MARGIN                 2
Info: HYDROGEN GROUP CUTOFF  2.5
Info: PATCH DIMENSION        15.5
Info: ENERGY OUTPUT STEPS    100000
Info: ENERGY EVALUATION STEPS    100000
Info: OUTPUT ENERGY PRECISION 4
Info: CROSSTERM ENERGY INCLUDED IN DIHEDRAL
Info: TIMING OUTPUT STEPS    1000000
Info: PRESSURE OUTPUT STEPS  100000
Info: ALCHEMICAL FEP ON
Info: FEP CURRENT LAMBDA VALUE     0
Info: FEP COMPARISON LAMBDA VALUE  0.05
Info: FEP INTRA-ALCHEMICAL NON-BONDED INTERACTIONS WILL BE RETAINED
Info: FEP INTRA-ALCHEMICAL BONDED INTERACTIONS WILL BE RETAINED
Info: FEP VDW SHIFTING COEFFICIENT 5
Info: FEP ELEC. ACTIVE FOR ANNIHILATED PARTICLES BETWEEN LAMBDA = 0 AND LAMBDA = 0.5
Info: FEP ELEC. ACTIVE FOR EXNIHILATED PARTICLES BETWEEN LAMBDA = 0.5 AND LAMBDA = 1
Info: FEP VDW ACTIVE FOR ANNIHILATED PARTICLES BETWEEN LAMBDA = 0 AND LAMBDA = 1
Info: FEP VDW ACTIVE FOR EXNIHILATED PARTICLES BETWEEN LAMBDA = 0 AND LAMBDA = 1
Info: FEP BOND ACTIVE FOR ANNIHILATED PARTICLES BETWEEN LAMBDA = 1 AND LAMBDA = 1
Info: FEP BOND ACTIVE FOR EXNIHILATED PARTICLES BETWEEN LAMBDA = 0 AND LAMBDA = 0
Info: LANGEVIN DYNAMICS ACTIVE
Info: LANGEVIN TEMPERATURE   300
Info: LANGEVIN USING BBK INTEGRATOR
Info: LANGEVIN DAMPING COEFFICIENT IS 1 INVERSE PS
Info: LANGEVIN DYNAMICS APPLIED TO HYDROGENS
Info: LANGEVIN PISTON PRESSURE CONTROL ACTIVE
Info:        TARGET PRESSURE IS 1.01325 BAR
Info:     OSCILLATION PERIOD IS 50 FS
Info:             DECAY TIME IS 25 FS
Info:     PISTON TEMPERATURE IS 300 K
Info:       PRESSURE CONTROL IS GROUP-BASED
Info:    INITIAL STRAIN RATE IS -0.000216967 -0.000216967 -0.000216967
Info:       CELL FLUCTUATION IS ISOTROPIC
Info: PARTICLE MESH EWALD (PME) ACTIVE
Info: PME TOLERANCE               1e-06
Info: PME EWALD COEFFICIENT       0.348832
Info: PME INTERPOLATION ORDER     4
Info: PME GRID DIMENSIONS         32 32 32
Info: PME MAXIMUM GRID SPACING    1
Info: PME CALCULATION WILL BE PERFORMED ON GPU
Info: FULL ELECTROSTATIC EVALUATION FREQUENCY      2
Info: USING VERLET I (r-RESPA) MTS SCHEME.
Info: C1 SPLITTING OF LONG RANGE ELECTROSTATICS
Info: PLACING ATOMS IN PATCHES BY HYDROGEN GROUPS
Info: RIGID BONDS TO HYDROGEN : ALL
Info:         ERROR TOLERANCE : 1e-08
Info:          MAX ITERATIONS : 100
Info: RIGID WATER USING SETTLE ALGORITHM
Info: RANDOM NUMBER SEED     1743495723
Info: USE HYDROGEN BONDS?    NO
Info: Using AMBER format force field!
Info: AMBER PARM FILE        mobley_2310185.prmtop
Info: COORDINATE PDB         mobley_2310185.pdb
Info: Exclusions will be read from PARM file!
Info: SCNB (VDW SCALING)     2
Info: USING ARITHMETIC MEAN TO COMBINE L-J SIGMA PARAMETERS
Info: BINARY COORDINATES     mobley_2310185_equil.coor
Info: SUMMARY OF PARAMETERS:
Info: 7 BONDS
Info: 7 ANGLES
Info:   7 HARMONIC
Info:   0 COSINE-BASED
Info: 5 DIHEDRAL
Info: 0 IMPROPER
Info: 0 CROSSTERM
Info: 0 VDW
Info: 21 VDW_PAIRS
Info: 0 NBTHOLE_PAIRS
Info: To read alchdata from file: mobley_2310185.pdb
Info: To read alchflag data from column: 5
Info: STRUCTURE SUMMARY:
Info: 2913 ATOMS
Info: 2912 BONDS
Info: 13 ANGLES
Info: 16 DIHEDRALS
Info: 0 IMPROPERS
Info: 0 CROSSTERMS
Info: 2937 EXCLUSIONS
Info: 2910 RIGID BONDS
Info: ALCH: 0 ATOMS TO DISAPPEAR IN FINAL STATE
Info: ALCH: 9 ATOMS TO APPEAR IN FINAL STATE
Info: 5829 DEGREES OF FREEDOM
Info: 971 HYDROGEN GROUPS
Info: 4 ATOMS IN LARGEST HYDROGEN GROUP
Info: 971 MIGRATION GROUPS
Info: 4 ATOMS IN LARGEST MIGRATION GROUP
Info: TOTAL MASS = 17485.6 amu
Info: TOTAL CHARGE = -9.99831e-05 e
Info: MASS DENSITY = 0.962405 g/cm^3
Info: ATOM DENSITY = 0.0965516 atoms/A^3
Info: ADDED 0 IMPLICIT EXCLUSIONS
Info: NONBONDED TABLE R-SQUARED SPACING: 0.0625
Info: NONBONDED TABLE SIZE: 705 POINTS
Info: REMOVING COM VELOCITY -0.0733226 0.0238058 -0.311584
Info: Use 3D box decompostion in PME FFT.
Info: Updated CUDA force table with 4096 elements.
Info: Updated CUDA LJ table with 6 x 6 elements.
Info: Found 12 unique exclusion lists needing 16 bytes
TCL: Running for 1500000 steps
ETITLE: TS BOND ANGLE DIHED IMPRP ELECT VDW BOUNDARY MISC KINETIC TOTAL TEMP POTENTIAL TOTALAVG TEMPAVG PRESSURE GPRESSURE VOLUME PRESSAVG GPRESSAVG
ENERGY: 0 0.2019 2.4170 0.8067 0.0000 -10555.3111 1436.5663 0.0000 0.0000 1778.3067 -7337.0125 307.0457 -9115.3192 -7337.0125 307.0457 -38.0421 51.4452 30170.3826 -38.0421 51.4452
ENERGY: 300000 1.7260 3.0561 1.2111 0.0000 -10529.6899 1391.9492 0.0000 0.0000 1696.2548 -7435.4927 292.8784 -9131.7475 -7391.2668 298.6639 -624.3392 -573.3168 30670.1948 -227.3781 -163.0191
ENERGY: 600000 1.4330 4.9575 1.1874 0.0000 -10736.2106 1542.5122 0.0000 0.0000 1736.6295 -7449.4909 299.8496 -9186.1204 -7397.1863 297.0878 754.5182 831.3741 29986.0261 -34.6763 35.9699
ENERGY: 900000 0.2910 2.8453 1.4467 0.0000 -10524.2643 1407.9634 0.0000 0.0000 1747.2865 -7364.4313 301.6897 -9111.7179 -7406.2653 297.1425 -132.6334 -75.9998 30064.5689 -169.8525 -101.3104
ENERGY: 1200000 0.1261 1.7864 1.0005 0.0000 -10654.8431 1425.5146 0.0000 0.0000 1725.3134 -7501.1022 297.8958 -9226.4156 -7406.8195 297.4901 47.7490 110.9372 29511.7808 -146.3923 -77.8425
ENERGY: 1500000 1.9366 1.5384 2.1763 0.0000 -10654.8333 1449.5207 0.0000 0.0000 1736.1425 -7463.5189 299.7655 -9199.6613 -7410.3829 297.7720 -55.7665 12.0380 29731.7025 -170.2998 -106.3920
TCL: Running FEP window   2: Lambda1 0.05   Lambda2 0.1    [dLambda 0.05  ]
TCL: Setting parameter firsttimestep to 0
TCL: Setting parameter alchLambda to 0.05
Info: NONBONDED TABLE R-SQUARED SPACING: 0.0625
Info: NONBONDED TABLE SIZE: 705 POINTS
TCL: Setting parameter alchLambda2 to 0.1
Info: NONBONDED TABLE R-SQUARED SPACING: 0.0625
Info: NONBONDED TABLE SIZE: 705 POINTS
TCL: Running for 1500000 steps
ETITLE: TS BOND ANGLE DIHED IMPRP ELECT VDW BOUNDARY MISC KINETIC TOTAL TEMP POTENTIAL TOTALAVG TEMPAVG PRESSURE GPRESSURE VOLUME PRESSAVG GPRESSAVG
ENERGY: 0 1.9366 1.5384 2.1763 0.0000 -10654.8337 1449.5925 0.0000 0.0000 1735.2703 -7464.3196 299.6149 -9199.5900 -7464.3196 299.6149 -55.3216 10.8948 29731.7025 -55.3216 10.8948
ENERGY: 300000 1.0900 5.1379 1.5768 0.0000 -10562.1099 1336.6210 0.0000 0.0000 1650.9033 -7566.7810 285.0480 -9217.6843 -7459.7493 294.2257 -1062.7069 -1008.9257 30259.5487 -245.5050 -192.7503
ENERGY: 600000 0.9341 2.0451 2.3912 0.0000 -10631.3417 1451.8697 0.0000 0.0000 1727.9721 -7446.1295 298.3548 -9174.1017 -7450.6160 294.2765 337.3568 357.2828 29579.4728 -158.8564 -99.0438
ENERGY: 900000 1.9680 2.6862 1.2558 0.0000 -10473.1221 1368.8494 0.0000 0.0000 1772.4881 -7325.8745 306.0410 -9098.3627 -7446.5429 294.6973 80.5657 184.4357 29503.6621 -131.3507 -57.7852
ENERGY: 1200000 0.1149 2.1969 1.8917 0.0000 -10672.1762 1465.7039 0.0000 0.0000 1759.0449 -7443.2240 303.7199 -9202.2689 -7434.2328 296.5804 375.5750 436.4995 29426.8485 -25.5333 36.4573
ENERGY: 1500000 0.7842 2.3346 1.6848 0.0000 -10597.1644 1488.9007 0.0000 0.0000 1791.4721 -7311.9880 309.3188 -9103.4601 -7426.5938 297.7163 534.9790 588.0153 30022.8723 -17.8727 42.4337
TCL: Running FEP window   3: Lambda1 0.1    Lambda2 0.15000000000000002 [dLambda 0.05000000000000002]
TCL: Setting parameter firsttimestep to 0
TCL: Setting parameter alchLambda to 0.1
Info: NONBONDED TABLE R-SQUARED SPACING: 0.0625
Info: NONBONDED TABLE SIZE: 705 POINTS
TCL: Setting parameter alchLambda2 to 0.15000000000000002
Info: NONBONDED TABLE R-SQUARED SPACING: 0.0625
Info: NONBONDED TABLE SIZE: 705 POINTS
TCL: Running for 1500000 steps
ETITLE: TS BOND ANGLE DIHED IMPRP ELECT VDW BOUNDARY MISC KINETIC TOTAL TEMP POTENTIAL TOTALAVG TEMPAVG PRESSURE GPRESSURE VOLUME PRESSAVG GPRESSAVG
ENERGY: 0 0.7842 2.3346 1.6848 0.0000 -10597.1645 1489.1264 0.0000 0.0000 1790.5644 -7312.6700 309.1621 -9103.2344 -7312.6700 309.1621 512.2862 588.7933 30022.8723 512.2862 588.7933
ENERGY: 300000 0.0331 3.7640 1.0458 0.0000 -10505.6000 1448.9029 0.0000 0.0000 1719.0954 -7332.7588 296.8222 -9051.8542 -7390.4311 297.7807 351.5643 359.8133 29978.2990 143.5824 213.0649
ENERGY: 600000 0.5858 2.0395 1.0558 0.0000 -10781.6655 1566.6598 0.0000 0.0000 1744.7012 -7466.6234 301.2433 -9211.3246 -7415.4101 298.0470 1118.3057 1135.6622 29746.8109 217.6750 277.5445
ENERGY: 900000 1.3515 2.9327 1.1120 0.0000 -10486.4715 1395.3724 0.0000 0.0000 1742.3256 -7343.3773 300.8331 -9085.7030 -7399.0663 297.5619 -398.8839 -305.1650 30251.6782 85.7900 140.3069
ENERGY: 1200000 1.1837 3.0363 1.5367 0.0000 -10694.1352 1529.6525 0.0000 0.0000 1707.1735 -7451.5524 294.7637 -9158.7260 -7414.8075 297.7548 935.9475 964.6908 29475.5314 90.9918 143.6997
ENERGY: 1500000 1.9002 5.0710 2.6582 0.0000 -10561.8909 1364.7009 0.0000 0.0000 1772.3295 -7415.2311 306.0136 -9187.5606 -7420.7877 298.7139 -601.7653 -595.9255 29924.6353 85.7731 131.5904
TCL: Running FEP window   4: Lambda1 0.15000000000000002 Lambda2 0.2    [dLambda 0.04999999999999999]
TCL: Setting parameter firsttimestep to 0
TCL: Setting parameter alchLambda to 0.15000000000000002
Info: NONBONDED TABLE R-SQUARED SPACING: 0.0625
Info: NONBONDED TABLE SIZE: 705 POINTS
TCL: Setting parameter alchLambda2 to 0.2
Info: NONBONDED TABLE R-SQUARED SPACING: 0.0625
Info: NONBONDED TABLE SIZE: 705 POINTS
TCL: Running for 1500000 steps
ETITLE: TS BOND ANGLE DIHED IMPRP ELECT VDW BOUNDARY MISC KINETIC TOTAL TEMP POTENTIAL TOTALAVG TEMPAVG PRESSURE GPRESSURE VOLUME PRESSAVG GPRESSAVG
ENERGY: 0 1.9001 5.0710 2.6582 0.0000 -10561.8909 1365.1247 0.0000 0.0000 1771.5104 -7415.6265 305.8722 -9187.1369 -7415.6265 305.8722 -669.0880 -592.4956 29924.6353 -669.0880 -592.4956
ENERGY: 300000 0.1739 2.0232 1.1839 0.0000 -10672.5320 1505.8080 0.0000 0.0000 1710.0646 -7453.2785 295.2629 -9163.3431 -7422.3533 298.0302 693.0551 770.6793 29577.2470 82.6889 159.5179
ENERGY: 600000 0.0987 3.0521 1.2318 0.0000 -10633.0689 1442.3233 0.0000 0.0000 1751.6106 -7434.7525 302.4363 -9186.3631 -7434.5586 297.9623 336.9247 357.2232 29314.2265 56.1935 131.0317
ENERGY: 900000 0.9677 4.6487 2.0515 0.0000 -10770.6787 1542.4262 0.0000 0.0000 1720.2277 -7500.3570 297.0177 -9220.5847 -7454.3602 296.7717 1198.5774 1174.0082 28985.3215 327.3881 387.9165
ENERGY: 1200000 0.1899 2.1159 2.9639 0.0000 -10506.9577 1384.8943 0.0000 0.0000 1719.5176 -7397.2761 296.8950 -9116.7937 -7444.1457 297.1492 -324.2462 -256.0305 30020.0188 184.1142 242.6318
ENERGY: 1500000 0.7759 4.0747 1.1961 0.0000 -10764.4561 1540.4389 0.0000 0.0000 1816.8884 -7401.0821 313.7073 -9217.9705 -7436.6078 298.7428 1051.9942 1080.6403 29485.1726 173.9964 225.6840
TCL: Running FEP window   5: Lambda1 0.2    Lambda2 0.25   [dLambda 0.04999999999999999]
TCL: Setting parameter firsttimestep to 0
TCL: Setting parameter alchLambda to 0.2
Info: NONBONDED TABLE R-SQUARED SPACING: 0.0625
Info: NONBONDED TABLE SIZE: 705 POINTS
TCL: Setting parameter alchLambda2 to 0.25
Info: NONBONDED TABLE R-SQUARED SPACING: 0.0625
Info: NONBONDED TABLE SIZE: 705 POINTS
TCL: Running for 1500000 steps
ETITLE: TS BOND ANGLE DIHED IMPRP ELECT VDW BOUNDARY MISC KINETIC TOTAL TEMP POTENTIAL TOTALAVG TEMPAVG PRESSURE GPRESSURE VOLUME PRESSAVG GPRESSAVG
ENERGY: 0 0.7759 4.0747 1.1961 0.0000 -10764.4562 1540.6184 0.0000 0.0000 1816.0486 -7401.7425 313.5623 -9217.7911 -7401.7425 313.5623 991.2006 1083.0404 29485.1726 991.2006 1083.0404
ENERGY: 300000 1.9278 2.8239 0.8530 0.0000 -10607.8502 1376.5927 0.0000 0.0000 1654.3970 -7571.2557 285.6512 -9225.6528 -7463.4477 297.4278 -300.4090 -252.3446 29339.9393 -64.5496 9.7989
ENERGY: 600000 0.4669 2.5417 1.4992 0.0000 -10554.9964 1361.7585 0.0000 0.0000 1749.1149 -7439.6153 302.0054 -9188.7301 -7431.7915 299.4513 -859.0111 -728.5392 30208.4604 -185.5062 -124.8932
ENERGY: 900000 0.2023 3.7658 1.8467 0.0000 -10446.5426 1361.6232 0.0000 0.0000 1739.1400 -7339.9647 300.2831 -9079.1047 -7410.2289 298.9587 -287.4786 -139.6200 29746.0369 -195.1380 -124.3536
ENERGY: 1200000 0.0413 1.9299 1.2914 0.0000 -10655.0959 1482.2476 0.0000 0.0000 1759.7309 -7409.8548 303.8384 -9169.5858 -7417.0453 299.2601 476.2126 563.7222 29771.5207 -102.1620 -26.1135
ENERGY: 1500000 0.2887 5.9690 2.0699 0.0000 -10611.5447 1449.9919 0.0000 0.0000 1688.2176 -7465.0076 291.4907 -9153.2252 -7423.6423 298.5069 222.3851 294.4633 29695.4409 -75.7363 -5.1302
TCL: Running FEP window   6: Lambda1 0.25   Lambda2 0.3    [dLambda 0.04999999999999999]
TCL: Setting parameter firsttimestep to 0
TCL: Setting parameter alchLambda to 0.25
Info: NONBONDED TABLE R-SQUARED SPACING: 0.0625
Info: NONBONDED TABLE SIZE: 705 POINTS
TCL: Setting parameter alchLambda2 to 0.3
Info: NONBONDED TABLE R-SQUARED SPACING: 0.0625
Info: NONBONDED TABLE SIZE: 705 POINTS
TCL: Running for 1500000 steps
ETITLE: TS BOND ANGLE DIHED IMPRP ELECT VDW BOUNDARY MISC KINETIC TOTAL TEMP POTENTIAL TOTALAVG TEMPAVG PRESSURE GPRESSURE VOLUME PRESSAVG GPRESSAVG
ENERGY: 0 0.2887 5.9690 2.0699 0.0000 -10611.5445 1450.0649 0.0000 0.0000 1687.3451 -7465.8070 291.3401 -9153.1521 -7465.8070 291.3401 221.4989 297.4802 29695.4409 221.4989 297.4802
ENERGY: 300000 1.4923 1.9647 1.7193 0.0000 -10621.8237 1435.9226 0.0000 0.0000 1806.4305 -7374.2943 311.9016 -9180.7248 -7440.2623 298.7342 -152.2812 -55.3456 30075.7880 417.7311 470.5378
ENERGY: 600000 0.3838 2.3487 1.0365 0.0000 -10581.2062 1435.0859 0.0000 0.0000 1725.2757 -7417.0755 297.8892 -9142.3511 -7441.2573 299.6526 -73.5147 -14.8886 30142.7858 226.5457 277.8486
ENERGY: 900000 0.4409 4.3954 1.0303 0.0000 -10559.9411 1379.7881 0.0000 0.0000 1690.2965 -7483.9901 291.8497 -9174.2865 -7434.5696 299.3156 -180.1986 -163.6326 29586.0882 213.7279 271.4258
ENERGY: 1200000 0.3318 2.5860 1.5507 0.0000 -10658.5043 1485.2099 0.0000 0.0000 1736.5434 -7432.2827 299.8348 -9168.8260 -7429.5737 299.5227 403.8032 432.4314 29833.2812 171.3205 219.4733
ENERGY: 1500000 0.0414 5.6291 0.9334 0.0000 -10664.1296 1471.3137 0.0000 0.0000 1769.9717 -7416.2403 305.6065 -9186.2120 -7416.3717 300.3366 261.3409 353.9610 29874.8714 185.2866 236.7240
TCL: Running FEP window   7: Lambda1 0.3    Lambda2 0.35   [dLambda 0.04999999999999999]
TCL: Setting parameter firsttimestep to 0
TCL: Setting parameter alchLambda to 0.3
Info: NONBONDED TABLE R-SQUARED SPACING: 0.0625
Info: NONBONDED TABLE SIZE: 705 POINTS
TCL: Setting parameter alchLambda2 to 0.35
Info: NONBONDED TABLE R-SQUARED SPACING: 0.0625
Info: NONBONDED TABLE SIZE: 705 POINTS
TCL: Running for 1500000 steps
ETITLE: TS BOND ANGLE DIHED IMPRP ELECT VDW BOUNDARY MISC KINETIC TOTAL TEMP POTENTIAL TOTALAVG TEMPAVG PRESSURE GPRESSURE VOLUME PRESSAVG GPRESSAVG
ENERGY: 0 0.0414 5.6291 0.9334 0.0000 -10664.1298 1471.4775 0.0000 0.0000 1769.1741 -7416.8744 305.4688 -9186.0485 -7416.8744 305.4688 267.8595 359.8103 29874.8714 267.8595 359.8103
ENERGY: 300000 0.3253 3.7994 1.3196 0.0000 -10596.6821 1353.9077 0.0000 0.0000 1729.9770 -7507.3532 298.7010 -9237.3302 -7411.5336 302.5191 -891.5023 -812.0001 29976.0072 -169.7209 -124.9365
ENERGY: 600000 0.4035 2.1955 1.7076 0.0000 -10591.7031 1444.1643 0.0000 0.0000 1725.8905 -7417.3417 297.9954 -9143.2322 -7407.9313 301.7051 245.4480 277.2761 29649.6381 4.7212 63.5733
ENERGY: 900000 1.0384 3.2444 0.9536 0.0000 -10505.9746 1412.3731 0.0000 0.0000 1709.0639 -7379.3013 295.0901 -9088.3652 -7391.8756 301.6453 92.8835 146.4860 29907.9959 116.6286 165.2697
ENERGY: 1200000 0.6337 4.6408 1.9767 0.0000 -10557.8673 1389.2184 0.0000 0.0000 1730.8117 -7430.5860 298.8451 -9161.3978 -7398.2187 300.6050 -432.8882 -426.3427 30237.9219 37.8595 84.3047
ENERGY: 1500000 0.3834 5.4142 1.2743 0.0000 -10732.2694 1543.6275 0.0000 0.0000 1795.2173 -7386.3527 309.9655 -9181.5700 -7406.6751 301.0901 1064.7401 1083.1384 29590.0887 198.0126 243.7812
TCL: Running FEP window   8: Lambda1 0.35   Lambda2 0.39999999999999997 [dLambda 0.04999999999999999]
TCL: Setting parameter firsttimestep to 0
TCL: Setting parameter alchLambda to 0.35
Info: NONBONDED TABLE R-SQUARED SPACING: 0.0625
Info: NONBONDED TABLE SIZE: 705 POINTS
TCL: Setting parameter alchLambda2 to 0.39999999999999997
Info: NONBONDED TABLE R-SQUARED SPACING: 0.0625
Info: NONBONDED TABLE SIZE: 705 POINTS
TCL: Running for 1500000 steps
ETITLE: TS BOND ANGLE DIHED IMPRP ELECT VDW BOUNDARY MISC KINETIC TOTAL TEMP POTENTIAL TOTALAVG TEMPAVG PRESSURE GPRESSURE VOLUME PRESSAVG GPRESSAVG
ENERGY: 0 0.3834 5.4142 1.2743 0.0000 -10732.2699 1544.1379 0.0000 0.0000 1794.3683 -7386.6918 309.8189 -9181.0601 -7386.6918 309.8189 1010.8012 1089.3256 29590.0887 1010.8012 1089.3256
ENERGY: 300000 0.3756 1.3329 2.1613 0.0000 -10540.6107 1409.7609 0.0000 0.0000 1720.3943 -7406.5857 297.0464 -9126.9800 -7407.7772 302.6081 -162.8298 -132.9598 30158.5399 -69.2781 -18.3357
ENERGY: 600000 3.3341 3.1514 1.4772 0.0000 -10549.7466 1446.3099 0.0000 0.0000 1782.4332 -7313.0409 307.7582 -9095.4741 -7390.1749 302.2926 137.4783 177.8120 30245.7512 8.9850 57.3386
ENERGY: 900000 0.1970 2.5672 1.4356 0.0000 -10727.7426 1465.0985 0.0000 0.0000 1750.9058 -7507.5386 302.3146 -9258.4444 -7415.9696 301.7320 157.8347 171.3195 29643.7763 -16.8670 29.9697
ENERGY: 1200000 0.2653 2.7835 1.8466 0.0000 -10588.8894 1436.9449 0.0000 0.0000 1754.3904 -7392.6587 302.9163 -9147.0491 -7419.3786 301.0476 62.8410 46.9802 30035.5801 -23.5734 22.5474
ENERGY: 1500000 1.2330 6.2893 1.7715 0.0000 -10634.8314 1407.1102 0.0000 0.0000 1736.4643 -7481.9631 299.8211 -9218.4274 -7412.3457 301.6208 -404.2035 -342.5754 29789.8796 -122.9250 -70.3540
TCL: Running FEP window   9: Lambda1 0.39999999999999997 Lambda2 0.44999999999999996 [dLambda 0.04999999999999999]
TCL: Setting parameter firsttimestep to 0
TCL: Setting parameter alchLambda to 0.39999999999999997
Info: NONBONDED TABLE R-SQUARED SPACING: 0.0625
Info: NONBONDED TABLE SIZE: 705 POINTS
TCL: Setting parameter alchLambda2 to 0.44999999999999996
Info: NONBONDED TABLE R-SQUARED SPACING: 0.0625
Info: NONBONDED TABLE SIZE: 705 POINTS
TCL: Running for 1500000 steps
ETITLE: TS BOND ANGLE DIHED IMPRP ELECT VDW BOUNDARY MISC KINETIC TOTAL TEMP POTENTIAL TOTALAVG TEMPAVG PRESSURE GPRESSURE VOLUME PRESSAVG GPRESSAVG
ENERGY: 0 1.2330 6.2893 1.7715 0.0000 -10634.8317 1407.2555 0.0000 0.0000 1735.5789 -7482.7034 299.6682 -9218.2823 -7482.7034 299.6682 -414.4046 -336.0329 29789.8796 -414.4046 -336.0329
ENERGY: 300000 1.4974 2.7938 1.6617 0.0000 -10615.3792 1444.9599 0.0000 0.0000 1687.2038 -7477.2627 291.3157 -9164.4665 -7463.9957 297.2343 88.7954 119.3873 29782.4184 -307.4176 -226.7773
ENERGY: 600000 0.5304 1.5503 2.9834 0.0000 -10769.8750 1504.8598 0.0000 0.0000 1703.7057 -7556.2455 294.1649 -9259.9512 -7452.1388 297.4692 544.6500 582.7271 29335.6466 -105.7024 -40.3726
ENERGY: 900000 0.4364 4.2939 0.8549 0.0000 -10599.6465 1372.7462 0.0000 0.0000 1727.1471 -7494.1682 298.2124 -9221.3153 -7449.2720 297.4273 -627.6690 -577.8381 29747.0790 -123.7967 -57.2224
ENERGY: 1200000 0.0514 5.8229 1.5921 0.0000 -10446.5877 1333.8422 0.0000 0.0000 1784.7132 -7320.5659 308.1518 -9105.2790 -7432.7287 299.1510 -534.8071 -477.6898 30069.7292 -74.9578 -14.1090
ENERGY: 1500000 0.3879 3.2662 2.2657 0.0000 -10687.2210 1444.4997 0.0000 0.0000 1760.9062 -7475.8953 304.0413 -9236.8015 -7428.9898 299.4988 -64.6441 -94.0922 29897.2056 -45.7097 5.5662
TCL: Running FEP window  10: Lambda1 0.44999999999999996 Lambda2 0.49999999999999994 [dLambda 0.04999999999999999]
TCL: Setting parameter firsttimestep to 0
TCL: Setting parameter alchLambda to 0.44999999999999996
Info: NONBONDED TABLE R-SQUARED SPACING: 0.0625
Info: NONBONDED TABLE SIZE: 705 POINTS
TCL: Setting parameter alchLambda2 to 0.49999999999999994
Info: NONBONDED TABLE R-SQUARED SPACING: 0.0625
Info: NONBONDED TABLE SIZE: 705 POINTS
TCL: Running for 1500000 steps
ETITLE: TS BOND ANGLE DIHED IMPRP ELECT VDW BOUNDARY MISC KINETIC TOTAL TEMP POTENTIAL TOTALAVG TEMPAVG PRESSURE GPRESSURE VOLUME PRESSAVG GPRESSAVG
ENERGY: 0 0.3879 3.2662 2.2657 0.0000 -10687.2210 1444.4883 0.0000 0.0000 1760.0457 -7476.7672 303.8927 -9236.8128 -7476.7672 303.8927 -169.8889 -91.0378 29897.2056 -169.8889 -91.0378
ENERGY: 300000 1.0364 6.0294 2.4685 0.0000 -10631.1793 1410.1832 0.0000 0.0000 1672.8243 -7538.6376 288.8329 -9211.4619 -7438.5493 297.4371 -375.5040 -281.6704 29900.0596 49.3829 132.0753
ENERGY: 600000 0.0713 2.7185 0.8645 0.0000 -10506.7808 1339.8100 0.0000 0.0000 1794.3228 -7368.9937 309.8111 -9163.3165 -7411.7433 299.9662 -789.7101 -759.9623 30408.2255 -189.5922 -116.9598
ENERGY: 900000 0.0414 2.5682 2.2741 0.0000 -10681.8893 1476.3713 0.0000 0.0000 1710.0169 -7490.6174 295.2546 -9200.6343 -7406.8498 300.4127 406.1016 487.3389 29634.2831 -173.5562 -100.4429
ENERGY: 1200000 1.9210 3.7499 1.8118 0.0000 -10610.4376 1467.6739 0.0000 0.0000 1756.6138 -7378.6673 303.3001 -9135.2811 -7397.0828 301.2806 231.9452 255.0894 30227.7356 -96.1045 -31.4192
ENERGY: 1500000 0.1234 2.3756 1.1857 0.0000 -10338.7810 1273.3098 0.0000 0.0000 1756.9817 -7304.8048 303.3637 -9061.7865 -7385.7167 301.8262 -1054.1516 -969.1933 30442.0097 -203.1330 -137.3950
TCL: Running FEP window  11: Lambda1 0.49999999999999994 Lambda2 0.5499999999999999 [dLambda 0.04999999999999999]
TCL: Setting parameter firsttimestep to 0
TCL: Setting parameter alchLambda to 0.49999999999999994
Info: NONBONDED TABLE R-SQUARED SPACING: 0.0625
Info: NONBONDED TABLE SIZE: 705 POINTS
TCL: Setting parameter alchLambda2 to 0.5499999999999999
Info: NONBONDED TABLE R-SQUARED SPACING: 0.0625
Info: NONBONDED TABLE SIZE: 705 POINTS
TCL: Running for 1500000 steps
ETITLE: TS BOND ANGLE DIHED IMPRP ELECT VDW BOUNDARY MISC KINETIC TOTAL TEMP POTENTIAL TOTALAVG TEMPAVG PRESSURE GPRESSURE VOLUME PRESSAVG GPRESSAVG
ENERGY: 0 0.1234 2.3756 1.1857 0.0000 -10338.7803 1273.2740 0.0000 0.0000 1756.1055 -7305.7162 303.2124 -9061.8217 -7305.7162 303.2124 -1041.7295 -965.7617 30442.0097 -1041.7295 -965.7617
ENERGY: 300000 0.4297 3.4595 1.3133 0.0000 -10652.0692 1488.0074 0.0000 0.0000 1736.8485 -7422.0107 299.8874 -9158.8592 -7413.5484 300.8797 509.1043 551.9121 29726.5052 -245.0514 -187.4164
ENERGY: 600000 0.8744 2.4692 0.7862 0.0000 -10584.2696 1431.3085 0.0000 0.0000 1745.5375 -7403.2938 301.3877 -9148.8312 -7418.1185 299.9527 -193.5596 -135.5527 30257.3273 -220.8655 -168.5907
ENERGY: 900000 0.0289 2.7522 1.4731 0.0000 -10509.6059 1377.7709 0.0000 0.0000 1782.0017 -7345.5791 307.6837 -9127.5808 -7416.5493 299.5109 -249.1267 -193.2970 29956.4324 -119.1279 -64.2922
ENERGY: 1200000 0.3303 1.9821 2.1577 0.0000 -10602.6165 1445.0035 0.0000 0.0000 1759.6462 -7393.4968 303.8237 -9153.1430 -7411.6764 300.0743 300.2974 363.6437 29879.2322 -24.7912 31.6000
ENERGY: 1500000 0.8000 1.0188 1.2042 0.0000 -10624.5928 1461.1535 0.0000 0.0000 1719.5426 -7440.8737 296.8994 -9160.4162 -7404.3746 300.2260 467.8659 539.3099 29645.1780 -7.3201 58.5314
TCL: Running FEP window  12: Lambda1 0.5499999999999999 Lambda2 0.6    [dLambda 0.050000000000000044]
TCL: Setting parameter firsttimestep to 0
TCL: Setting parameter alchLambda to 0.5499999999999999
Info: NONBONDED TABLE R-SQUARED SPACING: 0.0625
Info: NONBONDED TABLE SIZE: 705 POINTS
TCL: Setting parameter alchLambda2 to 0.6
Info: NONBONDED TABLE R-SQUARED SPACING: 0.0625
Info: NONBONDED TABLE SIZE: 705 POINTS
TCL: Running for 1500000 steps
ETITLE: TS BOND ANGLE DIHED IMPRP ELECT VDW BOUNDARY MISC KINETIC TOTAL TEMP POTENTIAL TOTALAVG TEMPAVG PRESSURE GPRESSURE VOLUME PRESSAVG GPRESSAVG
ENERGY: 0 0.8000 1.0188 1.2042 0.0000 -10624.5379 1461.0993 0.0000 0.0000 1718.6868 -7441.7287 296.7516 -9160.4155 -7441.7287 296.7516 457.5588 543.6661 29645.1780 457.5588 543.6661
ENERGY: 300000 0.2730 5.8138 1.2054 0.0000 -10713.6156 1474.0425 0.0000 0.0000 1717.6956 -7514.5853 296.5805 -9232.2809 -7478.8652 295.1320 229.3418 226.7834 29667.5166 339.6888 424.1821
ENERGY: 600000 0.0972 1.5032 3.5189 0.0000 -10566.4451 1443.4322 0.0000 0.0000 1693.8250 -7424.0686 292.4589 -9117.8935 -7457.4347 294.9779 171.4887 277.1891 29943.5796 293.5417 369.4706
ENERGY: 900000 0.2325 3.5173 0.7643 0.0000 -10549.0964 1405.8502 0.0000 0.0000 1646.5159 -7492.2163 284.2904 -9138.7322 -7464.7782 294.9061 -382.6364 -328.4145 30038.2377 146.2983 216.7112
ENERGY: 1200000 0.6781 5.7985 1.1387 0.0000 -10664.8567 1401.6732 0.0000 0.0000 1762.3268 -7493.2415 304.2866 -9255.5683 -7469.1903 295.8072 -115.1873 -42.7739 29436.3119 77.4993 148.1641
ENERGY: 1500000 0.8752 3.8479 1.2797 0.0000 -10722.5550 1486.8964 0.0000 0.0000 1721.1412 -7508.5145 297.1754 -9229.6557 -7457.1194 296.9802 312.1252 462.1035 29556.8534 58.9773 131.5838
TCL: Running FEP window  13: Lambda1 0.6    Lambda2 0.65   [dLambda 0.050000000000000044]
TCL: Setting parameter firsttimestep to 0
TCL: Setting parameter alchLambda to 0.6
Info: NONBONDED TABLE R-SQUARED SPACING: 0.0625
Info: NONBONDED TABLE SIZE: 705 POINTS
TCL: Setting parameter alchLambda2 to 0.65
Info: NONBONDED TABLE R-SQUARED SPACING: 0.0625
Info: NONBONDED TABLE SIZE: 705 POINTS
TCL: Running for 1500000 steps
ETITLE: TS BOND ANGLE DIHED IMPRP ELECT VDW BOUNDARY MISC KINETIC TOTAL TEMP POTENTIAL TOTALAVG TEMPAVG PRESSURE GPRESSURE VOLUME PRESSAVG GPRESSAVG
ENERGY: 0 0.8752 3.8479 1.2797 0.0000 -10724.4415 1487.5973 0.0000 0.0000 1720.2488 -7510.5925 297.0213 -9230.8413 -7510.5925 297.0213 372.9580 468.7508 29556.8534 372.9580 468.7508
ENERGY: 300000 0.5890 3.4193 1.8637 0.0000 -10517.5158 1359.7650 0.0000 0.0000 1719.1418 -7432.7370 296.8302 -9151.8787 -7452.2014 298.2667 -586.4145 -600.2445 30185.4442 54.9591 122.7644
ENERGY: 600000 0.2138 3.0710 1.4989 0.0000 -10671.4528 1493.6858 0.0000 0.0000 1779.6693 -7393.3139 307.2810 -9172.9833 -7443.5031 298.1185 294.0379 432.2953 29969.3308 25.3626 103.6951
ENERGY: 900000 0.1562 4.5493 1.5615 0.0000 -10714.6227 1545.5415 0.0000 0.0000 1702.5049 -7460.3093 293.9576 -9162.8142 -7440.8213 298.8667 1267.1102 1323.9966 29358.2652 34.0773 98.1529
ENERGY: 1200000 1.1758 2.8485 1.6323 0.0000 -10665.2808 1448.7623 0.0000 0.0000 1738.7468 -7472.1151 300.2152 -9210.8620 -7432.3137 299.2368 177.0432 240.0982 29512.5765 33.5284 93.9261
ENERGY: 1500000 0.7997 5.2912 1.3307 0.0000 -10550.6002 1356.7334 0.0000 0.0000 1825.8379 -7360.6072 315.2525 -9186.4452 -7421.6263 300.1097 -603.1854 -492.4877 29774.5760 28.4888 91.0212
TCL: Running FEP window  14: Lambda1 0.65   Lambda2 0.7000000000000001 [dLambda 0.050000000000000044]
TCL: Setting parameter firsttimestep to 0
TCL: Setting parameter alchLambda to 0.65
Info: NONBONDED TABLE R-SQUARED SPACING: 0.0625
Info: NONBONDED TABLE SIZE: 705 POINTS
TCL: Setting parameter alchLambda2 to 0.7000000000000001
Info: NONBONDED TABLE R-SQUARED SPACING: 0.0625
Info: NONBONDED TABLE SIZE: 705 POINTS
TCL: Running for 1500000 steps
ETITLE: TS BOND ANGLE DIHED IMPRP ELECT VDW BOUNDARY MISC KINETIC TOTAL TEMP POTENTIAL TOTALAVG TEMPAVG PRESSURE GPRESSURE VOLUME PRESSAVG GPRESSAVG
ENERGY: 0 0.7997 5.2912 1.3307 0.0000 -10550.3893 1356.5847 0.0000 0.0000 1824.9434 -7361.4395 315.0981 -9186.3829 -7361.4395 315.0981 -583.8766 -488.7156 29774.5760 -583.8766 -488.7156
ENERGY: 300000 0.2053 7.2593 2.0029 0.0000 -10512.1477 1378.4544 0.0000 0.0000 1754.6640 -7369.5618 302.9635 -9124.2258 -7390.2408 303.4434 -569.8580 -499.7552 30418.1654 -69.7144 -5.9043
ENERGY: 600000 0.2521 4.0585 1.8565 0.0000 -10422.5214 1336.8514 0.0000 0.0000 1739.8286 -7339.6743 300.4020 -9079.5029 -7378.9815 303.9641 -773.0648 -689.1168 30364.6457 -119.6716 -49.2733
ENERGY: 900000 0.1179 3.3538 1.0806 0.0000 -10717.8932 1540.1310 0.0000 0.0000 1704.5471 -7468.6628 294.3102 -9173.2099 -7394.3730 302.5899 855.7131 924.1515 29843.0367 -14.0089 53.7133
ENERGY: 1200000 1.0866 3.6451 0.8895 0.0000 -10600.2553 1395.9392 0.0000 0.0000 1692.9291 -7505.7658 292.3042 -9198.6949 -7404.2265 301.5575 -450.5751 -385.5414 29777.7886 22.7013 93.2887
ENERGY: 1500000 1.5157 2.8460 1.2358 0.0000 -10524.0470 1355.1263 0.0000 0.0000 1787.4413 -7375.8819 308.6229 -9163.3233 -7405.2330 302.2732 -628.4613 -519.0288 29934.0181 43.9336 122.2691
TCL: Running FEP window  15: Lambda1 0.7000000000000001 Lambda2 0.7500000000000001 [dLambda 0.050000000000000044]
TCL: Setting parameter firsttimestep to 0
TCL: Setting parameter alchLambda to 0.7000000000000001
Info: NONBONDED TABLE R-SQUARED SPACING: 0.0625
Info: NONBONDED TABLE SIZE: 705 POINTS
TCL: Setting parameter alchLambda2 to 0.7500000000000001
Info: NONBONDED TABLE R-SQUARED SPACING: 0.0625
Info: NONBONDED TABLE SIZE: 705 POINTS
TCL: Running for 1500000 steps
ETITLE: TS BOND ANGLE DIHED IMPRP ELECT VDW BOUNDARY MISC KINETIC TOTAL TEMP POTENTIAL TOTALAVG TEMPAVG PRESSURE GPRESSURE VOLUME PRESSAVG GPRESSAVG
ENERGY: 0 1.5157 2.8460 1.2358 0.0000 -10525.5634 1357.1688 0.0000 0.0000 1786.5941 -7376.2030 308.4766 -9162.7971 -7376.2030 308.4766 -595.3574 -498.8170 29934.0181 -595.3574 -498.8170
ENERGY: 300000 0.7664 2.1239 0.7561 0.0000 -10542.8143 1434.4988 0.0000 0.0000 1682.1751 -7422.4940 290.4474 -9104.6690 -7421.5222 297.6934 74.0761 182.2144 30128.9882 -369.2940 -271.1697
ENERGY: 600000 0.1122 4.6303 1.4164 0.0000 -10645.2104 1520.3723 0.0000 0.0000 1742.9521 -7375.7271 300.9413 -9118.6792 -7413.4111 300.0365 867.7690 928.7128 29911.8531 -234.7697 -147.1837
ENERGY: 900000 0.3534 3.1866 1.7312 0.0000 -10610.1655 1434.5820 0.0000 0.0000 1712.3852 -7457.9271 295.6636 -9170.3123 -7397.4600 299.9041 45.1848 102.2724 29898.5938 -240.6657 -160.3845
ENERGY: 1200000 0.4198 5.2227 1.5455 0.0000 -10544.5811 1456.8851 0.0000 0.0000 1787.6341 -7292.8739 308.6562 -9080.5080 -7390.8783 301.2289 151.9671 191.7806 30633.6124 -141.8132 -72.4968
ENERGY: 1500000 0.3919 4.3124 1.4298 0.0000 -10582.9937 1488.2691 0.0000 0.0000 1721.2184 -7367.3722 297.1887 -9088.5905 -7394.6197 300.7967 569.0405 591.6523 30247.1031 -115.7220 -51.4678
TCL: Running FEP window  16: Lambda1 0.7500000000000001 Lambda2 0.8000000000000002 [dLambda 0.050000000000000044]
TCL: Setting parameter firsttimestep to 0
TCL: Setting parameter alchLambda to 0.7500000000000001
Info: NONBONDED TABLE R-SQUARED SPACING: 0.0625
Info: NONBONDED TABLE SIZE: 705 POINTS
TCL: Setting parameter alchLambda2 to 0.8000000000000002
Info: NONBONDED TABLE R-SQUARED SPACING: 0.0625
Info: NONBONDED TABLE SIZE: 705 POINTS
TCL: Running for 1500000 steps
ETITLE: TS BOND ANGLE DIHED IMPRP ELECT VDW BOUNDARY MISC KINETIC TOTAL TEMP POTENTIAL TOTALAVG TEMPAVG PRESSURE GPRESSURE VOLUME PRESSAVG GPRESSAVG
ENERGY: 0 0.3919 4.3124 1.4298 0.0000 -10583.2617 1488.5225 0.0000 0.0000 1720.3462 -7368.2590 297.0381 -9088.6052 -7368.2590 297.0381 518.4271 599.0078 30247.1031 518.4271 599.0078
ENERGY: 300000 0.2120 4.7109 1.2337 0.0000 -10676.0133 1531.0102 0.0000 0.0000 1737.9819 -7400.8646 300.0831 -9138.8465 -7388.2823 299.9627 1111.7687 1117.6847 29631.2718 388.4231 451.4768
ENERGY: 600000 0.1577 1.8913 1.5790 0.0000 -10593.6647 1380.8371 0.0000 0.0000 1784.8735 -7424.3261 308.1795 -9209.1995 -7413.3024 301.3919 -752.3822 -655.0507 30300.4796 -49.7638 23.1954
ENERGY: 900000 0.3068 2.6785 3.3043 0.0000 -10523.4875 1410.2790 0.0000 0.0000 1794.2917 -7312.6273 309.8057 -9106.9189 -7407.6451 300.9580 -130.8104 -75.8523 30321.3689 -90.0510 -20.6769
ENERGY: 1200000 1.0072 5.7951 0.7878 0.0000 -10550.8586 1414.9656 0.0000 0.0000 1743.6939 -7384.6091 301.0694 -9128.3030 -7410.2662 300.7500 -127.8564 -121.8343 30463.1044 -41.3766 22.5290
ENERGY: 1500000 0.2854 3.9978 1.8795 0.0000 -10706.7685 1504.7288 0.0000 0.0000 1763.5845 -7432.2925 304.5037 -9195.8769 -7411.3428 301.5663 314.2110 398.8949 29885.9401 -1.6887 62.9119
TCL: Running FEP window  17: Lambda1 0.8000000000000002 Lambda2 0.8500000000000002 [dLambda 0.050000000000000044]
TCL: Setting parameter firsttimestep to 0
TCL: Setting parameter alchLambda to 0.8000000000000002
Info: NONBONDED TABLE R-SQUARED SPACING: 0.0625
Info: NONBONDED TABLE SIZE: 705 POINTS
TCL: Setting parameter alchLambda2 to 0.8500000000000002
Info: NONBONDED TABLE R-SQUARED SPACING: 0.0625
Info: NONBONDED TABLE SIZE: 705 POINTS
TCL: Running for 1500000 steps
ETITLE: TS BOND ANGLE DIHED IMPRP ELECT VDW BOUNDARY MISC KINETIC TOTAL TEMP POTENTIAL TOTALAVG TEMPAVG PRESSURE GPRESSURE VOLUME PRESSAVG GPRESSAVG
ENERGY: 0 0.2854 3.9978 1.8795 0.0000 -10708.7474 1505.5288 0.0000 0.0000 1762.7360 -7434.3199 304.3572 -9197.0559 -7434.3199 304.3572 336.9438 408.0718 29885.9401 336.9438 408.0718
ENERGY: 300000 0.9367 2.7688 0.9237 0.0000 -10599.3930 1387.8225 0.0000 0.0000 1798.8115 -7408.1298 310.5861 -9206.9413 -7425.6749 301.5526 -357.3713 -286.5604 29926.7612 224.6410 281.9827
ENERGY: 600000 1.3971 2.1441 1.1104 0.0000 -10541.9117 1401.1283 0.0000 0.0000 1728.4739 -7407.6579 298.4415 -9136.1319 -7429.6933 300.5719 181.8110 263.9722 29469.4653 45.9664 107.7345
ENERGY: 900000 0.1889 2.9244 0.8865 0.0000 -10534.6976 1406.2014 0.0000 0.0000 1734.1085 -7390.3879 299.4143 -9124.4964 -7433.1092 300.3279 -133.5707 -51.4213 30201.2525 9.2713 73.3770
ENERGY: 1200000 0.9528 2.8329 1.1760 0.0000 -10580.9385 1405.5419 0.0000 0.0000 1728.4623 -7441.9727 298.4394 -9170.4350 -7417.4295 301.7561 -219.9670 -134.9359 29902.8650 -16.6707 56.0640
ENERGY: 1500000 0.3381 1.8990 1.6882 0.0000 -10635.6453 1451.3998 0.0000 0.0000 1684.5901 -7495.7301 290.8644 -9180.3202 -7418.3055 301.9910 226.6951 273.8124 29731.9981 -54.3755 7.3188
TCL: Running FEP window  18: Lambda1 0.8500000000000002 Lambda2 0.9000000000000002 [dLambda 0.050000000000000044]
TCL: Setting parameter firsttimestep to 0
TCL: Setting parameter alchLambda to 0.8500000000000002
Info: NONBONDED TABLE R-SQUARED SPACING: 0.0625
Info: NONBONDED TABLE SIZE: 705 POINTS
TCL: Setting parameter alchLambda2 to 0.9000000000000002
Info: NONBONDED TABLE R-SQUARED SPACING: 0.0625
Info: NONBONDED TABLE SIZE: 705 POINTS
TCL: Running for 1500000 steps
ETITLE: TS BOND ANGLE DIHED IMPRP ELECT VDW BOUNDARY MISC KINETIC TOTAL TEMP POTENTIAL TOTALAVG TEMPAVG PRESSURE GPRESSURE VOLUME PRESSAVG GPRESSAVG
ENERGY: 0 0.3381 1.8990 1.6882 0.0000 -10636.8151 1451.6625 0.0000 0.0000 1683.7465 -7497.4808 290.7187 -9181.2273 -7497.4808 290.7187 205.0643 280.5690 29731.9981 205.0643 280.5690
ENERGY: 300000 2.1165 2.2790 1.0328 0.0000 -10698.0861 1513.4087 0.0000 0.0000 1744.2316 -7435.0176 301.1622 -9179.2492 -7441.5910 298.4404 685.1556 757.3007 29651.1690 225.2652 285.3326
ENERGY: 600000 0.4363 1.9415 2.0656 0.0000 -10584.9362 1459.4469 0.0000 0.0000 1769.4664 -7351.5796 305.5193 -9121.0460 -7399.3402 301.4800 374.0365 483.1143 30005.8353 129.1587 181.2297
ENERGY: 900000 0.1462 2.8887 1.1773 0.0000 -10667.1878 1486.8591 0.0000 0.0000 1770.4050 -7405.7116 305.6814 -9176.1166 -7402.4877 301.3359 449.7220 487.0410 29985.6806 78.0531 124.8546
ENERGY: 1200000 1.6598 3.7057 1.8017 0.0000 -10433.9208 1339.7708 0.0000 0.0000 1728.8772 -7358.1054 298.5111 -9086.9826 -7395.7764 301.2443 -438.2800 -392.3280 29743.2689 33.2937 83.7776
ENERGY: 1500000 1.2789 3.6710 1.5767 0.0000 -10734.8109 1458.5199 0.0000 0.0000 1773.7118 -7496.0527 306.2523 -9269.7644 -7402.5851 301.6353 -103.1696 -20.2204 30011.5796 60.2642 115.1497
TCL: Running FEP window  19: Lambda1 0.9000000000000002 Lambda2 0.9500000000000003 [dLambda 0.050000000000000044]
TCL: Setting parameter firsttimestep to 0
TCL: Setting parameter alchLambda to 0.9000000000000002
Info: NONBONDED TABLE R-SQUARED SPACING: 0.0625
Info: NONBONDED TABLE SIZE: 705 POINTS
TCL: Setting parameter alchLambda2 to 0.9500000000000003
Info: NONBONDED TABLE R-SQUARED SPACING: 0.0625
Info: NONBONDED TABLE SIZE: 705 POINTS
TCL: Running for 1500000 steps
ETITLE: TS BOND ANGLE DIHED IMPRP ELECT VDW BOUNDARY MISC KINETIC TOTAL TEMP POTENTIAL TOTALAVG TEMPAVG PRESSURE GPRESSURE VOLUME PRESSAVG GPRESSAVG
ENERGY: 0 1.2789 3.6710 1.5767 0.0000 -10736.0465 1458.5574 0.0000 0.0000 1772.8229 -7498.1396 306.0988 -9270.9625 -7498.1396 306.0988 -113.7697 -16.7420 30011.5796 -113.7697 -16.7420
ENERGY: 300000 0.1381 5.3876 1.7059 0.0000 -10576.6214 1443.2305 0.0000 0.0000 1701.9112 -7424.2483 293.8551 -9126.1594 -7447.3004 299.2682 291.2080 398.0807 29744.2882 60.1965 152.6772
ENERGY: 600000 0.7953 2.7845 0.7770 0.0000 -10613.3988 1441.8786 0.0000 0.0000 1744.7457 -7422.4178 301.2510 -9167.1635 -7421.6415 299.2392 407.8241 480.4707 29648.5723 -18.9380 58.5351
ENERGY: 900000 0.2091 3.0174 1.5656 0.0000 -10489.3325 1340.6368 0.0000 0.0000 1723.6460 -7420.2577 297.6079 -9143.9037 -7424.7015 298.8942 -570.1851 -450.2121 30010.0742 11.9943 95.4826
ENERGY: 1200000 0.0427 2.4621 0.8508 0.0000 -10628.8851 1466.5359 0.0000 0.0000 1702.5179 -7456.4756 293.9599 -9158.9935 -7424.7439 298.3939 63.7581 184.5986 30346.0045 -21.3061 63.2336
ENERGY: 1500000 0.2524 3.6454 1.2791 0.0000 -10426.4842 1335.1303 0.0000 0.0000 1691.0239 -7395.1531 291.9753 -9086.1770 -7416.0533 299.1942 -496.4322 -431.4908 30117.0615 -33.9239 44.2424
TCL: Running FEP window  20: Lambda1 0.9500000000000003 Lambda2 1.0    [dLambda 0.04999999999999971]
TCL: Setting parameter firsttimestep to 0
TCL: Setting parameter alchLambda to 0.9500000000000003
Info: NONBONDED TABLE R-SQUARED SPACING: 0.0625
Info: NONBONDED TABLE SIZE: 705 POINTS
TCL: Setting parameter alchLambda2 to 1.0
Info: NONBONDED TABLE R-SQUARED SPACING: 0.0625
Info: NONBONDED TABLE SIZE: 705 POINTS
TCL: Running for 1500000 steps
ETITLE: TS BOND ANGLE DIHED IMPRP ELECT VDW BOUNDARY MISC KINETIC TOTAL TEMP POTENTIAL TOTALAVG TEMPAVG PRESSURE GPRESSURE VOLUME PRESSAVG GPRESSAVG
ENERGY: 0 0.2524 3.6454 1.2791 0.0000 -10427.5927 1335.6234 0.0000 0.0000 1690.1623 -7396.6300 291.8265 -9086.7923 -7396.6300 291.8265 -493.0692 -416.9958 30117.0615 -493.0692 -416.9958
ENERGY: 300000 0.7903 3.8994 1.1770 0.0000 -10661.3281 1497.6552 0.0000 0.0000 1724.1430 -7433.6632 297.6937 -9157.8062 -7408.3287 297.8259 747.3860 818.6075 29699.9942 263.4928 345.3908
ENERGY: 600000 0.3657 3.9923 1.5380 0.0000 -10611.7369 1451.0520 0.0000 0.0000 1673.9120 -7480.8769 289.0207 -9154.7888 -7434.5911 296.7931 310.8816 377.5576 29541.6683 146.5377 233.4013
ENERGY: 900000 0.1405 2.8184 1.4000 0.0000 -10610.2893 1413.0163 0.0000 0.0000 1822.3915 -7370.5226 314.6574 -9192.9141 -7437.3805 298.9924 -342.2124 -181.6475 30116.3760 58.1584 136.4160
ENERGY: 1200000 1.8984 3.6149 1.4551 0.0000 -10727.8669 1488.1473 0.0000 0.0000 1748.3632 -7484.3880 301.8756 -9232.7512 -7441.0432 299.7073 277.7384 311.1496 29770.3275 65.2782 133.7235
ENERGY: 1500000 0.0747 0.9852 1.3073 0.0000 -10634.8356 1406.5137 0.0000 0.0000 1742.8881 -7483.0667 300.9302 -9225.9547 -7445.7469 299.8918 -350.5269 -264.2445 30152.9937 37.5530 104.1010
TCL: Exiting due to exit command.
