Info: SIMULATION PARAMETERS:
Info: TIMESTEP               2
Info: NUMBER OF STEPS        0
Info: STEPS PER CYCLE        10
Info: PERIODIC CELL BASIS 1  31.0375 0 0
Info: PERIODIC CELL BASIS 2  0 30.3726 0
Info: PERIODIC CELL BASIS 3  0 0 32.0916
Info: PERIODIC CELL CENTER   0 0 0
Info: WRAPPING WATERS AROUND PERIODIC BOUNDARIES ON OUTPUT.
Info: WRAPPING ALL CLUSTERS AROUND PERIODIC BOUNDARIES ON OUTPUT.
Info: FIRST LDB TIMESTEP     50
Info: LAST LDB TIMESTEP     -1
Info: HOM BACKGROUND SCALING 1
Info: PME BACKGROUND SCALING 1
Info: MIN ATOMS PER PATCH    40
Info: EMPTY PATCH LOAD       40 ATOMS
Info: VELOCITY FILE          mobley_1717215_equil.vel
Info: CENTER OF MASS MOVING INITIALLY? NO
Info: DIELECTRIC             1
Info: EXCLUDE                SCALED ONE-FOUR
Info: 1-4 ELECTROSTATICS SCALED BY 0.833333
Info: MODIFIED 1-4 VDW PARAMETERS WILL BE USED
Info: DCD FILENAME           mobley_1717215_prod.dcd
Info: DCD FREQUENCY          100000
Info: DCD FIRST STEP         100000
Info: DCD FILE WILL CONTAIN UNIT CELL DATA
Info: XST FILENAME           mobley_1717215_prod.xst
Info: XST FREQUENCY          100000
Info: NO VELOCITY DCD OUTPUT
Info: NO FORCE DCD OUTPUT
Info: OUTPUT FILENAME        mobley_1717215_prod
Info: BINARY OUTPUT FILES WILL BE USED
Info: RESTART FILENAME       mobley_1717215_prod.restart
Info: RESTART FREQUENCY      100000
Info: BINARY RESTART FILES WILL BE USED
Info: CUTOFF                 9
Info: PAIRLIST DISTANCE      11
Info: PAIRLIST SHRINK RATE   0.01
Info: PAIRLIST GROW RATE     0.01
Info: PAIRLIST TRIGGER       0.3
Info: PAIRLISTS PER CYCLE    2
Info: PAIRLISTS ENABLED
Info: MARGIN                 2
Info: HYDROGEN GROUP CUTOFF  2.5
Info: PATCH DIMENSION        15.5
Info: ENERGY OUTPUT STEPS    100000
Info: ENERGY EVALUATION STEPS    100000
Info: OUTPUT ENERGY PRECISION 4
Info: CROSSTERM ENERGY INCLUDED IN DIHEDRAL
Info: TIMING OUTPUT STEPS    1000000
Info: PRESSURE OUTPUT STEPS  100000
Info: ALCHEMICAL FEP ON
Info: FEP CURRENT LAMBDA VALUE     1
Info: FEP COMPARISON LAMBDA VALUE  0.95
Info: FEP INTRA-ALCHEMICAL NON-BONDED INTERACTIONS WILL BE RETAINED
Info: FEP INTRA-ALCHEMICAL BONDED INTERACTIONS WILL BE RETAINED
Info: FEP VDW SHIFTING COEFFICIENT 5
Info: FEP ELEC. ACTIVE FOR ANNIHILATED PARTICLES BETWEEN LAMBDA = 0 AND LAMBDA = 0.5
Info: FEP ELEC. ACTIVE FOR EXNIHILATED PARTICLES BETWEEN LAMBDA = 0.5 AND LAMBDA = 1
Info: FEP VDW ACTIVE FOR ANNIHILATED PARTICLES BETWEEN LAMBDA = 0 AND LAMBDA = 1
Info: FEP VDW ACTIVE FOR EXNIHILATED PARTICLES BETWEEN LAMBDA = 0 AND LAMBDA = 1
Info: FEP BOND ACTIVE FOR ANNIHILATED PARTICLES BETWEEN LAMBDA = 1 AND LAMBDA = 1
Info: FEP BOND ACTIVE FOR EXNIHILATED PARTICLES BETWEEN LAMBDA = 0 AND LAMBDA = 0
Info: LANGEVIN DYNAMICS ACTIVE
Info: LANGEVIN TEMPERATURE   300
Info: LANGEVIN USING BBK INTEGRATOR
Info: LANGEVIN DAMPING COEFFICIENT IS 1 INVERSE PS
Info: LANGEVIN DYNAMICS APPLIED TO HYDROGENS
Info: LANGEVIN PISTON PRESSURE CONTROL ACTIVE
Info:        TARGET PRESSURE IS 1.01325 BAR
Info:     OSCILLATION PERIOD IS 50 FS
Info:             DECAY TIME IS 25 FS
Info:     PISTON TEMPERATURE IS 300 K
Info:       PRESSURE CONTROL IS GROUP-BASED
Info:    INITIAL STRAIN RATE IS -0.000331787 -0.000331787 -0.000331787
Info:       CELL FLUCTUATION IS ISOTROPIC
Info: PARTICLE MESH EWALD (PME) ACTIVE
Info: PME TOLERANCE               1e-06
Info: PME EWALD COEFFICIENT       0.348832
Info: PME INTERPOLATION ORDER     4
Info: PME GRID DIMENSIONS         32 32 36
Info: PME MAXIMUM GRID SPACING    1
Info: PME CALCULATION WILL BE PERFORMED ON GPU
Info: FULL ELECTROSTATIC EVALUATION FREQUENCY      2
Info: USING VERLET I (r-RESPA) MTS SCHEME.
Info: C1 SPLITTING OF LONG RANGE ELECTROSTATICS
Info: PLACING ATOMS IN PATCHES BY HYDROGEN GROUPS
Info: RIGID BONDS TO HYDROGEN : ALL
Info:         ERROR TOLERANCE : 1e-08
Info:          MAX ITERATIONS : 100
Info: RIGID WATER USING SETTLE ALGORITHM
Info: RANDOM NUMBER SEED     1743669549
Info: USE HYDROGEN BONDS?    NO
Info: Using AMBER format force field!
Info: AMBER PARM FILE        mobley_1717215.prmtop
Info: COORDINATE PDB         mobley_1717215.pdb
Info: Exclusions will be read from PARM file!
Info: SCNB (VDW SCALING)     2
Info: USING ARITHMETIC MEAN TO COMBINE L-J SIGMA PARAMETERS
Info: BINARY COORDINATES     mobley_1717215_equil.coor
Info: SUMMARY OF PARAMETERS:
Info: 7 BONDS
Info: 6 ANGLES
Info:   6 HARMONIC
Info:   0 COSINE-BASED
Info: 4 DIHEDRAL
Info: 0 IMPROPER
Info: 0 CROSSTERM
Info: 0 VDW
Info: 36 VDW_PAIRS
Info: 0 NBTHOLE_PAIRS
Info: To read alchdata from file: mobley_1717215.pdb
Info: To read alchflag data from column: 5
Info: STRUCTURE SUMMARY:
Info: 2960 ATOMS
Info: 2959 BONDS
Info: 10 ANGLES
Info: 7 DIHEDRALS
Info: 0 IMPROPERS
Info: 0 CROSSTERMS
Info: 2974 EXCLUSIONS
Info: 2956 RIGID BONDS
Info: ALCH: 0 ATOMS TO DISAPPEAR IN FINAL STATE
Info: ALCH: 8 ATOMS TO APPEAR IN FINAL STATE
Info: 5924 DEGREES OF FREEDOM
Info: 988 HYDROGEN GROUPS
Info: 4 ATOMS IN LARGEST HYDROGEN GROUP
Info: 988 MIGRATION GROUPS
Info: 4 ATOMS IN LARGEST MIGRATION GROUP
Info: TOTAL MASS = 17787.8 amu
Info: TOTAL CHARGE = -9.99756e-05 e
Info: MASS DENSITY = 0.976381 g/cm^3
Info: ATOM DENSITY = 0.097843 atoms/A^3
Info: ADDED 0 IMPLICIT EXCLUSIONS
Info: NONBONDED TABLE R-SQUARED SPACING: 0.0625
Info: NONBONDED TABLE SIZE: 705 POINTS
Info: REMOVING COM VELOCITY 0.115681 0.0679189 -0.0668063
Info: Use 3D box decompostion in PME FFT.
Info: Updated CUDA force table with 4096 elements.
Info: Updated CUDA LJ table with 8 x 8 elements.
Info: Found 11 unique exclusion lists needing 16 bytes
TCL: Running for 1500000 steps
ETITLE: TS BOND ANGLE DIHED IMPRP ELECT VDW BOUNDARY MISC KINETIC TOTAL TEMP POTENTIAL TOTALAVG TEMPAVG PRESSURE GPRESSURE VOLUME PRESSAVG GPRESSAVG
ENERGY: 0 0.4653 1.3620 0.9076 0.0000 -10984.8891 1545.3120 0.0000 0.0000 1771.1486 -7665.6937 300.9056 -9436.8423 -7665.6937 300.9056 402.6789 482.3921 30252.5479 402.6789 482.3921
ENERGY: 300000 2.1817 2.7593 0.5116 0.0000 -10584.5994 1335.4402 0.0000 0.0000 1749.8986 -7493.8080 297.2954 -9243.7066 -7553.6872 300.9767 -1001.0875 -910.0990 30927.9879 -5.3070 66.1883
ENERGY: 600000 0.9807 1.9088 1.2790 0.0000 -10856.0512 1508.6536 0.0000 0.0000 1745.6598 -7597.5694 296.5753 -9343.2292 -7569.7250 300.7275 354.2047 438.6667 30329.0415 62.2920 138.4493
ENERGY: 900000 0.9241 1.2800 1.3791 0.0000 -10695.9021 1426.0158 0.0000 0.0000 1763.1158 -7503.1874 299.5409 -9266.3032 -7558.1112 301.4938 26.0762 91.1463 30420.1383 136.1762 204.1183
ENERGY: 1200000 0.6252 2.2216 0.3100 0.0000 -10673.4109 1397.4932 0.0000 0.0000 1772.6249 -7500.1359 301.1565 -9272.7608 -7542.7608 301.0894 -467.7117 -395.7130 30797.8864 130.5618 202.6072
ENERGY: 1500000 0.0952 2.1898 0.4903 0.0000 -10788.6707 1466.6522 0.0000 0.0000 1771.2807 -7547.9624 300.9281 -9319.2430 -7541.7997 301.1836 92.3807 161.2525 30379.9853 157.5083 226.9830
TCL: Running FEP window   2: Lambda1 0.95   Lambda2 0.8999999999999999 [dLambda -0.050000000000000044]
TCL: Setting parameter firsttimestep to 0
TCL: Setting parameter alchLambda to 0.95
Info: NONBONDED TABLE R-SQUARED SPACING: 0.0625
Info: NONBONDED TABLE SIZE: 705 POINTS
TCL: Setting parameter alchLambda2 to 0.8999999999999999
Info: NONBONDED TABLE R-SQUARED SPACING: 0.0625
Info: NONBONDED TABLE SIZE: 705 POINTS
TCL: Running for 1500000 steps
ETITLE: TS BOND ANGLE DIHED IMPRP ELECT VDW BOUNDARY MISC KINETIC TOTAL TEMP POTENTIAL TOTALAVG TEMPAVG PRESSURE GPRESSURE VOLUME PRESSAVG GPRESSAVG
ENERGY: 0 0.0952 2.1898 0.4903 0.0000 -10787.5937 1466.5102 0.0000 0.0000 1770.3929 -7547.9151 300.7773 -9318.3081 -7547.9151 300.7773 63.8575 151.3719 30379.9853 63.8575 151.3719
ENERGY: 300000 0.6043 1.8932 1.6019 0.0000 -10760.9067 1404.1992 0.0000 0.0000 1799.9387 -7552.6694 305.7969 -9352.6081 -7539.3408 301.4564 -251.2576 -214.1193 30363.9851 -172.0141 -103.4713
ENERGY: 600000 0.7215 3.7149 1.6288 0.0000 -10689.1882 1383.5330 0.0000 0.0000 1784.7982 -7514.7919 303.2246 -9299.5901 -7520.5042 302.1294 -452.7179 -408.6834 30318.8870 -122.2120 -62.1598
ENERGY: 900000 1.9757 1.7106 0.3875 0.0000 -10869.8233 1476.7518 0.0000 0.0000 1750.7363 -7638.2615 297.4377 -9388.9978 -7526.2692 301.9259 -120.2789 -44.5203 30258.2376 -23.9427 28.5588
ENERGY: 1200000 2.0362 1.2356 0.3493 0.0000 -10688.0306 1464.5773 0.0000 0.0000 1796.6030 -7423.2292 305.2302 -9219.8321 -7515.0735 302.1155 140.1114 238.0255 30877.8784 -71.9167 -11.9987
ENERGY: 1500000 3.7748 1.7729 0.7460 0.0000 -10857.5129 1471.1664 0.0000 0.0000 1726.2647 -7653.7880 293.2802 -9380.0528 -7529.3067 300.9577 303.1619 284.4469 30213.2768 -68.7481 -13.2849
TCL: Running FEP window   3: Lambda1 0.8999999999999999 Lambda2 0.8499999999999999 [dLambda -0.050000000000000044]
TCL: Setting parameter firsttimestep to 0
TCL: Setting parameter alchLambda to 0.8999999999999999
Info: NONBONDED TABLE R-SQUARED SPACING: 0.0625
Info: NONBONDED TABLE SIZE: 705 POINTS
TCL: Setting parameter alchLambda2 to 0.8499999999999999
Info: NONBONDED TABLE R-SQUARED SPACING: 0.0625
Info: NONBONDED TABLE SIZE: 705 POINTS
TCL: Running for 1500000 steps
ETITLE: TS BOND ANGLE DIHED IMPRP ELECT VDW BOUNDARY MISC KINETIC TOTAL TEMP POTENTIAL TOTALAVG TEMPAVG PRESSURE GPRESSURE VOLUME PRESSAVG GPRESSAVG
ENERGY: 0 3.7748 1.7729 0.7460 0.0000 -10856.7766 1471.2913 0.0000 0.0000 1725.4042 -7653.7873 293.1340 -9379.1915 -7653.7873 293.1340 179.5705 278.4897 30213.2768 179.5705 278.4897
ENERGY: 300000 0.1311 2.0481 1.4226 0.0000 -10709.8422 1377.7375 0.0000 0.0000 1717.2448 -7611.2580 291.7478 -9328.5029 -7574.2272 296.8605 -674.6994 -576.1768 30288.0099 -175.6629 -95.8755
ENERGY: 600000 0.6156 1.7668 1.4417 0.0000 -10772.3450 1479.9039 0.0000 0.0000 1758.1106 -7530.5063 298.6906 -9288.6169 -7550.8980 297.8827 176.9332 275.6764 30528.4726 31.5384 99.2185
ENERGY: 900000 1.1209 2.0522 0.7859 0.0000 -10704.0342 1438.7629 0.0000 0.0000 1727.2740 -7534.0383 293.4517 -9261.3123 -7531.1923 298.3355 100.2227 132.6236 30170.7179 -76.6837 -13.8377
ENERGY: 1200000 0.7915 2.2653 0.7418 0.0000 -10768.2538 1358.8546 0.0000 0.0000 1792.0306 -7613.5700 304.4534 -9405.6007 -7542.7798 298.5196 -839.5223 -735.1295 30251.0452 -220.6709 -161.3568
ENERGY: 1500000 1.3439 4.2947 0.4163 0.0000 -10849.0033 1460.1683 0.0000 0.0000 1814.3760 -7568.4039 308.2497 -9382.7800 -7544.2282 300.0163 -414.1354 -346.9905 31053.3845 -215.1344 -155.8198
TCL: Running FEP window   4: Lambda1 0.8499999999999999 Lambda2 0.7999999999999998 [dLambda -0.050000000000000044]
TCL: Setting parameter firsttimestep to 0
TCL: Setting parameter alchLambda to 0.8499999999999999
Info: NONBONDED TABLE R-SQUARED SPACING: 0.0625
Info: NONBONDED TABLE SIZE: 705 POINTS
TCL: Setting parameter alchLambda2 to 0.7999999999999998
Info: NONBONDED TABLE R-SQUARED SPACING: 0.0625
Info: NONBONDED TABLE SIZE: 705 POINTS
TCL: Running for 1500000 steps
ETITLE: TS BOND ANGLE DIHED IMPRP ELECT VDW BOUNDARY MISC KINETIC TOTAL TEMP POTENTIAL TOTALAVG TEMPAVG PRESSURE GPRESSURE VOLUME PRESSAVG GPRESSAVG
ENERGY: 0 1.3439 4.2947 0.4163 0.0000 -10847.9820 1460.5129 0.0000 0.0000 1813.4976 -7567.9165 308.1004 -9381.4141 -7567.9165 308.1004 -432.7759 -347.9102 31053.3845 -432.7759 -347.9102
ENERGY: 300000 0.9528 2.9070 0.5630 0.0000 -10819.9181 1496.6513 0.0000 0.0000 1773.1904 -7545.6536 301.2525 -9318.8440 -7548.5134 300.0084 410.0930 430.6790 30332.6455 -348.8626 -328.2004
ENERGY: 600000 0.1428 4.9115 2.0247 0.0000 -10821.9085 1466.9146 0.0000 0.0000 1751.7165 -7596.1985 297.6043 -9347.9150 -7541.9166 299.9610 -8.2037 78.7298 30408.3311 -346.4914 -303.6492
ENERGY: 900000 0.4250 3.2333 0.3126 0.0000 -10693.1928 1444.4397 0.0000 0.0000 1734.0545 -7510.7278 294.6036 -9244.7822 -7517.1942 300.9553 24.6877 90.7886 30654.4257 -273.3659 -230.6509
ENERGY: 1200000 1.4212 5.9192 2.4968 0.0000 -10843.8749 1536.8161 0.0000 0.0000 1752.8812 -7544.3404 297.8021 -9297.2216 -7517.6650 301.1335 732.9204 762.1945 30570.2882 -210.0976 -161.6184
ENERGY: 1500000 0.7795 3.7427 1.0060 0.0000 -10665.0433 1403.6272 0.0000 0.0000 1813.3663 -7442.5217 308.0781 -9255.8879 -7518.3874 301.2306 -72.4658 10.6055 30467.6226 -173.9896 -126.6197
TCL: Running FEP window   5: Lambda1 0.7999999999999998 Lambda2 0.7499999999999998 [dLambda -0.050000000000000044]
TCL: Setting parameter firsttimestep to 0
TCL: Setting parameter alchLambda to 0.7999999999999998
Info: NONBONDED TABLE R-SQUARED SPACING: 0.0625
Info: NONBONDED TABLE SIZE: 705 POINTS
TCL: Setting parameter alchLambda2 to 0.7499999999999998
Info: NONBONDED TABLE R-SQUARED SPACING: 0.0625
Info: NONBONDED TABLE SIZE: 705 POINTS
TCL: Running for 1500000 steps
ETITLE: TS BOND ANGLE DIHED IMPRP ELECT VDW BOUNDARY MISC KINETIC TOTAL TEMP POTENTIAL TOTALAVG TEMPAVG PRESSURE GPRESSURE VOLUME PRESSAVG GPRESSAVG
ENERGY: 0 0.7795 3.7427 1.0060 0.0000 -10663.8358 1403.7577 0.0000 0.0000 1812.5189 -7442.0310 307.9342 -9254.5499 -7442.0310 307.9342 -79.5902 9.4254 30467.6226 -79.5902 9.4254
ENERGY: 300000 0.3899 5.9401 0.4128 0.0000 -10778.0943 1423.2852 0.0000 0.0000 1757.4659 -7590.6002 298.5811 -9348.0662 -7509.1851 299.7440 -214.7473 -187.3369 30247.5087 107.5888 133.6339
ENERGY: 600000 1.4886 1.1986 1.3607 0.0000 -10847.3436 1528.8409 0.0000 0.0000 1739.7066 -7574.7482 295.5639 -9314.4548 -7537.1325 299.2015 813.4900 812.6095 30270.1459 144.9789 168.6504
ENERGY: 900000 0.8438 2.7436 0.8557 0.0000 -10871.7502 1567.2491 0.0000 0.0000 1779.4499 -7520.6081 302.3160 -9300.0579 -7530.1086 299.1752 839.5438 899.1576 30463.9439 170.9037 195.5936
ENERGY: 1200000 0.1355 2.2941 0.1175 0.0000 -10843.4215 1464.1416 0.0000 0.0000 1764.4767 -7612.2561 299.7721 -9376.7328 -7533.4358 299.8897 37.9958 94.9291 30206.7758 176.4756 216.2344
ENERGY: 1500000 0.8736 2.4234 0.2154 0.0000 -10915.6051 1556.3275 0.0000 0.0000 1718.4437 -7637.3215 291.9515 -9355.7653 -7539.1493 300.2614 722.2713 797.9397 30388.0972 194.9662 241.7380
TCL: Running FEP window   6: Lambda1 0.7499999999999998 Lambda2 0.6999999999999997 [dLambda -0.050000000000000044]
TCL: Setting parameter firsttimestep to 0
TCL: Setting parameter alchLambda to 0.7499999999999998
Info: NONBONDED TABLE R-SQUARED SPACING: 0.0625
Info: NONBONDED TABLE SIZE: 705 POINTS
TCL: Setting parameter alchLambda2 to 0.6999999999999997
Info: NONBONDED TABLE R-SQUARED SPACING: 0.0625
Info: NONBONDED TABLE SIZE: 705 POINTS
TCL: Running for 1500000 steps
ETITLE: TS BOND ANGLE DIHED IMPRP ELECT VDW BOUNDARY MISC KINETIC TOTAL TEMP POTENTIAL TOTALAVG TEMPAVG PRESSURE GPRESSURE VOLUME PRESSAVG GPRESSAVG
ENERGY: 0 0.8736 2.4234 0.2154 0.0000 -10914.2307 1555.8521 0.0000 0.0000 1717.5494 -7637.3169 291.7995 -9354.8663 -7637.3169 291.7995 699.9782 788.5876 30388.0972 699.9782 788.5876
ENERGY: 300000 1.5358 3.3744 0.4799 0.0000 -10695.8381 1431.2124 0.0000 0.0000 1784.2919 -7474.9437 303.1386 -9259.2356 -7545.0337 297.0711 -33.1791 71.0042 30391.4463 289.2875 366.3266
ENERGY: 600000 0.4240 1.9289 2.8074 0.0000 -10749.2048 1482.2859 0.0000 0.0000 1768.6935 -7493.0651 300.4885 -9261.7586 -7528.8133 297.3399 235.6325 348.2571 30711.7526 47.6292 139.6730
ENERGY: 900000 2.2514 1.6768 0.0829 0.0000 -10764.7960 1426.0600 0.0000 0.0000 1759.7401 -7574.9847 298.9674 -9334.7248 -7532.9306 298.3404 -365.1255 -307.0814 30678.3971 -70.9472 12.0102
ENERGY: 1200000 1.4566 2.5937 0.6535 0.0000 -10759.0056 1422.6779 0.0000 0.0000 1767.1429 -7564.4810 300.2251 -9331.6239 -7547.2920 298.4805 -454.7273 -383.8003 30693.4891 -122.9770 -44.2153
ENERGY: 1500000 0.8718 1.6551 0.1538 0.0000 -10573.1814 1314.3942 0.0000 0.0000 1734.9042 -7521.2023 294.7480 -9256.1065 -7548.6201 297.9484 -1055.0117 -1017.0467 30892.0898 -188.9649 -119.7875
TCL: Running FEP window   7: Lambda1 0.6999999999999997 Lambda2 0.6499999999999997 [dLambda -0.050000000000000044]
TCL: Setting parameter firsttimestep to 0
TCL: Setting parameter alchLambda to 0.6999999999999997
Info: NONBONDED TABLE R-SQUARED SPACING: 0.0625
Info: NONBONDED TABLE SIZE: 705 POINTS
TCL: Setting parameter alchLambda2 to 0.6499999999999997
Info: NONBONDED TABLE R-SQUARED SPACING: 0.0625
Info: NONBONDED TABLE SIZE: 705 POINTS
TCL: Running for 1500000 steps
ETITLE: TS BOND ANGLE DIHED IMPRP ELECT VDW BOUNDARY MISC KINETIC TOTAL TEMP POTENTIAL TOTALAVG TEMPAVG PRESSURE GPRESSURE VOLUME PRESSAVG GPRESSAVG
ENERGY: 0 0.8718 1.6551 0.1538 0.0000 -10571.2360 1313.9185 0.0000 0.0000 1734.0296 -7520.6072 294.5994 -9254.6368 -7520.6072 294.5994 -1110.0078 -1021.2819 30892.0898 -1110.0078 -1021.2819
ENERGY: 300000 0.1062 2.1605 0.6081 0.0000 -10728.1498 1379.9703 0.0000 0.0000 1770.1417 -7575.1632 300.7346 -9345.3049 -7528.2031 297.2405 -911.9913 -847.3603 30929.3821 -266.5034 -211.5589
ENERGY: 600000 0.1488 1.6221 2.1431 0.0000 -10840.8644 1494.1057 0.0000 0.0000 1763.0423 -7579.8024 299.5284 -9342.8447 -7541.5673 297.3637 6.1757 90.7320 30663.1751 -161.9547 -89.7958
ENERGY: 900000 0.6205 2.5294 0.6373 0.0000 -10769.0823 1496.2374 0.0000 0.0000 1704.4617 -7564.5959 289.5760 -9269.0576 -7546.6797 296.7171 468.8925 526.8093 30273.4487 -166.7411 -102.9008
ENERGY: 1200000 0.5225 1.4722 1.5366 0.0000 -10658.8890 1349.9739 0.0000 0.0000 1721.7228 -7583.6611 292.5085 -9305.3838 -7555.9736 296.6292 -1254.5265 -1190.0221 31374.5017 -288.1493 -223.8358
ENERGY: 1500000 0.6592 2.9438 0.5322 0.0000 -10756.7923 1469.7230 0.0000 0.0000 1780.1673 -7502.7667 302.4379 -9282.9340 -7546.9924 298.1803 169.0293 320.2821 30246.5624 -220.5430 -152.2591
TCL: Running FEP window   8: Lambda1 0.6499999999999997 Lambda2 0.5999999999999996 [dLambda -0.050000000000000044]
TCL: Setting parameter firsttimestep to 0
TCL: Setting parameter alchLambda to 0.6499999999999997
Info: NONBONDED TABLE R-SQUARED SPACING: 0.0625
Info: NONBONDED TABLE SIZE: 705 POINTS
TCL: Setting parameter alchLambda2 to 0.5999999999999996
Info: NONBONDED TABLE R-SQUARED SPACING: 0.0625
Info: NONBONDED TABLE SIZE: 705 POINTS
TCL: Running for 1500000 steps
ETITLE: TS BOND ANGLE DIHED IMPRP ELECT VDW BOUNDARY MISC KINETIC TOTAL TEMP POTENTIAL TOTALAVG TEMPAVG PRESSURE GPRESSURE VOLUME PRESSAVG GPRESSAVG
ENERGY: 0 0.6592 2.9438 0.5322 0.0000 -10755.7527 1469.3563 0.0000 0.0000 1779.2810 -7502.9801 302.2873 -9282.2611 -7502.9801 302.2873 223.1700 312.9162 30246.5624 223.1700 312.9162
ENERGY: 300000 2.1572 2.6545 1.8851 0.0000 -10607.2642 1383.0894 0.0000 0.0000 1714.3235 -7503.1545 291.2515 -9217.4779 -7500.1913 299.1808 -452.5282 -407.8920 30904.3783 -30.3559 15.5056
ENERGY: 600000 0.6389 2.7648 0.6473 0.0000 -10559.5757 1330.4732 0.0000 0.0000 1794.1340 -7430.9176 304.8107 -9225.0515 -7496.4544 302.9419 -931.9882 -867.0586 31075.5529 -13.4635 47.5186
ENERGY: 900000 0.2945 1.6747 0.9807 0.0000 -10711.8056 1413.1046 0.0000 0.0000 1793.2194 -7502.5317 304.6553 -9295.7511 -7502.9817 302.8632 -298.0424 -250.1597 30562.9212 -56.2328 5.2504
ENERGY: 1200000 0.4248 1.6665 0.4954 0.0000 -10718.2300 1404.5075 0.0000 0.0000 1755.9935 -7555.1423 298.3309 -9311.1358 -7509.7517 301.6788 -405.7638 -327.9770 30437.2374 -49.2254 16.0324
ENERGY: 1500000 0.8147 1.4357 2.3191 0.0000 -10868.8546 1564.2426 0.0000 0.0000 1744.7509 -7555.2916 296.4209 -9300.0425 -7520.2559 301.1114 994.8917 1065.4705 30386.7566 -20.8178 50.0294
TCL: Running FEP window   9: Lambda1 0.5999999999999996 Lambda2 0.5499999999999996 [dLambda -0.050000000000000044]
TCL: Setting parameter firsttimestep to 0
TCL: Setting parameter alchLambda to 0.5999999999999996
Info: NONBONDED TABLE R-SQUARED SPACING: 0.0625
Info: NONBONDED TABLE SIZE: 705 POINTS
TCL: Setting parameter alchLambda2 to 0.5499999999999996
Info: NONBONDED TABLE R-SQUARED SPACING: 0.0625
Info: NONBONDED TABLE SIZE: 705 POINTS
TCL: Running for 1500000 steps
ETITLE: TS BOND ANGLE DIHED IMPRP ELECT VDW BOUNDARY MISC KINETIC TOTAL TEMP POTENTIAL TOTALAVG TEMPAVG PRESSURE GPRESSURE VOLUME PRESSAVG GPRESSAVG
ENERGY: 0 0.8147 1.4357 2.3191 0.0000 -10868.1610 1564.4160 0.0000 0.0000 1743.8350 -7555.3405 296.2653 -9299.1755 -7555.3405 296.2653 971.4530 1064.2074 30386.7566 971.4530 1064.2074
ENERGY: 300000 1.9911 2.3426 0.3950 0.0000 -10670.8846 1368.4306 0.0000 0.0000 1748.5172 -7549.2082 297.0607 -9297.7255 -7559.7570 296.9412 -557.6663 -489.9061 30544.1483 -110.2853 -60.3116
ENERGY: 600000 2.8410 2.1191 0.7840 0.0000 -10732.5326 1423.4942 0.0000 0.0000 1769.7425 -7533.5517 300.6668 -9303.2942 -7546.5923 298.5575 -282.6187 -164.4145 30262.9915 -2.8598 67.8384
ENERGY: 900000 0.9196 2.2381 1.0749 0.0000 -10847.5281 1490.8426 0.0000 0.0000 1751.0279 -7601.4250 297.4873 -9352.4529 -7553.2609 298.7844 81.0255 153.0923 30612.3402 23.3280 91.7350
ENERGY: 1200000 1.3590 2.0407 0.5853 0.0000 -10759.2626 1508.2276 0.0000 0.0000 1739.9550 -7507.0951 295.6061 -9247.0501 -7539.6884 298.1870 377.6152 467.9440 30557.1645 31.8536 98.6831
ENERGY: 1500000 1.6953 2.9926 0.5812 0.0000 -10568.1377 1326.9125 0.0000 0.0000 1768.5128 -7467.4434 300.4578 -9235.9562 -7536.5501 298.8830 -858.3762 -749.6785 30573.3329 -54.8358 9.3614
TCL: Running FEP window  10: Lambda1 0.5499999999999996 Lambda2 0.4999999999999996 [dLambda -0.04999999999999999]
TCL: Setting parameter firsttimestep to 0
TCL: Setting parameter alchLambda to 0.5499999999999996
Info: NONBONDED TABLE R-SQUARED SPACING: 0.0625
Info: NONBONDED TABLE SIZE: 705 POINTS
TCL: Setting parameter alchLambda2 to 0.4999999999999996
Info: NONBONDED TABLE R-SQUARED SPACING: 0.0625
Info: NONBONDED TABLE SIZE: 705 POINTS
TCL: Running for 1500000 steps
ETITLE: TS BOND ANGLE DIHED IMPRP ELECT VDW BOUNDARY MISC KINETIC TOTAL TEMP POTENTIAL TOTALAVG TEMPAVG PRESSURE GPRESSURE VOLUME PRESSAVG GPRESSAVG
ENERGY: 0 1.6953 2.9926 0.5812 0.0000 -10567.2393 1327.0297 0.0000 0.0000 1767.6512 -7467.2894 300.3115 -9234.9406 -7467.2894 300.3115 -836.0255 -751.2592 30573.3329 -836.0255 -751.2592
ENERGY: 300000 0.9801 1.2752 0.0382 0.0000 -10772.9753 1485.6183 0.0000 0.0000 1846.9497 -7438.1138 313.7837 -9285.0634 -7500.1815 304.6691 176.5149 265.4025 30545.2326 -303.5241 -246.9438
ENERGY: 600000 0.1708 5.1235 0.3651 0.0000 -10719.7512 1349.2690 0.0000 0.0000 1757.1590 -7607.6637 298.5289 -9364.8227 -7514.7253 301.7553 -1020.8455 -920.7384 30526.1416 -349.9126 -283.6426
ENERGY: 900000 0.8553 0.9112 0.0992 0.0000 -10756.5240 1429.8126 0.0000 0.0000 1711.4054 -7613.4403 290.7557 -9324.8457 -7538.8910 300.5897 -405.0194 -350.4316 30757.2391 -196.6113 -127.3364
ENERGY: 1200000 0.7139 2.6158 2.2420 0.0000 -10790.2869 1396.5109 0.0000 0.0000 1788.6078 -7599.5966 303.8718 -9388.2044 -7546.0522 300.7594 -728.3893 -700.5180 30818.6960 -202.6483 -135.1701
ENERGY: 1500000 0.8924 2.3464 0.6004 0.0000 -10743.7407 1444.6787 0.0000 0.0000 1732.1407 -7563.0821 294.2785 -9295.2228 -7550.6086 299.6219 -379.7904 -349.8642 31016.3510 -179.8365 -116.2164
TCL: Running FEP window  11: Lambda1 0.4999999999999996 Lambda2 0.4499999999999996 [dLambda -0.04999999999999999]
TCL: Setting parameter firsttimestep to 0
TCL: Setting parameter alchLambda to 0.4999999999999996
Info: NONBONDED TABLE R-SQUARED SPACING: 0.0625
Info: NONBONDED TABLE SIZE: 705 POINTS
TCL: Setting parameter alchLambda2 to 0.4499999999999996
Info: NONBONDED TABLE R-SQUARED SPACING: 0.0625
Info: NONBONDED TABLE SIZE: 705 POINTS
TCL: Running for 1500000 steps
ETITLE: TS BOND ANGLE DIHED IMPRP ELECT VDW BOUNDARY MISC KINETIC TOTAL TEMP POTENTIAL TOTALAVG TEMPAVG PRESSURE GPRESSURE VOLUME PRESSAVG GPRESSAVG
ENERGY: 0 0.8924 2.3464 0.6004 0.0000 -10743.4302 1445.0829 0.0000 0.0000 1731.2637 -7563.2445 294.1295 -9294.5081 -7563.2445 294.1295 -430.2175 -350.8850 31016.3510 -430.2175 -350.8850
ENERGY: 300000 4.0497 2.9975 0.3381 0.0000 -10741.8858 1442.0760 0.0000 0.0000 1755.7530 -7536.6715 298.2900 -9292.4245 -7542.8825 296.7357 -183.3063 -131.4086 30487.3797 -177.6099 -107.5039
ENERGY: 600000 1.3264 3.5734 1.0437 0.0000 -10840.7338 1516.2685 0.0000 0.0000 1771.0985 -7547.4232 300.8971 -9318.5217 -7542.9708 299.8670 591.3753 630.3787 30229.1946 -122.5577 -53.9674
ENERGY: 900000 0.8993 2.5499 0.1236 0.0000 -10537.3037 1298.4136 0.0000 0.0000 1752.2315 -7483.0858 297.6918 -9235.3173 -7536.7707 299.7157 -1070.3687 -960.0848 30460.8911 -258.3105 -194.3610
ENERGY: 1200000 0.8772 1.3916 1.1233 0.0000 -10727.3164 1470.4084 0.0000 0.0000 1773.8550 -7479.6609 301.3655 -9253.5160 -7536.3776 300.3769 345.9288 392.3320 30502.0479 -153.3872 -93.7169
ENERGY: 1500000 1.2736 2.8752 0.1143 0.0000 -10787.4582 1438.2637 0.0000 0.0000 1836.1348 -7508.7966 311.9463 -9344.9315 -7531.8513 301.0469 -1.2699 30.8441 30258.5499 -133.1719 -77.5744
TCL: Running FEP window  12: Lambda1 0.4499999999999996 Lambda2 0.39999999999999963 [dLambda -0.04999999999999999]
TCL: Setting parameter firsttimestep to 0
TCL: Setting parameter alchLambda to 0.4499999999999996
Info: NONBONDED TABLE R-SQUARED SPACING: 0.0625
Info: NONBONDED TABLE SIZE: 705 POINTS
TCL: Setting parameter alchLambda2 to 0.39999999999999963
Info: NONBONDED TABLE R-SQUARED SPACING: 0.0625
Info: NONBONDED TABLE SIZE: 705 POINTS
TCL: Running for 1500000 steps
ETITLE: TS BOND ANGLE DIHED IMPRP ELECT VDW BOUNDARY MISC KINETIC TOTAL TEMP POTENTIAL TOTALAVG TEMPAVG PRESSURE GPRESSURE VOLUME PRESSAVG GPRESSAVG
ENERGY: 0 1.2736 2.8752 0.1143 0.0000 -10787.4573 1438.4427 0.0000 0.0000 1835.2598 -7509.4917 311.7977 -9344.7516 -7509.4917 311.7977 -61.7728 29.3967 30258.5499 -61.7728 29.3967
ENERGY: 300000 0.7261 3.3891 0.3638 0.0000 -10798.6105 1510.3977 0.0000 0.0000 1778.8409 -7504.8930 302.2125 -9283.7339 -7531.6389 304.2392 516.5469 561.9475 30248.9637 128.0616 177.9521
ENERGY: 600000 0.5795 2.3492 0.7595 0.0000 -10593.4166 1362.2069 0.0000 0.0000 1740.7627 -7486.7587 295.7433 -9227.5214 -7525.9370 301.6203 -504.3853 -421.5944 30819.5027 3.0528 57.1833
ENERGY: 900000 1.9955 3.7151 0.4849 0.0000 -10775.5447 1438.8903 0.0000 0.0000 1771.0969 -7559.3621 300.8969 -9330.4589 -7512.6114 303.3323 37.2832 94.5361 30037.0000 -140.6702 -83.0787
ENERGY: 1200000 0.6338 2.9607 0.6206 0.0000 -10761.8664 1491.8175 0.0000 0.0000 1805.8705 -7459.9633 306.8046 -9265.8338 -7506.2776 304.3566 499.3091 506.2909 30378.9014 -109.4062 -50.0503
ENERGY: 1500000 1.6354 3.4734 3.8444 0.0000 -10649.9345 1407.8409 0.0000 0.0000 1809.5455 -7423.5950 307.4290 -9233.1405 -7503.2199 303.6219 -75.0139 -29.7362 30445.7363 -41.9729 18.4553
TCL: Running FEP window  13: Lambda1 0.39999999999999963 Lambda2 0.34999999999999964 [dLambda -0.04999999999999999]
TCL: Setting parameter firsttimestep to 0
TCL: Setting parameter alchLambda to 0.39999999999999963
Info: NONBONDED TABLE R-SQUARED SPACING: 0.0625
Info: NONBONDED TABLE SIZE: 705 POINTS
TCL: Setting parameter alchLambda2 to 0.34999999999999964
Info: NONBONDED TABLE R-SQUARED SPACING: 0.0625
Info: NONBONDED TABLE SIZE: 705 POINTS
TCL: Running for 1500000 steps
ETITLE: TS BOND ANGLE DIHED IMPRP ELECT VDW BOUNDARY MISC KINETIC TOTAL TEMP POTENTIAL TOTALAVG TEMPAVG PRESSURE GPRESSURE VOLUME PRESSAVG GPRESSAVG
ENERGY: 0 1.6354 3.4734 3.8444 0.0000 -10649.9360 1407.7934 0.0000 0.0000 1808.6578 -7424.5317 307.2782 -9233.1895 -7424.5317 307.2782 -107.2507 -29.7145 30445.7363 -107.2507 -29.7145
ENERGY: 300000 1.3182 1.3465 1.2462 0.0000 -10890.4882 1539.6901 0.0000 0.0000 1701.1579 -7645.7293 289.0147 -9346.8872 -7554.5956 295.2801 783.3504 758.4888 29924.6389 413.1817 442.9707
ENERGY: 600000 1.9565 0.9846 0.5380 0.0000 -10706.9404 1430.8627 0.0000 0.0000 1747.9254 -7524.6731 296.9602 -9272.5986 -7532.8157 298.0499 -219.1923 -99.7532 30472.1248 135.9944 186.2806
ENERGY: 900000 0.3833 1.8257 1.3241 0.0000 -10769.1451 1473.3022 0.0000 0.0000 1781.6851 -7510.6248 302.6957 -9292.3099 -7540.4605 298.5693 128.0439 228.5023 30739.6642 75.0713 125.1973
ENERGY: 1200000 1.4251 0.7945 1.1983 0.0000 -10747.6652 1482.8558 0.0000 0.0000 1743.6466 -7517.7449 296.2332 -9261.3915 -7524.1512 298.6561 408.7502 447.0588 30146.6911 77.9746 125.6668
ENERGY: 1500000 0.2486 2.2011 0.2087 0.0000 -10684.9008 1409.8218 0.0000 0.0000 1748.0517 -7524.3689 296.9816 -9272.4206 -7525.5762 299.3621 -124.0527 -119.1223 30238.7518 3.0549 45.8656
TCL: Running FEP window  14: Lambda1 0.34999999999999964 Lambda2 0.29999999999999966 [dLambda -0.04999999999999999]
TCL: Setting parameter firsttimestep to 0
TCL: Setting parameter alchLambda to 0.34999999999999964
Info: NONBONDED TABLE R-SQUARED SPACING: 0.0625
Info: NONBONDED TABLE SIZE: 705 POINTS
TCL: Setting parameter alchLambda2 to 0.29999999999999966
Info: NONBONDED TABLE R-SQUARED SPACING: 0.0625
Info: NONBONDED TABLE SIZE: 705 POINTS
TCL: Running for 1500000 steps
ETITLE: TS BOND ANGLE DIHED IMPRP ELECT VDW BOUNDARY MISC KINETIC TOTAL TEMP POTENTIAL TOTALAVG TEMPAVG PRESSURE GPRESSURE VOLUME PRESSAVG GPRESSAVG
ENERGY: 0 0.2486 2.2011 0.2087 0.0000 -10684.9017 1410.0881 0.0000 0.0000 1747.1769 -7524.9783 296.8330 -9272.1552 -7524.9783 296.8330 -197.1811 -120.8360 30238.7518 -197.1811 -120.8360
ENERGY: 300000 0.5059 2.7311 2.5545 0.0000 -10887.6104 1569.1922 0.0000 0.0000 1746.9706 -7565.6560 296.7980 -9312.6266 -7574.0962 298.4976 1136.9172 1231.7474 29942.5600 415.1745 484.9609
ENERGY: 600000 1.5510 0.7810 2.3272 0.0000 -10878.0787 1535.4121 0.0000 0.0000 1804.8248 -7533.1825 306.6270 -9338.0073 -7528.2513 302.2786 707.1143 816.5729 30122.0007 297.0989 355.0305
ENERGY: 900000 0.4445 3.1220 0.2076 0.0000 -10639.9277 1370.7572 0.0000 0.0000 1715.8995 -7549.4969 291.5192 -9265.3964 -7522.1087 301.7331 -746.4895 -649.7942 30695.5566 143.0013 204.8811
ENERGY: 1200000 1.7163 3.4460 0.8947 0.0000 -10717.2807 1447.1102 0.0000 0.0000 1740.2938 -7523.8197 295.6636 -9264.1135 -7529.3493 300.7314 -232.8748 -140.6783 30692.4244 130.1007 201.2849
ENERGY: 1500000 5.1538 1.8442 0.2468 0.0000 -10753.2235 1436.7152 0.0000 0.0000 1779.3752 -7529.8883 302.3033 -9309.2635 -7527.2653 301.2423 0.5201 82.0200 30142.2467 89.7927 162.4783
TCL: Running FEP window  15: Lambda1 0.29999999999999966 Lambda2 0.24999999999999967 [dLambda -0.04999999999999999]
TCL: Setting parameter firsttimestep to 0
TCL: Setting parameter alchLambda to 0.29999999999999966
Info: NONBONDED TABLE R-SQUARED SPACING: 0.0625
Info: NONBONDED TABLE SIZE: 705 POINTS
TCL: Setting parameter alchLambda2 to 0.24999999999999967
Info: NONBONDED TABLE R-SQUARED SPACING: 0.0625
Info: NONBONDED TABLE SIZE: 705 POINTS
TCL: Running for 1500000 steps
ETITLE: TS BOND ANGLE DIHED IMPRP ELECT VDW BOUNDARY MISC KINETIC TOTAL TEMP POTENTIAL TOTALAVG TEMPAVG PRESSURE GPRESSURE VOLUME PRESSAVG GPRESSAVG
ENERGY: 0 5.1538 1.8442 0.2468 0.0000 -10753.2223 1436.6295 0.0000 0.0000 1778.4764 -7530.8715 302.1506 -9309.3479 -7530.8715 302.1506 -6.9518 80.0726 30142.2467 -6.9518 80.0726
ENERGY: 300000 0.5906 1.4550 0.3654 0.0000 -10722.2855 1457.6067 0.0000 0.0000 1837.3652 -7424.9026 312.1554 -9262.2678 -7528.2964 303.0916 74.7005 125.7833 30713.0575 231.8189 295.0116
ENERGY: 600000 0.2361 2.9858 1.3425 0.0000 -10782.6531 1461.6521 0.0000 0.0000 1742.4552 -7573.9813 296.0308 -9316.4365 -7531.0746 300.9102 -79.5437 10.3579 30579.3485 72.9859 134.2039
ENERGY: 900000 0.5614 5.5225 0.2271 0.0000 -10916.4499 1526.8611 0.0000 0.0000 1734.4894 -7648.7883 294.6775 -9383.2777 -7530.9771 301.9561 272.0899 323.8986 30489.1736 73.2230 131.9063
ENERGY: 1200000 1.1375 1.7422 0.1770 0.0000 -10808.2839 1449.1110 0.0000 0.0000 1734.5803 -7621.5359 294.6929 -9356.1162 -7535.7922 301.2987 -177.7980 -142.1179 30588.4689 -12.2734 47.9806
ENERGY: 1500000 0.4732 2.1982 0.4074 0.0000 -10535.0623 1298.5697 0.0000 0.0000 1736.3975 -7497.0162 295.0017 -9233.4137 -7536.5516 300.3793 -1231.2271 -1113.8936 30847.7361 -31.9222 29.1271
TCL: Running FEP window  16: Lambda1 0.24999999999999967 Lambda2 0.19999999999999968 [dLambda -0.04999999999999999]
TCL: Setting parameter firsttimestep to 0
TCL: Setting parameter alchLambda to 0.24999999999999967
Info: NONBONDED TABLE R-SQUARED SPACING: 0.0625
Info: NONBONDED TABLE SIZE: 705 POINTS
TCL: Setting parameter alchLambda2 to 0.19999999999999968
Info: NONBONDED TABLE R-SQUARED SPACING: 0.0625
Info: NONBONDED TABLE SIZE: 705 POINTS
TCL: Running for 1500000 steps
ETITLE: TS BOND ANGLE DIHED IMPRP ELECT VDW BOUNDARY MISC KINETIC TOTAL TEMP POTENTIAL TOTALAVG TEMPAVG PRESSURE GPRESSURE VOLUME PRESSAVG GPRESSAVG
ENERGY: 0 0.4732 2.1982 0.4074 0.0000 -10535.0631 1298.6854 0.0000 0.0000 1735.5240 -7497.7749 294.8533 -9233.2989 -7497.7749 294.8533 -1187.7443 -1115.9915 30847.7361 -1187.7443 -1115.9915
ENERGY: 300000 0.4684 3.5938 1.6088 0.0000 -10791.4316 1495.8148 0.0000 0.0000 1780.3768 -7509.5691 302.4734 -9289.9458 -7500.1230 300.8548 334.7180 384.4703 30432.0874 -140.4909 -92.9846
ENERGY: 600000 2.4668 1.4494 0.7407 0.0000 -10707.2435 1419.3477 0.0000 0.0000 1768.2991 -7514.9398 300.4215 -9283.2389 -7496.4822 301.8724 72.1944 169.7930 29843.8770 -119.1687 -65.4899
ENERGY: 900000 1.3715 3.8007 0.3870 0.0000 -10907.6926 1540.0763 0.0000 0.0000 1746.8872 -7615.1700 296.7838 -9362.0572 -7504.9272 301.9949 736.7125 822.0635 29787.4182 -105.5789 -44.5129
ENERGY: 1200000 0.7557 3.6144 0.4198 0.0000 -10815.0967 1527.3689 0.0000 0.0000 1744.5179 -7538.4200 296.3813 -9282.9378 -7494.9837 302.0872 547.9180 614.8667 30429.2577 -97.0364 -40.0755
ENERGY: 1500000 0.6169 3.0258 0.7334 0.0000 -10732.3607 1433.9556 0.0000 0.0000 1756.4301 -7537.5989 298.4051 -9294.0290 -7496.9593 301.2111 -226.7166 -186.1340 30452.5080 -126.5316 -67.2775
TCL: Running FEP window  17: Lambda1 0.19999999999999968 Lambda2 0.1499999999999997 [dLambda -0.04999999999999999]
TCL: Setting parameter firsttimestep to 0
TCL: Setting parameter alchLambda to 0.19999999999999968
Info: NONBONDED TABLE R-SQUARED SPACING: 0.0625
Info: NONBONDED TABLE SIZE: 705 POINTS
TCL: Setting parameter alchLambda2 to 0.1499999999999997
Info: NONBONDED TABLE R-SQUARED SPACING: 0.0625
Info: NONBONDED TABLE SIZE: 705 POINTS
TCL: Running for 1500000 steps
ETITLE: TS BOND ANGLE DIHED IMPRP ELECT VDW BOUNDARY MISC KINETIC TOTAL TEMP POTENTIAL TOTALAVG TEMPAVG PRESSURE GPRESSURE VOLUME PRESSAVG GPRESSAVG
ENERGY: 0 0.6169 3.0258 0.7334 0.0000 -10732.3583 1434.1230 0.0000 0.0000 1755.5839 -7538.2752 298.2613 -9293.8591 -7538.2752 298.2613 -274.1718 -186.5827 30452.5080 -274.1718 -186.5827
ENERGY: 300000 0.8187 7.2278 2.2149 0.0000 -10653.8243 1400.4888 0.0000 0.0000 1811.1525 -7431.9217 307.7020 -9243.0742 -7495.9584 302.4915 -318.7467 -259.1071 30632.0232 -185.6200 -122.1715
ENERGY: 600000 0.3601 0.8498 0.9688 0.0000 -10817.1158 1502.4877 0.0000 0.0000 1789.7456 -7522.7037 304.0651 -9312.4494 -7523.4118 302.8290 74.9025 102.4801 30823.1028 -155.2656 -102.9611
ENERGY: 900000 0.6811 6.3480 0.2561 0.0000 -10670.9435 1402.9810 0.0000 0.0000 1794.0577 -7466.6195 304.7977 -9260.6772 -7508.3031 303.4560 -475.5858 -388.5750 30918.9162 -76.6796 -18.5385
ENERGY: 1200000 0.6072 1.8115 2.4011 0.0000 -10779.9587 1436.4381 0.0000 0.0000 1798.8785 -7539.8222 305.6168 -9338.7007 -7527.1711 301.8878 -184.7297 -137.6295 30486.0113 -62.0352 7.2866
ENERGY: 1500000 1.5225 2.0946 0.8891 0.0000 -10625.1931 1354.2551 0.0000 0.0000 1724.7191 -7541.7127 293.0176 -9266.4318 -7529.9070 301.0441 -713.1975 -663.2391 30722.7088 -67.8067 -2.3188
TCL: Running FEP window  18: Lambda1 0.1499999999999997 Lambda2 0.09999999999999969 [dLambda -0.05 ]
TCL: Setting parameter firsttimestep to 0
TCL: Setting parameter alchLambda to 0.1499999999999997
Info: NONBONDED TABLE R-SQUARED SPACING: 0.0625
Info: NONBONDED TABLE SIZE: 705 POINTS
TCL: Setting parameter alchLambda2 to 0.09999999999999969
Info: NONBONDED TABLE R-SQUARED SPACING: 0.0625
Info: NONBONDED TABLE SIZE: 705 POINTS
TCL: Running for 1500000 steps
ETITLE: TS BOND ANGLE DIHED IMPRP ELECT VDW BOUNDARY MISC KINETIC TOTAL TEMP POTENTIAL TOTALAVG TEMPAVG PRESSURE GPRESSURE VOLUME PRESSAVG GPRESSAVG
ENERGY: 0 1.5225 2.0946 0.8891 0.0000 -10625.1922 1354.4824 0.0000 0.0000 1723.8007 -7542.4030 292.8616 -9266.2037 -7542.4030 292.8616 -745.9784 -661.1732 30722.7088 -745.9784 -661.1732
ENERGY: 300000 0.4626 2.7607 0.6634 0.0000 -10637.1110 1375.2782 0.0000 0.0000 1733.6144 -7524.3318 294.5288 -9257.9461 -7551.8626 293.9923 -510.0597 -439.1317 30353.0952 -461.1264 -367.5771
ENERGY: 600000 1.2414 1.6669 1.6301 0.0000 -10763.1488 1439.7531 0.0000 0.0000 1742.6198 -7576.2375 296.0588 -9318.8573 -7558.2902 295.4239 -80.7548 -83.3393 30535.1446 -319.2891 -246.3507
ENERGY: 900000 0.9917 2.3622 0.8087 0.0000 -10777.6033 1470.8168 0.0000 0.0000 1782.8116 -7519.8123 302.8871 -9302.6240 -7542.4570 297.1604 23.6133 116.8748 30366.6228 -242.0916 -171.9882
ENERGY: 1200000 0.5344 2.9736 0.4121 0.0000 -10825.6019 1391.6430 0.0000 0.0000 1737.8506 -7692.1882 295.2485 -9430.0388 -7551.3912 297.0068 -994.8560 -981.6535 30752.2505 -292.0650 -232.1430
ENERGY: 1500000 0.5134 0.8610 0.2605 0.0000 -10821.8469 1492.3461 0.0000 0.0000 1824.9589 -7502.9070 310.0476 -9327.8659 -7549.2546 297.8108 432.9662 524.4935 30181.9204 -335.3474 -277.3024
TCL: Running FEP window  19: Lambda1 0.09999999999999969 Lambda2 0.049999999999999684 [dLambda -0.05 ]
TCL: Setting parameter firsttimestep to 0
TCL: Setting parameter alchLambda to 0.09999999999999969
Info: NONBONDED TABLE R-SQUARED SPACING: 0.0625
Info: NONBONDED TABLE SIZE: 705 POINTS
TCL: Setting parameter alchLambda2 to 0.049999999999999684
Info: NONBONDED TABLE R-SQUARED SPACING: 0.0625
Info: NONBONDED TABLE SIZE: 705 POINTS
TCL: Running for 1500000 steps
ETITLE: TS BOND ANGLE DIHED IMPRP ELECT VDW BOUNDARY MISC KINETIC TOTAL TEMP POTENTIAL TOTALAVG TEMPAVG PRESSURE GPRESSURE VOLUME PRESSAVG GPRESSAVG
ENERGY: 0 0.5134 0.8610 0.2605 0.0000 -10821.8474 1492.5168 0.0000 0.0000 1824.0907 -7503.6051 309.9001 -9327.6957 -7503.6051 309.9001 432.7340 520.0315 30181.9204 432.7340 520.0315
ENERGY: 300000 0.8588 2.6024 2.5303 0.0000 -10784.0633 1451.6577 0.0000 0.0000 1756.6661 -7569.7479 298.4452 -9326.4140 -7521.6190 304.5189 232.2371 307.3539 29722.2166 75.9029 149.0468
ENERGY: 600000 0.5686 3.1462 0.9496 0.0000 -10711.9261 1432.1208 0.0000 0.0000 1760.2596 -7514.8812 299.0557 -9275.1409 -7527.0815 302.7728 -92.4520 -37.7603 30558.4177 129.9553 188.8550
ENERGY: 900000 0.6951 2.1367 0.0250 0.0000 -10668.6762 1392.9221 0.0000 0.0000 1775.6403 -7497.2570 301.6688 -9272.8974 -7516.0618 302.5874 -542.3848 -423.0742 30636.4989 -21.0323 47.3522
ENERGY: 1200000 1.1982 2.5798 1.1043 0.0000 -10663.9715 1430.0712 0.0000 0.0000 1785.0154 -7444.0026 303.2615 -9229.0181 -7520.6361 301.6141 -12.9375 24.8706 30489.8010 -60.7680 -0.3135
ENERGY: 1500000 2.5199 3.9207 0.1635 0.0000 -10693.7303 1400.4360 0.0000 0.0000 1789.4767 -7497.2137 304.0195 -9286.6903 -7520.8801 301.6880 -252.8290 -166.3291 30059.1788 -160.9677 -98.8927
TCL: Running FEP window  20: Lambda1 0.049999999999999684 Lambda2 0.0    [dLambda -0.049999999999999684]
TCL: Setting parameter firsttimestep to 0
TCL: Setting parameter alchLambda to 0.049999999999999684
Info: NONBONDED TABLE R-SQUARED SPACING: 0.0625
Info: NONBONDED TABLE SIZE: 705 POINTS
TCL: Setting parameter alchLambda2 to 0.0
Info: NONBONDED TABLE R-SQUARED SPACING: 0.0625
Info: NONBONDED TABLE SIZE: 705 POINTS
TCL: Running for 1500000 steps
ETITLE: TS BOND ANGLE DIHED IMPRP ELECT VDW BOUNDARY MISC KINETIC TOTAL TEMP POTENTIAL TOTALAVG TEMPAVG PRESSURE GPRESSURE VOLUME PRESSAVG GPRESSAVG
ENERGY: 0 2.5199 3.9207 0.1635 0.0000 -10693.7302 1400.6956 0.0000 0.0000 1788.6367 -7497.7937 303.8768 -9286.4305 -7497.7937 303.8768 -252.8569 -163.2421 30059.1788 -252.8569 -163.2421
ENERGY: 300000 2.9636 3.2820 0.5731 0.0000 -10716.5958 1454.1413 0.0000 0.0000 1823.9305 -7431.7053 309.8729 -9255.6359 -7490.9912 304.2196 285.4878 389.9962 29863.4340 120.1496 184.4981
ENERGY: 600000 3.9515 2.6935 0.0595 0.0000 -10739.9839 1413.3844 0.0000 0.0000 1745.9285 -7573.9664 296.6209 -9319.8949 -7525.3885 301.4937 -670.7827 -598.1857 30682.1084 -22.9324 52.6392
ENERGY: 900000 0.3910 2.5474 0.5231 0.0000 -10670.0899 1361.2730 0.0000 0.0000 1775.4037 -7529.9517 301.6286 -9305.3554 -7529.4060 301.1336 -761.5276 -682.7375 30579.6057 -106.6118 -34.4784
ENERGY: 1200000 0.1092 2.3463 0.0601 0.0000 -10799.5016 1440.9328 0.0000 0.0000 1748.4910 -7607.5621 297.0563 -9356.0531 -7535.5476 301.3692 -140.6953 -29.5287 30112.2452 -41.5439 25.7246
ENERGY: 1500000 0.2583 3.4156 1.5970 0.0000 -10845.0718 1512.3694 0.0000 0.0000 1807.3011 -7520.1303 307.0477 -9327.4314 -7541.6419 301.8165 568.7279 651.6901 30048.6642 -2.2059 62.9019
TCL: Exiting due to exit command.
