Info: SIMULATION PARAMETERS:
Info: TIMESTEP               2
Info: NUMBER OF STEPS        0
Info: STEPS PER CYCLE        10
Info: PERIODIC CELL BASIS 1  31.7453 0 0
Info: PERIODIC CELL BASIS 2  0 30.1621 0
Info: PERIODIC CELL BASIS 3  0 0 32.0187
Info: PERIODIC CELL CENTER   0 0 0
Info: WRAPPING WATERS AROUND PERIODIC BOUNDARIES ON OUTPUT.
Info: WRAPPING ALL CLUSTERS AROUND PERIODIC BOUNDARIES ON OUTPUT.
Info: FIRST LDB TIMESTEP     50
Info: LAST LDB TIMESTEP     -1
Info: HOM BACKGROUND SCALING 1
Info: PME BACKGROUND SCALING 1
Info: MIN ATOMS PER PATCH    40
Info: EMPTY PATCH LOAD       40 ATOMS
Info: VELOCITY FILE          mobley_852937_equil.vel
Info: CENTER OF MASS MOVING INITIALLY? NO
Info: DIELECTRIC             1
Info: EXCLUDE                SCALED ONE-FOUR
Info: 1-4 ELECTROSTATICS SCALED BY 0.833333
Info: MODIFIED 1-4 VDW PARAMETERS WILL BE USED
Info: DCD FILENAME           mobley_852937_prod.dcd
Info: DCD FREQUENCY          100000
Info: DCD FIRST STEP         100000
Info: DCD FILE WILL CONTAIN UNIT CELL DATA
Info: XST FILENAME           mobley_852937_prod.xst
Info: XST FREQUENCY          100000
Info: NO VELOCITY DCD OUTPUT
Info: NO FORCE DCD OUTPUT
Info: OUTPUT FILENAME        mobley_852937_prod
Info: BINARY OUTPUT FILES WILL BE USED
Info: RESTART FILENAME       mobley_852937_prod.restart
Info: RESTART FREQUENCY      100000
Info: BINARY RESTART FILES WILL BE USED
Info: CUTOFF                 9
Info: PAIRLIST DISTANCE      11
Info: PAIRLIST SHRINK RATE   0.01
Info: PAIRLIST GROW RATE     0.01
Info: PAIRLIST TRIGGER       0.3
Info: PAIRLISTS PER CYCLE    2
Info: PAIRLISTS ENABLED
Info: MARGIN                 2
Info: HYDROGEN GROUP CUTOFF  2.5
Info: PATCH DIMENSION        15.5
Info: ENERGY OUTPUT STEPS    100000
Info: ENERGY EVALUATION STEPS    100000
Info: OUTPUT ENERGY PRECISION 4
Info: CROSSTERM ENERGY INCLUDED IN DIHEDRAL
Info: TIMING OUTPUT STEPS    1000000
Info: PRESSURE OUTPUT STEPS  100000
Info: ALCHEMICAL FEP ON
Info: FEP CURRENT LAMBDA VALUE     0
Info: FEP COMPARISON LAMBDA VALUE  0.05
Info: FEP INTRA-ALCHEMICAL NON-BONDED INTERACTIONS WILL BE RETAINED
Info: FEP INTRA-ALCHEMICAL BONDED INTERACTIONS WILL BE RETAINED
Info: FEP VDW SHIFTING COEFFICIENT 5
Info: FEP ELEC. ACTIVE FOR ANNIHILATED PARTICLES BETWEEN LAMBDA = 0 AND LAMBDA = 0.5
Info: FEP ELEC. ACTIVE FOR EXNIHILATED PARTICLES BETWEEN LAMBDA = 0.5 AND LAMBDA = 1
Info: FEP VDW ACTIVE FOR ANNIHILATED PARTICLES BETWEEN LAMBDA = 0 AND LAMBDA = 1
Info: FEP VDW ACTIVE FOR EXNIHILATED PARTICLES BETWEEN LAMBDA = 0 AND LAMBDA = 1
Info: FEP BOND ACTIVE FOR ANNIHILATED PARTICLES BETWEEN LAMBDA = 1 AND LAMBDA = 1
Info: FEP BOND ACTIVE FOR EXNIHILATED PARTICLES BETWEEN LAMBDA = 0 AND LAMBDA = 0
Info: LANGEVIN DYNAMICS ACTIVE
Info: LANGEVIN TEMPERATURE   300
Info: LANGEVIN USING BBK INTEGRATOR
Info: LANGEVIN DAMPING COEFFICIENT IS 1 INVERSE PS
Info: LANGEVIN DYNAMICS APPLIED TO HYDROGENS
Info: LANGEVIN PISTON PRESSURE CONTROL ACTIVE
Info:        TARGET PRESSURE IS 1.01325 BAR
Info:     OSCILLATION PERIOD IS 50 FS
Info:             DECAY TIME IS 25 FS
Info:     PISTON TEMPERATURE IS 300 K
Info:       PRESSURE CONTROL IS GROUP-BASED
Info:    INITIAL STRAIN RATE IS 0.000381704 0.000381704 0.000381704
Info:       CELL FLUCTUATION IS ISOTROPIC
Info: PARTICLE MESH EWALD (PME) ACTIVE
Info: PME TOLERANCE               1e-06
Info: PME EWALD COEFFICIENT       0.348832
Info: PME INTERPOLATION ORDER     4
Info: PME GRID DIMENSIONS         32 32 36
Info: PME MAXIMUM GRID SPACING    1
Info: PME CALCULATION WILL BE PERFORMED ON GPU
Info: FULL ELECTROSTATIC EVALUATION FREQUENCY      2
Info: USING VERLET I (r-RESPA) MTS SCHEME.
Info: C1 SPLITTING OF LONG RANGE ELECTROSTATICS
Info: PLACING ATOMS IN PATCHES BY HYDROGEN GROUPS
Info: RIGID BONDS TO HYDROGEN : ALL
Info:         ERROR TOLERANCE : 1e-08
Info:          MAX ITERATIONS : 100
Info: RIGID WATER USING SETTLE ALGORITHM
Info: RANDOM NUMBER SEED     1743551555
Info: USE HYDROGEN BONDS?    NO
Info: Using AMBER format force field!
Info: AMBER PARM FILE        mobley_852937.prmtop
Info: COORDINATE PDB         mobley_852937.pdb
Info: Exclusions will be read from PARM file!
Info: SCNB (VDW SCALING)     2
Info: USING ARITHMETIC MEAN TO COMBINE L-J SIGMA PARAMETERS
Info: BINARY COORDINATES     mobley_852937_equil.coor
Info: SUMMARY OF PARAMETERS:
Info: 7 BONDS
Info: 5 ANGLES
Info:   5 HARMONIC
Info:   0 COSINE-BASED
Info: 3 DIHEDRAL
Info: 0 IMPROPER
Info: 0 CROSSTERM
Info: 0 VDW
Info: 21 VDW_PAIRS
Info: 0 NBTHOLE_PAIRS
Info: To read alchdata from file: mobley_852937.pdb
Info: To read alchflag data from column: 5
Info: STRUCTURE SUMMARY:
Info: 2926 ATOMS
Info: 2926 BONDS
Info: 19 ANGLES
Info: 32 DIHEDRALS
Info: 0 IMPROPERS
Info: 0 CROSSTERMS
Info: 2968 EXCLUSIONS
Info: 2918 RIGID BONDS
Info: ALCH: 0 ATOMS TO DISAPPEAR IN FINAL STATE
Info: ALCH: 13 ATOMS TO APPEAR IN FINAL STATE
Info: 5860 DEGREES OF FREEDOM
Info: 979 HYDROGEN GROUPS
Info: 3 ATOMS IN LARGEST HYDROGEN GROUP
Info: 979 MIGRATION GROUPS
Info: 3 ATOMS IN LARGEST MIGRATION GROUP
Info: TOTAL MASS = 17605.6 amu
Info: TOTAL CHARGE = 0.000199996 e
Info: MASS DENSITY = 0.953601 g/cm^3
Info: ATOM DENSITY = 0.09544 atoms/A^3
Info: ADDED 0 IMPLICIT EXCLUSIONS
Info: NONBONDED TABLE R-SQUARED SPACING: 0.0625
Info: NONBONDED TABLE SIZE: 705 POINTS
Info: REMOVING COM VELOCITY -0.110298 0.159348 0.0987314
Info: Use 3D box decompostion in PME FFT.
Info: Updated CUDA force table with 4096 elements.
Info: Updated CUDA LJ table with 6 x 6 elements.
Info: Found 15 unique exclusion lists needing 28 bytes
TCL: Running for 1500000 steps
ETITLE: TS BOND ANGLE DIHED IMPRP ELECT VDW BOUNDARY MISC KINETIC TOTAL TEMP POTENTIAL TOTALAVG TEMPAVG PRESSURE GPRESSURE VOLUME PRESSAVG GPRESSAVG
ENERGY: 0 1.4376 2.9397 4.1977 0.0000 -10423.5290 1359.3510 0.0000 0.0000 1761.0355 -7294.5675 302.4551 -9055.6030 -7294.5675 302.4551 -457.4159 -381.0779 30658.0169 -457.4159 -381.0779
ENERGY: 300000 4.9370 5.7692 2.1800 0.0000 -10750.4684 1511.3930 0.0000 0.0000 1766.6811 -7459.5081 303.4247 -9226.1892 -7393.7139 300.4396 458.1307 511.0736 29748.3602 -345.3642 -286.6298
ENERGY: 600000 3.2228 3.3345 3.0739 0.0000 -10651.0256 1406.5256 0.0000 0.0000 1773.5085 -7461.3602 304.5973 -9234.8687 -7444.5092 299.5807 -190.6235 -143.4405 29514.4821 -381.8947 -324.6449
ENERGY: 900000 3.1039 6.1736 2.4030 0.0000 -10611.5599 1384.3118 0.0000 0.0000 1747.1837 -7468.3838 300.0761 -9215.5675 -7437.4594 298.0778 -345.4945 -256.9029 29619.9717 -362.7671 -307.9624
ENERGY: 1200000 2.2805 2.5612 3.5431 0.0000 -10617.2000 1415.6727 0.0000 0.0000 1752.0891 -7441.0533 300.9186 -9193.1424 -7430.8024 297.9766 -120.2593 -118.5546 29969.1043 -442.7812 -392.5709
ENERGY: 1500000 2.6072 4.1580 4.7716 0.0000 -10593.8925 1415.6458 0.0000 0.0000 1749.9283 -7416.7816 300.5474 -9166.7099 -7436.1706 297.2793 -193.2002 -133.7799 30112.8627 -373.8403 -320.2241
TCL: Running FEP window   2: Lambda1 0.05   Lambda2 0.1    [dLambda 0.05  ]
TCL: Setting parameter firsttimestep to 0
TCL: Setting parameter alchLambda to 0.05
Info: NONBONDED TABLE R-SQUARED SPACING: 0.0625
Info: NONBONDED TABLE SIZE: 705 POINTS
TCL: Setting parameter alchLambda2 to 0.1
Info: NONBONDED TABLE R-SQUARED SPACING: 0.0625
Info: NONBONDED TABLE SIZE: 705 POINTS
TCL: Running for 1500000 steps
ETITLE: TS BOND ANGLE DIHED IMPRP ELECT VDW BOUNDARY MISC KINETIC TOTAL TEMP POTENTIAL TOTALAVG TEMPAVG PRESSURE GPRESSURE VOLUME PRESSAVG GPRESSAVG
ENERGY: 0 2.6072 4.1580 4.7716 0.0000 -10593.8922 1417.5321 0.0000 0.0000 1749.0789 -7415.7443 300.4016 -9164.8233 -7415.7443 300.4016 -224.0458 -131.6378 30112.8627 -224.0458 -131.6378
ENERGY: 300000 2.6427 5.5373 1.9454 0.0000 -10648.4368 1472.4740 0.0000 0.0000 1742.6944 -7423.1430 299.3050 -9165.8373 -7401.7856 302.0461 351.4107 445.4092 29993.4559 122.7452 171.4272
ENERGY: 600000 3.7752 3.7738 2.8135 0.0000 -10672.6455 1447.2159 0.0000 0.0000 1792.2604 -7422.8067 307.8179 -9215.0671 -7394.4685 301.8891 120.4695 221.0885 30050.8493 149.9816 212.3608
ENERGY: 900000 5.0887 3.1163 1.6659 0.0000 -10550.7911 1396.5488 0.0000 0.0000 1706.1244 -7438.2470 293.0242 -9144.3714 -7403.5282 299.9828 -215.4001 -144.2330 30075.0413 121.9064 182.0736
ENERGY: 1200000 2.0228 2.1984 4.1270 0.0000 -10586.0060 1478.1017 0.0000 0.0000 1798.2085 -7301.3477 308.8395 -9099.5562 -7407.7997 299.7288 512.4411 573.9121 30502.9711 96.4606 153.8207
ENERGY: 1500000 2.1776 3.2458 3.9686 0.0000 -10458.7755 1280.9990 0.0000 0.0000 1753.8981 -7414.4865 301.2292 -9168.3845 -7416.2056 299.9035 -904.5704 -928.1851 29942.3953 4.4607 56.5914
TCL: Running FEP window   3: Lambda1 0.1    Lambda2 0.15000000000000002 [dLambda 0.05000000000000002]
TCL: Setting parameter firsttimestep to 0
TCL: Setting parameter alchLambda to 0.1
Info: NONBONDED TABLE R-SQUARED SPACING: 0.0625
Info: NONBONDED TABLE SIZE: 705 POINTS
TCL: Setting parameter alchLambda2 to 0.15000000000000002
Info: NONBONDED TABLE R-SQUARED SPACING: 0.0625
Info: NONBONDED TABLE SIZE: 705 POINTS
TCL: Running for 1500000 steps
ETITLE: TS BOND ANGLE DIHED IMPRP ELECT VDW BOUNDARY MISC KINETIC TOTAL TEMP POTENTIAL TOTALAVG TEMPAVG PRESSURE GPRESSURE VOLUME PRESSAVG GPRESSAVG
ENERGY: 0 2.1776 3.2458 3.9686 0.0000 -10458.7766 1283.8204 0.0000 0.0000 1753.0166 -7412.5475 301.0778 -9165.5641 -7412.5475 301.0778 -996.2988 -920.8953 29942.3953 -996.2988 -920.8953
ENERGY: 300000 1.4849 4.1961 2.8183 0.0000 -10820.8338 1543.4844 0.0000 0.0000 1769.3224 -7499.5276 303.8783 -9268.8501 -7445.2956 300.4541 980.2520 1057.3210 29260.0380 -32.6878 53.0294
ENERGY: 600000 1.6671 3.9073 3.6968 0.0000 -10566.1803 1428.4340 0.0000 0.0000 1772.3320 -7356.1432 304.3952 -9128.4751 -7426.3741 302.1136 189.4701 343.6174 29928.4083 45.6331 125.5745
ENERGY: 900000 2.0223 1.9548 1.6772 0.0000 -10573.3954 1414.3513 0.0000 0.0000 1840.6766 -7312.7132 316.1333 -9153.3898 -7413.3933 302.7993 -252.5454 -181.4641 30201.7566 -14.9565 54.6399
ENERGY: 1200000 1.3118 3.7385 2.7831 0.0000 -10740.3586 1472.8851 0.0000 0.0000 1764.9306 -7494.7095 303.1241 -9259.6401 -7423.5399 302.3408 -7.3503 85.3880 30012.0550 -93.3261 -15.5347
ENERGY: 1500000 3.9111 3.0309 1.6173 0.0000 -10509.7165 1363.0242 0.0000 0.0000 1769.3244 -7368.8086 303.8787 -9138.1330 -7417.1632 301.6696 -473.7095 -394.7671 30227.8669 -161.7715 -83.0727
TCL: Running FEP window   4: Lambda1 0.15000000000000002 Lambda2 0.2    [dLambda 0.04999999999999999]
TCL: Setting parameter firsttimestep to 0
TCL: Setting parameter alchLambda to 0.15000000000000002
Info: NONBONDED TABLE R-SQUARED SPACING: 0.0625
Info: NONBONDED TABLE SIZE: 705 POINTS
TCL: Setting parameter alchLambda2 to 0.2
Info: NONBONDED TABLE R-SQUARED SPACING: 0.0625
Info: NONBONDED TABLE SIZE: 705 POINTS
TCL: Running for 1500000 steps
ETITLE: TS BOND ANGLE DIHED IMPRP ELECT VDW BOUNDARY MISC KINETIC TOTAL TEMP POTENTIAL TOTALAVG TEMPAVG PRESSURE GPRESSURE VOLUME PRESSAVG GPRESSAVG
ENERGY: 0 3.9111 3.0309 1.6173 0.0000 -10509.7175 1363.6552 0.0000 0.0000 1768.4669 -7369.0360 303.7314 -9137.5030 -7369.0360 303.7314 -470.9330 -390.9386 30227.8669 -470.9330 -390.9386
ENERGY: 300000 1.5948 2.0171 6.0898 0.0000 -10530.9185 1404.9694 0.0000 0.0000 1777.8968 -7338.3506 305.3510 -9116.2474 -7386.3290 302.9033 79.7561 116.2364 30141.9544 -464.5533 -413.0636
ENERGY: 600000 5.8108 5.4920 1.3281 0.0000 -10674.3044 1430.9339 0.0000 0.0000 1812.9718 -7417.7678 311.3751 -9230.7397 -7409.1693 302.4316 34.0056 108.7044 29610.8620 -310.7366 -245.6404
ENERGY: 900000 4.6675 4.3493 2.4944 0.0000 -10594.9241 1467.3582 0.0000 0.0000 1785.2531 -7330.8016 306.6144 -9116.0547 -7402.9924 303.8249 250.9347 333.0184 30161.5409 -187.7649 -121.7444
ENERGY: 1200000 2.0552 4.9038 1.8891 0.0000 -10534.7353 1405.0313 0.0000 0.0000 1713.5250 -7407.3309 294.2952 -9120.8559 -7419.0407 301.7341 -122.7149 -59.6449 30098.3914 -171.7048 -108.1112
ENERGY: 1500000 2.1727 2.5741 2.8023 0.0000 -10600.4222 1370.1504 0.0000 0.0000 1727.5845 -7495.1382 296.7099 -9222.7227 -7417.8870 301.3946 -676.7495 -639.1664 30343.5549 -202.7041 -143.5575
TCL: Running FEP window   5: Lambda1 0.2    Lambda2 0.25   [dLambda 0.04999999999999999]
TCL: Setting parameter firsttimestep to 0
TCL: Setting parameter alchLambda to 0.2
Info: NONBONDED TABLE R-SQUARED SPACING: 0.0625
Info: NONBONDED TABLE SIZE: 705 POINTS
TCL: Setting parameter alchLambda2 to 0.25
Info: NONBONDED TABLE R-SQUARED SPACING: 0.0625
Info: NONBONDED TABLE SIZE: 705 POINTS
TCL: Running for 1500000 steps
ETITLE: TS BOND ANGLE DIHED IMPRP ELECT VDW BOUNDARY MISC KINETIC TOTAL TEMP POTENTIAL TOTALAVG TEMPAVG PRESSURE GPRESSURE VOLUME PRESSAVG GPRESSAVG
ENERGY: 0 2.1727 2.5741 2.8023 0.0000 -10600.4202 1369.6616 0.0000 0.0000 1726.6723 -7496.5371 296.5533 -9223.2094 -7496.5371 296.5533 -723.4136 -639.7086 30343.5549 -723.4136 -639.7086
ENERGY: 300000 2.0016 2.2492 3.4978 0.0000 -10590.0094 1348.8316 0.0000 0.0000 1739.9292 -7493.4999 298.8301 -9233.4292 -7464.6280 298.0886 -1158.5434 -1075.4905 30475.0041 -740.4347 -672.6067
ENERGY: 600000 2.1439 2.8144 3.9311 0.0000 -10544.4122 1368.0970 0.0000 0.0000 1761.4515 -7405.9743 302.5265 -9167.4258 -7446.1655 298.7556 -377.4471 -379.2704 30196.8313 -384.7665 -321.9027
ENERGY: 900000 2.6604 3.5270 4.8030 0.0000 -10623.1261 1422.9326 0.0000 0.0000 1763.3291 -7425.8741 302.8490 -9189.2032 -7455.6646 298.6706 -74.3696 -2.4466 30299.8196 -450.4626 -380.4408
ENERGY: 1200000 3.1094 5.2389 3.1780 0.0000 -10674.0034 1448.4121 0.0000 0.0000 1772.4276 -7441.6374 304.4117 -9214.0650 -7444.7345 299.8673 -262.9757 -209.5132 30433.5015 -440.2551 -367.8908
ENERGY: 1500000 3.7269 2.9578 1.3143 0.0000 -10637.2706 1475.7947 0.0000 0.0000 1739.7129 -7413.7640 298.7929 -9153.4769 -7439.0430 300.2253 353.2818 397.8371 30072.8162 -387.1318 -313.5884
TCL: Running FEP window   6: Lambda1 0.25   Lambda2 0.3    [dLambda 0.04999999999999999]
TCL: Setting parameter firsttimestep to 0
TCL: Setting parameter alchLambda to 0.25
Info: NONBONDED TABLE R-SQUARED SPACING: 0.0625
Info: NONBONDED TABLE SIZE: 705 POINTS
TCL: Setting parameter alchLambda2 to 0.3
Info: NONBONDED TABLE R-SQUARED SPACING: 0.0625
Info: NONBONDED TABLE SIZE: 705 POINTS
TCL: Running for 1500000 steps
ETITLE: TS BOND ANGLE DIHED IMPRP ELECT VDW BOUNDARY MISC KINETIC TOTAL TEMP POTENTIAL TOTALAVG TEMPAVG PRESSURE GPRESSURE VOLUME PRESSAVG GPRESSAVG
ENERGY: 0 3.7269 2.9578 1.3143 0.0000 -10637.2699 1476.5890 0.0000 0.0000 1738.8421 -7413.8398 298.6434 -9152.6819 -7413.8398 298.6434 316.2741 404.4951 30072.8162 316.2741 404.4951
ENERGY: 300000 3.2863 3.0394 1.7470 0.0000 -10745.5235 1491.9084 0.0000 0.0000 1769.1370 -7476.4053 303.8465 -9245.5423 -7436.6565 301.2390 47.5764 174.9833 30316.5366 -114.9820 -38.3601
ENERGY: 600000 2.7393 3.7012 3.3010 0.0000 -10512.1068 1346.9357 0.0000 0.0000 1757.3030 -7398.1266 301.8140 -9155.4297 -7426.9926 301.6659 -349.0390 -328.4199 29741.2055 -47.9231 15.9195
ENERGY: 900000 1.2239 3.2632 4.5233 0.0000 -10779.1653 1558.0351 0.0000 0.0000 1723.5406 -7488.5793 296.0154 -9212.1199 -7444.8670 300.0867 965.0307 1046.9380 29858.2579 61.9246 121.5873
ENERGY: 1200000 1.1624 2.9700 2.7565 0.0000 -10434.5841 1302.6679 0.0000 0.0000 1735.5727 -7389.4546 298.0819 -9125.0273 -7428.0356 300.0617 -1044.2242 -1024.0179 30517.3343 -20.1128 41.1717
ENERGY: 1500000 4.8097 4.2447 4.9108 0.0000 -10606.4323 1419.9816 0.0000 0.0000 1771.0743 -7401.4111 304.1792 -9172.4855 -7422.6027 300.5846 -94.9866 -96.4774 30150.1430 -16.2563 43.9196
TCL: Running FEP window   7: Lambda1 0.3    Lambda2 0.35   [dLambda 0.04999999999999999]
TCL: Setting parameter firsttimestep to 0
TCL: Setting parameter alchLambda to 0.3
Info: NONBONDED TABLE R-SQUARED SPACING: 0.0625
Info: NONBONDED TABLE SIZE: 705 POINTS
TCL: Setting parameter alchLambda2 to 0.35
Info: NONBONDED TABLE R-SQUARED SPACING: 0.0625
Info: NONBONDED TABLE SIZE: 705 POINTS
TCL: Running for 1500000 steps
ETITLE: TS BOND ANGLE DIHED IMPRP ELECT VDW BOUNDARY MISC KINETIC TOTAL TEMP POTENTIAL TOTALAVG TEMPAVG PRESSURE GPRESSURE VOLUME PRESSAVG GPRESSAVG
ENERGY: 0 4.8097 4.2447 4.9108 0.0000 -10606.4325 1420.5540 0.0000 0.0000 1770.2112 -7401.7021 304.0310 -9171.9133 -7401.7021 304.0310 -187.3770 -93.6167 30150.1430 -187.3770 -93.6167
ENERGY: 300000 2.6790 2.8608 3.1416 0.0000 -10524.6040 1404.2354 0.0000 0.0000 1711.9858 -7399.7014 294.0309 -9111.6872 -7426.9740 296.5254 -127.3275 -65.7309 30117.5084 -126.3879 -50.9052
ENERGY: 600000 2.3515 2.4854 1.6231 0.0000 -10648.3934 1443.5985 0.0000 0.0000 1742.8624 -7455.4725 299.3339 -9198.3349 -7427.8769 298.4312 46.1769 95.8246 30022.1384 -85.6101 -4.5329
ENERGY: 900000 2.2743 1.8232 2.1332 0.0000 -10493.2520 1262.0407 0.0000 0.0000 1792.2678 -7432.7127 307.8192 -9224.9805 -7424.1897 298.8510 -1516.3029 -1432.8363 30279.9588 -34.0685 44.6922
ENERGY: 1200000 3.7253 2.0412 4.8939 0.0000 -10638.5309 1397.2122 0.0000 0.0000 1716.0081 -7514.6501 294.7217 -9230.6583 -7429.0956 298.4752 -701.9294 -587.9159 30270.8127 -131.0020 -55.9942
ENERGY: 1500000 0.9304 3.4051 4.4669 0.0000 -10480.3924 1362.2357 0.0000 0.0000 1733.4183 -7375.9360 297.7119 -9109.3543 -7424.5060 298.9783 -529.9709 -454.5340 30588.8537 -130.7590 -59.5020
TCL: Running FEP window   8: Lambda1 0.35   Lambda2 0.39999999999999997 [dLambda 0.04999999999999999]
TCL: Setting parameter firsttimestep to 0
TCL: Setting parameter alchLambda to 0.35
Info: NONBONDED TABLE R-SQUARED SPACING: 0.0625
Info: NONBONDED TABLE SIZE: 705 POINTS
TCL: Setting parameter alchLambda2 to 0.39999999999999997
Info: NONBONDED TABLE R-SQUARED SPACING: 0.0625
Info: NONBONDED TABLE SIZE: 705 POINTS
TCL: Running for 1500000 steps
ETITLE: TS BOND ANGLE DIHED IMPRP ELECT VDW BOUNDARY MISC KINETIC TOTAL TEMP POTENTIAL TOTALAVG TEMPAVG PRESSURE GPRESSURE VOLUME PRESSAVG GPRESSAVG
ENERGY: 0 0.9304 3.4051 4.4669 0.0000 -10480.3921 1362.0922 0.0000 0.0000 1732.5454 -7376.9521 297.5620 -9109.4975 -7376.9521 297.5620 -535.1956 -451.2865 30588.8537 -535.1956 -451.2865
ENERGY: 300000 2.6166 4.2123 2.0703 0.0000 -10717.1880 1511.4946 0.0000 0.0000 1722.8485 -7473.9457 295.8965 -9196.7942 -7404.5327 301.0926 487.6513 597.9148 29980.2156 -39.1303 31.6078
ENERGY: 600000 2.3955 5.1948 2.4362 0.0000 -10740.0671 1472.3354 0.0000 0.0000 1752.7292 -7504.9761 301.0285 -9257.7052 -7424.4855 302.6147 171.5108 216.1307 29807.2158 42.1365 94.7399
ENERGY: 900000 1.0425 3.8521 2.7439 0.0000 -10743.2780 1574.7629 0.0000 0.0000 1723.0737 -7437.8030 295.9352 -9160.8766 -7432.7170 300.3705 1205.8975 1288.1753 29876.5349 120.5499 175.4463
ENERGY: 1200000 1.1772 2.5813 2.9005 0.0000 -10697.4871 1514.3543 0.0000 0.0000 1708.3646 -7468.1092 293.4089 -9176.4738 -7442.7818 300.0443 731.3965 782.1982 29850.9220 97.3337 154.3290
ENERGY: 1500000 2.1811 3.7546 3.3044 0.0000 -10678.9060 1489.5112 0.0000 0.0000 1743.8216 -7436.3331 299.4986 -9180.1547 -7440.6668 299.6073 400.1125 455.8114 29983.4357 55.4900 107.6410
TCL: Running FEP window   9: Lambda1 0.39999999999999997 Lambda2 0.44999999999999996 [dLambda 0.04999999999999999]
TCL: Setting parameter firsttimestep to 0
TCL: Setting parameter alchLambda to 0.39999999999999997
Info: NONBONDED TABLE R-SQUARED SPACING: 0.0625
Info: NONBONDED TABLE SIZE: 705 POINTS
TCL: Setting parameter alchLambda2 to 0.44999999999999996
Info: NONBONDED TABLE R-SQUARED SPACING: 0.0625
Info: NONBONDED TABLE SIZE: 705 POINTS
TCL: Running for 1500000 steps
ETITLE: TS BOND ANGLE DIHED IMPRP ELECT VDW BOUNDARY MISC KINETIC TOTAL TEMP POTENTIAL TOTALAVG TEMPAVG PRESSURE GPRESSURE VOLUME PRESSAVG GPRESSAVG
ENERGY: 0 2.1811 3.7546 3.3044 0.0000 -10678.9064 1489.1322 0.0000 0.0000 1742.9324 -7437.6017 299.3459 -9180.5341 -7437.6017 299.3459 358.0615 457.2459 29983.4357 358.0615 457.2459
ENERGY: 300000 1.0218 4.9080 8.1322 0.0000 -10458.0415 1343.6369 0.0000 0.0000 1747.4621 -7352.8806 300.1239 -9100.3427 -7436.1853 295.0771 -609.6692 -588.9476 30556.8212 -134.6960 -74.5093
ENERGY: 600000 2.0781 1.7009 3.4646 0.0000 -10556.7881 1406.1762 0.0000 0.0000 1755.5558 -7387.8125 301.5139 -9143.3683 -7428.8988 297.5544 -156.1277 -42.2057 30280.4914 -238.0638 -174.8684
ENERGY: 900000 2.0538 3.7039 3.5814 0.0000 -10499.7661 1339.3640 0.0000 0.0000 1822.2393 -7328.8238 312.9667 -9151.0630 -7423.7947 300.2150 -664.6395 -716.4394 30445.7742 -133.2852 -82.4496
ENERGY: 1200000 4.3916 3.5297 2.7641 0.0000 -10584.8722 1404.7054 0.0000 0.0000 1721.9960 -7447.4854 295.7501 -9169.4814 -7430.3169 299.1201 -203.2044 -80.1266 30236.2344 -104.1345 -45.1002
ENERGY: 1500000 4.4679 3.7072 3.6814 0.0000 -10701.9514 1439.3149 0.0000 0.0000 1688.8649 -7561.9151 290.0599 -9250.7800 -7440.5770 298.8390 -150.5728 -144.8628 29705.1506 -106.9150 -52.0263
TCL: Running FEP window  10: Lambda1 0.44999999999999996 Lambda2 0.49999999999999994 [dLambda 0.04999999999999999]
TCL: Setting parameter firsttimestep to 0
TCL: Setting parameter alchLambda to 0.44999999999999996
Info: NONBONDED TABLE R-SQUARED SPACING: 0.0625
Info: NONBONDED TABLE SIZE: 705 POINTS
TCL: Setting parameter alchLambda2 to 0.49999999999999994
Info: NONBONDED TABLE R-SQUARED SPACING: 0.0625
Info: NONBONDED TABLE SIZE: 705 POINTS
TCL: Running for 1500000 steps
ETITLE: TS BOND ANGLE DIHED IMPRP ELECT VDW BOUNDARY MISC KINETIC TOTAL TEMP POTENTIAL TOTALAVG TEMPAVG PRESSURE GPRESSURE VOLUME PRESSAVG GPRESSAVG
ENERGY: 0 4.4679 3.7072 3.6814 0.0000 -10701.9516 1438.9699 0.0000 0.0000 1687.9567 -7563.1685 289.9039 -9251.1252 -7563.1685 289.9039 -208.0326 -138.4068 29705.1506 -208.0326 -138.4068
ENERGY: 300000 3.9311 4.6624 3.2042 0.0000 -10520.2320 1400.2537 0.0000 0.0000 1742.7560 -7365.4245 299.3156 -9108.1805 -7439.0226 298.5376 39.1773 67.9038 30027.7995 -274.8692 -233.0422
ENERGY: 600000 2.7650 4.9193 6.6435 0.0000 -10574.4065 1386.1678 0.0000 0.0000 1774.7555 -7399.1554 304.8115 -9173.9109 -7423.8477 299.4359 -480.3392 -385.8172 30313.4437 -217.4566 -164.3250
ENERGY: 900000 1.6628 2.3212 3.8998 0.0000 -10671.8500 1453.4339 0.0000 0.0000 1760.4102 -7450.1221 302.3477 -9210.5323 -7423.1147 300.5567 45.9761 102.0420 30032.5272 -120.6076 -57.0854
ENERGY: 1200000 6.7390 3.5775 2.9176 0.0000 -10625.6058 1452.7638 0.0000 0.0000 1767.1354 -7392.4725 303.5027 -9159.6079 -7416.9982 301.5405 -45.9148 0.1836 30387.1336 -156.2856 -94.6278
ENERGY: 1500000 3.8506 2.3350 4.8908 0.0000 -10697.4932 1429.4877 0.0000 0.0000 1790.4167 -7466.5123 307.5013 -9256.9290 -7418.5124 301.9819 -327.5157 -278.1299 29846.9527 -186.6628 -128.0732
TCL: Running FEP window  11: Lambda1 0.49999999999999994 Lambda2 0.5499999999999999 [dLambda 0.04999999999999999]
TCL: Setting parameter firsttimestep to 0
TCL: Setting parameter alchLambda to 0.49999999999999994
Info: NONBONDED TABLE R-SQUARED SPACING: 0.0625
Info: NONBONDED TABLE SIZE: 705 POINTS
TCL: Setting parameter alchLambda2 to 0.5499999999999999
Info: NONBONDED TABLE R-SQUARED SPACING: 0.0625
Info: NONBONDED TABLE SIZE: 705 POINTS
TCL: Running for 1500000 steps
ETITLE: TS BOND ANGLE DIHED IMPRP ELECT VDW BOUNDARY MISC KINETIC TOTAL TEMP POTENTIAL TOTALAVG TEMPAVG PRESSURE GPRESSURE VOLUME PRESSAVG GPRESSAVG
ENERGY: 0 3.8506 2.3350 4.8908 0.0000 -10697.4928 1429.9211 0.0000 0.0000 1789.5512 -7466.9440 307.3526 -9256.4952 -7466.9440 307.3526 -353.0525 -270.4825 29846.9527 -353.0525 -270.4825
ENERGY: 300000 3.5708 3.1093 3.4766 0.0000 -10447.4992 1369.5982 0.0000 0.0000 1761.9382 -7305.8060 302.6101 -9067.7442 -7397.9152 302.3026 -236.2977 -189.3256 30554.1533 -328.4638 -275.5411
ENERGY: 600000 2.4464 5.0240 1.7404 0.0000 -10710.2004 1503.4001 0.0000 0.0000 1774.0994 -7423.4901 304.6988 -9197.5895 -7405.3143 304.4303 492.3945 535.4950 29827.8191 -94.8005 -32.0229
ENERGY: 900000 1.7016 2.1190 6.9430 0.0000 -10460.9759 1361.0117 0.0000 0.0000 1723.8763 -7365.3243 296.0730 -9089.2006 -7407.5245 302.6462 -253.7745 -178.7453 30139.5178 -228.4522 -164.5011
ENERGY: 1200000 3.5736 1.8555 3.5537 0.0000 -10563.5399 1362.9461 0.0000 0.0000 1768.3522 -7423.2588 303.7117 -9191.6110 -7404.5487 303.1178 -533.2352 -437.6189 29990.5665 -236.2616 -171.6011
ENERGY: 1500000 2.1773 1.8617 1.1042 0.0000 -10632.7412 1427.6420 0.0000 0.0000 1746.4651 -7453.4910 299.9526 -9199.9561 -7413.5011 302.5415 -14.7251 -34.9700 30198.1946 -176.8456 -123.3453
TCL: Running FEP window  12: Lambda1 0.5499999999999999 Lambda2 0.6    [dLambda 0.050000000000000044]
TCL: Setting parameter firsttimestep to 0
TCL: Setting parameter alchLambda to 0.5499999999999999
Info: NONBONDED TABLE R-SQUARED SPACING: 0.0625
Info: NONBONDED TABLE SIZE: 705 POINTS
TCL: Setting parameter alchLambda2 to 0.6
Info: NONBONDED TABLE R-SQUARED SPACING: 0.0625
Info: NONBONDED TABLE SIZE: 705 POINTS
TCL: Running for 1500000 steps
ETITLE: TS BOND ANGLE DIHED IMPRP ELECT VDW BOUNDARY MISC KINETIC TOTAL TEMP POTENTIAL TOTALAVG TEMPAVG PRESSURE GPRESSURE VOLUME PRESSAVG GPRESSAVG
ENERGY: 0 2.1773 1.8617 1.1042 0.0000 -10632.3221 1428.1860 0.0000 0.0000 1745.5797 -7453.4133 299.8006 -9198.9930 -7453.4133 299.8006 -101.4003 -25.2330 30198.1946 -101.4003 -25.2330
ENERGY: 300000 1.0172 2.3320 2.4159 0.0000 -10700.4140 1444.3702 0.0000 0.0000 1739.3046 -7510.9741 298.7228 -9250.2787 -7462.8254 301.2382 71.9590 149.0767 29806.6722 90.1178 145.0065
ENERGY: 600000 2.6954 1.4869 1.1714 0.0000 -10849.0298 1546.2876 0.0000 0.0000 1740.1253 -7557.2632 298.8638 -9297.3885 -7443.6313 303.4649 1023.8999 1055.0019 29536.2824 125.3109 181.4057
ENERGY: 900000 2.2107 3.7913 6.0427 0.0000 -10600.7540 1441.0452 0.0000 0.0000 1720.7178 -7426.9463 295.5306 -9147.6641 -7447.6101 301.8213 124.9418 208.8163 30072.9913 23.9058 79.7367
ENERGY: 1200000 3.8786 1.6745 4.2332 0.0000 -10760.4652 1469.2069 0.0000 0.0000 1758.7129 -7522.7591 302.0562 -9281.4719 -7453.8223 301.8715 260.1180 258.6859 29980.1284 24.0542 80.3663
ENERGY: 1500000 2.4251 4.6170 2.8976 0.0000 -10713.3345 1396.4183 0.0000 0.0000 1769.5619 -7537.4145 303.9195 -9306.9764 -7462.3957 300.7237 -601.1940 -463.4422 29854.6789 -8.1483 53.1214
TCL: Running FEP window  13: Lambda1 0.6    Lambda2 0.65   [dLambda 0.050000000000000044]
TCL: Setting parameter firsttimestep to 0
TCL: Setting parameter alchLambda to 0.6
Info: NONBONDED TABLE R-SQUARED SPACING: 0.0625
Info: NONBONDED TABLE SIZE: 705 POINTS
TCL: Setting parameter alchLambda2 to 0.65
Info: NONBONDED TABLE R-SQUARED SPACING: 0.0625
Info: NONBONDED TABLE SIZE: 705 POINTS
TCL: Running for 1500000 steps
ETITLE: TS BOND ANGLE DIHED IMPRP ELECT VDW BOUNDARY MISC KINETIC TOTAL TEMP POTENTIAL TOTALAVG TEMPAVG PRESSURE GPRESSURE VOLUME PRESSAVG GPRESSAVG
ENERGY: 0 2.4251 4.6170 2.8976 0.0000 -10713.2587 1396.5546 0.0000 0.0000 1768.6734 -7538.0909 303.7669 -9306.7643 -7538.0909 303.7669 -559.3373 -454.3280 29854.6789 -559.3373 -454.3280
ENERGY: 300000 4.0344 3.7496 1.7371 0.0000 -10519.3170 1438.3649 0.0000 0.0000 1721.2991 -7350.1318 295.6304 -9071.4309 -7428.0821 302.2409 310.9537 360.6773 30404.4201 159.2969 237.3064
ENERGY: 600000 1.7936 5.0902 3.4289 0.0000 -10565.9533 1401.5202 0.0000 0.0000 1751.5185 -7402.6018 300.8205 -9154.1203 -7423.0385 302.1121 -309.0495 -254.7327 30663.3854 -72.9047 4.1784
ENERGY: 900000 2.3243 1.2760 2.6206 0.0000 -10763.0021 1490.1419 0.0000 0.0000 1747.2411 -7519.3981 300.0859 -9266.6392 -7442.2385 300.8168 805.2544 923.9868 28966.0590 -74.1415 -0.3844
ENERGY: 1200000 3.9110 2.3727 1.9604 0.0000 -10701.6510 1431.7280 0.0000 0.0000 1696.6646 -7565.0144 291.3995 -9261.6790 -7455.3735 300.9567 -290.9809 -178.7698 29962.1992 -46.6170 34.1833
ENERGY: 1500000 2.9132 2.7249 2.2869 0.0000 -10625.5084 1460.5342 0.0000 0.0000 1774.8175 -7382.2317 304.8221 -9157.0492 -7449.6065 300.7209 268.7487 399.7474 30189.4188 16.0984 99.1044
TCL: Running FEP window  14: Lambda1 0.65   Lambda2 0.7000000000000001 [dLambda 0.050000000000000044]
TCL: Setting parameter firsttimestep to 0
TCL: Setting parameter alchLambda to 0.65
Info: NONBONDED TABLE R-SQUARED SPACING: 0.0625
Info: NONBONDED TABLE SIZE: 705 POINTS
TCL: Setting parameter alchLambda2 to 0.7000000000000001
Info: NONBONDED TABLE R-SQUARED SPACING: 0.0625
Info: NONBONDED TABLE SIZE: 705 POINTS
TCL: Running for 1500000 steps
ETITLE: TS BOND ANGLE DIHED IMPRP ELECT VDW BOUNDARY MISC KINETIC TOTAL TEMP POTENTIAL TOTALAVG TEMPAVG PRESSURE GPRESSURE VOLUME PRESSAVG GPRESSAVG
ENERGY: 0 2.9132 2.7249 2.2869 0.0000 -10626.8178 1460.3483 0.0000 0.0000 1773.9739 -7384.5707 304.6772 -9158.5446 -7384.5707 304.6772 323.8152 400.2151 30189.4188 323.8152 400.2151
ENERGY: 300000 1.1477 2.4762 4.6689 0.0000 -10709.4541 1422.3671 0.0000 0.0000 1808.5909 -7470.2034 310.6226 -9278.7943 -7393.9795 310.6942 -178.3586 -105.7196 29857.4078 169.2950 250.3509
ENERGY: 600000 3.0720 2.8153 4.3995 0.0000 -10713.3948 1512.2683 0.0000 0.0000 1721.1239 -7469.7157 295.6003 -9190.8397 -7407.3631 307.1469 427.9137 527.4376 30225.1441 122.9278 188.4279
ENERGY: 900000 4.8835 1.9242 1.5750 0.0000 -10700.4757 1504.4521 0.0000 0.0000 1791.4477 -7396.1932 307.6783 -9187.6409 -7420.7269 304.8015 769.3013 811.9997 30044.1696 214.2462 289.0637
ENERGY: 1200000 4.1585 3.7973 1.7770 0.0000 -10664.2527 1490.9747 0.0000 0.0000 1705.6570 -7457.8883 292.9439 -9163.5453 -7430.3684 302.4123 421.8422 443.6708 30294.0315 180.7514 249.5896
ENERGY: 1500000 1.8105 3.5812 1.9736 0.0000 -10629.2736 1466.7795 0.0000 0.0000 1791.6894 -7363.4394 307.7198 -9155.1288 -7426.2237 302.8843 529.8401 576.9021 29735.9022 86.7705 156.5476
TCL: Running FEP window  15: Lambda1 0.7000000000000001 Lambda2 0.7500000000000001 [dLambda 0.050000000000000044]
TCL: Setting parameter firsttimestep to 0
TCL: Setting parameter alchLambda to 0.7000000000000001
Info: NONBONDED TABLE R-SQUARED SPACING: 0.0625
Info: NONBONDED TABLE SIZE: 705 POINTS
TCL: Setting parameter alchLambda2 to 0.7500000000000001
Info: NONBONDED TABLE R-SQUARED SPACING: 0.0625
Info: NONBONDED TABLE SIZE: 705 POINTS
TCL: Running for 1500000 steps
ETITLE: TS BOND ANGLE DIHED IMPRP ELECT VDW BOUNDARY MISC KINETIC TOTAL TEMP POTENTIAL TOTALAVG TEMPAVG PRESSURE GPRESSURE VOLUME PRESSAVG GPRESSAVG
ENERGY: 0 1.8105 3.5812 1.9736 0.0000 -10630.5287 1467.2870 0.0000 0.0000 1790.7780 -7365.0983 307.5633 -9155.8763 -7365.0983 307.5633 496.4713 585.4592 29735.9022 496.4713 585.4592
ENERGY: 300000 3.2554 4.6329 3.1498 0.0000 -10487.9293 1336.0638 0.0000 0.0000 1772.4051 -7368.4223 304.4078 -9140.8274 -7379.9683 302.6731 -590.8205 -557.1568 30656.4212 -66.4435 4.5912
ENERGY: 600000 0.8654 1.8696 2.6074 0.0000 -10594.6333 1365.6898 0.0000 0.0000 1810.2828 -7413.3184 310.9132 -9223.6012 -7397.5800 304.1423 -521.2739 -429.8410 30003.1640 -52.1104 22.2576
ENERGY: 900000 2.1558 3.1331 3.9487 0.0000 -10493.2635 1345.8108 0.0000 0.0000 1757.1516 -7381.0636 301.7880 -9138.2151 -7398.7425 303.3018 -746.5367 -712.0930 30622.4203 8.9221 67.6713
ENERGY: 1200000 0.6370 3.7240 1.2760 0.0000 -10744.7024 1542.4818 0.0000 0.0000 1787.1767 -7409.4070 306.9448 -9196.5837 -7404.5721 303.1018 1173.7844 1243.9817 29871.2315 80.1020 137.0385
ENERGY: 1500000 1.8359 2.9564 2.5202 0.0000 -10732.4133 1503.3422 0.0000 0.0000 1800.5172 -7421.2414 309.2360 -9221.7586 -7406.2874 303.5639 562.2510 587.8863 30116.0195 190.0787 243.2021
TCL: Running FEP window  16: Lambda1 0.7500000000000001 Lambda2 0.8000000000000002 [dLambda 0.050000000000000044]
TCL: Setting parameter firsttimestep to 0
TCL: Setting parameter alchLambda to 0.7500000000000001
Info: NONBONDED TABLE R-SQUARED SPACING: 0.0625
Info: NONBONDED TABLE SIZE: 705 POINTS
TCL: Setting parameter alchLambda2 to 0.8000000000000002
Info: NONBONDED TABLE R-SQUARED SPACING: 0.0625
Info: NONBONDED TABLE SIZE: 705 POINTS
TCL: Running for 1500000 steps
ETITLE: TS BOND ANGLE DIHED IMPRP ELECT VDW BOUNDARY MISC KINETIC TOTAL TEMP POTENTIAL TOTALAVG TEMPAVG PRESSURE GPRESSURE VOLUME PRESSAVG GPRESSAVG
ENERGY: 0 1.8359 2.9564 2.5202 0.0000 -10733.6780 1503.1029 0.0000 0.0000 1799.6595 -7423.6031 309.0887 -9223.2626 -7423.6031 309.0887 521.4271 589.7916 30116.0195 521.4271 589.7916
ENERGY: 300000 1.8204 4.0771 5.8140 0.0000 -10747.9226 1509.7518 0.0000 0.0000 1770.9967 -7455.4626 304.1659 -9226.4593 -7455.4733 302.0898 456.8171 493.8038 30317.3314 354.9830 428.6329
ENERGY: 600000 3.0294 5.8159 3.2144 0.0000 -10444.4871 1309.9874 0.0000 0.0000 1753.9316 -7368.5085 301.2350 -9122.4401 -7440.8035 300.0472 -1018.8822 -1003.2657 30636.2065 -57.5391 14.0297
ENERGY: 900000 1.5905 2.2399 4.9038 0.0000 -10556.5104 1393.1602 0.0000 0.0000 1733.2298 -7421.3862 297.6795 -9154.6160 -7433.9020 299.3536 -113.5608 15.5089 29859.4751 -120.2391 -27.4265
ENERGY: 1200000 0.8888 3.0967 1.8530 0.0000 -10622.3334 1424.3279 0.0000 0.0000 1769.0202 -7423.1468 303.8264 -9192.1670 -7427.5284 300.1077 -386.5249 -320.6157 30560.7722 -69.0969 17.5239
ENERGY: 1500000 2.2052 1.7202 5.3564 0.0000 -10535.9493 1352.4126 0.0000 0.0000 1732.7967 -7441.4582 297.6051 -9174.2550 -7435.4800 299.2947 -682.9450 -612.1624 29996.8041 -111.8416 -32.4764
TCL: Running FEP window  17: Lambda1 0.8000000000000002 Lambda2 0.8500000000000002 [dLambda 0.050000000000000044]
TCL: Setting parameter firsttimestep to 0
TCL: Setting parameter alchLambda to 0.8000000000000002
Info: NONBONDED TABLE R-SQUARED SPACING: 0.0625
Info: NONBONDED TABLE SIZE: 705 POINTS
TCL: Setting parameter alchLambda2 to 0.8500000000000002
Info: NONBONDED TABLE R-SQUARED SPACING: 0.0625
Info: NONBONDED TABLE SIZE: 705 POINTS
TCL: Running for 1500000 steps
ETITLE: TS BOND ANGLE DIHED IMPRP ELECT VDW BOUNDARY MISC KINETIC TOTAL TEMP POTENTIAL TOTALAVG TEMPAVG PRESSURE GPRESSURE VOLUME PRESSAVG GPRESSAVG
ENERGY: 0 2.2052 1.7202 5.3564 0.0000 -10537.2635 1352.8125 0.0000 0.0000 1731.8817 -7443.2875 297.4480 -9175.1692 -7443.2875 297.4480 -691.6333 -599.9339 29996.8041 -691.6333 -599.9339
ENERGY: 300000 4.3715 5.0416 3.6413 0.0000 -10536.5513 1356.1934 0.0000 0.0000 1728.4500 -7438.8535 296.8586 -9167.3035 -7405.0511 298.2877 -677.0773 -561.2085 30103.3099 -334.7163 -254.3700
ENERGY: 600000 1.5904 3.7967 3.3293 0.0000 -10647.7616 1388.4890 0.0000 0.0000 1746.4493 -7504.1069 299.9499 -9250.5562 -7445.2646 297.4827 -444.5476 -335.6581 30200.1848 -453.5765 -363.6682
ENERGY: 900000 2.5906 2.5945 4.7742 0.0000 -10437.9866 1319.0293 0.0000 0.0000 1734.6688 -7374.3291 297.9266 -9108.9979 -7427.6376 299.3713 -555.9525 -472.0804 30332.5340 -461.6145 -377.5130
ENERGY: 1200000 3.8561 1.2568 6.8181 0.0000 -10804.2103 1561.9996 0.0000 0.0000 1759.7722 -7470.5077 302.2381 -9230.2798 -7436.2043 298.7300 644.5066 709.4392 30605.7734 -309.0825 -224.3318
ENERGY: 1500000 2.3868 3.8571 3.1835 0.0000 -10457.3826 1344.7687 0.0000 0.0000 1690.7591 -7412.4275 290.3852 -9103.1866 -7430.4286 297.6900 -886.9848 -847.5478 30948.0146 -293.8453 -213.3172
TCL: Running FEP window  18: Lambda1 0.8500000000000002 Lambda2 0.9000000000000002 [dLambda 0.050000000000000044]
TCL: Setting parameter firsttimestep to 0
TCL: Setting parameter alchLambda to 0.8500000000000002
Info: NONBONDED TABLE R-SQUARED SPACING: 0.0625
Info: NONBONDED TABLE SIZE: 705 POINTS
TCL: Setting parameter alchLambda2 to 0.9000000000000002
Info: NONBONDED TABLE R-SQUARED SPACING: 0.0625
Info: NONBONDED TABLE SIZE: 705 POINTS
TCL: Running for 1500000 steps
ETITLE: TS BOND ANGLE DIHED IMPRP ELECT VDW BOUNDARY MISC KINETIC TOTAL TEMP POTENTIAL TOTALAVG TEMPAVG PRESSURE GPRESSURE VOLUME PRESSAVG GPRESSAVG
ENERGY: 0 2.3868 3.8571 3.1835 0.0000 -10458.9817 1345.4363 0.0000 0.0000 1689.8903 -7414.2278 290.2360 -9104.1180 -7414.2278 290.2360 -919.0955 -836.7587 30948.0146 -919.0955 -836.7587
ENERGY: 300000 2.3873 5.3128 1.7682 0.0000 -10763.8842 1504.6503 0.0000 0.0000 1742.6250 -7507.1406 299.2931 -9249.7656 -7445.0165 299.3035 541.4975 532.7838 29955.9702 -105.5861 -49.3846
ENERGY: 600000 0.8205 3.0939 3.1833 0.0000 -10491.5227 1396.1663 0.0000 0.0000 1716.0130 -7372.2458 294.7225 -9088.2588 -7435.7924 299.5065 147.8848 163.8409 30237.7049 -75.6872 -12.7929
ENERGY: 900000 2.5634 3.6125 3.8641 0.0000 -10605.6016 1369.6661 0.0000 0.0000 1728.6856 -7497.2099 296.8990 -9225.8956 -7442.4999 299.0284 -707.7381 -633.4435 30503.1198 -119.8934 -54.3243
ENERGY: 1200000 1.5873 2.4342 3.1913 0.0000 -10726.8532 1537.2498 0.0000 0.0000 1781.5615 -7400.8291 305.9804 -9182.3906 -7432.4325 300.3185 1066.3380 1117.1142 29893.3224 50.4707 108.2358
ENERGY: 1500000 2.8391 2.4617 1.6881 0.0000 -10696.9349 1469.4692 0.0000 0.0000 1730.1090 -7490.3678 297.1435 -9220.4768 -7432.2472 301.0386 161.2273 171.8326 30065.1975 19.4265 75.0833
TCL: Running FEP window  19: Lambda1 0.9000000000000002 Lambda2 0.9500000000000003 [dLambda 0.050000000000000044]
TCL: Setting parameter firsttimestep to 0
TCL: Setting parameter alchLambda to 0.9000000000000002
Info: NONBONDED TABLE R-SQUARED SPACING: 0.0625
Info: NONBONDED TABLE SIZE: 705 POINTS
TCL: Setting parameter alchLambda2 to 0.9500000000000003
Info: NONBONDED TABLE R-SQUARED SPACING: 0.0625
Info: NONBONDED TABLE SIZE: 705 POINTS
TCL: Running for 1500000 steps
ETITLE: TS BOND ANGLE DIHED IMPRP ELECT VDW BOUNDARY MISC KINETIC TOTAL TEMP POTENTIAL TOTALAVG TEMPAVG PRESSURE GPRESSURE VOLUME PRESSAVG GPRESSAVG
ENERGY: 0 2.8391 2.4617 1.6881 0.0000 -10697.8675 1469.8745 0.0000 0.0000 1729.2037 -7491.8005 296.9880 -9221.0041 -7491.8005 296.9880 101.8234 182.2859 30065.1975 101.8234 182.2859
ENERGY: 300000 0.9827 1.2333 3.0550 0.0000 -10767.3277 1519.2325 0.0000 0.0000 1739.0227 -7503.8015 298.6744 -9242.8242 -7455.0537 302.9991 582.0260 670.8592 30236.6760 179.6033 248.4757
ENERGY: 600000 1.1060 6.1231 2.4592 0.0000 -10673.7202 1415.4563 0.0000 0.0000 1745.8034 -7502.7723 299.8390 -9248.5756 -7466.8167 300.8468 -377.0293 -354.9846 30318.1915 75.7559 142.4382
ENERGY: 900000 1.7667 2.4369 3.4199 0.0000 -10696.3992 1509.4359 0.0000 0.0000 1676.3015 -7503.0382 287.9021 -9179.3397 -7466.5321 299.4207 657.0143 746.2344 30086.2900 43.6448 111.2396
ENERGY: 1200000 3.2000 1.5712 4.2467 0.0000 -10573.6090 1450.6390 0.0000 0.0000 1750.2553 -7363.6967 300.6036 -9113.9521 -7455.8902 299.3325 446.0626 533.5067 30070.4353 61.0623 128.9427
ENERGY: 1500000 2.1006 3.5536 1.6353 0.0000 -10573.8523 1413.5913 0.0000 0.0000 1773.3209 -7379.6506 304.5651 -9152.9715 -7453.9697 299.2113 -237.0489 -193.5990 30714.7263 18.7660 86.9472
TCL: Running FEP window  20: Lambda1 0.9500000000000003 Lambda2 1.0    [dLambda 0.04999999999999971]
TCL: Setting parameter firsttimestep to 0
TCL: Setting parameter alchLambda to 0.9500000000000003
Info: NONBONDED TABLE R-SQUARED SPACING: 0.0625
Info: NONBONDED TABLE SIZE: 705 POINTS
TCL: Setting parameter alchLambda2 to 1.0
Info: NONBONDED TABLE R-SQUARED SPACING: 0.0625
Info: NONBONDED TABLE SIZE: 705 POINTS
TCL: Running for 1500000 steps
ETITLE: TS BOND ANGLE DIHED IMPRP ELECT VDW BOUNDARY MISC KINETIC TOTAL TEMP POTENTIAL TOTALAVG TEMPAVG PRESSURE GPRESSURE VOLUME PRESSAVG GPRESSAVG
ENERGY: 0 2.1006 3.5536 1.6353 0.0000 -10576.1702 1414.2459 0.0000 0.0000 1772.4015 -7382.2334 304.4072 -9154.6348 -7382.2334 304.4072 -243.3192 -182.7119 30714.7263 -243.3192 -182.7119
ENERGY: 300000 2.8170 3.0715 1.5555 0.0000 -10653.7215 1471.5775 0.0000 0.0000 1750.3143 -7424.3857 300.6137 -9174.7001 -7417.5998 302.3165 541.1413 629.9769 29703.4171 -73.2647 4.3169
ENERGY: 600000 4.7491 3.3509 2.4916 0.0000 -10505.5148 1343.5168 0.0000 0.0000 1761.7170 -7389.6894 302.5721 -9151.4064 -7428.7736 302.1844 -490.1781 -432.6800 30191.5819 -129.5227 -62.1964
ENERGY: 900000 3.7558 4.4073 4.6301 0.0000 -10581.3640 1425.0739 0.0000 0.0000 1788.7487 -7354.7481 307.2148 -9143.4968 -7421.8603 302.1556 148.8821 230.5776 30423.5580 -45.8642 22.9073
ENERGY: 1200000 4.3164 2.1430 4.6968 0.0000 -10550.6243 1340.3358 0.0000 0.0000 1834.7284 -7364.4038 315.1117 -9199.1322 -7426.6480 303.2276 -696.2057 -627.3141 30216.3601 -75.0409 -4.0328
ENERGY: 1500000 0.8515 2.0391 1.3814 0.0000 -10712.2546 1457.1275 0.0000 0.0000 1740.2505 -7510.6045 298.8853 -9250.8551 -7435.4395 302.5102 57.5651 159.9820 30154.5831 -65.2799 15.3375
TCL: Exiting due to exit command.
