Info: SIMULATION PARAMETERS:
Info: TIMESTEP               2
Info: NUMBER OF STEPS        0
Info: STEPS PER CYCLE        10
Info: PERIODIC CELL BASIS 1  30.9213 0 0
Info: PERIODIC CELL BASIS 2  0 29.4436 0
Info: PERIODIC CELL BASIS 3  0 0 33.9202
Info: PERIODIC CELL CENTER   0 0 0
Info: WRAPPING WATERS AROUND PERIODIC BOUNDARIES ON OUTPUT.
Info: WRAPPING ALL CLUSTERS AROUND PERIODIC BOUNDARIES ON OUTPUT.
Info: FIRST LDB TIMESTEP     50
Info: LAST LDB TIMESTEP     -1
Info: HOM BACKGROUND SCALING 1
Info: PME BACKGROUND SCALING 1
Info: MIN ATOMS PER PATCH    40
Info: EMPTY PATCH LOAD       40 ATOMS
Info: VELOCITY FILE          mobley_4494568_equil.vel
Info: CENTER OF MASS MOVING INITIALLY? NO
Info: DIELECTRIC             1
Info: EXCLUDE                SCALED ONE-FOUR
Info: 1-4 ELECTROSTATICS SCALED BY 0.833333
Info: MODIFIED 1-4 VDW PARAMETERS WILL BE USED
Info: DCD FILENAME           mobley_4494568_prod.dcd
Info: DCD FREQUENCY          100000
Info: DCD FIRST STEP         100000
Info: DCD FILE WILL CONTAIN UNIT CELL DATA
Info: XST FILENAME           mobley_4494568_prod.xst
Info: XST FREQUENCY          100000
Info: NO VELOCITY DCD OUTPUT
Info: NO FORCE DCD OUTPUT
Info: OUTPUT FILENAME        mobley_4494568_prod
Info: BINARY OUTPUT FILES WILL BE USED
Info: RESTART FILENAME       mobley_4494568_prod.restart
Info: RESTART FREQUENCY      100000
Info: BINARY RESTART FILES WILL BE USED
Info: CUTOFF                 9
Info: PAIRLIST DISTANCE      11
Info: PAIRLIST SHRINK RATE   0.01
Info: PAIRLIST GROW RATE     0.01
Info: PAIRLIST TRIGGER       0.3
Info: PAIRLISTS PER CYCLE    2
Info: PAIRLISTS ENABLED
Info: MARGIN                 2
Info: HYDROGEN GROUP CUTOFF  2.5
Info: PATCH DIMENSION        15.5
Info: ENERGY OUTPUT STEPS    100000
Info: ENERGY EVALUATION STEPS    100000
Info: OUTPUT ENERGY PRECISION 4
Info: CROSSTERM ENERGY INCLUDED IN DIHEDRAL
Info: TIMING OUTPUT STEPS    1000000
Info: PRESSURE OUTPUT STEPS  100000
Info: ALCHEMICAL FEP ON
Info: FEP CURRENT LAMBDA VALUE     0
Info: FEP COMPARISON LAMBDA VALUE  0.05
Info: FEP INTRA-ALCHEMICAL NON-BONDED INTERACTIONS WILL BE RETAINED
Info: FEP INTRA-ALCHEMICAL BONDED INTERACTIONS WILL BE RETAINED
Info: FEP VDW SHIFTING COEFFICIENT 5
Info: FEP ELEC. ACTIVE FOR ANNIHILATED PARTICLES BETWEEN LAMBDA = 0 AND LAMBDA = 0.5
Info: FEP ELEC. ACTIVE FOR EXNIHILATED PARTICLES BETWEEN LAMBDA = 0.5 AND LAMBDA = 1
Info: FEP VDW ACTIVE FOR ANNIHILATED PARTICLES BETWEEN LAMBDA = 0 AND LAMBDA = 1
Info: FEP VDW ACTIVE FOR EXNIHILATED PARTICLES BETWEEN LAMBDA = 0 AND LAMBDA = 1
Info: FEP BOND ACTIVE FOR ANNIHILATED PARTICLES BETWEEN LAMBDA = 1 AND LAMBDA = 1
Info: FEP BOND ACTIVE FOR EXNIHILATED PARTICLES BETWEEN LAMBDA = 0 AND LAMBDA = 0
Info: LANGEVIN DYNAMICS ACTIVE
Info: LANGEVIN TEMPERATURE   300
Info: LANGEVIN USING BBK INTEGRATOR
Info: LANGEVIN DAMPING COEFFICIENT IS 1 INVERSE PS
Info: LANGEVIN DYNAMICS APPLIED TO HYDROGENS
Info: LANGEVIN PISTON PRESSURE CONTROL ACTIVE
Info:        TARGET PRESSURE IS 1.01325 BAR
Info:     OSCILLATION PERIOD IS 50 FS
Info:             DECAY TIME IS 25 FS
Info:     PISTON TEMPERATURE IS 300 K
Info:       PRESSURE CONTROL IS GROUP-BASED
Info:    INITIAL STRAIN RATE IS -0.000228707 -0.000228707 -0.000228707
Info:       CELL FLUCTUATION IS ISOTROPIC
Info: PARTICLE MESH EWALD (PME) ACTIVE
Info: PME TOLERANCE               1e-06
Info: PME EWALD COEFFICIENT       0.348832
Info: PME INTERPOLATION ORDER     4
Info: PME GRID DIMENSIONS         32 32 36
Info: PME MAXIMUM GRID SPACING    1
Info: PME CALCULATION WILL BE PERFORMED ON GPU
Info: FULL ELECTROSTATIC EVALUATION FREQUENCY      2
Info: USING VERLET I (r-RESPA) MTS SCHEME.
Info: C1 SPLITTING OF LONG RANGE ELECTROSTATICS
Info: PLACING ATOMS IN PATCHES BY HYDROGEN GROUPS
Info: RIGID BONDS TO HYDROGEN : ALL
Info:         ERROR TOLERANCE : 1e-08
Info:          MAX ITERATIONS : 100
Info: RIGID WATER USING SETTLE ALGORITHM
Info: RANDOM NUMBER SEED     1743573836
Info: USE HYDROGEN BONDS?    NO
Info: Using AMBER format force field!
Info: AMBER PARM FILE        mobley_4494568.prmtop
Info: COORDINATE PDB         mobley_4494568.pdb
Info: Exclusions will be read from PARM file!
Info: SCNB (VDW SCALING)     2
Info: USING ARITHMETIC MEAN TO COMBINE L-J SIGMA PARAMETERS
Info: BINARY COORDINATES     mobley_4494568_equil.coor
Info: SUMMARY OF PARAMETERS:
Info: 7 BONDS
Info: 6 ANGLES
Info:   6 HARMONIC
Info:   0 COSINE-BASED
Info: 3 DIHEDRAL
Info: 0 IMPROPER
Info: 0 CROSSTERM
Info: 0 VDW
Info: 28 VDW_PAIRS
Info: 0 NBTHOLE_PAIRS
Info: To read alchdata from file: mobley_4494568.pdb
Info: To read alchflag data from column: 5
Info: STRUCTURE SUMMARY:
Info: 2994 ATOMS
Info: 2994 BONDS
Info: 24 ANGLES
Info: 36 DIHEDRALS
Info: 0 IMPROPERS
Info: 0 CROSSTERMS
Info: 3045 EXCLUSIONS
Info: 2986 RIGID BONDS
Info: ALCH: 0 ATOMS TO DISAPPEAR IN FINAL STATE
Info: ALCH: 15 ATOMS TO APPEAR IN FINAL STATE
Info: 5996 DEGREES OF FREEDOM
Info: 1001 HYDROGEN GROUPS
Info: 4 ATOMS IN LARGEST HYDROGEN GROUP
Info: 1001 MIGRATION GROUPS
Info: 4 ATOMS IN LARGEST MIGRATION GROUP
Info: TOTAL MASS = 18060.9 amu
Info: TOTAL CHARGE = 0.000200011 e
Info: MASS DENSITY = 0.971162 g/cm^3
Info: ATOM DENSITY = 0.0969493 atoms/A^3
Info: ADDED 0 IMPLICIT EXCLUSIONS
Info: NONBONDED TABLE R-SQUARED SPACING: 0.0625
Info: NONBONDED TABLE SIZE: 705 POINTS
Info: REMOVING COM VELOCITY 0.0381333 -0.0826028 0.0714931
Info: Use 3D box decompostion in PME FFT.
Info: Updated CUDA force table with 4096 elements.
Info: Updated CUDA LJ table with 7 x 7 elements.
Info: Found 17 unique exclusion lists needing 40 bytes
TCL: Running for 1500000 steps
ETITLE: TS BOND ANGLE DIHED IMPRP ELECT VDW BOUNDARY MISC KINETIC TOTAL TEMP POTENTIAL TOTALAVG TEMPAVG PRESSURE GPRESSURE VOLUME PRESSAVG GPRESSAVG
ENERGY: 0 2.9063 4.0670 2.5597 0.0000 -10649.2824 1375.4433 0.0000 0.0000 1846.5319 -7417.7743 309.9457 -9264.3062 -7417.7743 309.9457 -430.4312 -340.8884 30882.1188 -430.4312 -340.8884
ENERGY: 300000 4.7639 3.2268 4.1707 0.0000 -10781.4491 1401.8989 0.0000 0.0000 1769.4986 -7597.8903 297.0154 -9367.3889 -7558.8497 300.3807 -917.8628 -850.8585 31219.8738 -317.9507 -253.8442
ENERGY: 600000 2.6381 6.3860 5.3812 0.0000 -10766.4190 1434.4455 0.0000 0.0000 1785.6464 -7531.9218 299.7259 -9317.5682 -7559.9481 300.2028 -264.5830 -136.9108 30594.6591 -164.2196 -91.9779
ENERGY: 900000 1.9116 4.9629 0.5694 0.0000 -10856.8390 1496.7618 0.0000 0.0000 1786.7763 -7565.8570 299.9155 -9352.6332 -7556.8140 300.7833 329.5272 336.6998 30729.6316 6.5755 75.9203
ENERGY: 1200000 2.9343 7.7682 3.3306 0.0000 -10831.6412 1447.8007 0.0000 0.0000 1806.4630 -7563.3444 303.2200 -9369.8074 -7563.4634 300.0419 -631.8521 -530.3277 31388.5264 -78.4199 -6.2577
ENERGY: 1500000 3.1833 4.2727 4.9329 0.0000 -10674.4339 1374.0787 0.0000 0.0000 1831.7328 -7456.2335 307.4616 -9287.9663 -7560.9631 300.5715 -742.6618 -671.0705 31344.2878 -74.8468 -6.4976
TCL: Running FEP window   2: Lambda1 0.05   Lambda2 0.1    [dLambda 0.05  ]
TCL: Setting parameter firsttimestep to 0
TCL: Setting parameter alchLambda to 0.05
Info: NONBONDED TABLE R-SQUARED SPACING: 0.0625
Info: NONBONDED TABLE SIZE: 705 POINTS
TCL: Setting parameter alchLambda2 to 0.1
Info: NONBONDED TABLE R-SQUARED SPACING: 0.0625
Info: NONBONDED TABLE SIZE: 705 POINTS
TCL: Running for 1500000 steps
ETITLE: TS BOND ANGLE DIHED IMPRP ELECT VDW BOUNDARY MISC KINETIC TOTAL TEMP POTENTIAL TOTALAVG TEMPAVG PRESSURE GPRESSURE VOLUME PRESSAVG GPRESSAVG
ENERGY: 0 3.1833 4.2727 4.9329 0.0000 -10674.4364 1381.0924 0.0000 0.0000 1830.8276 -7450.1276 307.3097 -9280.9552 -7450.1276 307.3097 -739.3628 -660.7213 31344.2878 -739.3628 -660.7213
ENERGY: 300000 3.8746 5.0320 4.7483 0.0000 -10906.9368 1507.3001 0.0000 0.0000 1793.6987 -7592.2831 301.0775 -9385.9817 -7577.8929 302.7578 87.9368 112.5767 31093.5746 -290.2017 -250.1426
ENERGY: 600000 1.5278 7.6941 3.4243 0.0000 -10824.1856 1417.4484 0.0000 0.0000 1739.2492 -7654.8418 291.9380 -9394.0910 -7591.4598 300.3908 -542.6957 -513.1131 30911.9057 -341.5691 -290.9241
ENERGY: 900000 1.8919 4.1603 1.9781 0.0000 -10868.5394 1467.8936 0.0000 0.0000 1753.7668 -7638.8488 294.3748 -9392.6156 -7589.6117 301.2236 27.4961 85.1207 30364.4901 -195.0848 -141.1993
ENERGY: 1200000 3.0696 5.2704 2.0198 0.0000 -10775.2759 1417.0089 0.0000 0.0000 1818.6184 -7529.2887 305.2603 -9347.9071 -7597.1977 300.3636 -453.9520 -318.3377 30846.7105 -208.1980 -146.4166
ENERGY: 1500000 2.7351 5.0637 2.0526 0.0000 -10861.6434 1476.1331 0.0000 0.0000 1812.2810 -7563.3780 304.1966 -9375.6589 -7587.7952 301.0311 163.6354 208.1065 30492.9924 -152.1606 -90.5416
TCL: Running FEP window   3: Lambda1 0.1    Lambda2 0.15000000000000002 [dLambda 0.05000000000000002]
TCL: Setting parameter firsttimestep to 0
TCL: Setting parameter alchLambda to 0.1
Info: NONBONDED TABLE R-SQUARED SPACING: 0.0625
Info: NONBONDED TABLE SIZE: 705 POINTS
TCL: Setting parameter alchLambda2 to 0.15000000000000002
Info: NONBONDED TABLE R-SQUARED SPACING: 0.0625
Info: NONBONDED TABLE SIZE: 705 POINTS
TCL: Running for 1500000 steps
ETITLE: TS BOND ANGLE DIHED IMPRP ELECT VDW BOUNDARY MISC KINETIC TOTAL TEMP POTENTIAL TOTALAVG TEMPAVG PRESSURE GPRESSURE VOLUME PRESSAVG GPRESSAVG
ENERGY: 0 2.7351 5.0637 2.0526 0.0000 -10861.6440 1480.9555 0.0000 0.0000 1811.3801 -7559.4571 304.0453 -9370.8372 -7559.4571 304.0453 142.0677 221.2607 30492.9924 142.0677 221.2607
ENERGY: 300000 4.6169 7.1557 0.9059 0.0000 -10843.7330 1490.2983 0.0000 0.0000 1801.8090 -7538.9473 302.4388 -9340.7562 -7561.4107 303.1117 278.4445 332.1632 30699.8886 155.0863 219.8141
ENERGY: 600000 2.3023 3.3912 2.8935 0.0000 -11076.0685 1604.5985 0.0000 0.0000 1761.0999 -7701.7832 295.6057 -9462.8831 -7604.6513 301.5033 977.7590 1063.3731 29895.6158 193.6467 258.8178
ENERGY: 900000 0.6831 4.1700 5.3344 0.0000 -11011.2333 1537.7455 0.0000 0.0000 1809.2486 -7654.0517 303.6876 -9463.3004 -7607.0290 301.7480 323.8991 439.9981 30816.8842 146.1524 209.3492
ENERGY: 1200000 2.4302 1.6536 3.3025 0.0000 -10847.3392 1462.6203 0.0000 0.0000 1778.2055 -7599.1272 298.4769 -9377.3327 -7610.0052 301.5937 -0.2554 52.7676 30529.7890 7.8794 62.5224
ENERGY: 1500000 2.3875 2.1887 3.4413 0.0000 -10880.3424 1513.9256 0.0000 0.0000 1798.8583 -7559.5410 301.9435 -9358.3993 -7600.6519 301.6920 467.6133 545.0958 30476.2771 -18.1974 38.9868
TCL: Running FEP window   4: Lambda1 0.15000000000000002 Lambda2 0.2    [dLambda 0.04999999999999999]
TCL: Setting parameter firsttimestep to 0
TCL: Setting parameter alchLambda to 0.15000000000000002
Info: NONBONDED TABLE R-SQUARED SPACING: 0.0625
Info: NONBONDED TABLE SIZE: 705 POINTS
TCL: Setting parameter alchLambda2 to 0.2
Info: NONBONDED TABLE R-SQUARED SPACING: 0.0625
Info: NONBONDED TABLE SIZE: 705 POINTS
TCL: Running for 1500000 steps
ETITLE: TS BOND ANGLE DIHED IMPRP ELECT VDW BOUNDARY MISC KINETIC TOTAL TEMP POTENTIAL TOTALAVG TEMPAVG PRESSURE GPRESSURE VOLUME PRESSAVG GPRESSAVG
ENERGY: 0 2.3875 2.1887 3.4413 0.0000 -10880.3424 1514.9216 0.0000 0.0000 1797.9837 -7559.4196 301.7967 -9357.4033 -7559.4196 301.7967 468.9026 552.1262 30476.2771 468.9026 552.1262
ENERGY: 300000 3.1647 5.6424 4.4789 0.0000 -10786.1454 1448.1450 0.0000 0.0000 1800.1638 -7524.5506 302.1627 -9324.7144 -7561.1879 302.4989 -17.0528 111.6472 30585.6607 54.7949 129.2192
ENERGY: 600000 2.6605 3.2354 3.7614 0.0000 -10851.6274 1445.4369 0.0000 0.0000 1789.5728 -7606.9604 300.3849 -9396.5332 -7562.0982 301.3593 -439.3875 -397.7001 31345.3820 -50.2207 33.7163
ENERGY: 900000 2.0535 5.3156 2.9973 0.0000 -10712.9756 1399.4284 0.0000 0.0000 1785.2755 -7517.9052 299.6636 -9303.1808 -7551.4967 301.6723 -286.0415 -212.0405 30734.8545 -60.9782 18.0473
ENERGY: 1200000 5.7729 2.5044 3.8287 0.0000 -10779.7897 1473.0773 0.0000 0.0000 1832.3878 -7462.2186 307.5715 -9294.6064 -7547.5530 302.3070 88.3458 140.8008 30883.9072 -26.1907 49.5246
ENERGY: 1500000 2.3578 3.4400 2.6875 0.0000 -10963.3339 1504.4597 0.0000 0.0000 1844.0731 -7606.3157 309.5330 -9450.3889 -7561.2962 301.6750 482.8812 528.1330 30303.8451 24.7372 95.3054
TCL: Running FEP window   5: Lambda1 0.2    Lambda2 0.25   [dLambda 0.04999999999999999]
TCL: Setting parameter firsttimestep to 0
TCL: Setting parameter alchLambda to 0.2
Info: NONBONDED TABLE R-SQUARED SPACING: 0.0625
Info: NONBONDED TABLE SIZE: 705 POINTS
TCL: Setting parameter alchLambda2 to 0.25
Info: NONBONDED TABLE R-SQUARED SPACING: 0.0625
Info: NONBONDED TABLE SIZE: 705 POINTS
TCL: Running for 1500000 steps
ETITLE: TS BOND ANGLE DIHED IMPRP ELECT VDW BOUNDARY MISC KINETIC TOTAL TEMP POTENTIAL TOTALAVG TEMPAVG PRESSURE GPRESSURE VOLUME PRESSAVG GPRESSAVG
ENERGY: 0 2.3578 3.4400 2.6875 0.0000 -10963.3344 1505.0526 0.0000 0.0000 1843.1928 -7606.6036 309.3852 -9449.7964 -7606.6036 309.3852 460.9815 536.4440 30303.8451 460.9815 536.4440
ENERGY: 300000 3.5245 3.0019 3.6290 0.0000 -10835.1439 1469.5016 0.0000 0.0000 1814.2294 -7541.2576 304.5236 -9355.4869 -7566.5255 303.7200 62.0471 100.1264 30972.8246 -28.9424 26.3839
ENERGY: 600000 1.0042 3.5399 1.9308 0.0000 -10817.8564 1463.1296 0.0000 0.0000 1821.4282 -7526.8236 305.7319 -9348.2519 -7562.7285 303.3929 72.9986 128.8959 31074.1796 45.1602 108.7008
ENERGY: 900000 1.7640 3.6465 3.4413 0.0000 -10823.8328 1506.0862 0.0000 0.0000 1850.5337 -7458.3610 310.6174 -9308.8947 -7558.6867 304.1957 652.8447 753.9618 30814.5434 83.9597 146.2157
ENERGY: 1200000 2.6519 7.7580 2.4990 0.0000 -10796.5440 1487.7395 0.0000 0.0000 1822.4339 -7473.4619 305.9007 -9295.8958 -7556.5141 303.8609 213.8804 246.2121 31046.2738 99.8087 157.2627
ENERGY: 1500000 3.8765 3.7448 2.4140 0.0000 -10770.0279 1476.4184 0.0000 0.0000 1786.0070 -7497.5671 299.7864 -9283.5741 -7565.9695 301.7371 79.5974 167.8625 31351.0389 126.9808 185.1252
TCL: Running FEP window   6: Lambda1 0.25   Lambda2 0.3    [dLambda 0.04999999999999999]
TCL: Setting parameter firsttimestep to 0
TCL: Setting parameter alchLambda to 0.25
Info: NONBONDED TABLE R-SQUARED SPACING: 0.0625
Info: NONBONDED TABLE SIZE: 705 POINTS
TCL: Setting parameter alchLambda2 to 0.3
Info: NONBONDED TABLE R-SQUARED SPACING: 0.0625
Info: NONBONDED TABLE SIZE: 705 POINTS
TCL: Running for 1500000 steps
ETITLE: TS BOND ANGLE DIHED IMPRP ELECT VDW BOUNDARY MISC KINETIC TOTAL TEMP POTENTIAL TOTALAVG TEMPAVG PRESSURE GPRESSURE VOLUME PRESSAVG GPRESSAVG
ENERGY: 0 3.8765 3.7448 2.4140 0.0000 -10770.0275 1476.1423 0.0000 0.0000 1785.0474 -7498.8024 299.6253 -9283.8498 -7498.8024 299.6253 79.4667 171.0676 31351.0389 79.4667 171.0676
ENERGY: 300000 3.0679 5.7546 2.1180 0.0000 -10822.0325 1424.4176 0.0000 0.0000 1866.8461 -7519.8283 313.3555 -9386.6744 -7544.7465 304.3490 -231.5340 -167.8780 30617.3518 -18.0888 42.9575
ENERGY: 600000 1.2597 5.8120 1.6051 0.0000 -10776.8001 1367.5216 0.0000 0.0000 1792.8874 -7607.7143 300.9413 -9400.6016 -7584.7400 301.2180 -689.5587 -647.9045 30673.5390 -194.7552 -125.7057
ENERGY: 900000 2.9263 4.3587 3.3036 0.0000 -10691.5416 1359.2584 0.0000 0.0000 1772.0540 -7549.6407 297.4443 -9321.6947 -7580.1662 299.9784 -921.9294 -807.6547 31106.9372 -239.8450 -166.7118
ENERGY: 1200000 2.5481 2.3879 4.0207 0.0000 -10853.5499 1396.9695 0.0000 0.0000 1787.3326 -7660.2911 300.0089 -9447.6237 -7584.8733 300.4650 -717.5936 -612.8396 30694.7397 -224.2119 -152.3583
ENERGY: 1500000 1.6402 5.4517 2.1751 0.0000 -10807.8114 1407.7358 0.0000 0.0000 1774.7631 -7616.0456 297.8991 -9390.8086 -7594.2332 299.8913 -300.5536 -231.8227 30520.0996 -296.8639 -228.6921
TCL: Running FEP window   7: Lambda1 0.3    Lambda2 0.35   [dLambda 0.04999999999999999]
TCL: Setting parameter firsttimestep to 0
TCL: Setting parameter alchLambda to 0.3
Info: NONBONDED TABLE R-SQUARED SPACING: 0.0625
Info: NONBONDED TABLE SIZE: 705 POINTS
TCL: Setting parameter alchLambda2 to 0.35
Info: NONBONDED TABLE R-SQUARED SPACING: 0.0625
Info: NONBONDED TABLE SIZE: 705 POINTS
TCL: Running for 1500000 steps
ETITLE: TS BOND ANGLE DIHED IMPRP ELECT VDW BOUNDARY MISC KINETIC TOTAL TEMP POTENTIAL TOTALAVG TEMPAVG PRESSURE GPRESSURE VOLUME PRESSAVG GPRESSAVG
ENERGY: 0 1.6402 5.4517 2.1751 0.0000 -10807.8125 1408.2740 0.0000 0.0000 1773.8814 -7616.3902 297.7511 -9390.2716 -7616.3902 297.7511 -304.3297 -222.6383 30520.0996 -304.3297 -222.6383
ENERGY: 300000 0.9598 6.8225 2.6096 0.0000 -10840.7139 1511.5407 0.0000 0.0000 1815.2101 -7503.5712 304.6882 -9318.7813 -7574.5861 299.9845 612.4261 641.3202 30809.4715 -121.2773 -69.6732
ENERGY: 600000 0.6319 4.8421 3.7277 0.0000 -10681.9981 1391.8792 0.0000 0.0000 1743.2106 -7537.7066 292.6029 -9280.9172 -7599.8456 296.8906 -528.5029 -531.5415 31370.7699 -61.4677 -28.0782
ENERGY: 900000 1.9002 3.2720 2.6476 0.0000 -10905.0107 1496.1690 0.0000 0.0000 1854.9882 -7546.0336 311.3651 -9401.0219 -7585.9613 300.0841 92.9948 112.1579 31242.7231 -74.3510 -27.2204
ENERGY: 1200000 3.8072 5.2262 1.7818 0.0000 -10903.3072 1482.4886 0.0000 0.0000 1800.1968 -7609.8066 302.1682 -9410.0034 -7590.8370 300.1435 -281.6230 -165.7210 31128.9621 -79.5982 -25.8310
ENERGY: 1500000 4.3353 2.6097 3.1961 0.0000 -10842.3249 1441.0947 0.0000 0.0000 1717.8890 -7673.2000 288.3526 -9391.0890 -7598.8383 299.7091 -497.5751 -462.2705 30992.2848 -193.7646 -135.9564
TCL: Running FEP window   8: Lambda1 0.35   Lambda2 0.39999999999999997 [dLambda 0.04999999999999999]
TCL: Setting parameter firsttimestep to 0
TCL: Setting parameter alchLambda to 0.35
Info: NONBONDED TABLE R-SQUARED SPACING: 0.0625
Info: NONBONDED TABLE SIZE: 705 POINTS
TCL: Setting parameter alchLambda2 to 0.39999999999999997
Info: NONBONDED TABLE R-SQUARED SPACING: 0.0625
Info: NONBONDED TABLE SIZE: 705 POINTS
TCL: Running for 1500000 steps
ETITLE: TS BOND ANGLE DIHED IMPRP ELECT VDW BOUNDARY MISC KINETIC TOTAL TEMP POTENTIAL TOTALAVG TEMPAVG PRESSURE GPRESSURE VOLUME PRESSAVG GPRESSAVG
ENERGY: 0 4.3353 2.6097 3.1961 0.0000 -10842.3258 1441.2537 0.0000 0.0000 1716.9728 -7673.9582 288.1988 -9390.9309 -7673.9582 288.1988 -538.6028 -454.2578 30992.2848 -538.6028 -454.2578
ENERGY: 300000 2.2264 2.9565 2.6519 0.0000 -10826.8230 1388.5736 0.0000 0.0000 1816.1842 -7614.2304 304.8517 -9430.4146 -7595.8470 299.7094 -435.4577 -423.6593 30376.4760 -489.2429 -428.6609
ENERGY: 600000 1.8288 3.9612 3.2311 0.0000 -10938.7935 1487.0595 0.0000 0.0000 1824.1861 -7618.5268 306.1949 -9442.7129 -7614.8520 299.2827 118.4531 169.3337 30457.3151 -314.9115 -265.2628
ENERGY: 900000 3.4450 6.4838 5.1811 0.0000 -10909.9898 1442.6372 0.0000 0.0000 1806.6738 -7645.5689 303.2554 -9452.2427 -7613.9289 298.2123 -307.4461 -222.0066 30804.4833 -298.4544 -242.2927
ENERGY: 1200000 5.9236 5.5244 0.7675 0.0000 -10767.6259 1450.7964 0.0000 0.0000 1793.8810 -7510.7329 301.1081 -9304.6140 -7602.3287 298.9944 -385.8808 -345.1961 31260.7899 -216.3964 -163.3394
ENERGY: 1500000 3.0421 4.9582 0.7668 0.0000 -10747.7368 1442.9853 0.0000 0.0000 1790.8010 -7505.1834 300.5911 -9295.9844 -7589.5093 299.1831 21.8376 20.6199 31170.1392 -197.4207 -147.2980
TCL: Running FEP window   9: Lambda1 0.39999999999999997 Lambda2 0.44999999999999996 [dLambda 0.04999999999999999]
TCL: Setting parameter firsttimestep to 0
TCL: Setting parameter alchLambda to 0.39999999999999997
Info: NONBONDED TABLE R-SQUARED SPACING: 0.0625
Info: NONBONDED TABLE SIZE: 705 POINTS
TCL: Setting parameter alchLambda2 to 0.44999999999999996
Info: NONBONDED TABLE R-SQUARED SPACING: 0.0625
Info: NONBONDED TABLE SIZE: 705 POINTS
TCL: Running for 1500000 steps
ETITLE: TS BOND ANGLE DIHED IMPRP ELECT VDW BOUNDARY MISC KINETIC TOTAL TEMP POTENTIAL TOTALAVG TEMPAVG PRESSURE GPRESSURE VOLUME PRESSAVG GPRESSAVG
ENERGY: 0 3.0421 4.9582 0.7668 0.0000 -10747.7369 1444.1584 0.0000 0.0000 1789.9425 -7504.8690 300.4470 -9294.8115 -7504.8690 300.4470 -64.7751 30.5832 31170.1392 -64.7751 30.5832
ENERGY: 300000 3.8007 4.6591 1.8954 0.0000 -10911.3230 1498.2812 0.0000 0.0000 1756.0903 -7646.5962 294.7648 -9402.6866 -7600.1457 299.7035 256.5648 303.7344 30690.1959 15.5000 90.2782
ENERGY: 600000 2.3454 3.2069 1.7962 0.0000 -10846.8248 1422.3710 0.0000 0.0000 1783.9635 -7633.1417 299.4434 -9417.1053 -7610.3845 298.1240 -672.4078 -538.7585 30919.4469 -193.6354 -105.6772
ENERGY: 900000 4.0537 6.1624 1.5611 0.0000 -10917.0135 1536.3576 0.0000 0.0000 1827.4931 -7541.3855 306.7499 -9368.8785 -7608.4312 299.5021 155.9408 185.4932 31118.9846 -166.8714 -84.8103
ENERGY: 1200000 3.0944 3.8087 3.8525 0.0000 -10656.0012 1371.6656 0.0000 0.0000 1779.1560 -7494.4240 298.6364 -9273.5800 -7598.1539 299.1072 -684.0611 -618.1304 31614.2930 -214.0615 -126.9788
ENERGY: 1500000 2.2795 4.3197 3.2340 0.0000 -10871.7850 1434.7307 0.0000 0.0000 1784.4214 -7642.7997 299.5202 -9427.2211 -7603.5815 297.8711 -447.3967 -368.3162 30814.9126 -159.9703 -74.0014
TCL: Running FEP window  10: Lambda1 0.44999999999999996 Lambda2 0.49999999999999994 [dLambda 0.04999999999999999]
TCL: Setting parameter firsttimestep to 0
TCL: Setting parameter alchLambda to 0.44999999999999996
Info: NONBONDED TABLE R-SQUARED SPACING: 0.0625
Info: NONBONDED TABLE SIZE: 705 POINTS
TCL: Setting parameter alchLambda2 to 0.49999999999999994
Info: NONBONDED TABLE R-SQUARED SPACING: 0.0625
Info: NONBONDED TABLE SIZE: 705 POINTS
TCL: Running for 1500000 steps
ETITLE: TS BOND ANGLE DIHED IMPRP ELECT VDW BOUNDARY MISC KINETIC TOTAL TEMP POTENTIAL TOTALAVG TEMPAVG PRESSURE GPRESSURE VOLUME PRESSAVG GPRESSAVG
ENERGY: 0 2.2795 4.3197 3.2340 0.0000 -10871.7848 1434.1513 0.0000 0.0000 1783.5131 -7644.2872 299.3678 -9427.8003 -7644.2872 299.3678 -452.7177 -366.5593 30814.9126 -452.7177 -366.5593
ENERGY: 300000 3.5964 4.4472 1.6150 0.0000 -10918.3320 1496.4962 0.0000 0.0000 1824.3732 -7587.8039 306.2263 -9412.1771 -7557.0276 302.4471 613.0059 651.9440 30069.4670 -80.6397 -20.5451
ENERGY: 600000 1.6058 5.8116 2.5062 0.0000 -10737.1495 1388.7335 0.0000 0.0000 1835.9997 -7502.4927 308.1778 -9338.4924 -7573.9787 303.7576 -529.7842 -436.7914 30939.8965 -120.6150 -56.5541
ENERGY: 900000 2.2038 3.3486 1.9720 0.0000 -10792.6412 1455.1088 0.0000 0.0000 1790.1258 -7539.8822 300.4777 -9330.0080 -7576.8483 302.0985 -64.3065 20.0438 30840.2885 -150.1957 -85.3796
ENERGY: 1200000 3.4475 3.1672 2.8620 0.0000 -10957.0368 1535.2050 0.0000 0.0000 1779.8096 -7632.5455 298.7461 -9412.3551 -7585.1150 301.5623 173.6754 244.6069 31062.0769 -191.0106 -127.0913
ENERGY: 1500000 2.3437 6.2290 1.5741 0.0000 -10844.0558 1469.7234 0.0000 0.0000 1738.8007 -7625.3849 291.8627 -9364.1856 -7577.6568 301.3130 72.3918 89.6406 30680.1842 -170.1239 -113.5133
TCL: Running FEP window  11: Lambda1 0.49999999999999994 Lambda2 0.5499999999999999 [dLambda 0.04999999999999999]
TCL: Setting parameter firsttimestep to 0
TCL: Setting parameter alchLambda to 0.49999999999999994
Info: NONBONDED TABLE R-SQUARED SPACING: 0.0625
Info: NONBONDED TABLE SIZE: 705 POINTS
TCL: Setting parameter alchLambda2 to 0.5499999999999999
Info: NONBONDED TABLE R-SQUARED SPACING: 0.0625
Info: NONBONDED TABLE SIZE: 705 POINTS
TCL: Running for 1500000 steps
ETITLE: TS BOND ANGLE DIHED IMPRP ELECT VDW BOUNDARY MISC KINETIC TOTAL TEMP POTENTIAL TOTALAVG TEMPAVG PRESSURE GPRESSURE VOLUME PRESSAVG GPRESSAVG
ENERGY: 0 2.3438 6.2290 1.5741 0.0000 -10844.0549 1469.3667 0.0000 0.0000 1737.9355 -7626.6058 291.7175 -9364.5413 -7626.6058 291.7175 12.0614 91.7454 30680.1842 12.0614 91.7454
ENERGY: 300000 3.4582 9.9321 4.6815 0.0000 -10812.1937 1459.0285 0.0000 0.0000 1796.6531 -7538.4403 301.5734 -9335.0934 -7575.5269 298.9675 147.3113 202.9053 30589.5646 342.0066 415.5033
ENERGY: 600000 1.9552 2.9494 2.5504 0.0000 -10777.7244 1391.2150 0.0000 0.0000 1772.1142 -7606.9402 297.4544 -9379.0544 -7572.4475 300.6978 -661.3171 -530.2271 30990.7283 -5.6914 80.7463
ENERGY: 900000 3.6521 5.8056 1.5658 0.0000 -10895.5451 1440.4354 0.0000 0.0000 1754.1277 -7689.9585 294.4354 -9444.0862 -7572.5871 300.9900 -366.9250 -322.2531 30747.3289 95.2319 177.1798
ENERGY: 1200000 3.4863 3.1599 1.0525 0.0000 -10775.1980 1413.6408 0.0000 0.0000 1844.9959 -7508.8626 309.6879 -9353.8585 -7566.4620 300.9485 -161.1761 -75.8618 30427.3220 10.6270 84.8199
ENERGY: 1500000 2.9086 2.8997 4.2808 0.0000 -10871.2585 1478.6021 0.0000 0.0000 1742.2552 -7640.3121 292.4425 -9382.5673 -7573.4232 300.3926 524.9128 575.5492 30537.9253 49.3072 119.2087
TCL: Running FEP window  12: Lambda1 0.5499999999999999 Lambda2 0.6    [dLambda 0.050000000000000044]
TCL: Setting parameter firsttimestep to 0
TCL: Setting parameter alchLambda to 0.5499999999999999
Info: NONBONDED TABLE R-SQUARED SPACING: 0.0625
Info: NONBONDED TABLE SIZE: 705 POINTS
TCL: Setting parameter alchLambda2 to 0.6
Info: NONBONDED TABLE R-SQUARED SPACING: 0.0625
Info: NONBONDED TABLE SIZE: 705 POINTS
TCL: Running for 1500000 steps
ETITLE: TS BOND ANGLE DIHED IMPRP ELECT VDW BOUNDARY MISC KINETIC TOTAL TEMP POTENTIAL TOTALAVG TEMPAVG PRESSURE GPRESSURE VOLUME PRESSAVG GPRESSAVG
ENERGY: 0 2.9086 2.8997 4.2808 0.0000 -10871.2158 1478.1735 0.0000 0.0000 1741.3467 -7641.6065 292.2900 -9382.9532 -7641.6065 292.2900 502.1059 579.4431 30537.9253 502.1059 579.4431
ENERGY: 300000 6.4408 5.4814 4.0598 0.0000 -10852.1078 1427.6900 0.0000 0.0000 1789.5489 -7618.8869 300.3809 -9408.4357 -7623.0560 297.0579 -662.9063 -618.7592 31193.6381 -39.4356 27.3300
ENERGY: 600000 2.5171 6.2048 4.2812 0.0000 -10895.5004 1514.0348 0.0000 0.0000 1787.3580 -7581.1044 300.0132 -9368.4624 -7608.3150 297.8196 508.4616 530.6333 30769.8189 1.2903 78.6751
ENERGY: 900000 4.9463 6.2129 3.5782 0.0000 -10786.8193 1377.3932 0.0000 0.0000 1766.0114 -7628.6774 296.4301 -9394.6887 -7598.3672 298.3905 -744.9695 -720.4799 30744.2805 -66.1650 2.5503
ENERGY: 1200000 3.6594 3.2067 1.6568 0.0000 -10831.6154 1471.6197 0.0000 0.0000 1740.8815 -7610.5913 292.2120 -9351.4728 -7603.6490 297.4561 -193.6875 -173.6754 31358.7044 -99.3527 -32.9329
ENERGY: 1500000 3.8162 2.8921 2.8657 0.0000 -10861.0562 1446.7313 0.0000 0.0000 1788.6289 -7616.1218 300.2265 -9404.7507 -7602.9699 297.6078 -98.6801 -1.1592 30766.5129 -106.5650 -38.3691
TCL: Running FEP window  13: Lambda1 0.6    Lambda2 0.65   [dLambda 0.050000000000000044]
TCL: Setting parameter firsttimestep to 0
TCL: Setting parameter alchLambda to 0.6
Info: NONBONDED TABLE R-SQUARED SPACING: 0.0625
Info: NONBONDED TABLE SIZE: 705 POINTS
TCL: Setting parameter alchLambda2 to 0.65
Info: NONBONDED TABLE R-SQUARED SPACING: 0.0625
Info: NONBONDED TABLE SIZE: 705 POINTS
TCL: Running for 1500000 steps
ETITLE: TS BOND ANGLE DIHED IMPRP ELECT VDW BOUNDARY MISC KINETIC TOTAL TEMP POTENTIAL TOTALAVG TEMPAVG PRESSURE GPRESSURE VOLUME PRESSAVG GPRESSAVG
ENERGY: 0 3.8162 2.8921 2.8657 0.0000 -10860.9612 1446.5777 0.0000 0.0000 1787.7527 -7617.0567 300.0794 -9404.8094 -7617.0567 300.0794 -89.2557 3.9828 30766.5129 -89.2557 3.9828
ENERGY: 300000 1.2022 4.5440 3.7201 0.0000 -10752.8646 1372.4731 0.0000 0.0000 1756.1814 -7614.7439 294.7801 -9370.9252 -7598.7939 300.5361 -651.3595 -599.5074 30887.4775 -520.3999 -460.7876
ENERGY: 600000 4.8338 5.2786 5.1277 0.0000 -10759.7955 1435.5474 0.0000 0.0000 1774.5656 -7534.4424 297.8659 -9309.0079 -7592.2745 301.9159 -366.6499 -362.7419 31465.0119 -345.6499 -299.6311
ENERGY: 900000 2.6189 3.8534 3.1247 0.0000 -10689.7755 1426.3072 0.0000 0.0000 1796.0820 -7457.7893 301.4775 -9253.8712 -7572.5648 302.1829 122.9882 170.2915 31095.5655 -190.1847 -137.7431
ENERGY: 1200000 4.9996 2.5998 1.4750 0.0000 -10740.9821 1420.0709 0.0000 0.0000 1805.8262 -7506.0105 303.1131 -9311.8367 -7575.8258 301.6665 -300.7732 -224.7767 31244.9405 -297.2837 -241.3628
ENERGY: 1500000 1.9765 6.0643 2.0818 0.0000 -10767.1545 1425.3942 0.0000 0.0000 1785.8313 -7545.8063 299.7569 -9331.6376 -7570.9082 301.9502 -265.6219 -191.6076 31121.6851 -269.0737 -207.3595
TCL: Running FEP window  14: Lambda1 0.65   Lambda2 0.7000000000000001 [dLambda 0.050000000000000044]
TCL: Setting parameter firsttimestep to 0
TCL: Setting parameter alchLambda to 0.65
Info: NONBONDED TABLE R-SQUARED SPACING: 0.0625
Info: NONBONDED TABLE SIZE: 705 POINTS
TCL: Setting parameter alchLambda2 to 0.7000000000000001
Info: NONBONDED TABLE R-SQUARED SPACING: 0.0625
Info: NONBONDED TABLE SIZE: 705 POINTS
TCL: Running for 1500000 steps
ETITLE: TS BOND ANGLE DIHED IMPRP ELECT VDW BOUNDARY MISC KINETIC TOTAL TEMP POTENTIAL TOTALAVG TEMPAVG PRESSURE GPRESSURE VOLUME PRESSAVG GPRESSAVG
ENERGY: 0 1.9765 6.0643 2.0818 0.0000 -10767.1340 1425.1556 0.0000 0.0000 1784.9112 -7546.9446 299.6025 -9331.8557 -7546.9446 299.6025 -281.1979 -187.5519 31121.6851 -281.1979 -187.5519
ENERGY: 300000 4.0079 4.9570 2.8966 0.0000 -10714.8921 1343.1724 0.0000 0.0000 1774.1220 -7585.7361 297.7915 -9359.8582 -7580.3212 300.3028 -931.0750 -877.6620 31278.8939 -529.6952 -448.0876
ENERGY: 600000 1.8645 8.4489 2.6806 0.0000 -10734.0271 1402.6410 0.0000 0.0000 1820.6825 -7497.7096 305.6068 -9318.3921 -7561.2402 302.1086 -147.5943 -87.9231 30883.7172 -280.2387 -206.0081
ENERGY: 900000 2.7194 4.6085 2.6091 0.0000 -10848.5420 1484.4122 0.0000 0.0000 1730.4344 -7623.7584 290.4584 -9354.1928 -7569.0145 300.7745 76.6849 150.4922 31203.4716 -152.7505 -82.9922
ENERGY: 1200000 1.8707 4.3815 3.0040 0.0000 -10773.5230 1388.1398 0.0000 0.0000 1783.7715 -7592.3556 299.4112 -9376.1271 -7567.2793 300.7294 -641.1770 -526.4300 31251.0544 -190.3589 -118.6797
ENERGY: 1500000 2.4798 3.9484 1.2170 0.0000 -10850.4661 1481.1943 0.0000 0.0000 1773.8602 -7587.7665 297.7475 -9361.6266 -7567.3258 301.0489 180.4882 225.0247 31286.7746 -171.7199 -103.2821
TCL: Running FEP window  15: Lambda1 0.7000000000000001 Lambda2 0.7500000000000001 [dLambda 0.050000000000000044]
TCL: Setting parameter firsttimestep to 0
TCL: Setting parameter alchLambda to 0.7000000000000001
Info: NONBONDED TABLE R-SQUARED SPACING: 0.0625
Info: NONBONDED TABLE SIZE: 705 POINTS
TCL: Setting parameter alchLambda2 to 0.7500000000000001
Info: NONBONDED TABLE R-SQUARED SPACING: 0.0625
Info: NONBONDED TABLE SIZE: 705 POINTS
TCL: Running for 1500000 steps
ETITLE: TS BOND ANGLE DIHED IMPRP ELECT VDW BOUNDARY MISC KINETIC TOTAL TEMP POTENTIAL TOTALAVG TEMPAVG PRESSURE GPRESSURE VOLUME PRESSAVG GPRESSAVG
ENERGY: 0 2.4798 3.9484 1.2170 0.0000 -10850.6757 1481.4544 0.0000 0.0000 1772.8814 -7588.6948 297.5832 -9361.5762 -7588.6948 297.5832 162.4499 235.1634 31286.7746 162.4499 235.1634
ENERGY: 300000 2.2856 2.0255 3.7387 0.0000 -10803.9954 1435.4654 0.0000 0.0000 1765.3576 -7595.1224 296.3203 -9360.4800 -7540.9368 299.7757 -336.0965 -281.2805 31023.7477 92.8700 146.5172
ENERGY: 600000 2.3186 3.7646 3.2538 0.0000 -11012.0193 1506.7063 0.0000 0.0000 1772.2251 -7723.7510 297.4731 -9495.9761 -7567.3858 301.3565 178.7227 249.8024 30791.7592 243.4905 306.3439
ENERGY: 900000 1.3347 6.1505 3.4908 0.0000 -10904.6629 1523.7961 0.0000 0.0000 1865.9270 -7503.9638 313.2012 -9369.8908 -7546.7832 302.9992 410.7256 478.0932 30903.5844 72.7246 119.5954
ENERGY: 1200000 2.5953 2.6526 2.2678 0.0000 -10793.3313 1412.9508 0.0000 0.0000 1780.5958 -7592.2689 298.8781 -9372.8648 -7563.5696 302.2522 -431.2084 -437.7662 31348.0416 -55.6527 -16.9685
ENERGY: 1500000 3.1395 2.7563 3.2119 0.0000 -10895.2056 1495.1585 0.0000 0.0000 1793.6481 -7597.2914 301.0690 -9390.9395 -7565.1322 302.0308 55.5300 149.1381 30976.5829 -135.4922 -93.1866
TCL: Running FEP window  16: Lambda1 0.7500000000000001 Lambda2 0.8000000000000002 [dLambda 0.050000000000000044]
TCL: Setting parameter firsttimestep to 0
TCL: Setting parameter alchLambda to 0.7500000000000001
Info: NONBONDED TABLE R-SQUARED SPACING: 0.0625
Info: NONBONDED TABLE SIZE: 705 POINTS
TCL: Setting parameter alchLambda2 to 0.8000000000000002
Info: NONBONDED TABLE R-SQUARED SPACING: 0.0625
Info: NONBONDED TABLE SIZE: 705 POINTS
TCL: Running for 1500000 steps
ETITLE: TS BOND ANGLE DIHED IMPRP ELECT VDW BOUNDARY MISC KINETIC TOTAL TEMP POTENTIAL TOTALAVG TEMPAVG PRESSURE GPRESSURE VOLUME PRESSAVG GPRESSAVG
ENERGY: 0 3.1395 2.7563 3.2119 0.0000 -10895.4073 1495.1379 0.0000 0.0000 1792.7761 -7598.3856 300.9226 -9391.1617 -7598.3856 300.9226 79.6616 161.3807 30976.5829 79.6616 161.3807
ENERGY: 300000 2.7326 5.2372 3.1511 0.0000 -10853.0912 1417.9835 0.0000 0.0000 1749.8047 -7674.1821 293.7097 -9423.9868 -7612.7870 298.5508 -285.1128 -242.1358 30564.5685 -106.1053 -39.9790
ENERGY: 600000 2.2341 4.5001 0.9963 0.0000 -10871.6743 1424.5037 0.0000 0.0000 1860.1941 -7579.2460 312.2389 -9439.4401 -7585.5135 302.2802 -334.7479 -326.8839 31034.2567 -30.3749 30.7988
ENERGY: 900000 1.9671 4.0267 2.9914 0.0000 -10755.1707 1435.3912 0.0000 0.0000 1740.1441 -7570.6502 292.0882 -9310.7944 -7577.6673 302.2934 -28.5415 2.2883 30831.2834 -42.6864 16.4034
ENERGY: 1200000 4.4035 3.5427 2.1865 0.0000 -10803.4059 1407.3570 0.0000 0.0000 1766.0991 -7619.8171 296.4448 -9385.9162 -7585.3608 302.0887 -591.8677 -547.0738 30781.4935 27.4123 86.4321
ENERGY: 1500000 4.1944 4.5786 1.9583 0.0000 -10814.4333 1385.3246 0.0000 0.0000 1814.7011 -7603.6762 304.6028 -9418.3773 -7589.5069 301.4235 -813.0973 -736.2180 31179.6474 -26.9442 31.1497
TCL: Running FEP window  17: Lambda1 0.8000000000000002 Lambda2 0.8500000000000002 [dLambda 0.050000000000000044]
TCL: Setting parameter firsttimestep to 0
TCL: Setting parameter alchLambda to 0.8000000000000002
Info: NONBONDED TABLE R-SQUARED SPACING: 0.0625
Info: NONBONDED TABLE SIZE: 705 POINTS
TCL: Setting parameter alchLambda2 to 0.8500000000000002
Info: NONBONDED TABLE R-SQUARED SPACING: 0.0625
Info: NONBONDED TABLE SIZE: 705 POINTS
TCL: Running for 1500000 steps
ETITLE: TS BOND ANGLE DIHED IMPRP ELECT VDW BOUNDARY MISC KINETIC TOTAL TEMP POTENTIAL TOTALAVG TEMPAVG PRESSURE GPRESSURE VOLUME PRESSAVG GPRESSAVG
ENERGY: 0 4.1944 4.5786 1.9583 0.0000 -10814.7075 1385.6473 0.0000 0.0000 1813.7912 -7604.5376 304.4501 -9418.3288 -7604.5376 304.4501 -792.7483 -719.8323 31179.6474 -792.7483 -719.8323
ENERGY: 300000 5.3362 2.8316 2.2830 0.0000 -10853.8177 1380.3992 0.0000 0.0000 1739.5839 -7723.3839 291.9941 -9462.9679 -7620.0978 299.6606 -677.5209 -640.7827 30448.5055 -410.4259 -328.2991
ENERGY: 600000 0.6249 9.0196 1.0589 0.0000 -10918.3321 1437.9749 0.0000 0.0000 1818.0163 -7651.6375 305.1592 -9469.6537 -7610.5304 299.2193 -441.4726 -301.6530 30689.6697 -421.7328 -344.5547
ENERGY: 900000 1.5818 4.0680 3.3251 0.0000 -10825.8932 1418.2510 0.0000 0.0000 1771.8658 -7626.8015 297.4128 -9398.6674 -7616.5676 299.0776 -524.3107 -420.8445 31021.9616 -255.7412 -189.8014
ENERGY: 1200000 0.5741 7.3091 3.3453 0.0000 -10885.9145 1447.4232 0.0000 0.0000 1781.4812 -7645.7816 299.0267 -9427.2628 -7611.4037 299.9878 -111.2774 -62.1474 30798.6597 -260.3000 -198.3007
ENERGY: 1500000 0.8064 4.4192 1.1205 0.0000 -10954.4834 1510.2336 0.0000 0.0000 1807.4607 -7630.4432 303.3875 -9437.9039 -7609.3436 299.9103 225.9402 260.1412 31008.9597 -195.5331 -133.2831
TCL: Running FEP window  18: Lambda1 0.8500000000000002 Lambda2 0.9000000000000002 [dLambda 0.050000000000000044]
TCL: Setting parameter firsttimestep to 0
TCL: Setting parameter alchLambda to 0.8500000000000002
Info: NONBONDED TABLE R-SQUARED SPACING: 0.0625
Info: NONBONDED TABLE SIZE: 705 POINTS
TCL: Setting parameter alchLambda2 to 0.9000000000000002
Info: NONBONDED TABLE R-SQUARED SPACING: 0.0625
Info: NONBONDED TABLE SIZE: 705 POINTS
TCL: Running for 1500000 steps
ETITLE: TS BOND ANGLE DIHED IMPRP ELECT VDW BOUNDARY MISC KINETIC TOTAL TEMP POTENTIAL TOTALAVG TEMPAVG PRESSURE GPRESSURE VOLUME PRESSAVG GPRESSAVG
ENERGY: 0 0.8064 4.4192 1.1205 0.0000 -10954.6880 1509.7829 0.0000 0.0000 1806.5610 -7631.9981 303.2364 -9438.5591 -7631.9981 303.2364 191.2567 265.9956 31008.9597 191.2567 265.9956
ENERGY: 300000 3.4014 4.7472 1.3375 0.0000 -10778.7305 1413.6309 0.0000 0.0000 1766.9545 -7588.6590 296.5884 -9355.6135 -7599.9535 301.4586 -476.3373 -421.7347 31280.6764 -29.3849 35.4886
ENERGY: 600000 6.5304 3.7546 1.9094 0.0000 -10864.1307 1443.4471 0.0000 0.0000 1823.2647 -7585.2245 306.0402 -9408.4892 -7598.8789 302.0297 -311.3054 -160.5828 30620.6685 -63.2008 14.5273
ENERGY: 900000 2.5102 4.6085 2.5353 0.0000 -10887.6806 1521.5152 0.0000 0.0000 1786.6437 -7569.8679 299.8933 -9356.5115 -7598.4336 302.0981 583.0982 651.3636 30702.3644 29.0016 105.1324
ENERGY: 1200000 0.9897 3.5354 2.5171 0.0000 -10797.5835 1452.5311 0.0000 0.0000 1783.4342 -7554.5760 299.3545 -9338.0102 -7600.3495 301.8285 199.8565 262.3842 30881.5491 16.6636 86.7773
ENERGY: 1500000 2.9494 2.2788 2.5944 0.0000 -10954.8924 1481.3785 0.0000 0.0000 1745.6580 -7720.0333 293.0137 -9465.6913 -7597.5374 301.3961 142.8754 197.8648 30530.4042 51.6983 122.7005
TCL: Running FEP window  19: Lambda1 0.9000000000000002 Lambda2 0.9500000000000003 [dLambda 0.050000000000000044]
TCL: Setting parameter firsttimestep to 0
TCL: Setting parameter alchLambda to 0.9000000000000002
Info: NONBONDED TABLE R-SQUARED SPACING: 0.0625
Info: NONBONDED TABLE SIZE: 705 POINTS
TCL: Setting parameter alchLambda2 to 0.9500000000000003
Info: NONBONDED TABLE R-SQUARED SPACING: 0.0625
Info: NONBONDED TABLE SIZE: 705 POINTS
TCL: Running for 1500000 steps
ETITLE: TS BOND ANGLE DIHED IMPRP ELECT VDW BOUNDARY MISC KINETIC TOTAL TEMP POTENTIAL TOTALAVG TEMPAVG PRESSURE GPRESSURE VOLUME PRESSAVG GPRESSAVG
ENERGY: 0 2.9494 2.2788 2.5944 0.0000 -10955.5082 1482.4485 0.0000 0.0000 1744.7568 -7720.4803 292.8624 -9465.2371 -7720.4803 292.8624 137.9329 225.6786 30530.4042 137.9329 225.6786
ENERGY: 300000 0.9399 3.5074 2.2773 0.0000 -10871.9429 1472.3411 0.0000 0.0000 1798.5486 -7594.3287 301.8915 -9392.8773 -7644.8375 299.2667 -152.4268 -96.3640 31343.5793 37.8858 94.8722
ENERGY: 600000 3.6153 3.6572 4.6587 0.0000 -11028.9618 1515.6176 0.0000 0.0000 1778.3496 -7723.0634 298.5011 -9501.4130 -7617.0068 299.4244 195.6102 181.6224 30572.4544 -106.5295 -51.5911
ENERGY: 900000 3.0255 2.6209 1.7977 0.0000 -10822.2799 1453.6840 0.0000 0.0000 1794.9582 -7566.1936 301.2889 -9361.1518 -7603.3667 299.6223 505.7470 544.4581 30220.3406 -70.6676 -14.9455
ENERGY: 1200000 4.6377 4.6539 2.9967 0.0000 -10820.6034 1441.9469 0.0000 0.0000 1724.8606 -7641.5075 289.5228 -9366.3681 -7608.2907 298.5265 -74.0495 1.3506 30840.3744 52.1485 111.8612
ENERGY: 1500000 2.5093 6.9655 1.6235 0.0000 -10794.6469 1463.6116 0.0000 0.0000 1780.6304 -7539.3066 298.8839 -9319.9370 -7601.5136 298.9604 299.7401 369.6567 30835.5797 29.5025 87.2610
TCL: Running FEP window  20: Lambda1 0.9500000000000003 Lambda2 1.0    [dLambda 0.04999999999999971]
TCL: Setting parameter firsttimestep to 0
TCL: Setting parameter alchLambda to 0.9500000000000003
Info: NONBONDED TABLE R-SQUARED SPACING: 0.0625
Info: NONBONDED TABLE SIZE: 705 POINTS
TCL: Setting parameter alchLambda2 to 1.0
Info: NONBONDED TABLE R-SQUARED SPACING: 0.0625
Info: NONBONDED TABLE SIZE: 705 POINTS
TCL: Running for 1500000 steps
ETITLE: TS BOND ANGLE DIHED IMPRP ELECT VDW BOUNDARY MISC KINETIC TOTAL TEMP POTENTIAL TOTALAVG TEMPAVG PRESSURE GPRESSURE VOLUME PRESSAVG GPRESSAVG
ENERGY: 0 2.5093 6.9655 1.6235 0.0000 -10795.0310 1463.5104 0.0000 0.0000 1779.7466 -7540.6757 298.7356 -9320.4223 -7540.6757 298.7356 306.4244 379.0667 30835.5797 306.4244 379.0667
ENERGY: 300000 1.8904 4.9992 3.9597 0.0000 -10919.3890 1494.1223 0.0000 0.0000 1802.4284 -7611.9891 302.5428 -9414.4174 -7586.2669 301.9663 381.8872 453.9559 30845.5378 269.6237 338.5712
ENERGY: 600000 1.7967 7.4478 1.0741 0.0000 -10865.6202 1413.7164 0.0000 0.0000 1785.2925 -7656.2927 299.6665 -9441.5852 -7618.7669 299.3321 -506.4846 -438.0614 30605.3878 21.8840 85.9453
ENERGY: 900000 1.7459 5.3675 3.1436 0.0000 -10846.3257 1472.6169 0.0000 0.0000 1812.8345 -7550.6173 304.2895 -9363.4518 -7594.1899 300.1689 360.4693 390.0898 30687.1709 95.6276 159.8002
ENERGY: 1200000 1.1757 5.6390 3.6428 0.0000 -10879.9424 1449.5053 0.0000 0.0000 1804.4643 -7615.5153 302.8845 -9419.9796 -7592.8758 300.4441 37.4263 110.2666 30825.4060 130.4306 194.3092
ENERGY: 1500000 4.7336 4.0969 1.5794 0.0000 -10896.3341 1506.6442 0.0000 0.0000 1846.6555 -7532.6246 309.9664 -9379.2801 -7599.7131 300.3278 203.5575 231.9325 30888.4424 106.7900 167.3318
TCL: Exiting due to exit command.
