Info: SIMULATION PARAMETERS:
Info: TIMESTEP               2
Info: NUMBER OF STEPS        0
Info: STEPS PER CYCLE        10
Info: PERIODIC CELL BASIS 1  30.259 0 0
Info: PERIODIC CELL BASIS 2  0 31.6496 0
Info: PERIODIC CELL BASIS 3  0 0 31.6
Info: PERIODIC CELL CENTER   0 0 0
Info: WRAPPING WATERS AROUND PERIODIC BOUNDARIES ON OUTPUT.
Info: WRAPPING ALL CLUSTERS AROUND PERIODIC BOUNDARIES ON OUTPUT.
Info: FIRST LDB TIMESTEP     50
Info: LAST LDB TIMESTEP     -1
Info: HOM BACKGROUND SCALING 1
Info: PME BACKGROUND SCALING 1
Info: MIN ATOMS PER PATCH    40
Info: EMPTY PATCH LOAD       40 ATOMS
Info: VELOCITY FILE          mobley_7893124_equil.vel
Info: CENTER OF MASS MOVING INITIALLY? NO
Info: DIELECTRIC             1
Info: EXCLUDE                SCALED ONE-FOUR
Info: 1-4 ELECTROSTATICS SCALED BY 0.833333
Info: MODIFIED 1-4 VDW PARAMETERS WILL BE USED
Info: DCD FILENAME           mobley_7893124_prod.dcd
Info: DCD FREQUENCY          100000
Info: DCD FIRST STEP         100000
Info: DCD FILE WILL CONTAIN UNIT CELL DATA
Info: XST FILENAME           mobley_7893124_prod.xst
Info: XST FREQUENCY          100000
Info: NO VELOCITY DCD OUTPUT
Info: NO FORCE DCD OUTPUT
Info: OUTPUT FILENAME        mobley_7893124_prod
Info: BINARY OUTPUT FILES WILL BE USED
Info: RESTART FILENAME       mobley_7893124_prod.restart
Info: RESTART FREQUENCY      100000
Info: BINARY RESTART FILES WILL BE USED
Info: CUTOFF                 9
Info: PAIRLIST DISTANCE      11
Info: PAIRLIST SHRINK RATE   0.01
Info: PAIRLIST GROW RATE     0.01
Info: PAIRLIST TRIGGER       0.3
Info: PAIRLISTS PER CYCLE    2
Info: PAIRLISTS ENABLED
Info: MARGIN                 2
Info: HYDROGEN GROUP CUTOFF  2.5
Info: PATCH DIMENSION        15.5
Info: ENERGY OUTPUT STEPS    100000
Info: ENERGY EVALUATION STEPS    100000
Info: OUTPUT ENERGY PRECISION 4
Info: CROSSTERM ENERGY INCLUDED IN DIHEDRAL
Info: TIMING OUTPUT STEPS    1000000
Info: PRESSURE OUTPUT STEPS  100000
Info: ALCHEMICAL FEP ON
Info: FEP CURRENT LAMBDA VALUE     0
Info: FEP COMPARISON LAMBDA VALUE  0.05
Info: FEP INTRA-ALCHEMICAL NON-BONDED INTERACTIONS WILL BE RETAINED
Info: FEP INTRA-ALCHEMICAL BONDED INTERACTIONS WILL BE RETAINED
Info: FEP VDW SHIFTING COEFFICIENT 5
Info: FEP ELEC. ACTIVE FOR ANNIHILATED PARTICLES BETWEEN LAMBDA = 0 AND LAMBDA = 0.5
Info: FEP ELEC. ACTIVE FOR EXNIHILATED PARTICLES BETWEEN LAMBDA = 0.5 AND LAMBDA = 1
Info: FEP VDW ACTIVE FOR ANNIHILATED PARTICLES BETWEEN LAMBDA = 0 AND LAMBDA = 1
Info: FEP VDW ACTIVE FOR EXNIHILATED PARTICLES BETWEEN LAMBDA = 0 AND LAMBDA = 1
Info: FEP BOND ACTIVE FOR ANNIHILATED PARTICLES BETWEEN LAMBDA = 1 AND LAMBDA = 1
Info: FEP BOND ACTIVE FOR EXNIHILATED PARTICLES BETWEEN LAMBDA = 0 AND LAMBDA = 0
Info: LANGEVIN DYNAMICS ACTIVE
Info: LANGEVIN TEMPERATURE   300
Info: LANGEVIN USING BBK INTEGRATOR
Info: LANGEVIN DAMPING COEFFICIENT IS 1 INVERSE PS
Info: LANGEVIN DYNAMICS APPLIED TO HYDROGENS
Info: LANGEVIN PISTON PRESSURE CONTROL ACTIVE
Info:        TARGET PRESSURE IS 1.01325 BAR
Info:     OSCILLATION PERIOD IS 50 FS
Info:             DECAY TIME IS 25 FS
Info:     PISTON TEMPERATURE IS 300 K
Info:       PRESSURE CONTROL IS GROUP-BASED
Info:    INITIAL STRAIN RATE IS 0.000594984 0.000594984 0.000594984
Info:       CELL FLUCTUATION IS ISOTROPIC
Info: PARTICLE MESH EWALD (PME) ACTIVE
Info: PME TOLERANCE               1e-06
Info: PME EWALD COEFFICIENT       0.348832
Info: PME INTERPOLATION ORDER     4
Info: PME GRID DIMENSIONS         32 32 32
Info: PME MAXIMUM GRID SPACING    1
Info: PME CALCULATION WILL BE PERFORMED ON GPU
Info: FULL ELECTROSTATIC EVALUATION FREQUENCY      2
Info: USING VERLET I (r-RESPA) MTS SCHEME.
Info: C1 SPLITTING OF LONG RANGE ELECTROSTATICS
Info: PLACING ATOMS IN PATCHES BY HYDROGEN GROUPS
Info: RIGID BONDS TO HYDROGEN : ALL
Info:         ERROR TOLERANCE : 1e-08
Info:          MAX ITERATIONS : 100
Info: RIGID WATER USING SETTLE ALGORITHM
Info: RANDOM NUMBER SEED     1743651516
Info: USE HYDROGEN BONDS?    NO
Info: Using AMBER format force field!
Info: AMBER PARM FILE        mobley_7893124.prmtop
Info: COORDINATE PDB         mobley_7893124.pdb
Info: Exclusions will be read from PARM file!
Info: SCNB (VDW SCALING)     2
Info: USING ARITHMETIC MEAN TO COMBINE L-J SIGMA PARAMETERS
Info: BINARY COORDINATES     mobley_7893124_equil.coor
Info: SUMMARY OF PARAMETERS:
Info: 7 BONDS
Info: 7 ANGLES
Info:   7 HARMONIC
Info:   0 COSINE-BASED
Info: 5 DIHEDRAL
Info: 0 IMPROPER
Info: 0 CROSSTERM
Info: 0 VDW
Info: 21 VDW_PAIRS
Info: 0 NBTHOLE_PAIRS
Info: To read alchdata from file: mobley_7893124.pdb
Info: To read alchflag data from column: 5
Info: STRUCTURE SUMMARY:
Info: 2922 ATOMS
Info: 2922 BONDS
Info: 42 ANGLES
Info: 63 DIHEDRALS
Info: 0 IMPROPERS
Info: 0 CROSSTERMS
Info: 3018 EXCLUSIONS
Info: 2912 RIGID BONDS
Info: ALCH: 0 ATOMS TO DISAPPEAR IN FINAL STATE
Info: ALCH: 24 ATOMS TO APPEAR IN FINAL STATE
Info: 5854 DEGREES OF FREEDOM
Info: 976 HYDROGEN GROUPS
Info: 4 ATOMS IN LARGEST HYDROGEN GROUP
Info: 976 MIGRATION GROUPS
Info: 4 ATOMS IN LARGEST MIGRATION GROUP
Info: TOTAL MASS = 17537.7 amu
Info: TOTAL CHARGE = 0.000200007 e
Info: MASS DENSITY = 0.962324 g/cm^3
Info: ATOM DENSITY = 0.096554 atoms/A^3
Info: ADDED 0 IMPLICIT EXCLUSIONS
Info: NONBONDED TABLE R-SQUARED SPACING: 0.0625
Info: NONBONDED TABLE SIZE: 705 POINTS
Info: REMOVING COM VELOCITY 0.00819765 -0.0935621 -0.181749
Info: Use 3D box decompostion in PME FFT.
Info: Updated CUDA force table with 4096 elements.
Info: Updated CUDA LJ table with 6 x 6 elements.
Info: Found 23 unique exclusion lists needing 80 bytes
TCL: Running for 1500000 steps
ETITLE: TS BOND ANGLE DIHED IMPRP ELECT VDW BOUNDARY MISC KINETIC TOTAL TEMP POTENTIAL TOTALAVG TEMPAVG PRESSURE GPRESSURE VOLUME PRESSAVG GPRESSAVG
ENERGY: 0 4.3852 7.9412 10.3240 0.0000 -10481.0566 1417.9908 0.0000 0.0000 1673.5355 -7366.8800 287.7217 -9040.4155 -7366.8800 287.7217 -115.0192 -40.9224 30262.8571 -115.0192 -40.9224
ENERGY: 300000 5.7056 7.3167 1.9811 0.0000 -10534.8389 1475.4796 0.0000 0.0000 1735.6036 -7308.7523 298.3927 -9044.3559 -7352.1186 297.5470 516.2689 614.3201 29821.6669 79.0761 144.7322
ENERGY: 600000 2.6708 6.3936 6.2361 0.0000 -10544.5752 1410.2386 0.0000 0.0000 1744.0587 -7374.9774 299.8463 -9119.0361 -7351.3243 299.6269 189.8855 240.8746 29744.5614 28.7698 75.1778
ENERGY: 900000 3.3105 7.5861 5.8266 0.0000 -10647.7216 1446.1117 0.0000 0.0000 1726.0253 -7458.8615 296.7460 -9184.8867 -7365.1938 298.8292 175.8059 239.2904 29328.9172 34.0615 89.6175
ENERGY: 1200000 2.7363 11.5116 4.8421 0.0000 -10609.3709 1444.8303 0.0000 0.0000 1719.7401 -7425.7105 295.6654 -9145.4506 -7368.7717 298.3870 171.3716 272.4771 29874.0694 64.9540 121.3703
ENERGY: 1500000 8.3225 9.2050 5.0583 0.0000 -10567.7333 1412.9618 0.0000 0.0000 1753.7198 -7378.4659 301.5073 -9132.1857 -7376.7071 298.5278 -695.5520 -677.5704 30306.7366 -42.5063 6.5176
TCL: Running FEP window   2: Lambda1 0.05   Lambda2 0.1    [dLambda 0.05  ]
TCL: Setting parameter firsttimestep to 0
TCL: Setting parameter alchLambda to 0.05
Info: NONBONDED TABLE R-SQUARED SPACING: 0.0625
Info: NONBONDED TABLE SIZE: 705 POINTS
TCL: Setting parameter alchLambda2 to 0.1
Info: NONBONDED TABLE R-SQUARED SPACING: 0.0625
Info: NONBONDED TABLE SIZE: 705 POINTS
TCL: Running for 1500000 steps
ETITLE: TS BOND ANGLE DIHED IMPRP ELECT VDW BOUNDARY MISC KINETIC TOTAL TEMP POTENTIAL TOTALAVG TEMPAVG PRESSURE GPRESSURE VOLUME PRESSAVG GPRESSAVG
ENERGY: 0 8.3225 9.2050 5.0583 0.0000 -10567.7331 1418.7921 0.0000 0.0000 1752.8515 -7373.5037 301.3581 -9126.3552 -7373.5037 301.3581 -736.6510 -667.2595 30306.7366 -736.6510 -667.2595
ENERGY: 300000 4.1168 13.2973 3.2280 0.0000 -10524.9401 1432.6099 0.0000 0.0000 1806.3900 -7265.2980 310.5626 -9071.6880 -7338.6729 302.7601 27.4946 72.9945 29853.0938 -21.4346 35.5068
ENERGY: 600000 4.0837 10.0521 2.0010 0.0000 -10518.6047 1458.9294 0.0000 0.0000 1735.0376 -7308.5009 298.2954 -9043.5385 -7343.2537 302.1880 453.3395 533.0936 29627.4329 154.1595 231.0915
ENERGY: 900000 4.6837 9.6383 3.2208 0.0000 -10669.4944 1515.5855 0.0000 0.0000 1776.4423 -7359.9239 305.4139 -9136.3661 -7347.1198 301.7134 751.2669 874.3353 29539.1987 128.2816 210.5304
ENERGY: 1200000 4.1899 7.0650 3.4371 0.0000 -10502.0201 1367.7258 0.0000 0.0000 1753.1379 -7366.4643 301.4073 -9119.6022 -7354.8198 301.4627 -608.6752 -433.0600 29600.5705 17.8752 100.3601
ENERGY: 1500000 3.8514 6.9791 1.2540 0.0000 -10595.8763 1418.4921 0.0000 0.0000 1668.8300 -7496.4696 286.9127 -9165.2996 -7354.4509 301.3133 139.7772 216.4046 29417.7264 68.5558 151.2803
TCL: Running FEP window   3: Lambda1 0.1    Lambda2 0.15000000000000002 [dLambda 0.05000000000000002]
TCL: Setting parameter firsttimestep to 0
TCL: Setting parameter alchLambda to 0.1
Info: NONBONDED TABLE R-SQUARED SPACING: 0.0625
Info: NONBONDED TABLE SIZE: 705 POINTS
TCL: Setting parameter alchLambda2 to 0.15000000000000002
Info: NONBONDED TABLE R-SQUARED SPACING: 0.0625
Info: NONBONDED TABLE SIZE: 705 POINTS
TCL: Running for 1500000 steps
ETITLE: TS BOND ANGLE DIHED IMPRP ELECT VDW BOUNDARY MISC KINETIC TOTAL TEMP POTENTIAL TOTALAVG TEMPAVG PRESSURE GPRESSURE VOLUME PRESSAVG GPRESSAVG
ENERGY: 0 3.8514 6.9791 1.2540 0.0000 -10595.8767 1423.0286 0.0000 0.0000 1667.9723 -7492.7913 286.7652 -9160.7636 -7492.7913 286.7652 150.7773 233.6206 29417.7264 150.7773 233.6206
ENERGY: 300000 5.8123 10.9431 2.0994 0.0000 -10476.1146 1348.5853 0.0000 0.0000 1702.2556 -7406.4189 292.6594 -9108.6745 -7417.6628 296.2026 -779.0201 -751.3954 30072.3128 -41.9772 2.9078
ENERGY: 600000 4.5404 8.9762 6.1632 0.0000 -10584.1688 1429.1784 0.0000 0.0000 1707.5756 -7427.7349 293.5740 -9135.3105 -7416.9746 297.0193 -452.2859 -369.7611 30390.6866 -42.6025 9.9489
ENERGY: 900000 3.5045 6.4295 4.7395 0.0000 -10590.1654 1431.1887 0.0000 0.0000 1727.5806 -7416.7226 297.0134 -9144.3032 -7411.2577 296.7017 164.0986 177.7606 29323.0451 -119.6876 -66.8818
ENERGY: 1200000 2.1858 5.8085 2.5024 0.0000 -10571.6891 1432.8250 0.0000 0.0000 1737.4502 -7390.9171 298.7102 -9128.3673 -7396.4581 298.4467 -58.8932 -36.7908 29781.5171 6.8625 53.3982
ENERGY: 1500000 2.2494 12.5555 5.9978 0.0000 -10528.0315 1382.0425 0.0000 0.0000 1724.5283 -7400.6580 296.4886 -9125.1862 -7398.8473 297.5100 -193.9477 -135.3907 29696.9536 45.7568 92.1079
TCL: Running FEP window   4: Lambda1 0.15000000000000002 Lambda2 0.2    [dLambda 0.04999999999999999]
TCL: Setting parameter firsttimestep to 0
TCL: Setting parameter alchLambda to 0.15000000000000002
Info: NONBONDED TABLE R-SQUARED SPACING: 0.0625
Info: NONBONDED TABLE SIZE: 705 POINTS
TCL: Setting parameter alchLambda2 to 0.2
Info: NONBONDED TABLE R-SQUARED SPACING: 0.0625
Info: NONBONDED TABLE SIZE: 705 POINTS
TCL: Running for 1500000 steps
ETITLE: TS BOND ANGLE DIHED IMPRP ELECT VDW BOUNDARY MISC KINETIC TOTAL TEMP POTENTIAL TOTALAVG TEMPAVG PRESSURE GPRESSURE VOLUME PRESSAVG GPRESSAVG
ENERGY: 0 2.2494 12.5555 5.9978 0.0000 -10528.0318 1382.2612 0.0000 0.0000 1723.6705 -7401.2974 296.3411 -9124.9679 -7401.2974 296.3411 -209.8559 -127.5602 29696.9536 -209.8559 -127.5602
ENERGY: 300000 2.6887 8.6083 3.5903 0.0000 -10572.7422 1466.1291 0.0000 0.0000 1749.3984 -7342.3274 300.7644 -9091.7258 -7383.4005 297.9623 515.7866 518.8536 29750.5923 -8.1378 44.8848
ENERGY: 600000 2.1166 9.8508 2.5966 0.0000 -10571.3524 1448.1621 0.0000 0.0000 1765.3574 -7343.2690 303.5081 -9108.6264 -7378.1543 298.7060 89.7977 175.3511 29845.5680 212.1339 263.3814
ENERGY: 900000 4.2368 8.0761 2.4680 0.0000 -10571.6290 1448.1844 0.0000 0.0000 1747.7120 -7360.9517 300.4744 -9108.6637 -7362.8097 298.4906 -9.3903 105.1636 30260.9743 65.2392 128.3236
ENERGY: 1200000 5.4503 12.7773 6.2980 0.0000 -10479.4469 1385.9692 0.0000 0.0000 1743.5976 -7325.3545 299.7671 -9068.9521 -7365.1757 297.9276 -431.0632 -367.6463 30444.2919 127.8202 190.4601
ENERGY: 1500000 8.6320 8.4419 2.6984 0.0000 -10642.7102 1477.8221 0.0000 0.0000 1753.3565 -7391.7594 301.4449 -9145.1159 -7365.1029 298.2042 180.9696 289.3953 29787.8395 79.7163 144.4678
TCL: Running FEP window   5: Lambda1 0.2    Lambda2 0.25   [dLambda 0.04999999999999999]
TCL: Setting parameter firsttimestep to 0
TCL: Setting parameter alchLambda to 0.2
Info: NONBONDED TABLE R-SQUARED SPACING: 0.0625
Info: NONBONDED TABLE SIZE: 705 POINTS
TCL: Setting parameter alchLambda2 to 0.25
Info: NONBONDED TABLE R-SQUARED SPACING: 0.0625
Info: NONBONDED TABLE SIZE: 705 POINTS
TCL: Running for 1500000 steps
ETITLE: TS BOND ANGLE DIHED IMPRP ELECT VDW BOUNDARY MISC KINETIC TOTAL TEMP POTENTIAL TOTALAVG TEMPAVG PRESSURE GPRESSURE VOLUME PRESSAVG GPRESSAVG
ENERGY: 0 8.6320 8.4419 2.6984 0.0000 -10642.7092 1478.9027 0.0000 0.0000 1752.4681 -7391.5662 301.2921 -9144.0343 -7391.5662 301.2921 201.5903 298.1110 29787.8395 201.5903 298.1110
ENERGY: 300000 3.1095 12.6315 3.7238 0.0000 -10438.9084 1404.8975 0.0000 0.0000 1746.4501 -7268.0959 300.2575 -9014.5460 -7382.0282 298.3332 58.5384 133.3600 29887.4334 22.5741 87.0060
ENERGY: 600000 4.7270 8.2115 3.5361 0.0000 -10516.0817 1420.0652 0.0000 0.0000 1798.5959 -7280.9460 309.2226 -9079.5419 -7387.6341 298.3988 27.6060 47.3313 30192.3889 45.3333 112.1632
ENERGY: 900000 9.7975 12.5803 1.8197 0.0000 -10545.3728 1423.1690 0.0000 0.0000 1765.6472 -7332.3592 303.5579 -9098.0063 -7377.8983 298.0071 -97.0940 -106.0583 29869.9615 17.7089 81.0923
ENERGY: 1200000 4.4201 8.7771 2.5745 0.0000 -10489.6247 1334.1494 0.0000 0.0000 1764.0371 -7375.6665 303.2811 -9139.7036 -7381.1233 298.4499 -690.5378 -646.1053 29553.5674 -80.7864 -21.0921
ENERGY: 1500000 2.6390 10.7330 2.4813 0.0000 -10607.5761 1412.1161 0.0000 0.0000 1760.7229 -7418.8837 302.7113 -9179.6066 -7377.2249 299.2061 -101.3563 -59.7283 29971.5379 -20.0269 44.0756
TCL: Running FEP window   6: Lambda1 0.25   Lambda2 0.3    [dLambda 0.04999999999999999]
TCL: Setting parameter firsttimestep to 0
TCL: Setting parameter alchLambda to 0.25
Info: NONBONDED TABLE R-SQUARED SPACING: 0.0625
Info: NONBONDED TABLE SIZE: 705 POINTS
TCL: Setting parameter alchLambda2 to 0.3
Info: NONBONDED TABLE R-SQUARED SPACING: 0.0625
Info: NONBONDED TABLE SIZE: 705 POINTS
TCL: Running for 1500000 steps
ETITLE: TS BOND ANGLE DIHED IMPRP ELECT VDW BOUNDARY MISC KINETIC TOTAL TEMP POTENTIAL TOTALAVG TEMPAVG PRESSURE GPRESSURE VOLUME PRESSAVG GPRESSAVG
ENERGY: 0 2.6390 10.7330 2.4813 0.0000 -10607.5776 1411.6838 0.0000 0.0000 1759.8719 -7420.1686 302.5650 -9180.0405 -7420.1686 302.5650 -127.7496 -59.2768 29971.5379 -127.7496 -59.2768
ENERGY: 300000 4.1157 13.9747 3.0891 0.0000 -10502.4671 1372.5070 0.0000 0.0000 1755.0459 -7353.7347 301.7353 -9108.7806 -7370.8472 301.4111 -303.0641 -163.9007 29573.8877 2.8574 80.7093
ENERGY: 600000 7.4616 9.1105 2.7351 0.0000 -10482.5764 1371.9756 0.0000 0.0000 1775.2070 -7316.0866 305.2015 -9091.2937 -7338.4336 301.4233 -458.2858 -464.2445 29723.7640 -266.3065 -213.6775
ENERGY: 900000 3.7577 11.5112 3.4132 0.0000 -10505.2654 1347.3446 0.0000 0.0000 1769.6490 -7369.5896 304.2460 -9139.2386 -7340.7794 302.7932 -783.2906 -708.6390 29862.3663 -119.6352 -67.9344
ENERGY: 1200000 1.5652 10.1916 5.0710 0.0000 -10574.0505 1417.8098 0.0000 0.0000 1703.9666 -7435.4462 292.9535 -9139.4128 -7350.2429 302.1081 -107.1554 -41.1040 30013.4603 -126.4393 -81.0703
ENERGY: 1500000 2.8302 8.1070 3.6478 0.0000 -10415.3723 1374.7917 0.0000 0.0000 1738.0848 -7287.9107 298.8193 -9025.9956 -7344.3491 301.9360 -355.1156 -259.8519 30170.4119 -176.3170 -122.0790
TCL: Running FEP window   7: Lambda1 0.3    Lambda2 0.35   [dLambda 0.04999999999999999]
TCL: Setting parameter firsttimestep to 0
TCL: Setting parameter alchLambda to 0.3
Info: NONBONDED TABLE R-SQUARED SPACING: 0.0625
Info: NONBONDED TABLE SIZE: 705 POINTS
TCL: Setting parameter alchLambda2 to 0.35
Info: NONBONDED TABLE R-SQUARED SPACING: 0.0625
Info: NONBONDED TABLE SIZE: 705 POINTS
TCL: Running for 1500000 steps
ETITLE: TS BOND ANGLE DIHED IMPRP ELECT VDW BOUNDARY MISC KINETIC TOTAL TEMP POTENTIAL TOTALAVG TEMPAVG PRESSURE GPRESSURE VOLUME PRESSAVG GPRESSAVG
ENERGY: 0 2.8302 8.1070 3.6478 0.0000 -10415.3714 1374.7642 0.0000 0.0000 1737.2182 -7288.8039 298.6703 -9026.0222 -7288.8039 298.6703 -322.6502 -255.1274 30170.4119 -322.6502 -255.1274
ENERGY: 300000 1.1712 8.6745 3.1243 0.0000 -10704.6666 1499.6936 0.0000 0.0000 1721.1454 -7470.8575 295.9070 -9192.0029 -7355.7627 299.9746 425.3586 489.9446 29669.7339 5.6551 72.8998
ENERGY: 600000 2.2664 7.8158 1.6684 0.0000 -10546.4225 1371.8056 0.0000 0.0000 1787.7730 -7375.0934 307.3619 -9162.8664 -7353.9314 303.3791 -516.6567 -497.5302 30290.6982 -113.2377 -51.0133
ENERGY: 900000 4.5174 11.0601 2.9186 0.0000 -10727.8693 1513.7052 0.0000 0.0000 1785.4303 -7410.2376 306.9591 -9195.6679 -7363.2330 302.8218 432.3275 439.4284 29896.7701 -147.6095 -94.6175
ENERGY: 1200000 1.7028 11.8255 1.9198 0.0000 -10403.2142 1356.6348 0.0000 0.0000 1782.3360 -7248.7952 306.4272 -9031.1313 -7361.7351 301.6937 -388.3134 -274.2380 30421.7407 -138.3491 -76.4198
ENERGY: 1500000 4.7083 8.4246 4.0662 0.0000 -10460.9170 1454.5737 0.0000 0.0000 1732.0624 -7257.0818 297.7839 -8989.1442 -7353.5496 301.3314 445.5180 482.5219 30115.0788 -125.2876 -68.8484
TCL: Running FEP window   8: Lambda1 0.35   Lambda2 0.39999999999999997 [dLambda 0.04999999999999999]
TCL: Setting parameter firsttimestep to 0
TCL: Setting parameter alchLambda to 0.35
Info: NONBONDED TABLE R-SQUARED SPACING: 0.0625
Info: NONBONDED TABLE SIZE: 705 POINTS
TCL: Setting parameter alchLambda2 to 0.39999999999999997
Info: NONBONDED TABLE R-SQUARED SPACING: 0.0625
Info: NONBONDED TABLE SIZE: 705 POINTS
TCL: Running for 1500000 steps
ETITLE: TS BOND ANGLE DIHED IMPRP ELECT VDW BOUNDARY MISC KINETIC TOTAL TEMP POTENTIAL TOTALAVG TEMPAVG PRESSURE GPRESSURE VOLUME PRESSAVG GPRESSAVG
ENERGY: 0 4.7083 8.4246 4.0662 0.0000 -10460.9166 1454.9840 0.0000 0.0000 1731.1806 -7257.5529 297.6323 -8988.7335 -7257.5529 297.6323 407.5703 487.5718 30115.0788 407.5703 487.5718
ENERGY: 300000 3.8317 10.7962 4.4233 0.0000 -10541.3985 1418.1267 0.0000 0.0000 1707.3740 -7396.8465 293.5393 -9104.2205 -7353.8288 297.0795 53.7036 95.6200 29813.7104 -61.2255 -19.5184
ENERGY: 600000 2.1151 8.0993 3.4521 0.0000 -10559.6892 1453.8515 0.0000 0.0000 1683.4084 -7408.7627 289.4191 -9092.1712 -7380.4262 296.6460 353.8544 411.1391 30124.8643 140.7313 195.4662
ENERGY: 900000 6.8290 7.9974 2.3640 0.0000 -10560.9946 1399.6486 0.0000 0.0000 1747.5808 -7396.5748 300.4519 -9144.1556 -7387.7752 296.1717 -462.2828 -372.1778 30278.6528 28.8167 85.1651
ENERGY: 1200000 1.6002 8.4249 1.4360 0.0000 -10671.0140 1457.9519 0.0000 0.0000 1763.1516 -7438.4494 303.1289 -9201.6011 -7389.3371 296.4757 -3.2479 51.3850 29947.6737 13.6995 65.2859
ENERGY: 1500000 1.6251 6.2455 4.5248 0.0000 -10475.6848 1391.2504 0.0000 0.0000 1784.8583 -7287.1806 306.8608 -9072.0389 -7384.7697 297.1530 -174.3348 -133.8778 30105.1509 -0.9030 51.3126
TCL: Running FEP window   9: Lambda1 0.39999999999999997 Lambda2 0.44999999999999996 [dLambda 0.04999999999999999]
TCL: Setting parameter firsttimestep to 0
TCL: Setting parameter alchLambda to 0.39999999999999997
Info: NONBONDED TABLE R-SQUARED SPACING: 0.0625
Info: NONBONDED TABLE SIZE: 705 POINTS
TCL: Setting parameter alchLambda2 to 0.44999999999999996
Info: NONBONDED TABLE R-SQUARED SPACING: 0.0625
Info: NONBONDED TABLE SIZE: 705 POINTS
TCL: Running for 1500000 steps
ETITLE: TS BOND ANGLE DIHED IMPRP ELECT VDW BOUNDARY MISC KINETIC TOTAL TEMP POTENTIAL TOTALAVG TEMPAVG PRESSURE GPRESSURE VOLUME PRESSAVG GPRESSAVG
ENERGY: 0 1.6251 6.2455 4.5248 0.0000 -10475.6844 1391.7398 0.0000 0.0000 1783.9806 -7287.5686 306.7099 -9071.5492 -7287.5686 306.7099 -222.9932 -122.5754 30105.1509 -222.9932 -122.5754
ENERGY: 300000 3.4906 9.2334 5.0961 0.0000 -10571.5063 1436.8432 0.0000 0.0000 1736.7402 -7380.1027 298.5881 -9116.8429 -7337.6815 303.1339 -79.5661 -1.2939 29734.3391 -108.5463 -32.7365
ENERGY: 600000 2.6967 9.0717 3.0711 0.0000 -10666.9507 1506.4296 0.0000 0.0000 1795.8811 -7349.8005 308.7559 -9145.6816 -7342.5428 302.7941 346.6510 521.1219 30059.7255 33.7012 111.4751
ENERGY: 900000 2.6795 10.2861 4.5594 0.0000 -10626.2478 1458.7551 0.0000 0.0000 1691.3890 -7458.5788 290.7911 -9149.9678 -7345.6812 302.0771 269.2812 304.0516 29741.3594 170.5599 245.0118
ENERGY: 1200000 3.6023 9.5686 4.0554 0.0000 -10491.9767 1374.0403 0.0000 0.0000 1720.9474 -7379.7628 295.8729 -9100.7101 -7359.0983 300.1822 -791.9009 -675.7851 30520.9769 71.9491 153.8963
ENERGY: 1500000 3.1829 7.5650 3.4349 0.0000 -10588.9739 1430.1683 0.0000 0.0000 1782.5182 -7362.1047 306.4585 -9144.6229 -7364.8365 300.1162 -363.8062 -237.4315 30503.4944 42.1978 127.2507
TCL: Running FEP window  10: Lambda1 0.44999999999999996 Lambda2 0.49999999999999994 [dLambda 0.04999999999999999]
TCL: Setting parameter firsttimestep to 0
TCL: Setting parameter alchLambda to 0.44999999999999996
Info: NONBONDED TABLE R-SQUARED SPACING: 0.0625
Info: NONBONDED TABLE SIZE: 705 POINTS
TCL: Setting parameter alchLambda2 to 0.49999999999999994
Info: NONBONDED TABLE R-SQUARED SPACING: 0.0625
Info: NONBONDED TABLE SIZE: 705 POINTS
TCL: Running for 1500000 steps
ETITLE: TS BOND ANGLE DIHED IMPRP ELECT VDW BOUNDARY MISC KINETIC TOTAL TEMP POTENTIAL TOTALAVG TEMPAVG PRESSURE GPRESSURE VOLUME PRESSAVG GPRESSAVG
ENERGY: 0 3.1829 7.5650 3.4349 0.0000 -10588.9735 1429.7912 0.0000 0.0000 1781.6795 -7363.3200 306.3143 -9144.9995 -7363.3200 306.3143 -307.8068 -230.7332 30503.4944 -307.8068 -230.7332
ENERGY: 300000 3.7537 9.9513 2.6316 0.0000 -10483.5265 1359.6667 0.0000 0.0000 1758.1601 -7349.3631 302.2707 -9107.5231 -7360.6690 301.1995 -492.8612 -429.2436 29912.4276 -96.2771 -35.7767
ENERGY: 600000 3.7287 10.9271 2.0721 0.0000 -10536.5913 1399.8527 0.0000 0.0000 1789.6349 -7330.3758 307.6820 -9120.0108 -7359.2883 302.4763 66.6830 89.7887 29755.0354 -119.8368 -62.8658
ENERGY: 900000 3.3997 12.0858 3.1754 0.0000 -10564.9920 1445.3554 0.0000 0.0000 1777.7073 -7323.2685 305.6314 -9100.9758 -7358.6052 301.4210 98.5159 181.9316 30217.2544 -35.3624 17.9640
ENERGY: 1200000 2.2891 11.3667 3.0553 0.0000 -10610.8467 1490.6065 0.0000 0.0000 1737.8484 -7365.6808 298.7787 -9103.5292 -7346.4150 301.4258 735.8948 803.2035 29698.3468 -22.5459 37.5505
ENERGY: 1500000 1.3682 9.2214 3.1727 0.0000 -10475.2070 1426.4683 0.0000 0.0000 1765.3254 -7269.6509 303.5026 -9034.9763 -7342.2771 301.2901 449.5991 487.1019 29689.9735 107.0073 168.3815
TCL: Running FEP window  11: Lambda1 0.49999999999999994 Lambda2 0.5499999999999999 [dLambda 0.04999999999999999]
TCL: Setting parameter firsttimestep to 0
TCL: Setting parameter alchLambda to 0.49999999999999994
Info: NONBONDED TABLE R-SQUARED SPACING: 0.0625
Info: NONBONDED TABLE SIZE: 705 POINTS
TCL: Setting parameter alchLambda2 to 0.5499999999999999
Info: NONBONDED TABLE R-SQUARED SPACING: 0.0625
Info: NONBONDED TABLE SIZE: 705 POINTS
TCL: Running for 1500000 steps
ETITLE: TS BOND ANGLE DIHED IMPRP ELECT VDW BOUNDARY MISC KINETIC TOTAL TEMP POTENTIAL TOTALAVG TEMPAVG PRESSURE GPRESSURE VOLUME PRESSAVG GPRESSAVG
ENERGY: 0 1.3682 9.2214 3.1727 0.0000 -10475.2063 1427.4892 0.0000 0.0000 1764.4942 -7269.4605 303.3597 -9033.9547 -7269.4605 303.3597 412.0353 501.6815 29689.9735 412.0353 501.6815
ENERGY: 300000 8.0132 8.0491 5.6156 0.0000 -10557.4310 1452.2183 0.0000 0.0000 1724.3987 -7359.1360 296.4663 -9083.5347 -7348.3511 298.7912 46.1368 91.8837 30044.3146 47.6157 134.6367
ENERGY: 600000 9.0420 7.5877 2.8001 0.0000 -10608.8892 1463.7350 0.0000 0.0000 1739.5832 -7386.1411 299.0769 -9125.7243 -7340.0417 301.2811 260.2305 324.6065 29853.3317 -60.7651 13.8795
ENERGY: 900000 3.4824 8.1824 5.8948 0.0000 -10418.3815 1335.0378 0.0000 0.0000 1765.1796 -7300.6046 303.4775 -9065.7842 -7349.1972 300.4628 -883.9432 -810.0616 30797.3831 -190.8071 -107.3430
ENERGY: 1200000 1.0399 10.0666 5.4800 0.0000 -10526.5758 1432.4446 0.0000 0.0000 1759.2539 -7318.2907 302.4588 -9077.5446 -7342.1004 300.7956 366.5217 423.3090 29793.5483 -119.5872 -38.7478
ENERGY: 1500000 4.8422 8.6964 4.5070 0.0000 -10550.9509 1425.4279 0.0000 0.0000 1764.8666 -7342.6108 303.4237 -9107.4773 -7337.6941 301.0638 33.0883 143.6370 29608.8100 -124.1483 -37.3584
TCL: Running FEP window  12: Lambda1 0.5499999999999999 Lambda2 0.6    [dLambda 0.050000000000000044]
TCL: Setting parameter firsttimestep to 0
TCL: Setting parameter alchLambda to 0.5499999999999999
Info: NONBONDED TABLE R-SQUARED SPACING: 0.0625
Info: NONBONDED TABLE SIZE: 705 POINTS
TCL: Setting parameter alchLambda2 to 0.6
Info: NONBONDED TABLE R-SQUARED SPACING: 0.0625
Info: NONBONDED TABLE SIZE: 705 POINTS
TCL: Running for 1500000 steps
ETITLE: TS BOND ANGLE DIHED IMPRP ELECT VDW BOUNDARY MISC KINETIC TOTAL TEMP POTENTIAL TOTALAVG TEMPAVG PRESSURE GPRESSURE VOLUME PRESSAVG GPRESSAVG
ENERGY: 0 4.8422 8.6964 4.5070 0.0000 -10551.1096 1425.0492 0.0000 0.0000 1764.0135 -7344.0013 303.2771 -9108.0148 -7344.0013 303.2771 52.2999 149.4541 29608.8100 52.2999 149.4541
ENERGY: 300000 4.5545 9.6780 4.0961 0.0000 -10448.5280 1347.6232 0.0000 0.0000 1761.0420 -7321.5341 302.7662 -9082.5761 -7347.0335 302.6095 -651.0785 -559.0333 30225.5356 62.1660 147.7674
ENERGY: 600000 3.4954 8.0189 2.7925 0.0000 -10445.1083 1346.3670 0.0000 0.0000 1738.0874 -7346.3470 298.8197 -9084.4344 -7348.0168 301.9788 -750.6945 -688.1521 30404.5286 -3.1645 68.7790
ENERGY: 900000 3.1425 9.2822 1.6422 0.0000 -10600.4956 1450.4420 0.0000 0.0000 1737.2287 -7398.7581 298.6721 -9135.9868 -7362.3827 300.4897 -11.7124 7.4535 30482.6997 -77.7873 -13.4691
ENERGY: 1200000 2.8256 10.9520 4.6458 0.0000 -10560.8725 1472.8601 0.0000 0.0000 1779.4711 -7290.1179 305.9346 -9069.5890 -7351.7141 300.8695 388.3581 424.5142 30082.4187 -5.1799 62.8542
ENERGY: 1500000 5.2671 12.5854 3.2344 0.0000 -10545.2116 1386.8698 0.0000 0.0000 1757.8333 -7379.4216 302.2145 -9137.2549 -7347.1610 301.3210 -50.0512 -21.6126 29559.1102 -39.5940 22.1666
TCL: Running FEP window  13: Lambda1 0.6    Lambda2 0.65   [dLambda 0.050000000000000044]
TCL: Setting parameter firsttimestep to 0
TCL: Setting parameter alchLambda to 0.6
Info: NONBONDED TABLE R-SQUARED SPACING: 0.0625
Info: NONBONDED TABLE SIZE: 705 POINTS
TCL: Setting parameter alchLambda2 to 0.65
Info: NONBONDED TABLE R-SQUARED SPACING: 0.0625
Info: NONBONDED TABLE SIZE: 705 POINTS
TCL: Running for 1500000 steps
ETITLE: TS BOND ANGLE DIHED IMPRP ELECT VDW BOUNDARY MISC KINETIC TOTAL TEMP POTENTIAL TOTALAVG TEMPAVG PRESSURE GPRESSURE VOLUME PRESSAVG GPRESSAVG
ENERGY: 0 5.2671 12.5854 3.2344 0.0000 -10545.3153 1387.4868 0.0000 0.0000 1756.9883 -7379.7533 302.0693 -9136.7417 -7379.7533 302.0693 -75.3381 -5.0146 29559.1102 -75.3381 -5.0146
ENERGY: 300000 3.3287 5.7768 4.2726 0.0000 -10491.2573 1463.9754 0.0000 0.0000 1766.7950 -7247.1087 303.7553 -9013.9037 -7361.9726 299.2555 450.4723 527.2824 30333.7080 -125.3123 -50.1661
ENERGY: 600000 5.7166 8.0429 1.5348 0.0000 -10609.3897 1438.5884 0.0000 0.0000 1795.7700 -7359.7371 308.7368 -9155.5071 -7375.8776 300.6293 256.8856 253.5405 29669.8184 -85.8587 -35.2300
ENERGY: 900000 6.8777 11.7372 4.3575 0.0000 -10547.6741 1381.0561 0.0000 0.0000 1791.7224 -7351.9231 308.0409 -9143.6455 -7368.0500 301.1357 -537.1073 -465.8793 30180.7177 -146.7086 -99.9525
ENERGY: 1200000 4.9401 12.0769 4.8353 0.0000 -10496.2250 1404.3013 0.0000 0.0000 1782.5023 -7287.5689 306.4558 -9070.0713 -7365.7713 301.2875 -85.4467 -50.5658 30163.6028 -95.6340 -50.0021
ENERGY: 1500000 4.2415 9.6228 3.8071 0.0000 -10534.3842 1398.6924 0.0000 0.0000 1758.0745 -7359.9459 302.2560 -9118.0203 -7360.6342 301.3817 -398.0933 -363.0629 30592.8953 -189.9886 -148.5727
TCL: Running FEP window  14: Lambda1 0.65   Lambda2 0.7000000000000001 [dLambda 0.050000000000000044]
TCL: Setting parameter firsttimestep to 0
TCL: Setting parameter alchLambda to 0.65
Info: NONBONDED TABLE R-SQUARED SPACING: 0.0625
Info: NONBONDED TABLE SIZE: 705 POINTS
TCL: Setting parameter alchLambda2 to 0.7000000000000001
Info: NONBONDED TABLE R-SQUARED SPACING: 0.0625
Info: NONBONDED TABLE SIZE: 705 POINTS
TCL: Running for 1500000 steps
ETITLE: TS BOND ANGLE DIHED IMPRP ELECT VDW BOUNDARY MISC KINETIC TOTAL TEMP POTENTIAL TOTALAVG TEMPAVG PRESSURE GPRESSURE VOLUME PRESSAVG GPRESSAVG
ENERGY: 0 4.2415 9.6228 3.8071 0.0000 -10534.6269 1398.3585 0.0000 0.0000 1757.2350 -7361.3619 302.1117 -9118.5969 -7361.3619 302.1117 -435.0402 -360.6714 30592.8953 -435.0402 -360.6714
ENERGY: 300000 8.1313 8.0614 1.8985 0.0000 -10484.6328 1463.9087 0.0000 0.0000 1720.6641 -7281.9687 295.8242 -9002.6329 -7368.9526 295.1535 294.8001 447.5069 30399.3442 209.7536 289.3563
ENERGY: 600000 4.6749 12.9992 3.9643 0.0000 -10587.3598 1445.1860 0.0000 0.0000 1733.4348 -7387.1006 298.0198 -9120.5354 -7391.9827 295.8583 282.4863 259.9580 29624.0646 -47.6951 15.2362
ENERGY: 900000 4.6158 13.4921 2.6167 0.0000 -10560.0608 1440.8581 0.0000 0.0000 1792.0535 -7306.4245 308.0978 -9098.4781 -7365.7026 298.6989 264.8177 431.7169 29911.1232 109.6814 178.9246
ENERGY: 1200000 5.2813 7.0841 1.8337 0.0000 -10712.5649 1561.4741 0.0000 0.0000 1779.9434 -7356.9483 306.0158 -9136.8917 -7358.2326 299.3056 1058.6496 1167.8620 29725.8550 126.6385 201.8835
ENERGY: 1500000 3.4084 9.8623 3.6479 0.0000 -10258.9913 1262.7482 0.0000 0.0000 1731.2098 -7248.1146 297.6373 -8979.3244 -7353.3025 299.0149 -1387.5099 -1319.6788 30784.3439 53.3603 130.4720
TCL: Running FEP window  15: Lambda1 0.7000000000000001 Lambda2 0.7500000000000001 [dLambda 0.050000000000000044]
TCL: Setting parameter firsttimestep to 0
TCL: Setting parameter alchLambda to 0.7000000000000001
Info: NONBONDED TABLE R-SQUARED SPACING: 0.0625
Info: NONBONDED TABLE SIZE: 705 POINTS
TCL: Setting parameter alchLambda2 to 0.7500000000000001
Info: NONBONDED TABLE R-SQUARED SPACING: 0.0625
Info: NONBONDED TABLE SIZE: 705 POINTS
TCL: Running for 1500000 steps
ETITLE: TS BOND ANGLE DIHED IMPRP ELECT VDW BOUNDARY MISC KINETIC TOTAL TEMP POTENTIAL TOTALAVG TEMPAVG PRESSURE GPRESSURE VOLUME PRESSAVG GPRESSAVG
ENERGY: 0 3.4084 9.8623 3.6479 0.0000 -10259.2977 1262.7285 0.0000 0.0000 1730.4106 -7249.2400 297.4999 -8979.6505 -7249.2400 297.4999 -1389.4396 -1311.9350 30784.3439 -1389.4396 -1311.9350
ENERGY: 300000 2.2109 9.9234 2.7836 0.0000 -10633.4908 1465.2146 0.0000 0.0000 1711.0241 -7442.3341 294.1669 -9153.3582 -7371.3146 298.8539 301.5304 366.9557 29966.5006 -494.8869 -421.3236
ENERGY: 600000 4.8596 6.5577 2.8667 0.0000 -10575.3567 1427.1159 0.0000 0.0000 1760.7122 -7373.2446 302.7095 -9133.9568 -7370.0376 300.0448 -2.2482 119.4206 29873.3737 -210.0577 -126.8233
ENERGY: 900000 6.6532 10.6448 2.1447 0.0000 -10634.7790 1408.1985 0.0000 0.0000 1677.5039 -7529.6339 288.4040 -9207.1379 -7380.1787 298.1345 -577.7152 -559.9380 30157.1156 -36.0810 34.9029
ENERGY: 1200000 6.6463 10.6771 4.4787 0.0000 -10537.7283 1362.4586 0.0000 0.0000 1709.0374 -7444.4302 293.8253 -9153.4676 -7369.4432 299.0354 -409.0564 -340.6087 29547.4240 -129.6881 -55.6184
ENERGY: 1500000 5.6305 13.1715 3.6288 0.0000 -10571.9963 1416.3387 0.0000 0.0000 1700.8991 -7432.3278 292.4262 -9133.2270 -7358.1787 299.4403 -111.6889 -37.6043 30150.9492 -112.7846 -43.7264
TCL: Running FEP window  16: Lambda1 0.7500000000000001 Lambda2 0.8000000000000002 [dLambda 0.050000000000000044]
TCL: Setting parameter firsttimestep to 0
TCL: Setting parameter alchLambda to 0.7500000000000001
Info: NONBONDED TABLE R-SQUARED SPACING: 0.0625
Info: NONBONDED TABLE SIZE: 705 POINTS
TCL: Setting parameter alchLambda2 to 0.8000000000000002
Info: NONBONDED TABLE R-SQUARED SPACING: 0.0625
Info: NONBONDED TABLE SIZE: 705 POINTS
TCL: Running for 1500000 steps
ETITLE: TS BOND ANGLE DIHED IMPRP ELECT VDW BOUNDARY MISC KINETIC TOTAL TEMP POTENTIAL TOTALAVG TEMPAVG PRESSURE GPRESSURE VOLUME PRESSAVG GPRESSAVG
ENERGY: 0 5.6305 13.1715 3.6288 0.0000 -10571.9470 1415.7597 0.0000 0.0000 1700.0362 -7433.7204 292.2778 -9133.7566 -7433.7204 292.2778 -130.6811 -34.4353 30150.9492 -130.6811 -34.4353
ENERGY: 300000 3.1162 8.7140 4.5244 0.0000 -10522.7997 1377.1772 0.0000 0.0000 1746.1514 -7383.1165 300.2061 -9129.2678 -7409.3085 295.6433 -403.6128 -290.6968 29918.2427 -403.0829 -286.1095
ENERGY: 600000 3.9042 15.1099 2.9266 0.0000 -10674.9430 1483.0546 0.0000 0.0000 1740.0659 -7429.8818 299.1599 -9169.9477 -7394.7220 298.1448 137.4433 175.2045 30196.5986 -208.3141 -118.5766
ENERGY: 900000 1.5363 11.0664 1.3913 0.0000 -10626.9541 1486.7098 0.0000 0.0000 1783.5913 -7342.6590 306.6430 -9126.2503 -7362.5579 300.1860 878.7627 942.4217 29415.2881 -40.2248 39.3481
ENERGY: 1200000 4.0605 6.5846 4.3926 0.0000 -10814.3838 1562.5397 0.0000 0.0000 1719.1459 -7517.6605 295.5632 -9236.8065 -7375.7022 300.0131 1054.3310 1050.0181 29691.2962 -83.5332 -17.3813
ENERGY: 1500000 2.7488 12.7707 2.7762 0.0000 -10430.3617 1335.8151 0.0000 0.0000 1765.6843 -7310.5666 303.5643 -9076.2509 -7370.6454 300.4819 -462.8376 -409.1235 30031.7392 -89.0984 -29.0334
TCL: Running FEP window  17: Lambda1 0.8000000000000002 Lambda2 0.8500000000000002 [dLambda 0.050000000000000044]
TCL: Setting parameter firsttimestep to 0
TCL: Setting parameter alchLambda to 0.8000000000000002
Info: NONBONDED TABLE R-SQUARED SPACING: 0.0625
Info: NONBONDED TABLE SIZE: 705 POINTS
TCL: Setting parameter alchLambda2 to 0.8500000000000002
Info: NONBONDED TABLE R-SQUARED SPACING: 0.0625
Info: NONBONDED TABLE SIZE: 705 POINTS
TCL: Running for 1500000 steps
ETITLE: TS BOND ANGLE DIHED IMPRP ELECT VDW BOUNDARY MISC KINETIC TOTAL TEMP POTENTIAL TOTALAVG TEMPAVG PRESSURE GPRESSURE VOLUME PRESSAVG GPRESSAVG
ENERGY: 0 2.7488 12.7707 2.7762 0.0000 -10430.9750 1337.2623 0.0000 0.0000 1764.8370 -7310.5801 303.4187 -9075.4171 -7310.5801 303.4187 -449.6525 -379.1519 30031.7392 -449.6525 -379.1519
ENERGY: 300000 2.1213 6.9673 3.2917 0.0000 -10462.2287 1378.9603 0.0000 0.0000 1757.8107 -7313.0774 302.2107 -9070.8881 -7323.6453 304.1033 -85.2683 -17.5293 30071.4512 -422.5285 -361.7981
ENERGY: 600000 3.9784 7.0041 2.1481 0.0000 -10463.9702 1358.0639 0.0000 0.0000 1735.6519 -7357.1239 298.4010 -9092.7757 -7341.5453 302.4912 -315.1525 -250.3194 29981.2037 -248.8525 -211.1798
ENERGY: 900000 3.0726 11.9658 5.2007 0.0000 -10559.2832 1383.0178 0.0000 0.0000 1665.6810 -7490.3453 286.3713 -9156.0264 -7371.0398 301.1625 -414.4333 -319.1518 30023.5987 -170.2884 -134.2318
ENERGY: 1200000 3.7414 13.4652 4.2710 0.0000 -10605.9693 1427.5156 0.0000 0.0000 1721.6826 -7435.2935 295.9993 -9156.9761 -7376.0688 300.2614 91.4046 90.1573 30063.9544 -129.5104 -94.7116
ENERGY: 1500000 2.5106 11.4377 4.6336 0.0000 -10519.0318 1450.7809 0.0000 0.0000 1793.5712 -7256.0979 308.3588 -9049.6691 -7366.3913 301.5033 295.1009 391.0164 30290.9655 21.2051 64.9321
TCL: Running FEP window  18: Lambda1 0.8500000000000002 Lambda2 0.9000000000000002 [dLambda 0.050000000000000044]
TCL: Setting parameter firsttimestep to 0
TCL: Setting parameter alchLambda to 0.8500000000000002
Info: NONBONDED TABLE R-SQUARED SPACING: 0.0625
Info: NONBONDED TABLE SIZE: 705 POINTS
TCL: Setting parameter alchLambda2 to 0.9000000000000002
Info: NONBONDED TABLE R-SQUARED SPACING: 0.0625
Info: NONBONDED TABLE SIZE: 705 POINTS
TCL: Running for 1500000 steps
ETITLE: TS BOND ANGLE DIHED IMPRP ELECT VDW BOUNDARY MISC KINETIC TOTAL TEMP POTENTIAL TOTALAVG TEMPAVG PRESSURE GPRESSURE VOLUME PRESSAVG GPRESSAVG
ENERGY: 0 2.5106 11.4377 4.6336 0.0000 -10519.7002 1450.2222 0.0000 0.0000 1792.6903 -7258.2059 308.2073 -9050.8962 -7258.2059 308.2073 316.2046 398.2578 30290.9655 316.2046 398.2578
ENERGY: 300000 6.3143 8.1094 3.5105 0.0000 -10408.2582 1337.6691 0.0000 0.0000 1769.9294 -7282.7255 304.2941 -9052.6549 -7317.4852 305.2942 -813.7860 -737.2932 30670.0642 421.0875 476.8221
ENERGY: 600000 3.4286 5.7387 2.0595 0.0000 -10626.8012 1472.6375 0.0000 0.0000 1790.9202 -7352.0166 307.9030 -9142.9368 -7333.2692 304.6690 758.2499 786.6887 29647.4080 418.8202 469.3305
ENERGY: 900000 8.3794 10.2094 2.5186 0.0000 -10460.0327 1329.6871 0.0000 0.0000 1733.2990 -7375.9392 297.9965 -9109.2382 -7338.8813 302.9403 -653.6828 -569.9940 29893.0810 208.0073 256.8809
ENERGY: 1200000 5.8279 12.6150 4.7441 0.0000 -10555.8992 1415.6138 0.0000 0.0000 1772.2891 -7344.8092 304.6999 -9117.0984 -7334.3686 302.8130 -40.5078 -21.3542 29993.7392 87.7644 133.8006
ENERGY: 1500000 5.3066 9.4241 1.6396 0.0000 -10670.5453 1456.2507 0.0000 0.0000 1700.2740 -7497.6503 292.3187 -9197.9242 -7350.1918 301.1623 43.9609 98.2822 29954.1879 88.8729 126.4460
TCL: Running FEP window  19: Lambda1 0.9000000000000002 Lambda2 0.9500000000000003 [dLambda 0.050000000000000044]
TCL: Setting parameter firsttimestep to 0
TCL: Setting parameter alchLambda to 0.9000000000000002
Info: NONBONDED TABLE R-SQUARED SPACING: 0.0625
Info: NONBONDED TABLE SIZE: 705 POINTS
TCL: Setting parameter alchLambda2 to 0.9500000000000003
Info: NONBONDED TABLE R-SQUARED SPACING: 0.0625
Info: NONBONDED TABLE SIZE: 705 POINTS
TCL: Running for 1500000 steps
ETITLE: TS BOND ANGLE DIHED IMPRP ELECT VDW BOUNDARY MISC KINETIC TOTAL TEMP POTENTIAL TOTALAVG TEMPAVG PRESSURE GPRESSURE VOLUME PRESSAVG GPRESSAVG
ENERGY: 0 5.3066 9.4241 1.6396 0.0000 -10671.1474 1456.2125 0.0000 0.0000 1699.4228 -7499.1417 292.1723 -9198.5646 -7499.1417 292.1723 37.7330 111.8765 29954.1879 37.7330 111.8765
ENERGY: 300000 5.4219 11.2930 2.4906 0.0000 -10541.1976 1412.5052 0.0000 0.0000 1725.8797 -7383.6072 296.7209 -9109.4868 -7397.9075 298.6190 -150.9841 -73.4410 29795.6125 19.1275 73.7372
ENERGY: 600000 2.3198 11.5280 3.4158 0.0000 -10530.1445 1383.6427 0.0000 0.0000 1773.3267 -7355.9114 304.8782 -9129.2382 -7391.8599 298.3588 -335.4560 -304.9032 30456.3930 27.1410 85.8016
ENERGY: 900000 4.2065 10.5153 3.2134 0.0000 -10588.9151 1448.7047 0.0000 0.0000 1776.3481 -7345.9270 305.3977 -9122.2751 -7386.5841 299.7477 410.3996 458.1922 29909.5919 97.1689 151.9927
ENERGY: 1200000 6.0822 9.6973 2.3617 0.0000 -10412.7827 1304.2870 0.0000 0.0000 1772.0555 -7318.2991 304.6597 -9090.3545 -7390.8214 298.7448 -969.7936 -942.8840 30578.7842 -84.9767 -39.1505
ENERGY: 1500000 4.1061 7.0094 5.8726 0.0000 -10517.4949 1400.1716 0.0000 0.0000 1725.8652 -7374.4701 296.7184 -9100.3353 -7383.6201 299.2606 -259.3360 -191.2181 30104.2538 -107.0277 -59.4784
TCL: Running FEP window  20: Lambda1 0.9500000000000003 Lambda2 1.0    [dLambda 0.04999999999999971]
TCL: Setting parameter firsttimestep to 0
TCL: Setting parameter alchLambda to 0.9500000000000003
Info: NONBONDED TABLE R-SQUARED SPACING: 0.0625
Info: NONBONDED TABLE SIZE: 705 POINTS
TCL: Setting parameter alchLambda2 to 1.0
Info: NONBONDED TABLE R-SQUARED SPACING: 0.0625
Info: NONBONDED TABLE SIZE: 705 POINTS
TCL: Running for 1500000 steps
ETITLE: TS BOND ANGLE DIHED IMPRP ELECT VDW BOUNDARY MISC KINETIC TOTAL TEMP POTENTIAL TOTALAVG TEMPAVG PRESSURE GPRESSURE VOLUME PRESSAVG GPRESSAVG
ENERGY: 0 4.1061 7.0094 5.8726 0.0000 -10518.2053 1399.8131 0.0000 0.0000 1725.0203 -7376.3839 296.5732 -9101.4042 -7376.3839 296.5732 -269.0824 -182.9619 30104.2538 -269.0824 -182.9619
ENERGY: 300000 3.9098 9.6405 4.4263 0.0000 -10486.0812 1419.5091 0.0000 0.0000 1688.0488 -7360.5467 290.2169 -9048.5955 -7381.7315 299.1506 -121.6164 -54.6928 30479.5763 -70.5655 -9.8354
ENERGY: 600000 2.4324 6.3749 3.8873 0.0000 -10585.6069 1443.1536 0.0000 0.0000 1761.7729 -7367.9857 302.8919 -9129.7586 -7372.7920 299.9359 569.4934 557.0231 29443.0204 170.9184 231.9802
ENERGY: 900000 1.6746 11.5295 4.6384 0.0000 -10654.2272 1476.4614 0.0000 0.0000 1742.9964 -7416.9270 299.6637 -9159.9234 -7376.1458 300.3459 376.6221 486.9221 29848.5688 18.7725 78.4369
ENERGY: 1200000 3.0309 8.5629 3.1801 0.0000 -10644.6609 1423.0640 0.0000 0.0000 1726.5965 -7480.2265 296.8442 -9206.8230 -7382.7553 300.3686 -109.9530 -67.8373 29868.0368 117.9439 172.4618
ENERGY: 1500000 3.3507 9.7398 2.0832 0.0000 -10498.4352 1337.6020 0.0000 0.0000 1723.7263 -7421.9331 296.3507 -9145.6595 -7387.2876 300.2437 -883.9574 -811.1573 30392.2754 -13.8796 43.1573
TCL: Exiting due to exit command.
