Info: SIMULATION PARAMETERS:
Info: TIMESTEP               2
Info: NUMBER OF STEPS        0
Info: STEPS PER CYCLE        10
Info: PERIODIC CELL BASIS 1  31.6737 0 0
Info: PERIODIC CELL BASIS 2  0 29.4798 0
Info: PERIODIC CELL BASIS 3  0 0 32.8254
Info: PERIODIC CELL CENTER   0 0 0
Info: WRAPPING WATERS AROUND PERIODIC BOUNDARIES ON OUTPUT.
Info: WRAPPING ALL CLUSTERS AROUND PERIODIC BOUNDARIES ON OUTPUT.
Info: FIRST LDB TIMESTEP     50
Info: LAST LDB TIMESTEP     -1
Info: HOM BACKGROUND SCALING 1
Info: PME BACKGROUND SCALING 1
Info: MIN ATOMS PER PATCH    40
Info: EMPTY PATCH LOAD       40 ATOMS
Info: VELOCITY FILE          mobley_4845722_equil.vel
Info: CENTER OF MASS MOVING INITIALLY? NO
Info: DIELECTRIC             1
Info: EXCLUDE                SCALED ONE-FOUR
Info: 1-4 ELECTROSTATICS SCALED BY 0.833333
Info: MODIFIED 1-4 VDW PARAMETERS WILL BE USED
Info: DCD FILENAME           mobley_4845722_prod.dcd
Info: DCD FREQUENCY          100000
Info: DCD FIRST STEP         100000
Info: DCD FILE WILL CONTAIN UNIT CELL DATA
Info: XST FILENAME           mobley_4845722_prod.xst
Info: XST FREQUENCY          100000
Info: NO VELOCITY DCD OUTPUT
Info: NO FORCE DCD OUTPUT
Info: OUTPUT FILENAME        mobley_4845722_prod
Info: BINARY OUTPUT FILES WILL BE USED
Info: RESTART FILENAME       mobley_4845722_prod.restart
Info: RESTART FREQUENCY      100000
Info: BINARY RESTART FILES WILL BE USED
Info: CUTOFF                 9
Info: PAIRLIST DISTANCE      11
Info: PAIRLIST SHRINK RATE   0.01
Info: PAIRLIST GROW RATE     0.01
Info: PAIRLIST TRIGGER       0.3
Info: PAIRLISTS PER CYCLE    2
Info: PAIRLISTS ENABLED
Info: MARGIN                 2
Info: HYDROGEN GROUP CUTOFF  2.5
Info: PATCH DIMENSION        15.5
Info: ENERGY OUTPUT STEPS    100000
Info: ENERGY EVALUATION STEPS    100000
Info: OUTPUT ENERGY PRECISION 4
Info: CROSSTERM ENERGY INCLUDED IN DIHEDRAL
Info: TIMING OUTPUT STEPS    1000000
Info: PRESSURE OUTPUT STEPS  100000
Info: ALCHEMICAL FEP ON
Info: FEP CURRENT LAMBDA VALUE     0
Info: FEP COMPARISON LAMBDA VALUE  0.05
Info: FEP INTRA-ALCHEMICAL NON-BONDED INTERACTIONS WILL BE RETAINED
Info: FEP INTRA-ALCHEMICAL BONDED INTERACTIONS WILL BE RETAINED
Info: FEP VDW SHIFTING COEFFICIENT 5
Info: FEP ELEC. ACTIVE FOR ANNIHILATED PARTICLES BETWEEN LAMBDA = 0 AND LAMBDA = 0.5
Info: FEP ELEC. ACTIVE FOR EXNIHILATED PARTICLES BETWEEN LAMBDA = 0.5 AND LAMBDA = 1
Info: FEP VDW ACTIVE FOR ANNIHILATED PARTICLES BETWEEN LAMBDA = 0 AND LAMBDA = 1
Info: FEP VDW ACTIVE FOR EXNIHILATED PARTICLES BETWEEN LAMBDA = 0 AND LAMBDA = 1
Info: FEP BOND ACTIVE FOR ANNIHILATED PARTICLES BETWEEN LAMBDA = 1 AND LAMBDA = 1
Info: FEP BOND ACTIVE FOR EXNIHILATED PARTICLES BETWEEN LAMBDA = 0 AND LAMBDA = 0
Info: LANGEVIN DYNAMICS ACTIVE
Info: LANGEVIN TEMPERATURE   300
Info: LANGEVIN USING BBK INTEGRATOR
Info: LANGEVIN DAMPING COEFFICIENT IS 1 INVERSE PS
Info: LANGEVIN DYNAMICS APPLIED TO HYDROGENS
Info: LANGEVIN PISTON PRESSURE CONTROL ACTIVE
Info:        TARGET PRESSURE IS 1.01325 BAR
Info:     OSCILLATION PERIOD IS 50 FS
Info:             DECAY TIME IS 25 FS
Info:     PISTON TEMPERATURE IS 300 K
Info:       PRESSURE CONTROL IS GROUP-BASED
Info:    INITIAL STRAIN RATE IS 0.000151113 0.000151113 0.000151113
Info:       CELL FLUCTUATION IS ISOTROPIC
Info: PARTICLE MESH EWALD (PME) ACTIVE
Info: PME TOLERANCE               1e-06
Info: PME EWALD COEFFICIENT       0.348832
Info: PME INTERPOLATION ORDER     4
Info: PME GRID DIMENSIONS         32 32 36
Info: PME MAXIMUM GRID SPACING    1
Info: PME CALCULATION WILL BE PERFORMED ON GPU
Info: FULL ELECTROSTATIC EVALUATION FREQUENCY      2
Info: USING VERLET I (r-RESPA) MTS SCHEME.
Info: C1 SPLITTING OF LONG RANGE ELECTROSTATICS
Info: PLACING ATOMS IN PATCHES BY HYDROGEN GROUPS
Info: RIGID BONDS TO HYDROGEN : ALL
Info:         ERROR TOLERANCE : 1e-08
Info:          MAX ITERATIONS : 100
Info: RIGID WATER USING SETTLE ALGORITHM
Info: RANDOM NUMBER SEED     1743532594
Info: USE HYDROGEN BONDS?    NO
Info: Using AMBER format force field!
Info: AMBER PARM FILE        mobley_4845722.prmtop
Info: COORDINATE PDB         mobley_4845722.pdb
Info: Exclusions will be read from PARM file!
Info: SCNB (VDW SCALING)     2
Info: USING ARITHMETIC MEAN TO COMBINE L-J SIGMA PARAMETERS
Info: BINARY COORDINATES     mobley_4845722_equil.coor
Info: SUMMARY OF PARAMETERS:
Info: 4 BONDS
Info: 2 ANGLES
Info:   2 HARMONIC
Info:   0 COSINE-BASED
Info: 2 DIHEDRAL
Info: 0 IMPROPER
Info: 0 CROSSTERM
Info: 0 VDW
Info: 10 VDW_PAIRS
Info: 0 NBTHOLE_PAIRS
Info: To read alchdata from file: mobley_4845722.pdb
Info: To read alchflag data from column: 5
Info: STRUCTURE SUMMARY:
Info: 2976 ATOMS
Info: 2976 BONDS
Info: 18 ANGLES
Info: 30 DIHEDRALS
Info: 0 IMPROPERS
Info: 0 CROSSTERMS
Info: 3015 EXCLUSIONS
Info: 2964 RIGID BONDS
Info: ALCH: 0 ATOMS TO DISAPPEAR IN FINAL STATE
Info: ALCH: 12 ATOMS TO APPEAR IN FINAL STATE
Info: 5964 DEGREES OF FREEDOM
Info: 1000 HYDROGEN GROUPS
Info: 3 ATOMS IN LARGEST HYDROGEN GROUP
Info: 1000 MIGRATION GROUPS
Info: 3 ATOMS IN LARGEST MIGRATION GROUP
Info: TOTAL MASS = 18084.6 amu
Info: TOTAL CHARGE = -9.99998e-05 e
Info: MASS DENSITY = 0.979793 g/cm^3
Info: ATOM DENSITY = 0.0970956 atoms/A^3
Info: ADDED 0 IMPLICIT EXCLUSIONS
Info: NONBONDED TABLE R-SQUARED SPACING: 0.0625
Info: NONBONDED TABLE SIZE: 705 POINTS
Info: REMOVING COM VELOCITY 0.10157 0.131422 0.0496434
Info: Use 3D box decompostion in PME FFT.
Info: Updated CUDA force table with 4096 elements.
Info: Updated CUDA LJ table with 4 x 4 elements.
Info: Found 15 unique exclusion lists needing 28 bytes
TCL: Running for 1500000 steps
ETITLE: TS BOND ANGLE DIHED IMPRP ELECT VDW BOUNDARY MISC KINETIC TOTAL TEMP POTENTIAL TOTALAVG TEMPAVG PRESSURE GPRESSURE VOLUME PRESSAVG GPRESSAVG
ENERGY: 0 2.5929 2.3867 7.6946 0.0000 -10936.1441 1543.3878 0.0000 0.0000 1736.7966 -7643.2856 293.0905 -9380.0822 -7643.2856 293.0905 395.0825 480.3204 30650.1908 395.0825 480.3204
ENERGY: 300000 5.4367 1.9787 2.5215 0.0000 -10744.7865 1486.5223 0.0000 0.0000 1765.1970 -7483.1303 297.8831 -9248.3273 -7563.8911 298.0464 388.1788 431.3885 30486.8079 257.1026 334.1690
ENERGY: 600000 7.5401 1.9626 2.4993 0.0000 -10946.3393 1558.3706 0.0000 0.0000 1797.1077 -7578.8591 303.2682 -9375.9667 -7590.9395 297.9742 217.6665 258.4882 31020.7396 126.6133 200.4404
ENERGY: 900000 4.0893 2.1125 5.8397 0.0000 -10841.4274 1488.2213 0.0000 0.0000 1773.0673 -7568.0973 299.2113 -9341.1646 -7583.9058 299.1756 171.1576 196.3446 30466.8769 -34.7227 44.2474
ENERGY: 1200000 3.5059 3.2951 1.9406 0.0000 -10805.7209 1458.9396 0.0000 0.0000 1778.2662 -7559.7735 300.0886 -9338.0397 -7568.2062 299.4312 12.7632 75.0186 30266.1861 -40.1491 34.6065
ENERGY: 1500000 3.5849 2.3136 3.8400 0.0000 -10759.1715 1438.8313 0.0000 0.0000 1696.9979 -7613.6039 286.3743 -9310.6018 -7563.6085 298.8827 102.4407 225.3871 29976.5379 -35.8767 35.5504
TCL: Running FEP window   2: Lambda1 0.05   Lambda2 0.1    [dLambda 0.05  ]
TCL: Setting parameter firsttimestep to 0
TCL: Setting parameter alchLambda to 0.05
Info: NONBONDED TABLE R-SQUARED SPACING: 0.0625
Info: NONBONDED TABLE SIZE: 705 POINTS
TCL: Setting parameter alchLambda2 to 0.1
Info: NONBONDED TABLE R-SQUARED SPACING: 0.0625
Info: NONBONDED TABLE SIZE: 705 POINTS
TCL: Running for 1500000 steps
ETITLE: TS BOND ANGLE DIHED IMPRP ELECT VDW BOUNDARY MISC KINETIC TOTAL TEMP POTENTIAL TOTALAVG TEMPAVG PRESSURE GPRESSURE VOLUME PRESSAVG GPRESSAVG
ENERGY: 0 3.5849 2.3136 3.8400 0.0000 -10759.1722 1441.0979 0.0000 0.0000 1696.1188 -7612.2170 286.2260 -9308.3358 -7612.2170 286.2260 146.0221 232.2652 29976.5379 146.0221 232.2652
ENERGY: 300000 4.7919 5.5417 0.7977 0.0000 -10665.7411 1328.1670 0.0000 0.0000 1743.3277 -7583.1150 294.1926 -9326.4428 -7533.5739 297.6391 -1070.9955 -1093.9351 30760.0823 -234.6679 -175.7912
ENERGY: 600000 3.6501 3.1762 1.5786 0.0000 -10744.4086 1442.5169 0.0000 0.0000 1714.8771 -7578.6097 289.3915 -9293.4868 -7545.6596 295.6657 -8.1708 52.7000 30232.9717 -162.0201 -94.8314
ENERGY: 900000 3.0831 2.3179 6.7820 0.0000 -10800.0336 1467.5028 0.0000 0.0000 1796.6464 -7523.7015 303.1903 -9320.3478 -7549.2404 296.0672 39.0495 87.6839 30516.5039 -275.5895 -218.9469
ENERGY: 1200000 3.8407 2.5266 2.4569 0.0000 -10916.6848 1534.9105 0.0000 0.0000 1768.3809 -7604.5691 298.4204 -9372.9500 -7550.0102 297.3876 424.3750 493.5811 30434.6410 -143.4737 -86.4570
ENERGY: 1500000 4.6999 2.2266 2.3809 0.0000 -10775.8827 1496.6338 0.0000 0.0000 1794.6912 -7475.2504 302.8604 -9269.9415 -7535.9993 298.0874 300.8630 328.2696 30623.8440 -89.6489 -29.3864
TCL: Running FEP window   3: Lambda1 0.1    Lambda2 0.15000000000000002 [dLambda 0.05000000000000002]
TCL: Setting parameter firsttimestep to 0
TCL: Setting parameter alchLambda to 0.1
Info: NONBONDED TABLE R-SQUARED SPACING: 0.0625
Info: NONBONDED TABLE SIZE: 705 POINTS
TCL: Setting parameter alchLambda2 to 0.15000000000000002
Info: NONBONDED TABLE R-SQUARED SPACING: 0.0625
Info: NONBONDED TABLE SIZE: 705 POINTS
TCL: Running for 1500000 steps
ETITLE: TS BOND ANGLE DIHED IMPRP ELECT VDW BOUNDARY MISC KINETIC TOTAL TEMP POTENTIAL TOTALAVG TEMPAVG PRESSURE GPRESSURE VOLUME PRESSAVG GPRESSAVG
ENERGY: 0 4.6999 2.2266 2.3809 0.0000 -10775.8843 1498.9352 0.0000 0.0000 1793.8015 -7473.8401 302.7103 -9267.6416 -7473.8401 302.7103 268.6473 341.0002 30623.8440 268.6473 341.0002
ENERGY: 300000 5.3032 1.1920 2.4885 0.0000 -10884.7407 1520.9498 0.0000 0.0000 1752.2217 -7602.5856 295.6935 -9354.8073 -7559.6629 295.2742 252.1632 310.7022 30417.1673 30.0089 88.3261
ENERGY: 600000 4.6713 2.1925 1.7260 0.0000 -10629.9758 1380.3590 0.0000 0.0000 1729.7396 -7511.2874 291.8996 -9241.0271 -7545.5746 295.8907 -516.7338 -442.9247 30722.8951 -107.3719 -47.5333
ENERGY: 900000 4.6759 4.2208 1.0692 0.0000 -10717.5106 1362.1270 0.0000 0.0000 1754.6546 -7590.7631 296.1041 -9345.4177 -7545.2656 296.2560 -694.7628 -624.6718 30390.4974 -260.7157 -203.7785
ENERGY: 1200000 3.8035 1.4908 3.1929 0.0000 -10992.0556 1558.0944 0.0000 0.0000 1754.0156 -7671.4584 295.9962 -9425.4740 -7560.2759 296.5640 567.3134 626.0921 30286.3705 -161.4761 -112.3649
ENERGY: 1500000 2.5675 1.5221 1.7065 0.0000 -10695.1634 1421.2980 0.0000 0.0000 1778.0387 -7490.0306 300.0502 -9268.0693 -7554.1736 296.8255 -184.6296 -161.3148 30867.5630 -38.4388 5.4234
TCL: Running FEP window   4: Lambda1 0.15000000000000002 Lambda2 0.2    [dLambda 0.04999999999999999]
TCL: Setting parameter firsttimestep to 0
TCL: Setting parameter alchLambda to 0.15000000000000002
Info: NONBONDED TABLE R-SQUARED SPACING: 0.0625
Info: NONBONDED TABLE SIZE: 705 POINTS
TCL: Setting parameter alchLambda2 to 0.2
Info: NONBONDED TABLE R-SQUARED SPACING: 0.0625
Info: NONBONDED TABLE SIZE: 705 POINTS
TCL: Running for 1500000 steps
ETITLE: TS BOND ANGLE DIHED IMPRP ELECT VDW BOUNDARY MISC KINETIC TOTAL TEMP POTENTIAL TOTALAVG TEMPAVG PRESSURE GPRESSURE VOLUME PRESSAVG GPRESSAVG
ENERGY: 0 2.5675 1.5221 1.7065 0.0000 -10695.1640 1424.3838 0.0000 0.0000 1777.1588 -7487.8252 299.9017 -9264.9841 -7487.8252 299.9017 -231.0468 -145.4316 30867.5630 -231.0468 -145.4316
ENERGY: 300000 6.2007 1.1992 3.8978 0.0000 -10708.3401 1448.4015 0.0000 0.0000 1818.2027 -7430.4382 306.8280 -9248.6409 -7502.4124 299.4950 44.0791 66.1083 30610.2408 -234.5905 -157.2074
ENERGY: 600000 5.2852 5.1410 4.0053 0.0000 -10755.5372 1439.7968 0.0000 0.0000 1817.8199 -7483.4889 306.7635 -9301.3089 -7501.3964 300.8363 -106.5749 -47.2290 30800.1645 13.5700 93.1739
ENERGY: 900000 6.1759 2.1132 1.8039 0.0000 -10757.8110 1469.6426 0.0000 0.0000 1811.9785 -7466.0970 305.7777 -9278.0755 -7507.7961 299.8957 162.2958 214.0884 30786.6361 10.9955 86.4378
ENERGY: 1200000 5.9385 1.4530 2.5840 0.0000 -10800.2458 1453.5661 0.0000 0.0000 1746.5280 -7590.1762 294.7327 -9336.7042 -7514.1811 300.0304 -283.3718 -276.4524 30473.5021 -97.5533 -26.5504
ENERGY: 1500000 3.9583 2.0721 1.8918 0.0000 -10904.1321 1505.8427 0.0000 0.0000 1792.8553 -7597.5121 302.5506 -9390.3674 -7526.9770 300.2068 352.7039 409.4872 30039.7563 -81.2761 -11.8563
TCL: Running FEP window   5: Lambda1 0.2    Lambda2 0.25   [dLambda 0.04999999999999999]
TCL: Setting parameter firsttimestep to 0
TCL: Setting parameter alchLambda to 0.2
Info: NONBONDED TABLE R-SQUARED SPACING: 0.0625
Info: NONBONDED TABLE SIZE: 705 POINTS
TCL: Setting parameter alchLambda2 to 0.25
Info: NONBONDED TABLE R-SQUARED SPACING: 0.0625
Info: NONBONDED TABLE SIZE: 705 POINTS
TCL: Running for 1500000 steps
ETITLE: TS BOND ANGLE DIHED IMPRP ELECT VDW BOUNDARY MISC KINETIC TOTAL TEMP POTENTIAL TOTALAVG TEMPAVG PRESSURE GPRESSURE VOLUME PRESSAVG GPRESSAVG
ENERGY: 0 3.9582 2.0721 1.8918 0.0000 -10904.1296 1509.2631 0.0000 0.0000 1791.9942 -7594.9502 302.4053 -9386.9444 -7594.9502 302.4053 343.8593 432.8847 30039.7563 343.8593 432.8847
ENERGY: 300000 8.4877 2.6892 2.5966 0.0000 -10815.7940 1517.6213 0.0000 0.0000 1764.2927 -7520.1066 297.7305 -9284.3993 -7541.2276 301.2763 216.2751 219.8157 30904.6284 74.6583 152.1043
ENERGY: 600000 3.9337 2.0546 2.8173 0.0000 -10785.6767 1400.7775 0.0000 0.0000 1731.7418 -7644.3519 292.2375 -9376.0937 -7544.1922 301.3710 -682.5774 -695.3255 30445.4375 -161.2327 -93.0213
ENERGY: 900000 2.1841 3.4329 7.6238 0.0000 -10884.3867 1506.3391 0.0000 0.0000 1771.4347 -7593.3721 298.9358 -9364.8068 -7546.2016 300.8924 116.4557 164.5078 30764.0462 -158.2215 -84.2147
ENERGY: 1200000 3.9766 2.2356 2.6154 0.0000 -10684.0120 1377.5548 0.0000 0.0000 1791.7481 -7505.8816 302.3637 -9297.6296 -7547.4422 299.9656 -494.7471 -413.2854 30483.6021 -196.1636 -122.3707
ENERGY: 1500000 3.9732 4.6252 2.3847 0.0000 -10732.1531 1411.2897 0.0000 0.0000 1756.8082 -7553.0723 296.4675 -9309.8804 -7540.4260 299.9828 -679.4221 -605.0054 31062.5287 -352.9503 -279.3180
TCL: Running FEP window   6: Lambda1 0.25   Lambda2 0.3    [dLambda 0.04999999999999999]
TCL: Setting parameter firsttimestep to 0
TCL: Setting parameter alchLambda to 0.25
Info: NONBONDED TABLE R-SQUARED SPACING: 0.0625
Info: NONBONDED TABLE SIZE: 705 POINTS
TCL: Setting parameter alchLambda2 to 0.3
Info: NONBONDED TABLE R-SQUARED SPACING: 0.0625
Info: NONBONDED TABLE SIZE: 705 POINTS
TCL: Running for 1500000 steps
ETITLE: TS BOND ANGLE DIHED IMPRP ELECT VDW BOUNDARY MISC KINETIC TOTAL TEMP POTENTIAL TOTALAVG TEMPAVG PRESSURE GPRESSURE VOLUME PRESSAVG GPRESSAVG
ENERGY: 0 3.9732 4.6252 2.3847 0.0000 -10732.1518 1411.3406 0.0000 0.0000 1755.8981 -7553.9301 296.3139 -9309.8282 -7553.9301 296.3139 -671.9399 -599.5200 31062.5287 -671.9399 -599.5200
ENERGY: 300000 2.9010 1.1391 2.6705 0.0000 -10731.5097 1456.1576 0.0000 0.0000 1779.5224 -7489.1190 300.3006 -9268.6415 -7506.5143 298.2588 347.2331 338.0273 30503.4027 -5.5174 48.2552
ENERGY: 600000 8.9488 2.4876 1.1444 0.0000 -10828.7925 1495.9589 0.0000 0.0000 1830.3775 -7489.8754 308.8826 -9320.2529 -7517.5874 299.5009 116.1451 193.0615 30643.3121 151.0411 212.7746
ENERGY: 900000 4.5206 2.7325 1.8370 0.0000 -10782.4134 1413.0305 0.0000 0.0000 1757.0979 -7603.1948 296.5164 -9360.2927 -7517.7120 299.3535 -349.4794 -211.1739 30238.3052 121.4179 188.7864
ENERGY: 1200000 4.1321 0.6565 3.9781 0.0000 -10825.8246 1516.8828 0.0000 0.0000 1804.6771 -7495.4979 304.5456 -9300.1751 -7523.5494 298.7735 195.8124 320.2499 30874.3733 111.7881 180.9722
ENERGY: 1500000 2.6670 3.0069 3.4116 0.0000 -10643.6672 1384.5133 0.0000 0.0000 1776.9438 -7473.1246 299.8655 -9250.0683 -7518.4943 298.9226 -463.6900 -427.9608 31309.4986 31.3801 102.7610
TCL: Running FEP window   7: Lambda1 0.3    Lambda2 0.35   [dLambda 0.04999999999999999]
TCL: Setting parameter firsttimestep to 0
TCL: Setting parameter alchLambda to 0.3
Info: NONBONDED TABLE R-SQUARED SPACING: 0.0625
Info: NONBONDED TABLE SIZE: 705 POINTS
TCL: Setting parameter alchLambda2 to 0.35
Info: NONBONDED TABLE R-SQUARED SPACING: 0.0625
Info: NONBONDED TABLE SIZE: 705 POINTS
TCL: Running for 1500000 steps
ETITLE: TS BOND ANGLE DIHED IMPRP ELECT VDW BOUNDARY MISC KINETIC TOTAL TEMP POTENTIAL TOTALAVG TEMPAVG PRESSURE GPRESSURE VOLUME PRESSAVG GPRESSAVG
ENERGY: 0 2.6670 3.0069 3.4116 0.0000 -10643.6674 1384.4531 0.0000 0.0000 1776.0408 -7474.0879 299.7131 -9250.1287 -7474.0879 299.7131 -500.2941 -422.0246 31309.4986 -500.2941 -422.0246
ENERGY: 300000 3.9666 3.9808 2.0648 0.0000 -10781.1036 1436.1125 0.0000 0.0000 1801.6377 -7533.3413 304.0326 -9334.9790 -7567.4596 298.9259 -180.9113 -102.3566 30528.4750 36.6065 120.3343
ENERGY: 600000 2.4706 1.5788 2.4070 0.0000 -10608.1821 1339.0966 0.0000 0.0000 1759.8601 -7502.7690 296.9825 -9262.6291 -7554.6243 298.4243 -535.9502 -490.8838 30424.7945 -167.8355 -87.2532
ENERGY: 900000 4.5752 1.4067 3.8657 0.0000 -10814.3724 1502.0613 0.0000 0.0000 1818.9108 -7483.5527 306.9475 -9302.4635 -7549.9086 299.3106 529.5479 567.0629 30508.8953 -139.6139 -68.2787
ENERGY: 1200000 3.9889 1.5389 3.2248 0.0000 -10646.3665 1338.7080 0.0000 0.0000 1763.4075 -7535.4985 297.5812 -9298.9059 -7549.4530 299.4140 -1130.9248 -1045.7053 30962.3690 -232.4237 -164.2057
ENERGY: 1500000 3.0713 1.8030 2.9238 0.0000 -10785.3450 1422.9766 0.0000 0.0000 1806.6434 -7547.9268 304.8774 -9354.5702 -7545.2480 300.1703 -292.5418 -189.5405 30416.9069 -189.5189 -128.2410
TCL: Running FEP window   8: Lambda1 0.35   Lambda2 0.39999999999999997 [dLambda 0.04999999999999999]
TCL: Setting parameter firsttimestep to 0
TCL: Setting parameter alchLambda to 0.35
Info: NONBONDED TABLE R-SQUARED SPACING: 0.0625
Info: NONBONDED TABLE SIZE: 705 POINTS
TCL: Setting parameter alchLambda2 to 0.39999999999999997
Info: NONBONDED TABLE R-SQUARED SPACING: 0.0625
Info: NONBONDED TABLE SIZE: 705 POINTS
TCL: Running for 1500000 steps
ETITLE: TS BOND ANGLE DIHED IMPRP ELECT VDW BOUNDARY MISC KINETIC TOTAL TEMP POTENTIAL TOTALAVG TEMPAVG PRESSURE GPRESSURE VOLUME PRESSAVG GPRESSAVG
ENERGY: 0 3.0713 1.8030 2.9238 0.0000 -10785.3450 1423.3095 0.0000 0.0000 1805.7683 -7548.4690 304.7297 -9354.2373 -7548.4690 304.7297 -273.0129 -179.5306 30416.9069 -273.0129 -179.5306
ENERGY: 300000 2.5813 2.1010 0.8672 0.0000 -10760.8973 1424.5702 0.0000 0.0000 1828.1478 -7502.6298 308.5063 -9330.7776 -7547.1790 301.0598 -283.6438 -201.5460 31138.5207 -346.2368 -261.4960
ENERGY: 600000 3.5950 1.4929 2.2456 0.0000 -10838.3460 1517.4217 0.0000 0.0000 1813.8844 -7499.7063 306.0993 -9313.5908 -7531.1081 302.1248 500.6656 567.7709 30613.6030 -172.8399 -113.9761
ENERGY: 900000 3.9051 2.1746 4.5317 0.0000 -10848.9641 1429.9445 0.0000 0.0000 1814.7248 -7593.6834 306.2411 -9408.4083 -7533.9692 302.3134 -214.2551 -181.4693 30298.9655 -171.0878 -101.1222
ENERGY: 1200000 6.2978 1.7015 2.7114 0.0000 -10880.0563 1562.1045 0.0000 0.0000 1798.9699 -7508.2712 303.5824 -9307.2412 -7531.9869 302.9739 1039.2315 1090.2254 30679.3938 -56.1850 14.4748
ENERGY: 1500000 5.7003 0.7990 2.9680 0.0000 -10667.7186 1413.2016 0.0000 0.0000 1718.8419 -7526.2079 290.0606 -9245.0498 -7529.1856 301.7265 -94.1698 32.9522 30325.9430 -61.3598 14.9983
TCL: Running FEP window   9: Lambda1 0.39999999999999997 Lambda2 0.44999999999999996 [dLambda 0.04999999999999999]
TCL: Setting parameter firsttimestep to 0
TCL: Setting parameter alchLambda to 0.39999999999999997
Info: NONBONDED TABLE R-SQUARED SPACING: 0.0625
Info: NONBONDED TABLE SIZE: 705 POINTS
TCL: Setting parameter alchLambda2 to 0.44999999999999996
Info: NONBONDED TABLE R-SQUARED SPACING: 0.0625
Info: NONBONDED TABLE SIZE: 705 POINTS
TCL: Running for 1500000 steps
ETITLE: TS BOND ANGLE DIHED IMPRP ELECT VDW BOUNDARY MISC KINETIC TOTAL TEMP POTENTIAL TOTALAVG TEMPAVG PRESSURE GPRESSURE VOLUME PRESSAVG GPRESSAVG
ENERGY: 0 5.7003 0.7990 2.9680 0.0000 -10667.7188 1414.2840 0.0000 0.0000 1717.9849 -7525.9826 289.9159 -9243.9675 -7525.9826 289.9159 -43.4876 46.3941 30325.9430 -43.4876 46.3941
ENERGY: 300000 2.0673 1.0652 2.9789 0.0000 -10721.8449 1443.7339 0.0000 0.0000 1701.5950 -7570.4045 287.1501 -9271.9995 -7549.8645 292.7638 188.1188 202.0197 30899.5060 -307.7256 -222.0989
ENERGY: 600000 6.3181 2.4365 0.9534 0.0000 -10674.4675 1368.0973 0.0000 0.0000 1742.4240 -7554.2382 294.0401 -9296.6622 -7543.2956 293.6820 -768.2723 -755.2847 30657.5141 -323.3850 -237.6145
ENERGY: 900000 3.1455 0.9155 5.1686 0.0000 -10868.7663 1421.4356 0.0000 0.0000 1809.2517 -7628.8494 305.3175 -9438.1011 -7553.6845 297.5715 -672.1378 -622.2880 30768.7054 -242.0058 -166.4620
ENERGY: 1200000 3.0476 2.4603 2.5267 0.0000 -10803.4999 1437.6442 0.0000 0.0000 1733.9279 -7623.8933 292.6064 -9357.8212 -7555.8001 297.4148 -407.3044 -329.8071 30965.3858 -248.8427 -178.3330
ENERGY: 1500000 7.6144 1.6508 2.3924 0.0000 -10820.5204 1414.2977 0.0000 0.0000 1791.7119 -7602.8532 302.3576 -9394.5650 -7558.2077 298.1813 -648.0179 -560.6421 30782.0227 -311.7203 -238.3697
TCL: Running FEP window  10: Lambda1 0.44999999999999996 Lambda2 0.49999999999999994 [dLambda 0.04999999999999999]
TCL: Setting parameter firsttimestep to 0
TCL: Setting parameter alchLambda to 0.44999999999999996
Info: NONBONDED TABLE R-SQUARED SPACING: 0.0625
Info: NONBONDED TABLE SIZE: 705 POINTS
TCL: Setting parameter alchLambda2 to 0.49999999999999994
Info: NONBONDED TABLE R-SQUARED SPACING: 0.0625
Info: NONBONDED TABLE SIZE: 705 POINTS
TCL: Running for 1500000 steps
ETITLE: TS BOND ANGLE DIHED IMPRP ELECT VDW BOUNDARY MISC KINETIC TOTAL TEMP POTENTIAL TOTALAVG TEMPAVG PRESSURE GPRESSURE VOLUME PRESSAVG GPRESSAVG
ENERGY: 0 7.6144 1.6508 2.3924 0.0000 -10820.5207 1414.1452 0.0000 0.0000 1790.8129 -7603.9049 302.2059 -9394.7179 -7603.9049 302.2059 -634.4727 -552.6556 30782.0227 -634.4727 -552.6556
ENERGY: 300000 5.7725 1.8294 5.3220 0.0000 -10796.9134 1451.5883 0.0000 0.0000 1758.8210 -7573.5802 296.8072 -9332.4012 -7561.7042 299.9656 -323.5092 -224.6348 30879.5381 -140.5982 -48.6233
ENERGY: 600000 1.8510 1.7780 5.5927 0.0000 -10849.9130 1476.9701 0.0000 0.0000 1750.4002 -7613.3210 295.3861 -9363.7212 -7562.3262 297.6868 146.1190 182.7096 30614.2614 -207.4783 -132.1086
ENERGY: 900000 2.4058 1.5910 1.6617 0.0000 -10795.4309 1451.5843 0.0000 0.0000 1790.3721 -7547.8160 302.1315 -9338.1881 -7554.2493 298.6758 197.3693 239.8452 30371.4116 -111.1935 -50.0807
ENERGY: 1200000 4.8703 2.3781 1.7429 0.0000 -10818.1445 1429.1494 0.0000 0.0000 1761.2206 -7618.7831 297.2121 -9380.0037 -7558.0475 297.8403 -186.6182 -156.0880 30200.4253 -149.1317 -88.2113
ENERGY: 1500000 8.5560 2.2169 2.5035 0.0000 -10703.2356 1421.4102 0.0000 0.0000 1773.9586 -7494.5903 299.3617 -9268.5489 -7562.4440 297.5468 -483.3288 -390.8104 31131.9823 -165.3848 -98.1941
TCL: Running FEP window  11: Lambda1 0.49999999999999994 Lambda2 0.5499999999999999 [dLambda 0.04999999999999999]
TCL: Setting parameter firsttimestep to 0
TCL: Setting parameter alchLambda to 0.49999999999999994
Info: NONBONDED TABLE R-SQUARED SPACING: 0.0625
Info: NONBONDED TABLE SIZE: 705 POINTS
TCL: Setting parameter alchLambda2 to 0.5499999999999999
Info: NONBONDED TABLE R-SQUARED SPACING: 0.0625
Info: NONBONDED TABLE SIZE: 705 POINTS
TCL: Running for 1500000 steps
ETITLE: TS BOND ANGLE DIHED IMPRP ELECT VDW BOUNDARY MISC KINETIC TOTAL TEMP POTENTIAL TOTALAVG TEMPAVG PRESSURE GPRESSURE VOLUME PRESSAVG GPRESSAVG
ENERGY: 0 8.5560 2.2169 2.5035 0.0000 -10703.2347 1421.6446 0.0000 0.0000 1773.0567 -7495.2570 299.2095 -9268.3137 -7495.2570 299.2095 -462.2739 -382.1651 31131.9823 -462.2739 -382.1651
ENERGY: 300000 2.0245 2.9905 1.9011 0.0000 -10830.7703 1485.7222 0.0000 0.0000 1756.3207 -7581.8112 296.3852 -9338.1319 -7518.9375 301.3411 235.9499 285.1338 30742.7188 -81.9309 -26.8051
ENERGY: 600000 2.9933 2.0923 1.0955 0.0000 -10727.2334 1446.7573 0.0000 0.0000 1807.9065 -7466.3885 305.0905 -9274.2951 -7514.2536 302.7846 82.1531 146.4884 30863.0864 -57.9426 3.4050
ENERGY: 900000 2.9173 3.0952 3.0562 0.0000 -10771.1613 1477.2241 0.0000 0.0000 1838.5059 -7446.3626 310.2543 -9284.8685 -7493.7659 304.3481 401.2786 456.8729 30828.6305 65.9685 124.9561
ENERGY: 1200000 5.1814 2.1986 3.6244 0.0000 -10752.0585 1431.8953 0.0000 0.0000 1731.8089 -7577.3498 292.2488 -9309.1587 -7513.5151 302.4550 -489.5074 -456.9449 31043.3868 10.4552 76.0556
ENERGY: 1500000 3.9860 3.1136 3.3931 0.0000 -10698.8112 1413.0087 0.0000 0.0000 1813.0897 -7462.2200 305.9652 -9275.3097 -7514.9795 302.6343 -296.1788 -224.8984 30959.3099 -89.7567 -22.3339
TCL: Running FEP window  12: Lambda1 0.5499999999999999 Lambda2 0.6    [dLambda 0.050000000000000044]
TCL: Setting parameter firsttimestep to 0
TCL: Setting parameter alchLambda to 0.5499999999999999
Info: NONBONDED TABLE R-SQUARED SPACING: 0.0625
Info: NONBONDED TABLE SIZE: 705 POINTS
TCL: Setting parameter alchLambda2 to 0.6
Info: NONBONDED TABLE R-SQUARED SPACING: 0.0625
Info: NONBONDED TABLE SIZE: 705 POINTS
TCL: Running for 1500000 steps
ETITLE: TS BOND ANGLE DIHED IMPRP ELECT VDW BOUNDARY MISC KINETIC TOTAL TEMP POTENTIAL TOTALAVG TEMPAVG PRESSURE GPRESSURE VOLUME PRESSAVG GPRESSAVG
ENERGY: 0 3.9861 3.1136 3.3931 0.0000 -10698.8160 1412.5470 0.0000 0.0000 1812.2039 -7463.5723 305.8157 -9275.7762 -7463.5723 305.8157 -294.7924 -219.1876 30959.3099 -294.7924 -219.1876
ENERGY: 300000 3.3626 5.2981 1.9258 0.0000 -10718.1802 1484.8772 0.0000 0.0000 1813.6072 -7409.1093 306.0525 -9222.7164 -7506.2314 302.6079 452.4811 522.0305 31006.6043 -50.9230 24.7517
ENERGY: 600000 2.7677 1.0083 2.1884 0.0000 -11044.3425 1628.4695 0.0000 0.0000 1792.8432 -7617.0654 302.5485 -9409.9086 -7533.9280 300.4867 1210.5415 1246.2737 30479.5302 124.6959 193.4683
ENERGY: 900000 2.5826 5.0196 0.9619 0.0000 -10713.4986 1411.0405 0.0000 0.0000 1731.0101 -7562.8839 292.1140 -9293.8940 -7548.4295 298.4105 -207.2448 -156.5637 30623.1067 47.4274 115.6894
ENERGY: 1200000 3.5403 1.2716 1.7628 0.0000 -10772.4684 1492.6826 0.0000 0.0000 1767.6794 -7505.5318 298.3021 -9273.2111 -7542.2606 298.6092 675.4071 727.8270 30779.9882 104.6157 164.2673
ENERGY: 1500000 5.1772 0.9963 1.3856 0.0000 -10774.2857 1424.5185 0.0000 0.0000 1756.8546 -7585.3535 296.4753 -9342.2082 -7543.7904 298.3706 -398.4530 -327.9190 30814.3444 -57.9564 2.8113
TCL: Running FEP window  13: Lambda1 0.6    Lambda2 0.65   [dLambda 0.050000000000000044]
TCL: Setting parameter firsttimestep to 0
TCL: Setting parameter alchLambda to 0.6
Info: NONBONDED TABLE R-SQUARED SPACING: 0.0625
Info: NONBONDED TABLE SIZE: 705 POINTS
TCL: Setting parameter alchLambda2 to 0.65
Info: NONBONDED TABLE R-SQUARED SPACING: 0.0625
Info: NONBONDED TABLE SIZE: 705 POINTS
TCL: Running for 1500000 steps
ETITLE: TS BOND ANGLE DIHED IMPRP ELECT VDW BOUNDARY MISC KINETIC TOTAL TEMP POTENTIAL TOTALAVG TEMPAVG PRESSURE GPRESSURE VOLUME PRESSAVG GPRESSAVG
ENERGY: 0 5.1772 0.9963 1.3856 0.0000 -10774.3106 1424.2495 0.0000 0.0000 1755.9189 -7586.5830 296.3174 -9342.5020 -7586.5830 296.3174 -402.0217 -321.2445 30814.3444 -402.0217 -321.2445
ENERGY: 300000 3.3498 0.9905 3.5952 0.0000 -10677.3827 1383.1060 0.0000 0.0000 1771.5812 -7514.7600 298.9605 -9286.3411 -7550.6412 298.9251 -276.3518 -307.2324 30708.7497 51.7577 99.4421
ENERGY: 600000 9.8976 1.7010 1.0263 0.0000 -10732.9986 1420.7993 0.0000 0.0000 1796.9451 -7502.6294 303.2407 -9299.5744 -7515.0007 301.9345 -390.1492 -365.5178 30768.6871 171.1108 212.7259
ENERGY: 900000 6.2411 1.5917 2.2801 0.0000 -10817.1597 1431.8172 0.0000 0.0000 1750.0840 -7625.1456 295.3328 -9375.2296 -7515.9238 302.6117 -147.6977 -115.4812 30327.0286 179.2433 231.0120
ENERGY: 1200000 2.6205 2.5177 1.5339 0.0000 -10790.1643 1485.5424 0.0000 0.0000 1791.3967 -7506.5530 302.3044 -9297.9497 -7513.1562 302.4131 262.3592 303.1831 30624.4818 173.2486 230.9499
ENERGY: 1500000 4.2870 2.1044 2.2470 0.0000 -10859.4651 1509.7635 0.0000 0.0000 1764.1927 -7576.8704 297.7137 -9341.0631 -7522.0418 302.1124 610.1198 714.7786 30267.1902 168.9467 232.6218
TCL: Running FEP window  14: Lambda1 0.65   Lambda2 0.7000000000000001 [dLambda 0.050000000000000044]
TCL: Setting parameter firsttimestep to 0
TCL: Setting parameter alchLambda to 0.65
Info: NONBONDED TABLE R-SQUARED SPACING: 0.0625
Info: NONBONDED TABLE SIZE: 705 POINTS
TCL: Setting parameter alchLambda2 to 0.7000000000000001
Info: NONBONDED TABLE R-SQUARED SPACING: 0.0625
Info: NONBONDED TABLE SIZE: 705 POINTS
TCL: Running for 1500000 steps
ETITLE: TS BOND ANGLE DIHED IMPRP ELECT VDW BOUNDARY MISC KINETIC TOTAL TEMP POTENTIAL TOTALAVG TEMPAVG PRESSURE GPRESSURE VOLUME PRESSAVG GPRESSAVG
ENERGY: 0 4.2870 2.1044 2.2470 0.0000 -10859.5032 1510.4120 0.0000 0.0000 1763.3069 -7577.1458 297.5642 -9340.4527 -7577.1458 297.5642 624.0985 734.2552 30267.1902 624.0985 734.2552
ENERGY: 300000 5.4311 2.5849 1.8326 0.0000 -10787.6537 1451.8950 0.0000 0.0000 1775.7922 -7550.1179 299.6711 -9325.9101 -7575.0474 296.9880 129.8889 174.1584 30498.1944 347.5018 426.0706
ENERGY: 600000 3.1633 1.7353 0.8742 0.0000 -10862.6252 1439.4190 0.0000 0.0000 1813.1089 -7604.3244 305.9684 -9417.4333 -7576.4649 299.0111 -349.7324 -350.5544 30808.6371 292.0195 359.6479
ENERGY: 900000 3.5451 0.9957 4.6470 0.0000 -10739.0900 1450.8221 0.0000 0.0000 1779.8211 -7499.2590 300.3510 -9279.0802 -7563.7356 298.4022 -47.2425 13.2283 30919.8047 115.0566 173.4621
ENERGY: 1200000 3.2505 1.6420 2.0980 0.0000 -10862.6741 1516.9841 0.0000 0.0000 1840.7886 -7497.9108 310.6395 -9338.6994 -7561.4736 298.5115 343.7178 418.3090 31082.9945 88.1234 151.8181
ENERGY: 1500000 4.4797 2.8183 5.2741 0.0000 -10745.8374 1442.8777 0.0000 0.0000 1788.8964 -7501.4911 301.8825 -9290.3876 -7549.0728 299.1138 -71.2593 32.3061 31118.8005 54.1126 115.1030
TCL: Running FEP window  15: Lambda1 0.7000000000000001 Lambda2 0.7500000000000001 [dLambda 0.050000000000000044]
TCL: Setting parameter firsttimestep to 0
TCL: Setting parameter alchLambda to 0.7000000000000001
Info: NONBONDED TABLE R-SQUARED SPACING: 0.0625
Info: NONBONDED TABLE SIZE: 705 POINTS
TCL: Setting parameter alchLambda2 to 0.7500000000000001
Info: NONBONDED TABLE R-SQUARED SPACING: 0.0625
Info: NONBONDED TABLE SIZE: 705 POINTS
TCL: Running for 1500000 steps
ETITLE: TS BOND ANGLE DIHED IMPRP ELECT VDW BOUNDARY MISC KINETIC TOTAL TEMP POTENTIAL TOTALAVG TEMPAVG PRESSURE GPRESSURE VOLUME PRESSAVG GPRESSAVG
ENERGY: 0 4.4797 2.8183 5.2741 0.0000 -10745.9356 1442.9954 0.0000 0.0000 1788.0260 -7502.3420 301.7356 -9290.3680 -7502.3420 301.7356 -50.5078 44.3576 31118.8005 -50.5078 44.3576
ENERGY: 300000 4.6126 1.7785 1.5418 0.0000 -10778.7952 1417.2077 0.0000 0.0000 1762.7610 -7590.8937 297.4721 -9353.6547 -7557.5306 298.4290 -289.1248 -261.1392 30843.1387 135.4710 201.9564
ENERGY: 600000 5.2564 1.3518 3.9609 0.0000 -10846.8689 1473.3379 0.0000 0.0000 1733.8786 -7629.0833 292.5981 -9362.9619 -7571.9364 296.6133 -27.7287 40.4562 30562.2867 17.5363 76.3176
ENERGY: 900000 3.4410 2.0685 2.9175 0.0000 -10704.4019 1398.5028 0.0000 0.0000 1809.3806 -7488.0914 305.3393 -9297.4721 -7565.5016 297.4213 -443.0330 -407.4126 31013.9233 -129.6730 -67.8949
ENERGY: 1200000 3.1281 2.9367 1.0794 0.0000 -10741.4207 1422.9681 0.0000 0.0000 1802.2290 -7509.0793 304.1324 -9311.3083 -7561.0193 298.3574 -33.6686 -19.7748 30577.7036 -115.6827 -61.1649
ENERGY: 1500000 5.2607 1.0517 3.9399 0.0000 -10722.1215 1476.1134 0.0000 0.0000 1750.1666 -7485.5892 295.3467 -9235.7559 -7545.1065 299.0679 193.4438 193.0841 31353.2816 -106.5425 -58.8623
TCL: Running FEP window  16: Lambda1 0.7500000000000001 Lambda2 0.8000000000000002 [dLambda 0.050000000000000044]
TCL: Setting parameter firsttimestep to 0
TCL: Setting parameter alchLambda to 0.7500000000000001
Info: NONBONDED TABLE R-SQUARED SPACING: 0.0625
Info: NONBONDED TABLE SIZE: 705 POINTS
TCL: Setting parameter alchLambda2 to 0.8000000000000002
Info: NONBONDED TABLE R-SQUARED SPACING: 0.0625
Info: NONBONDED TABLE SIZE: 705 POINTS
TCL: Running for 1500000 steps
ETITLE: TS BOND ANGLE DIHED IMPRP ELECT VDW BOUNDARY MISC KINETIC TOTAL TEMP POTENTIAL TOTALAVG TEMPAVG PRESSURE GPRESSURE VOLUME PRESSAVG GPRESSAVG
ENERGY: 0 5.2607 1.0517 3.9399 0.0000 -10722.2298 1476.3313 0.0000 0.0000 1749.3137 -7486.3326 295.2028 -9235.6462 -7486.3326 295.2028 116.1761 206.4552 31353.2816 116.1761 206.4552
ENERGY: 300000 4.0072 2.9633 6.6902 0.0000 -10823.3903 1395.9552 0.0000 0.0000 1737.3822 -7676.3922 293.1893 -9413.7744 -7553.7266 295.7477 -547.7039 -578.0483 30257.8652 11.6302 51.8876
ENERGY: 600000 3.7895 2.7676 2.5714 0.0000 -10724.8220 1421.4114 0.0000 0.0000 1800.5909 -7493.6912 303.8560 -9294.2821 -7536.4503 299.4821 -207.4420 -159.8822 30743.6468 -5.6644 44.7635
ENERGY: 900000 3.1280 1.5852 2.8684 0.0000 -10850.6863 1466.7031 0.0000 0.0000 1773.4142 -7602.9873 299.2698 -9376.4015 -7536.4854 299.8057 -64.5930 -25.1838 30857.2036 60.4434 115.2615
ENERGY: 1200000 3.1616 3.0426 4.2332 0.0000 -10863.1781 1540.6405 0.0000 0.0000 1763.7224 -7548.3778 297.6343 -9312.1002 -7536.3846 299.6532 1007.3710 998.6445 30594.0165 80.2146 135.6751
ENERGY: 1500000 3.0315 1.4496 2.7357 0.0000 -10653.8949 1404.5257 0.0000 0.0000 1793.4525 -7448.6999 302.6514 -9242.1524 -7525.9721 300.3184 -127.2849 -61.7334 31096.4224 104.0326 163.8233
TCL: Running FEP window  17: Lambda1 0.8000000000000002 Lambda2 0.8500000000000002 [dLambda 0.050000000000000044]
TCL: Setting parameter firsttimestep to 0
TCL: Setting parameter alchLambda to 0.8000000000000002
Info: NONBONDED TABLE R-SQUARED SPACING: 0.0625
Info: NONBONDED TABLE SIZE: 705 POINTS
TCL: Setting parameter alchLambda2 to 0.8500000000000002
Info: NONBONDED TABLE R-SQUARED SPACING: 0.0625
Info: NONBONDED TABLE SIZE: 705 POINTS
TCL: Running for 1500000 steps
ETITLE: TS BOND ANGLE DIHED IMPRP ELECT VDW BOUNDARY MISC KINETIC TOTAL TEMP POTENTIAL TOTALAVG TEMPAVG PRESSURE GPRESSURE VOLUME PRESSAVG GPRESSAVG
ENERGY: 0 3.0315 1.4496 2.7357 0.0000 -10653.9038 1404.7132 0.0000 0.0000 1792.5877 -7449.3860 302.5054 -9241.9737 -7449.3860 302.5054 -129.5740 -48.1090 31096.4224 -129.5740 -48.1090
ENERGY: 300000 3.7701 4.4390 2.9208 0.0000 -10952.5900 1598.2427 0.0000 0.0000 1790.0090 -7553.2084 302.0703 -9343.2174 -7495.3236 302.0673 890.2010 961.7508 30915.7684 -29.3668 41.0752
ENERGY: 600000 3.7416 1.5709 3.5161 0.0000 -10791.3064 1460.8774 0.0000 0.0000 1787.4328 -7534.1677 301.6355 -9321.6005 -7521.0493 300.9091 310.6935 415.1461 30364.6508 118.4336 184.7315
ENERGY: 900000 3.8319 2.8966 2.6289 0.0000 -10764.8658 1490.9326 0.0000 0.0000 1792.0389 -7472.5368 302.4128 -9264.5758 -7516.4534 300.9819 315.4520 442.8367 31103.5221 172.1753 242.1514
ENERGY: 1200000 7.3362 1.6996 1.8381 0.0000 -10849.6350 1510.0477 0.0000 0.0000 1765.0856 -7563.6278 297.8643 -9328.7134 -7533.6186 300.3978 222.9481 355.3423 30832.5917 122.2062 196.9441
ENERGY: 1500000 2.2849 2.6823 3.7436 0.0000 -10853.5876 1487.2544 0.0000 0.0000 1717.7386 -7639.8837 289.8744 -9357.6223 -7534.1436 299.5270 95.2614 64.4141 31019.9294 77.1233 144.8074
TCL: Running FEP window  18: Lambda1 0.8500000000000002 Lambda2 0.9000000000000002 [dLambda 0.050000000000000044]
TCL: Setting parameter firsttimestep to 0
TCL: Setting parameter alchLambda to 0.8500000000000002
Info: NONBONDED TABLE R-SQUARED SPACING: 0.0625
Info: NONBONDED TABLE SIZE: 705 POINTS
TCL: Setting parameter alchLambda2 to 0.9000000000000002
Info: NONBONDED TABLE R-SQUARED SPACING: 0.0625
Info: NONBONDED TABLE SIZE: 705 POINTS
TCL: Running for 1500000 steps
ETITLE: TS BOND ANGLE DIHED IMPRP ELECT VDW BOUNDARY MISC KINETIC TOTAL TEMP POTENTIAL TOTALAVG TEMPAVG PRESSURE GPRESSURE VOLUME PRESSAVG GPRESSAVG
ENERGY: 0 2.2849 2.6823 3.7436 0.0000 -10853.6679 1486.9593 0.0000 0.0000 1716.8458 -7641.1519 289.7237 -9357.9978 -7641.1519 289.7237 -0.5488 76.6599 31019.9294 -0.5488 76.6599
ENERGY: 300000 3.9330 1.7471 3.3230 0.0000 -10729.8516 1357.2595 0.0000 0.0000 1801.3531 -7562.2360 303.9846 -9363.5891 -7564.2980 298.0074 -762.2666 -702.0668 31106.4594 -161.4778 -103.1033
ENERGY: 600000 2.5069 3.1033 4.6812 0.0000 -10952.3598 1575.9054 0.0000 0.0000 1776.1898 -7589.9731 299.7382 -9366.1629 -7558.2865 298.6764 925.0640 1036.8196 30253.7977 -77.4718 -20.8619
ENERGY: 900000 4.4003 4.3784 2.6455 0.0000 -10743.1713 1435.7435 0.0000 0.0000 1790.8974 -7505.1063 302.2202 -9296.0037 -7562.4325 298.4716 -112.8843 0.8622 31093.0128 34.7229 90.5353
ENERGY: 1200000 2.2458 1.7529 1.4149 0.0000 -10744.7065 1433.9861 0.0000 0.0000 1751.6864 -7553.6205 295.6032 -9305.3069 -7542.7378 299.4889 -271.9646 -217.2214 31123.6068 4.0472 54.0481
ENERGY: 1500000 6.3722 2.8527 3.4062 0.0000 -10832.6289 1449.0633 0.0000 0.0000 1813.7484 -7557.1861 306.0764 -9370.9345 -7538.2101 300.1269 -284.5225 -223.2318 30658.4888 8.6602 59.7645
TCL: Running FEP window  19: Lambda1 0.9000000000000002 Lambda2 0.9500000000000003 [dLambda 0.050000000000000044]
TCL: Setting parameter firsttimestep to 0
TCL: Setting parameter alchLambda to 0.9000000000000002
Info: NONBONDED TABLE R-SQUARED SPACING: 0.0625
Info: NONBONDED TABLE SIZE: 705 POINTS
TCL: Setting parameter alchLambda2 to 0.9500000000000003
Info: NONBONDED TABLE R-SQUARED SPACING: 0.0625
Info: NONBONDED TABLE SIZE: 705 POINTS
TCL: Running for 1500000 steps
ETITLE: TS BOND ANGLE DIHED IMPRP ELECT VDW BOUNDARY MISC KINETIC TOTAL TEMP POTENTIAL TOTALAVG TEMPAVG PRESSURE GPRESSURE VOLUME PRESSAVG GPRESSAVG
ENERGY: 0 6.3722 2.8527 3.4062 0.0000 -10832.6490 1449.1928 0.0000 0.0000 1812.8482 -7557.9769 305.9245 -9370.8251 -7557.9769 305.9245 -281.1989 -207.7826 30658.4888 -281.1989 -207.7826
ENERGY: 300000 5.9163 3.2551 4.8431 0.0000 -10703.1064 1400.0363 0.0000 0.0000 1746.2252 -7542.8304 294.6816 -9289.0556 -7576.7799 297.6947 -522.2437 -447.7373 30922.2854 -147.2709 -94.9682
ENERGY: 600000 2.3475 2.0540 4.4070 0.0000 -10920.2228 1548.3195 0.0000 0.0000 1814.0849 -7549.0099 306.1331 -9363.0948 -7578.6671 298.4497 401.3664 472.1536 31166.7771 -195.2294 -149.5712
ENERGY: 900000 2.9236 2.7144 3.6312 0.0000 -10899.3617 1489.4901 0.0000 0.0000 1784.1363 -7616.4661 301.0792 -9400.6024 -7587.6478 298.4470 219.4879 280.8078 30676.1451 -91.5487 -37.2268
ENERGY: 1200000 5.2709 1.8231 1.4040 0.0000 -10733.2235 1443.0314 0.0000 0.0000 1810.2759 -7471.4182 305.4904 -9281.6941 -7582.8443 298.3781 -138.0603 -79.1618 31197.6534 -110.6945 -57.1448
ENERGY: 1500000 2.6604 3.5490 3.2682 0.0000 -10849.7906 1474.6752 0.0000 0.0000 1743.9276 -7621.7102 294.2939 -9365.6378 -7585.3727 297.7004 15.4991 56.3772 30974.3683 -96.8398 -41.8885
TCL: Running FEP window  20: Lambda1 0.9500000000000003 Lambda2 1.0    [dLambda 0.04999999999999971]
TCL: Setting parameter firsttimestep to 0
TCL: Setting parameter alchLambda to 0.9500000000000003
Info: NONBONDED TABLE R-SQUARED SPACING: 0.0625
Info: NONBONDED TABLE SIZE: 705 POINTS
TCL: Setting parameter alchLambda2 to 1.0
Info: NONBONDED TABLE R-SQUARED SPACING: 0.0625
Info: NONBONDED TABLE SIZE: 705 POINTS
TCL: Running for 1500000 steps
ETITLE: TS BOND ANGLE DIHED IMPRP ELECT VDW BOUNDARY MISC KINETIC TOTAL TEMP POTENTIAL TOTALAVG TEMPAVG PRESSURE GPRESSURE VOLUME PRESSAVG GPRESSAVG
ENERGY: 0 2.6604 3.5490 3.2682 0.0000 -10849.8273 1474.1582 0.0000 0.0000 1743.0438 -7623.1477 294.1447 -9366.1915 -7623.1477 294.1447 -8.1694 66.5050 30974.3683 -8.1694 66.5050
ENERGY: 300000 6.3222 1.9903 3.0133 0.0000 -10929.5444 1573.9183 0.0000 0.0000 1795.3198 -7548.9805 302.9665 -9344.3003 -7585.2741 300.0635 1143.5900 1270.7204 30641.7800 314.6135 418.2133
ENERGY: 600000 5.3868 1.7644 3.1958 0.0000 -10757.2731 1455.4960 0.0000 0.0000 1816.9774 -7474.4528 306.6213 -9291.4302 -7554.5277 302.1411 301.5511 370.1990 30528.3086 144.0442 220.0429
ENERGY: 900000 3.1047 1.6230 4.3740 0.0000 -10738.0318 1391.0506 0.0000 0.0000 1808.7717 -7529.1078 305.2365 -9337.8795 -7551.3104 303.0784 -573.1033 -475.1379 31034.6257 122.3030 207.3863
ENERGY: 1200000 3.1025 3.2856 1.7597 0.0000 -10837.5395 1451.3285 0.0000 0.0000 1853.4649 -7524.5983 312.7787 -9378.0632 -7553.5020 303.6037 -27.1335 9.9184 30653.7016 108.9884 179.1508
ENERGY: 1500000 4.0613 2.2337 5.0113 0.0000 -10721.2938 1368.9476 0.0000 0.0000 1756.5233 -7584.5166 296.4194 -9341.0399 -7553.3520 302.8766 -668.5554 -648.5161 30841.6069 145.3921 207.3246
TCL: Exiting due to exit command.
