Info: SIMULATION PARAMETERS:
Info: TIMESTEP               2
Info: NUMBER OF STEPS        0
Info: STEPS PER CYCLE        10
Info: PERIODIC CELL BASIS 1  31.0861 0 0
Info: PERIODIC CELL BASIS 2  0 29.6601 0
Info: PERIODIC CELL BASIS 3  0 0 33.0262
Info: PERIODIC CELL CENTER   0 0 0
Info: WRAPPING WATERS AROUND PERIODIC BOUNDARIES ON OUTPUT.
Info: WRAPPING ALL CLUSTERS AROUND PERIODIC BOUNDARIES ON OUTPUT.
Info: FIRST LDB TIMESTEP     50
Info: LAST LDB TIMESTEP     -1
Info: HOM BACKGROUND SCALING 1
Info: PME BACKGROUND SCALING 1
Info: MIN ATOMS PER PATCH    40
Info: EMPTY PATCH LOAD       40 ATOMS
Info: VELOCITY FILE          mobley_8691603_equil.vel
Info: CENTER OF MASS MOVING INITIALLY? NO
Info: DIELECTRIC             1
Info: EXCLUDE                SCALED ONE-FOUR
Info: 1-4 ELECTROSTATICS SCALED BY 0.833333
Info: MODIFIED 1-4 VDW PARAMETERS WILL BE USED
Info: DCD FILENAME           mobley_8691603_prod.dcd
Info: DCD FREQUENCY          100000
Info: DCD FIRST STEP         100000
Info: DCD FILE WILL CONTAIN UNIT CELL DATA
Info: XST FILENAME           mobley_8691603_prod.xst
Info: XST FREQUENCY          100000
Info: NO VELOCITY DCD OUTPUT
Info: NO FORCE DCD OUTPUT
Info: OUTPUT FILENAME        mobley_8691603_prod
Info: BINARY OUTPUT FILES WILL BE USED
Info: RESTART FILENAME       mobley_8691603_prod.restart
Info: RESTART FREQUENCY      100000
Info: BINARY RESTART FILES WILL BE USED
Info: CUTOFF                 9
Info: PAIRLIST DISTANCE      11
Info: PAIRLIST SHRINK RATE   0.01
Info: PAIRLIST GROW RATE     0.01
Info: PAIRLIST TRIGGER       0.3
Info: PAIRLISTS PER CYCLE    2
Info: PAIRLISTS ENABLED
Info: MARGIN                 2
Info: HYDROGEN GROUP CUTOFF  2.5
Info: PATCH DIMENSION        15.5
Info: ENERGY OUTPUT STEPS    100000
Info: ENERGY EVALUATION STEPS    100000
Info: OUTPUT ENERGY PRECISION 4
Info: CROSSTERM ENERGY INCLUDED IN DIHEDRAL
Info: TIMING OUTPUT STEPS    1000000
Info: PRESSURE OUTPUT STEPS  100000
Info: ALCHEMICAL FEP ON
Info: FEP CURRENT LAMBDA VALUE     0
Info: FEP COMPARISON LAMBDA VALUE  0.05
Info: FEP INTRA-ALCHEMICAL NON-BONDED INTERACTIONS WILL BE RETAINED
Info: FEP INTRA-ALCHEMICAL BONDED INTERACTIONS WILL BE RETAINED
Info: FEP VDW SHIFTING COEFFICIENT 5
Info: FEP ELEC. ACTIVE FOR ANNIHILATED PARTICLES BETWEEN LAMBDA = 0 AND LAMBDA = 0.5
Info: FEP ELEC. ACTIVE FOR EXNIHILATED PARTICLES BETWEEN LAMBDA = 0.5 AND LAMBDA = 1
Info: FEP VDW ACTIVE FOR ANNIHILATED PARTICLES BETWEEN LAMBDA = 0 AND LAMBDA = 1
Info: FEP VDW ACTIVE FOR EXNIHILATED PARTICLES BETWEEN LAMBDA = 0 AND LAMBDA = 1
Info: FEP BOND ACTIVE FOR ANNIHILATED PARTICLES BETWEEN LAMBDA = 1 AND LAMBDA = 1
Info: FEP BOND ACTIVE FOR EXNIHILATED PARTICLES BETWEEN LAMBDA = 0 AND LAMBDA = 0
Info: LANGEVIN DYNAMICS ACTIVE
Info: LANGEVIN TEMPERATURE   300
Info: LANGEVIN USING BBK INTEGRATOR
Info: LANGEVIN DAMPING COEFFICIENT IS 1 INVERSE PS
Info: LANGEVIN DYNAMICS APPLIED TO HYDROGENS
Info: LANGEVIN PISTON PRESSURE CONTROL ACTIVE
Info:        TARGET PRESSURE IS 1.01325 BAR
Info:     OSCILLATION PERIOD IS 50 FS
Info:             DECAY TIME IS 25 FS
Info:     PISTON TEMPERATURE IS 300 K
Info:       PRESSURE CONTROL IS GROUP-BASED
Info:    INITIAL STRAIN RATE IS 0.000230868 0.000230868 0.000230868
Info:       CELL FLUCTUATION IS ISOTROPIC
Info: PARTICLE MESH EWALD (PME) ACTIVE
Info: PME TOLERANCE               1e-06
Info: PME EWALD COEFFICIENT       0.348832
Info: PME INTERPOLATION ORDER     4
Info: PME GRID DIMENSIONS         32 32 36
Info: PME MAXIMUM GRID SPACING    1
Info: PME CALCULATION WILL BE PERFORMED ON GPU
Info: FULL ELECTROSTATIC EVALUATION FREQUENCY      2
Info: USING VERLET I (r-RESPA) MTS SCHEME.
Info: C1 SPLITTING OF LONG RANGE ELECTROSTATICS
Info: PLACING ATOMS IN PATCHES BY HYDROGEN GROUPS
Info: RIGID BONDS TO HYDROGEN : ALL
Info:         ERROR TOLERANCE : 1e-08
Info:          MAX ITERATIONS : 100
Info: RIGID WATER USING SETTLE ALGORITHM
Info: RANDOM NUMBER SEED     1743583377
Info: USE HYDROGEN BONDS?    NO
Info: Using AMBER format force field!
Info: AMBER PARM FILE        mobley_8691603.prmtop
Info: COORDINATE PDB         mobley_8691603.pdb
Info: Exclusions will be read from PARM file!
Info: SCNB (VDW SCALING)     2
Info: USING ARITHMETIC MEAN TO COMBINE L-J SIGMA PARAMETERS
Info: BINARY COORDINATES     mobley_8691603_equil.coor
Info: SUMMARY OF PARAMETERS:
Info: 8 BONDS
Info: 7 ANGLES
Info:   7 HARMONIC
Info:   0 COSINE-BASED
Info: 4 DIHEDRAL
Info: 0 IMPROPER
Info: 0 CROSSTERM
Info: 0 VDW
Info: 28 VDW_PAIRS
Info: 0 NBTHOLE_PAIRS
Info: To read alchdata from file: mobley_8691603.pdb
Info: To read alchflag data from column: 5
Info: STRUCTURE SUMMARY:
Info: 2947 ATOMS
Info: 2947 BONDS
Info: 25 ANGLES
Info: 38 DIHEDRALS
Info: 0 IMPROPERS
Info: 0 CROSSTERMS
Info: 3001 EXCLUSIONS
Info: 2939 RIGID BONDS
Info: ALCH: 0 ATOMS TO DISAPPEAR IN FINAL STATE
Info: ALCH: 16 ATOMS TO APPEAR IN FINAL STATE
Info: 5902 DEGREES OF FREEDOM
Info: 985 HYDROGEN GROUPS
Info: 4 ATOMS IN LARGEST HYDROGEN GROUP
Info: 985 MIGRATION GROUPS
Info: 4 ATOMS IN LARGEST MIGRATION GROUP
Info: TOTAL MASS = 17709.8 amu
Info: TOTAL CHARGE = -3.35276e-08 e
Info: MASS DENSITY = 0.96577 g/cm^3
Info: ATOM DENSITY = 0.0967791 atoms/A^3
Info: ADDED 0 IMPLICIT EXCLUSIONS
Info: NONBONDED TABLE R-SQUARED SPACING: 0.0625
Info: NONBONDED TABLE SIZE: 705 POINTS
Info: REMOVING COM VELOCITY 0.00374783 -0.0972452 -0.167408
Info: Use 3D box decompostion in PME FFT.
Info: Updated CUDA force table with 4096 elements.
Info: Updated CUDA LJ table with 7 x 7 elements.
Info: Found 17 unique exclusion lists needing 40 bytes
TCL: Running for 1500000 steps
ETITLE: TS BOND ANGLE DIHED IMPRP ELECT VDW BOUNDARY MISC KINETIC TOTAL TEMP POTENTIAL TOTALAVG TEMPAVG PRESSURE GPRESSURE VOLUME PRESSAVG GPRESSAVG
ENERGY: 0 2.7638 5.5481 0.9144 0.0000 -10660.7776 1414.9006 0.0000 0.0000 1780.2607 -7456.3900 303.5811 -9236.6507 -7456.3900 303.5811 -479.6283 -395.6996 30450.7905 -479.6283 -395.6996
ENERGY: 300000 2.1370 3.8167 2.4697 0.0000 -10774.0429 1480.9003 0.0000 0.0000 1787.2755 -7497.4437 304.7773 -9284.7191 -7490.1624 299.9340 197.7883 228.3084 29884.3752 150.5154 207.8291
ENERGY: 600000 2.4682 4.5018 2.4377 0.0000 -10518.4890 1296.8184 0.0000 0.0000 1742.8839 -7469.3790 297.2074 -9212.2629 -7482.7969 300.7899 -1103.8893 -1084.5455 30220.5256 -90.5150 -50.9168
ENERGY: 900000 1.3032 4.1495 3.3210 0.0000 -10740.2888 1445.2948 0.0000 0.0000 1768.1162 -7518.1040 301.5102 -9286.2203 -7496.1648 300.4452 -130.8279 -7.1808 30051.0145 -152.9459 -101.4810
ENERGY: 1200000 3.1048 4.8443 2.4822 0.0000 -10767.2789 1483.7659 0.0000 0.0000 1768.4449 -7504.6368 301.5662 -9273.0817 -7493.8782 300.5235 43.6746 60.7758 30474.9395 -105.2612 -57.5092
ENERGY: 1500000 1.4169 4.3644 4.7457 0.0000 -10739.5900 1457.3834 0.0000 0.0000 1801.0571 -7470.6224 307.1275 -9271.6795 -7484.3196 301.6751 70.6030 161.1499 30091.8730 -11.9903 37.8398
TCL: Running FEP window   2: Lambda1 0.05   Lambda2 0.1    [dLambda 0.05  ]
TCL: Setting parameter firsttimestep to 0
TCL: Setting parameter alchLambda to 0.05
Info: NONBONDED TABLE R-SQUARED SPACING: 0.0625
Info: NONBONDED TABLE SIZE: 705 POINTS
TCL: Setting parameter alchLambda2 to 0.1
Info: NONBONDED TABLE R-SQUARED SPACING: 0.0625
Info: NONBONDED TABLE SIZE: 705 POINTS
TCL: Running for 1500000 steps
ETITLE: TS BOND ANGLE DIHED IMPRP ELECT VDW BOUNDARY MISC KINETIC TOTAL TEMP POTENTIAL TOTALAVG TEMPAVG PRESSURE GPRESSURE VOLUME PRESSAVG GPRESSAVG
ENERGY: 0 1.4169 4.3644 4.7457 0.0000 -10739.5895 1459.0219 0.0000 0.0000 1800.1946 -7469.8459 306.9804 -9270.0405 -7469.8459 306.9804 86.9956 167.6899 30091.8730 86.9956 167.6899
ENERGY: 300000 2.6949 1.7611 5.0779 0.0000 -10629.0202 1371.9656 0.0000 0.0000 1785.3633 -7462.1574 304.4513 -9247.5207 -7463.4284 304.9313 -407.8645 -340.9482 30014.2641 -123.2033 -67.8904
ENERGY: 600000 2.3193 2.6272 3.6603 0.0000 -10594.6543 1383.4175 0.0000 0.0000 1736.5811 -7466.0489 296.1326 -9202.6300 -7475.9735 301.7205 -441.1187 -361.5439 30232.5255 -122.2587 -55.8754
ENERGY: 900000 7.3417 3.6381 3.9414 0.0000 -10637.7175 1441.7416 0.0000 0.0000 1749.0424 -7432.0122 298.2576 -9181.0547 -7451.5729 301.4333 187.1879 174.4966 30339.8159 -224.3608 -159.1708
ENERGY: 1200000 2.8002 3.7255 4.0715 0.0000 -10615.4483 1378.6249 0.0000 0.0000 1740.6868 -7485.5394 296.8327 -9226.2262 -7458.2356 300.0280 -603.4229 -508.9339 30684.4912 -306.9747 -239.9452
ENERGY: 1500000 2.9207 4.2696 2.5527 0.0000 -10658.8588 1396.9822 0.0000 0.0000 1789.9972 -7462.1363 305.2415 -9252.1335 -7465.1137 300.4973 -554.0945 -423.9358 30257.1753 -344.6234 -277.6368
TCL: Running FEP window   3: Lambda1 0.1    Lambda2 0.15000000000000002 [dLambda 0.05000000000000002]
TCL: Setting parameter firsttimestep to 0
TCL: Setting parameter alchLambda to 0.1
Info: NONBONDED TABLE R-SQUARED SPACING: 0.0625
Info: NONBONDED TABLE SIZE: 705 POINTS
TCL: Setting parameter alchLambda2 to 0.15000000000000002
Info: NONBONDED TABLE R-SQUARED SPACING: 0.0625
Info: NONBONDED TABLE SIZE: 705 POINTS
TCL: Running for 1500000 steps
ETITLE: TS BOND ANGLE DIHED IMPRP ELECT VDW BOUNDARY MISC KINETIC TOTAL TEMP POTENTIAL TOTALAVG TEMPAVG PRESSURE GPRESSURE VOLUME PRESSAVG GPRESSAVG
ENERGY: 0 2.9207 4.2696 2.5527 0.0000 -10658.8596 1397.7986 0.0000 0.0000 1789.1513 -7462.1666 305.0972 -9251.3180 -7462.1666 305.0972 -517.5576 -420.1134 30257.1753 -517.5576 -420.1134
ENERGY: 300000 4.6657 5.8142 2.8548 0.0000 -10721.7136 1388.1630 0.0000 0.0000 1727.5276 -7592.6883 294.5888 -9320.2159 -7500.2894 298.8994 -584.5405 -549.8462 29720.1351 -361.1321 -284.9106
ENERGY: 600000 1.7882 7.5474 3.4296 0.0000 -10758.1136 1531.7411 0.0000 0.0000 1765.8834 -7447.7240 301.1294 -9213.6073 -7477.9191 301.3080 724.4376 834.6183 30371.6291 -140.8091 -75.3606
ENERGY: 900000 2.8590 5.0199 1.2852 0.0000 -10615.7784 1442.6030 0.0000 0.0000 1767.1908 -7396.8205 301.3524 -9164.0113 -7464.8476 301.5931 54.6351 108.0148 30330.9629 -42.9999 20.5248
ENERGY: 1200000 0.7681 5.1124 1.2059 0.0000 -10806.9925 1547.6401 0.0000 0.0000 1790.0864 -7462.1795 305.2567 -9252.2659 -7464.3500 301.7170 955.9485 1067.1135 29758.4199 49.4132 117.9517
ENERGY: 1500000 1.1346 6.5605 2.4113 0.0000 -10688.9904 1416.2851 0.0000 0.0000 1776.9611 -7485.6379 303.0185 -9262.5989 -7469.6777 300.8021 -172.8602 -152.3356 30095.4851 -29.5030 40.6046
TCL: Running FEP window   4: Lambda1 0.15000000000000002 Lambda2 0.2    [dLambda 0.04999999999999999]
TCL: Setting parameter firsttimestep to 0
TCL: Setting parameter alchLambda to 0.15000000000000002
Info: NONBONDED TABLE R-SQUARED SPACING: 0.0625
Info: NONBONDED TABLE SIZE: 705 POINTS
TCL: Setting parameter alchLambda2 to 0.2
Info: NONBONDED TABLE R-SQUARED SPACING: 0.0625
Info: NONBONDED TABLE SIZE: 705 POINTS
TCL: Running for 1500000 steps
ETITLE: TS BOND ANGLE DIHED IMPRP ELECT VDW BOUNDARY MISC KINETIC TOTAL TEMP POTENTIAL TOTALAVG TEMPAVG PRESSURE GPRESSURE VOLUME PRESSAVG GPRESSAVG
ENERGY: 0 1.1346 6.5605 2.4113 0.0000 -10688.9898 1417.5490 0.0000 0.0000 1776.0829 -7485.2515 302.8687 -9261.3344 -7485.2515 302.8687 -217.6426 -144.1362 30095.4851 -217.6426 -144.1362
ENERGY: 300000 2.8515 3.3386 1.5081 0.0000 -10546.8286 1318.6656 0.0000 0.0000 1711.8749 -7508.5900 291.9196 -9220.4649 -7466.3629 301.1312 -785.7217 -707.7788 30035.1825 -93.6867 -35.2890
ENERGY: 600000 5.3355 5.8206 1.9782 0.0000 -10790.4793 1493.7830 0.0000 0.0000 1763.3144 -7520.2476 300.6914 -9283.5620 -7479.6226 300.5215 158.8868 198.0245 30448.1815 -14.3569 13.3312
ENERGY: 900000 2.2617 4.9722 3.1533 0.0000 -10551.8522 1374.6519 0.0000 0.0000 1789.5839 -7377.2292 305.1710 -9166.8131 -7465.6920 300.2677 -424.9397 -278.6407 30337.7991 -111.0855 -63.7026
ENERGY: 1200000 1.9332 7.5398 3.2862 0.0000 -10763.7853 1468.2654 0.0000 0.0000 1801.9543 -7480.8064 307.2805 -9282.7608 -7474.6089 300.8521 -95.3371 -90.1417 30649.0497 -78.6421 -28.4019
ENERGY: 1500000 1.5037 2.4672 3.4158 0.0000 -10660.7903 1410.3040 0.0000 0.0000 1771.5510 -7471.5486 302.0959 -9243.0996 -7484.8300 300.2393 -505.4504 -458.8076 30866.1998 -138.6861 -83.5331
TCL: Running FEP window   5: Lambda1 0.2    Lambda2 0.25   [dLambda 0.04999999999999999]
TCL: Setting parameter firsttimestep to 0
TCL: Setting parameter alchLambda to 0.2
Info: NONBONDED TABLE R-SQUARED SPACING: 0.0625
Info: NONBONDED TABLE SIZE: 705 POINTS
TCL: Setting parameter alchLambda2 to 0.25
Info: NONBONDED TABLE R-SQUARED SPACING: 0.0625
Info: NONBONDED TABLE SIZE: 705 POINTS
TCL: Running for 1500000 steps
ETITLE: TS BOND ANGLE DIHED IMPRP ELECT VDW BOUNDARY MISC KINETIC TOTAL TEMP POTENTIAL TOTALAVG TEMPAVG PRESSURE GPRESSURE VOLUME PRESSAVG GPRESSAVG
ENERGY: 0 1.5037 2.4672 3.4158 0.0000 -10660.7904 1410.0893 0.0000 0.0000 1770.6419 -7472.6725 301.9409 -9243.3144 -7472.6725 301.9409 -530.7459 -456.2141 30866.1998 -530.7459 -456.2141
ENERGY: 300000 3.6223 2.3049 2.4932 0.0000 -10550.9436 1300.6928 0.0000 0.0000 1741.5413 -7500.2890 296.9785 -9241.8304 -7478.6775 299.3669 -1510.1393 -1403.4318 30727.0511 -554.5676 -472.2182
ENERGY: 600000 2.5091 3.9168 2.9035 0.0000 -10599.2455 1412.2153 0.0000 0.0000 1798.3506 -7379.3501 306.6659 -9177.7007 -7459.0085 300.5467 4.5803 90.4311 30546.2908 -336.5498 -257.3707
ENERGY: 900000 3.4642 5.8564 2.6722 0.0000 -10813.1647 1484.1943 0.0000 0.0000 1799.1679 -7517.8097 306.8053 -9316.9776 -7468.5417 301.7488 302.7589 343.9743 30289.4090 -182.0328 -110.7180
ENERGY: 1200000 0.3799 9.1269 1.9222 0.0000 -10625.9360 1352.9679 0.0000 0.0000 1761.5940 -7499.9451 300.3980 -9261.5391 -7478.5781 300.8837 -587.6863 -490.9584 29953.9348 -217.4821 -138.8886
ENERGY: 1500000 2.2392 3.5563 1.9074 0.0000 -10620.0673 1420.8052 0.0000 0.0000 1763.0231 -7428.5361 300.6417 -9191.5591 -7480.8064 300.3317 -47.5031 -3.7644 30496.3801 -124.0148 -42.5693
TCL: Running FEP window   6: Lambda1 0.25   Lambda2 0.3    [dLambda 0.04999999999999999]
TCL: Setting parameter firsttimestep to 0
TCL: Setting parameter alchLambda to 0.25
Info: NONBONDED TABLE R-SQUARED SPACING: 0.0625
Info: NONBONDED TABLE SIZE: 705 POINTS
TCL: Setting parameter alchLambda2 to 0.3
Info: NONBONDED TABLE R-SQUARED SPACING: 0.0625
Info: NONBONDED TABLE SIZE: 705 POINTS
TCL: Running for 1500000 steps
ETITLE: TS BOND ANGLE DIHED IMPRP ELECT VDW BOUNDARY MISC KINETIC TOTAL TEMP POTENTIAL TOTALAVG TEMPAVG PRESSURE GPRESSURE VOLUME PRESSAVG GPRESSAVG
ENERGY: 0 2.2392 3.5563 1.9074 0.0000 -10620.0669 1421.1686 0.0000 0.0000 1762.1493 -7429.0460 300.4927 -9191.1953 -7429.0460 300.4927 -74.2980 2.0814 30496.3801 -74.2980 2.0814
ENERGY: 300000 1.1880 4.4682 3.4355 0.0000 -10596.4275 1344.6996 0.0000 0.0000 1783.6199 -7459.0164 304.1540 -9242.6363 -7447.8852 303.3455 -874.2700 -839.4324 30372.2956 -10.5861 58.9073
ENERGY: 600000 2.2644 2.2601 6.0765 0.0000 -10718.3526 1407.0280 0.0000 0.0000 1741.2457 -7559.4780 296.9281 -9300.7237 -7466.3605 300.8429 -484.2267 -428.8646 30277.0469 -35.5034 35.8802
ENERGY: 900000 2.9717 3.1956 1.5383 0.0000 -10721.3261 1537.3556 0.0000 0.0000 1760.3003 -7415.9647 300.1774 -9176.2650 -7456.7279 301.2448 655.0019 708.5027 30374.6413 76.9841 145.1752
ENERGY: 1200000 2.0481 6.4819 6.3761 0.0000 -10699.1924 1445.4722 0.0000 0.0000 1802.1205 -7436.6936 307.3088 -9238.8141 -7452.9663 302.4282 11.9085 122.9829 30335.7450 58.1501 121.8253
ENERGY: 1500000 1.9640 3.4162 6.2837 0.0000 -10715.4856 1406.8223 0.0000 0.0000 1779.7587 -7517.2407 303.4955 -9296.9995 -7462.9740 302.2900 -246.9925 -200.3614 29793.3648 -16.9914 44.3550
TCL: Running FEP window   7: Lambda1 0.3    Lambda2 0.35   [dLambda 0.04999999999999999]
TCL: Setting parameter firsttimestep to 0
TCL: Setting parameter alchLambda to 0.3
Info: NONBONDED TABLE R-SQUARED SPACING: 0.0625
Info: NONBONDED TABLE SIZE: 705 POINTS
TCL: Setting parameter alchLambda2 to 0.35
Info: NONBONDED TABLE R-SQUARED SPACING: 0.0625
Info: NONBONDED TABLE SIZE: 705 POINTS
TCL: Running for 1500000 steps
ETITLE: TS BOND ANGLE DIHED IMPRP ELECT VDW BOUNDARY MISC KINETIC TOTAL TEMP POTENTIAL TOTALAVG TEMPAVG PRESSURE GPRESSURE VOLUME PRESSAVG GPRESSAVG
ENERGY: 0 1.9640 3.4162 6.2837 0.0000 -10715.4861 1407.0198 0.0000 0.0000 1778.8763 -7517.9260 303.3451 -9296.8024 -7517.9260 303.3451 -286.2182 -193.3687 29793.3648 -286.2182 -193.3687
ENERGY: 300000 2.1305 5.4195 3.9390 0.0000 -10546.8702 1363.6014 0.0000 0.0000 1762.4493 -7409.3305 300.5438 -9171.7798 -7471.1355 303.3049 -274.5974 -178.4287 30103.6686 154.2704 239.5029
ENERGY: 600000 2.4272 3.6431 3.6037 0.0000 -10664.4925 1417.5397 0.0000 0.0000 1784.2669 -7453.0118 304.2643 -9237.2788 -7461.1121 303.5773 -27.7178 -26.0312 30511.5943 -13.7800 53.5241
ENERGY: 900000 1.8430 6.6843 3.7195 0.0000 -10632.6861 1451.9263 0.0000 0.0000 1796.6864 -7371.8266 306.3821 -9168.5130 -7458.0228 302.8076 169.6163 220.3848 30538.0181 -47.6863 17.5022
ENERGY: 1200000 2.6353 5.2122 1.7328 0.0000 -10656.1130 1372.5746 0.0000 0.0000 1779.8969 -7494.0613 303.5191 -9273.9582 -7468.4070 302.2469 -662.9357 -577.0136 30177.2807 -112.6141 -42.0399
ENERGY: 1500000 1.3478 7.9182 4.2564 0.0000 -10764.7493 1439.2205 0.0000 0.0000 1746.6442 -7565.3622 297.8486 -9312.0064 -7486.3385 301.7840 -106.1595 -47.5043 29983.1443 -118.4508 -49.3438
TCL: Running FEP window   8: Lambda1 0.35   Lambda2 0.39999999999999997 [dLambda 0.04999999999999999]
TCL: Setting parameter firsttimestep to 0
TCL: Setting parameter alchLambda to 0.35
Info: NONBONDED TABLE R-SQUARED SPACING: 0.0625
Info: NONBONDED TABLE SIZE: 705 POINTS
TCL: Setting parameter alchLambda2 to 0.39999999999999997
Info: NONBONDED TABLE R-SQUARED SPACING: 0.0625
Info: NONBONDED TABLE SIZE: 705 POINTS
TCL: Running for 1500000 steps
ETITLE: TS BOND ANGLE DIHED IMPRP ELECT VDW BOUNDARY MISC KINETIC TOTAL TEMP POTENTIAL TOTALAVG TEMPAVG PRESSURE GPRESSURE VOLUME PRESSAVG GPRESSAVG
ENERGY: 0 1.3478 7.9182 4.2564 0.0000 -10764.7483 1439.1838 0.0000 0.0000 1745.7697 -7566.2724 297.6995 -9312.0421 -7566.2724 297.6995 -135.4740 -44.1768 29983.1443 -135.4740 -44.1768
ENERGY: 300000 2.7538 5.8203 5.6856 0.0000 -10755.3304 1424.9386 0.0000 0.0000 1771.1260 -7545.0061 302.0234 -9316.1321 -7523.7883 302.2045 -256.2744 -194.4450 30026.5050 -242.2712 -164.9882
ENERGY: 600000 2.4611 2.0979 4.1480 0.0000 -10677.7484 1439.0013 0.0000 0.0000 1710.0563 -7519.9838 291.6095 -9230.0401 -7516.8371 299.8335 112.5709 189.1223 30359.2375 -419.8813 -339.6312
ENERGY: 900000 4.6971 6.2480 8.7882 0.0000 -10749.0346 1476.9535 0.0000 0.0000 1697.0371 -7555.3107 289.3893 -9252.3478 -7523.2582 297.4935 115.3247 135.5434 30244.4038 -383.3474 -316.0749
ENERGY: 1200000 2.5374 4.0339 1.5751 0.0000 -10789.4780 1530.8187 0.0000 0.0000 1767.6194 -7482.8934 301.4255 -9250.5128 -7508.7046 297.6146 842.3304 913.4623 30163.5288 -173.7898 -96.4142
ENERGY: 1500000 1.5426 2.5383 4.5709 0.0000 -10787.8906 1533.1107 0.0000 0.0000 1816.2867 -7429.8413 309.7245 -9246.1280 -7492.3158 299.6724 539.1674 659.3171 30317.5693 -51.9418 30.4084
TCL: Running FEP window   9: Lambda1 0.39999999999999997 Lambda2 0.44999999999999996 [dLambda 0.04999999999999999]
TCL: Setting parameter firsttimestep to 0
TCL: Setting parameter alchLambda to 0.39999999999999997
Info: NONBONDED TABLE R-SQUARED SPACING: 0.0625
Info: NONBONDED TABLE SIZE: 705 POINTS
TCL: Setting parameter alchLambda2 to 0.44999999999999996
Info: NONBONDED TABLE R-SQUARED SPACING: 0.0625
Info: NONBONDED TABLE SIZE: 705 POINTS
TCL: Running for 1500000 steps
ETITLE: TS BOND ANGLE DIHED IMPRP ELECT VDW BOUNDARY MISC KINETIC TOTAL TEMP POTENTIAL TOTALAVG TEMPAVG PRESSURE GPRESSURE VOLUME PRESSAVG GPRESSAVG
ENERGY: 0 1.5426 2.5383 4.5709 0.0000 -10787.8919 1534.5081 0.0000 0.0000 1815.4115 -7429.3204 309.5753 -9244.7320 -7429.3204 309.5753 589.0282 677.3140 30317.5693 589.0282 677.3140
ENERGY: 300000 2.7096 8.2473 2.5385 0.0000 -10718.3066 1479.9594 0.0000 0.0000 1758.7487 -7466.1032 299.9128 -9224.8519 -7452.8886 303.0361 610.3149 653.9311 30023.7401 228.4346 275.2191
ENERGY: 600000 2.5048 6.0806 2.4377 0.0000 -10554.4583 1365.1652 0.0000 0.0000 1783.9117 -7394.3583 304.2037 -9178.2700 -7467.6489 301.4464 -611.0969 -547.9905 30948.0792 90.3819 158.3384
ENERGY: 900000 1.7919 3.7411 4.3095 0.0000 -10672.2838 1396.3241 0.0000 0.0000 1730.1674 -7535.9498 295.0389 -9266.1172 -7486.1691 300.4017 -664.3635 -572.5507 30639.4133 -31.0950 33.0683
ENERGY: 1200000 3.7373 7.2663 3.0784 0.0000 -10711.8337 1474.4063 0.0000 0.0000 1751.0236 -7472.3218 298.5954 -9223.3454 -7489.5797 299.7891 44.6365 -3.0817 30799.6959 28.8915 80.9551
ENERGY: 1500000 3.1889 2.2846 3.8705 0.0000 -10624.6837 1387.9381 0.0000 0.0000 1797.7562 -7429.6454 306.5646 -9227.4016 -7485.5862 300.5724 -176.7287 -127.6834 30145.6565 33.6465 86.2083
TCL: Running FEP window  10: Lambda1 0.44999999999999996 Lambda2 0.49999999999999994 [dLambda 0.04999999999999999]
TCL: Setting parameter firsttimestep to 0
TCL: Setting parameter alchLambda to 0.44999999999999996
Info: NONBONDED TABLE R-SQUARED SPACING: 0.0625
Info: NONBONDED TABLE SIZE: 705 POINTS
TCL: Setting parameter alchLambda2 to 0.49999999999999994
Info: NONBONDED TABLE R-SQUARED SPACING: 0.0625
Info: NONBONDED TABLE SIZE: 705 POINTS
TCL: Running for 1500000 steps
ETITLE: TS BOND ANGLE DIHED IMPRP ELECT VDW BOUNDARY MISC KINETIC TOTAL TEMP POTENTIAL TOTALAVG TEMPAVG PRESSURE GPRESSURE VOLUME PRESSAVG GPRESSAVG
ENERGY: 0 3.1889 2.2846 3.8705 0.0000 -10624.6828 1387.9277 0.0000 0.0000 1796.8888 -7430.5224 306.4167 -9227.4111 -7430.5224 306.4167 -202.3752 -122.4354 30145.6565 -202.3752 -122.4354
ENERGY: 300000 2.1810 8.3937 3.4306 0.0000 -10564.9867 1381.1982 0.0000 0.0000 1754.2095 -7415.5738 299.1387 -9169.7833 -7463.6602 301.0623 -604.1995 -556.4357 30616.8795 -464.8210 -395.6873
ENERGY: 600000 4.1439 6.2162 1.3077 0.0000 -10675.5400 1452.5976 0.0000 0.0000 1789.5343 -7421.7404 305.1625 -9211.2747 -7470.0971 301.8018 -70.3944 -41.4048 30766.5074 -279.2396 -220.1185
ENERGY: 900000 3.3484 6.9158 3.2375 0.0000 -10912.1930 1601.8984 0.0000 0.0000 1804.0179 -7492.7750 307.6324 -9296.7929 -7473.9736 303.7187 1202.3854 1245.8577 29820.1601 -125.8932 -58.2628
ENERGY: 1200000 1.6666 4.0984 3.0355 0.0000 -10844.8802 1513.3430 0.0000 0.0000 1756.3317 -7566.4050 299.5006 -9322.7367 -7482.9955 302.4908 385.3582 480.7661 30117.2302 -88.6743 -20.2080
ENERGY: 1500000 4.8936 6.5374 2.1514 0.0000 -10830.2343 1541.8790 0.0000 0.0000 1682.0717 -7592.7011 286.8373 -9274.7728 -7481.3161 301.4869 512.2963 588.3423 30322.9878 -110.9943 -41.2891
TCL: Running FEP window  11: Lambda1 0.49999999999999994 Lambda2 0.5499999999999999 [dLambda 0.04999999999999999]
TCL: Setting parameter firsttimestep to 0
TCL: Setting parameter alchLambda to 0.49999999999999994
Info: NONBONDED TABLE R-SQUARED SPACING: 0.0625
Info: NONBONDED TABLE SIZE: 705 POINTS
TCL: Setting parameter alchLambda2 to 0.5499999999999999
Info: NONBONDED TABLE R-SQUARED SPACING: 0.0625
Info: NONBONDED TABLE SIZE: 705 POINTS
TCL: Running for 1500000 steps
ETITLE: TS BOND ANGLE DIHED IMPRP ELECT VDW BOUNDARY MISC KINETIC TOTAL TEMP POTENTIAL TOTALAVG TEMPAVG PRESSURE GPRESSURE VOLUME PRESSAVG GPRESSAVG
ENERGY: 0 4.8937 6.5374 2.1514 0.0000 -10830.2358 1542.3494 0.0000 0.0000 1681.1754 -7593.1285 286.6845 -9274.3039 -7593.1285 286.6845 510.7235 596.7675 30322.9878 510.7235 596.7675
ENERGY: 300000 1.5107 5.7328 1.2590 0.0000 -10633.8554 1361.6008 0.0000 0.0000 1797.2316 -7466.5205 306.4751 -9263.7521 -7503.0485 298.4172 -818.6867 -771.4468 30722.7839 -215.4604 -152.1459
ENERGY: 600000 1.6100 3.9901 4.8391 0.0000 -10562.8950 1386.7121 0.0000 0.0000 1758.3994 -7407.3443 299.8532 -9165.7437 -7467.4057 301.4524 -360.7402 -208.3759 30395.6853 -256.8664 -180.7537
ENERGY: 900000 1.8206 4.4075 1.8997 0.0000 -10848.0630 1549.7540 0.0000 0.0000 1700.9983 -7589.1828 290.0648 -9290.1811 -7476.3326 300.0531 804.4377 868.1833 29905.5468 -86.2918 -10.8592
ENERGY: 1200000 3.0695 2.0640 2.6661 0.0000 -10488.9463 1305.9436 0.0000 0.0000 1813.1173 -7362.0857 309.1841 -9175.2030 -7475.2856 300.1073 -947.1973 -903.8685 30607.9383 -141.7196 -74.9485
ENERGY: 1500000 4.3166 7.5754 2.4968 0.0000 -10418.6207 1352.3763 0.0000 0.0000 1772.9477 -7278.9080 302.3341 -9051.8557 -7464.3622 300.4191 -436.3915 -370.5810 31190.7700 -103.1413 -43.4955
TCL: Running FEP window  12: Lambda1 0.5499999999999999 Lambda2 0.6    [dLambda 0.050000000000000044]
TCL: Setting parameter firsttimestep to 0
TCL: Setting parameter alchLambda to 0.5499999999999999
Info: NONBONDED TABLE R-SQUARED SPACING: 0.0625
Info: NONBONDED TABLE SIZE: 705 POINTS
TCL: Setting parameter alchLambda2 to 0.6
Info: NONBONDED TABLE R-SQUARED SPACING: 0.0625
Info: NONBONDED TABLE SIZE: 705 POINTS
TCL: Running for 1500000 steps
ETITLE: TS BOND ANGLE DIHED IMPRP ELECT VDW BOUNDARY MISC KINETIC TOTAL TEMP POTENTIAL TOTALAVG TEMPAVG PRESSURE GPRESSURE VOLUME PRESSAVG GPRESSAVG
ENERGY: 0 4.3166 7.5754 2.4968 0.0000 -10418.1465 1352.9860 0.0000 0.0000 1772.0632 -7278.7087 302.1832 -9050.7718 -7278.7087 302.1832 -433.3849 -356.6754 31190.7700 -433.3849 -356.6754
ENERGY: 300000 3.6794 4.5723 1.2984 0.0000 -10678.4299 1475.5013 0.0000 0.0000 1730.3956 -7462.9829 295.0778 -9193.3785 -7402.1820 300.3102 270.6553 382.6841 30248.5483 -284.3978 -207.8119
ENERGY: 600000 4.0345 4.9036 3.0702 0.0000 -10546.1723 1337.5439 0.0000 0.0000 1794.2127 -7402.4073 305.9603 -9196.6200 -7408.7196 301.7575 -733.4817 -655.6028 30467.4261 -328.9863 -263.1443
ENERGY: 900000 1.3319 6.6091 2.1827 0.0000 -10745.2928 1447.0452 0.0000 0.0000 1777.3659 -7510.7580 303.0875 -9288.1239 -7444.8288 301.2227 -112.0914 -60.7024 30337.4381 -186.3218 -124.1465
ENERGY: 1200000 3.7299 2.8104 3.4386 0.0000 -10627.6452 1423.3891 0.0000 0.0000 1733.9901 -7460.2872 295.6908 -9194.2772 -7445.8920 300.4085 -345.8750 -292.0785 30880.9148 -150.3540 -88.8149
ENERGY: 1500000 1.0086 6.2067 1.9512 0.0000 -10788.1951 1472.4718 0.0000 0.0000 1748.8208 -7557.7361 298.2198 -9306.5569 -7465.6789 300.4749 189.4600 213.2216 30551.9034 -102.3488 -38.9716
TCL: Running FEP window  13: Lambda1 0.6    Lambda2 0.65   [dLambda 0.050000000000000044]
TCL: Setting parameter firsttimestep to 0
TCL: Setting parameter alchLambda to 0.6
Info: NONBONDED TABLE R-SQUARED SPACING: 0.0625
Info: NONBONDED TABLE SIZE: 705 POINTS
TCL: Setting parameter alchLambda2 to 0.65
Info: NONBONDED TABLE R-SQUARED SPACING: 0.0625
Info: NONBONDED TABLE SIZE: 705 POINTS
TCL: Running for 1500000 steps
ETITLE: TS BOND ANGLE DIHED IMPRP ELECT VDW BOUNDARY MISC KINETIC TOTAL TEMP POTENTIAL TOTALAVG TEMPAVG PRESSURE GPRESSURE VOLUME PRESSAVG GPRESSAVG
ENERGY: 0 1.0086 6.2067 1.9512 0.0000 -10788.2512 1472.5405 0.0000 0.0000 1747.9202 -7558.6240 298.0662 -9306.5442 -7558.6240 298.0662 149.9767 220.9092 30551.9034 149.9767 220.9092
ENERGY: 300000 1.6537 3.5881 3.9823 0.0000 -10721.5079 1462.4139 0.0000 0.0000 1802.5256 -7447.3443 307.3779 -9249.8700 -7468.7597 302.2376 263.2856 344.4515 30355.8790 58.7636 106.5170
ENERGY: 600000 2.0618 4.8695 1.5660 0.0000 -10595.8066 1402.6741 0.0000 0.0000 1735.1301 -7449.5051 295.8852 -9184.6351 -7471.1516 302.2795 -224.1858 -171.2197 30538.3297 63.8143 101.0693
ENERGY: 900000 1.8960 3.8100 2.1304 0.0000 -10757.3722 1465.1621 0.0000 0.0000 1702.4864 -7581.8872 290.3186 -9284.3736 -7488.7257 300.0837 198.9979 225.5755 30211.0577 186.0811 217.3402
ENERGY: 1200000 1.3953 3.1874 1.9066 0.0000 -10662.3547 1427.4469 0.0000 0.0000 1750.9543 -7477.4642 298.5836 -9228.4185 -7487.6165 300.7907 206.4981 243.6336 29916.5214 111.8077 152.1744
ENERGY: 1500000 5.3599 2.7241 1.1608 0.0000 -10763.3869 1469.5055 0.0000 0.0000 1766.7432 -7517.8935 301.2760 -9284.6366 -7490.4034 300.5662 251.4039 276.0061 29844.0647 65.8165 104.8616
TCL: Running FEP window  14: Lambda1 0.65   Lambda2 0.7000000000000001 [dLambda 0.050000000000000044]
TCL: Setting parameter firsttimestep to 0
TCL: Setting parameter alchLambda to 0.65
Info: NONBONDED TABLE R-SQUARED SPACING: 0.0625
Info: NONBONDED TABLE SIZE: 705 POINTS
TCL: Setting parameter alchLambda2 to 0.7000000000000001
Info: NONBONDED TABLE R-SQUARED SPACING: 0.0625
Info: NONBONDED TABLE SIZE: 705 POINTS
TCL: Running for 1500000 steps
ETITLE: TS BOND ANGLE DIHED IMPRP ELECT VDW BOUNDARY MISC KINETIC TOTAL TEMP POTENTIAL TOTALAVG TEMPAVG PRESSURE GPRESSURE VOLUME PRESSAVG GPRESSAVG
ENERGY: 0 5.3599 2.7241 1.1608 0.0000 -10764.3636 1469.3481 0.0000 0.0000 1765.9043 -7519.8663 301.1330 -9285.7707 -7519.8663 301.1330 203.9784 285.2545 29844.0647 203.9784 285.2545
ENERGY: 300000 2.9532 3.4550 1.6567 0.0000 -10759.8289 1509.4595 0.0000 0.0000 1759.5674 -7482.7370 300.0524 -9242.3045 -7498.0968 301.8098 467.9326 560.3734 30420.9707 37.6508 116.5523
ENERGY: 600000 3.5552 6.0748 2.5324 0.0000 -10583.4369 1388.5662 0.0000 0.0000 1770.2935 -7412.4148 301.8815 -9182.7083 -7475.2469 301.3480 -385.7737 -300.9175 30516.2534 0.9209 69.4757
ENERGY: 900000 4.3752 4.6090 4.3255 0.0000 -10695.3939 1439.1164 0.0000 0.0000 1793.9785 -7448.9893 305.9204 -9242.9677 -7462.2950 302.6246 11.8597 87.1274 30506.2639 38.3787 101.8943
ENERGY: 1200000 3.0232 5.5290 5.3696 0.0000 -10659.1911 1398.3036 0.0000 0.0000 1754.8152 -7492.1504 299.2420 -9246.9656 -7466.4567 302.2036 -269.6492 -157.5848 30187.3420 34.3632 101.9997
ENERGY: 1500000 2.8109 5.8812 3.1240 0.0000 -10643.5737 1399.2667 0.0000 0.0000 1743.1341 -7489.3569 297.2501 -9232.4910 -7465.3947 301.8925 -461.9628 -396.8872 30321.1664 -35.7391 37.3950
TCL: Running FEP window  15: Lambda1 0.7000000000000001 Lambda2 0.7500000000000001 [dLambda 0.050000000000000044]
TCL: Setting parameter firsttimestep to 0
TCL: Setting parameter alchLambda to 0.7000000000000001
Info: NONBONDED TABLE R-SQUARED SPACING: 0.0625
Info: NONBONDED TABLE SIZE: 705 POINTS
TCL: Setting parameter alchLambda2 to 0.7500000000000001
Info: NONBONDED TABLE R-SQUARED SPACING: 0.0625
Info: NONBONDED TABLE SIZE: 705 POINTS
TCL: Running for 1500000 steps
ETITLE: TS BOND ANGLE DIHED IMPRP ELECT VDW BOUNDARY MISC KINETIC TOTAL TEMP POTENTIAL TOTALAVG TEMPAVG PRESSURE GPRESSURE VOLUME PRESSAVG GPRESSAVG
ENERGY: 0 2.8109 5.8812 3.1240 0.0000 -10645.3429 1400.4605 0.0000 0.0000 1742.2610 -7490.8054 297.1012 -9233.0664 -7490.8054 297.1012 -466.2523 -383.3317 30321.1664 -466.2523 -383.3317
ENERGY: 300000 1.7689 8.0543 6.5895 0.0000 -10632.2179 1400.5711 0.0000 0.0000 1767.8395 -7447.3946 301.4630 -9215.2341 -7532.7948 294.4614 -229.3912 -167.0265 30133.3491 -270.4236 -208.4099
ENERGY: 600000 2.1101 6.2868 1.7336 0.0000 -10544.0785 1362.2097 0.0000 0.0000 1837.8364 -7333.9017 313.3993 -9171.7382 -7489.3295 300.0330 -213.6410 -146.3065 30454.5408 -148.7994 -91.3689
ENERGY: 900000 3.3425 4.1481 2.8122 0.0000 -10662.2859 1403.1291 0.0000 0.0000 1796.2796 -7452.5743 306.3128 -9248.8540 -7469.1063 301.0035 -328.7749 -228.3082 30452.9686 -106.4697 -40.8036
ENERGY: 1200000 2.1515 5.0254 6.1818 0.0000 -10637.4090 1414.6477 0.0000 0.0000 1760.0503 -7449.3523 300.1347 -9209.4026 -7468.6756 300.2892 -68.9561 38.5659 30153.8662 -124.8306 -55.9209
ENERGY: 1500000 2.6981 6.2185 4.6798 0.0000 -10641.0453 1384.9697 0.0000 0.0000 1769.3372 -7473.1421 301.7184 -9242.4793 -7465.2892 300.6688 -309.7032 -198.8130 30028.5505 -151.2992 -80.0844
TCL: Running FEP window  16: Lambda1 0.7500000000000001 Lambda2 0.8000000000000002 [dLambda 0.050000000000000044]
TCL: Setting parameter firsttimestep to 0
TCL: Setting parameter alchLambda to 0.7500000000000001
Info: NONBONDED TABLE R-SQUARED SPACING: 0.0625
Info: NONBONDED TABLE SIZE: 705 POINTS
TCL: Setting parameter alchLambda2 to 0.8000000000000002
Info: NONBONDED TABLE R-SQUARED SPACING: 0.0625
Info: NONBONDED TABLE SIZE: 705 POINTS
TCL: Running for 1500000 steps
ETITLE: TS BOND ANGLE DIHED IMPRP ELECT VDW BOUNDARY MISC KINETIC TOTAL TEMP POTENTIAL TOTALAVG TEMPAVG PRESSURE GPRESSURE VOLUME PRESSAVG GPRESSAVG
ENERGY: 0 2.6981 6.2185 4.6798 0.0000 -10641.7768 1384.7537 0.0000 0.0000 1768.4726 -7474.9542 301.5710 -9243.4267 -7474.9542 301.5710 -284.9835 -196.4406 30028.5505 -284.9835 -196.4406
ENERGY: 300000 0.8604 4.5541 2.7531 0.0000 -10601.6872 1404.4263 0.0000 0.0000 1809.1971 -7379.8962 308.5156 -9189.0933 -7460.6831 302.9134 -17.0891 -15.6839 30434.4945 -16.8021 19.1536
ENERGY: 600000 2.2576 2.8325 4.5046 0.0000 -10692.1664 1404.8590 0.0000 0.0000 1716.1255 -7561.5872 292.6444 -9277.7127 -7486.2774 299.8498 -59.5939 27.8575 29938.8637 -124.6972 -64.1736
ENERGY: 900000 3.7691 6.4854 6.1788 0.0000 -10862.1745 1549.2600 0.0000 0.0000 1773.1069 -7523.3743 302.3612 -9296.4812 -7487.7450 301.8063 993.7895 1089.8144 30021.3669 113.2158 176.0622
ENERGY: 1200000 1.6198 4.1869 1.4069 0.0000 -10742.8247 1445.5947 0.0000 0.0000 1743.2732 -7546.7433 297.2738 -9290.0165 -7484.6764 301.1405 313.8398 363.0276 29804.1229 128.7547 182.7860
ENERGY: 1500000 1.7515 6.3483 5.5026 0.0000 -10645.1312 1406.5629 0.0000 0.0000 1773.0668 -7451.8990 302.3544 -9224.9658 -7483.7754 301.0693 -139.2125 -127.3759 30383.3547 40.3792 96.7742
TCL: Running FEP window  17: Lambda1 0.8000000000000002 Lambda2 0.8500000000000002 [dLambda 0.050000000000000044]
TCL: Setting parameter firsttimestep to 0
TCL: Setting parameter alchLambda to 0.8000000000000002
Info: NONBONDED TABLE R-SQUARED SPACING: 0.0625
Info: NONBONDED TABLE SIZE: 705 POINTS
TCL: Setting parameter alchLambda2 to 0.8500000000000002
Info: NONBONDED TABLE R-SQUARED SPACING: 0.0625
Info: NONBONDED TABLE SIZE: 705 POINTS
TCL: Running for 1500000 steps
ETITLE: TS BOND ANGLE DIHED IMPRP ELECT VDW BOUNDARY MISC KINETIC TOTAL TEMP POTENTIAL TOTALAVG TEMPAVG PRESSURE GPRESSURE VOLUME PRESSAVG GPRESSAVG
ENERGY: 0 1.7515 6.3483 5.5026 0.0000 -10647.7386 1408.6624 0.0000 0.0000 1772.1468 -7453.3269 302.1975 -9225.4737 -7453.3269 302.1975 -180.9360 -104.1237 30383.3547 -180.9360 -104.1237
ENERGY: 300000 3.0891 2.6125 3.4876 0.0000 -10494.1615 1380.6639 0.0000 0.0000 1765.1149 -7339.1935 300.9984 -9104.3084 -7475.5888 301.0667 -57.0084 54.2995 30453.6540 240.2565 294.2985
ENERGY: 600000 1.5561 2.1204 3.4939 0.0000 -10775.9063 1477.2511 0.0000 0.0000 1807.9724 -7483.5125 308.3067 -9291.4848 -7472.3470 301.8015 218.0460 289.7312 30261.2982 129.2002 203.4214
ENERGY: 900000 3.7263 2.8577 2.5873 0.0000 -10696.6321 1446.8131 0.0000 0.0000 1710.5503 -7530.0975 291.6937 -9240.6478 -7482.9033 299.4467 -52.9792 40.6378 30423.0348 19.5390 99.6346
ENERGY: 1200000 2.0080 3.4713 1.7710 0.0000 -10693.9769 1412.4937 0.0000 0.0000 1776.1430 -7498.0897 302.8790 -9274.2327 -7487.4702 300.0835 -391.9744 -273.6552 30571.7310 8.3439 96.0977
ENERGY: 1500000 1.5051 4.8853 3.7009 0.0000 -10600.5844 1354.0102 0.0000 0.0000 1770.8332 -7465.6498 301.9735 -9236.4830 -7493.0833 299.8715 -570.1813 -530.5164 30624.4113 -6.9093 76.6710
TCL: Running FEP window  18: Lambda1 0.8500000000000002 Lambda2 0.9000000000000002 [dLambda 0.050000000000000044]
TCL: Setting parameter firsttimestep to 0
TCL: Setting parameter alchLambda to 0.8500000000000002
Info: NONBONDED TABLE R-SQUARED SPACING: 0.0625
Info: NONBONDED TABLE SIZE: 705 POINTS
TCL: Setting parameter alchLambda2 to 0.9000000000000002
Info: NONBONDED TABLE R-SQUARED SPACING: 0.0625
Info: NONBONDED TABLE SIZE: 705 POINTS
TCL: Running for 1500000 steps
ETITLE: TS BOND ANGLE DIHED IMPRP ELECT VDW BOUNDARY MISC KINETIC TOTAL TEMP POTENTIAL TOTALAVG TEMPAVG PRESSURE GPRESSURE VOLUME PRESSAVG GPRESSAVG
ENERGY: 0 1.5051 4.8853 3.7009 0.0000 -10602.6878 1354.7921 0.0000 0.0000 1769.9739 -7467.8306 301.8270 -9237.8044 -7467.8306 301.8270 -600.3956 -518.6045 30624.4113 -600.3956 -518.6045
ENERGY: 300000 4.4388 2.6427 1.8973 0.0000 -10779.4132 1499.1517 0.0000 0.0000 1757.5164 -7513.7662 299.7026 -9271.2826 -7501.6516 299.4343 494.2951 537.2917 30394.0906 69.0893 128.3578
ENERGY: 600000 2.5569 2.9663 3.1849 0.0000 -10843.1140 1538.9246 0.0000 0.0000 1682.3125 -7613.1687 286.8784 -9295.4812 -7529.5762 298.6783 612.3226 669.3777 30178.9900 187.8722 237.2345
ENERGY: 900000 2.9368 3.9254 0.7401 0.0000 -10637.5220 1423.0023 0.0000 0.0000 1813.2622 -7393.6552 309.2088 -9206.9173 -7508.7621 300.0384 -148.1519 -109.9967 30581.5542 -0.8893 46.2617
ENERGY: 1200000 3.1390 5.8288 3.5594 0.0000 -10620.5158 1434.4464 0.0000 0.0000 1778.0603 -7395.4819 303.2059 -9173.5422 -7503.6611 300.2159 28.8883 118.9953 30579.8909 -40.0608 15.1424
ENERGY: 1500000 1.7375 3.8981 2.2184 0.0000 -10529.6782 1371.6885 0.0000 0.0000 1760.4135 -7389.7221 300.1967 -9150.1356 -7500.9927 299.3057 -393.9364 -393.1916 30902.1901 -30.1393 26.1841
TCL: Running FEP window  19: Lambda1 0.9000000000000002 Lambda2 0.9500000000000003 [dLambda 0.050000000000000044]
TCL: Setting parameter firsttimestep to 0
TCL: Setting parameter alchLambda to 0.9000000000000002
Info: NONBONDED TABLE R-SQUARED SPACING: 0.0625
Info: NONBONDED TABLE SIZE: 705 POINTS
TCL: Setting parameter alchLambda2 to 0.9500000000000003
Info: NONBONDED TABLE R-SQUARED SPACING: 0.0625
Info: NONBONDED TABLE SIZE: 705 POINTS
TCL: Running for 1500000 steps
ETITLE: TS BOND ANGLE DIHED IMPRP ELECT VDW BOUNDARY MISC KINETIC TOTAL TEMP POTENTIAL TOTALAVG TEMPAVG PRESSURE GPRESSURE VOLUME PRESSAVG GPRESSAVG
ENERGY: 0 1.7375 3.8981 2.2184 0.0000 -10531.0546 1371.3265 0.0000 0.0000 1759.5430 -7392.3310 300.0482 -9151.8739 -7392.3310 300.0482 -475.5108 -390.5525 30902.1901 -475.5108 -390.5525
ENERGY: 300000 4.1862 2.3102 2.7822 0.0000 -10685.0005 1434.3733 0.0000 0.0000 1710.8233 -7530.5253 291.7402 -9241.3486 -7468.5037 298.9385 45.7061 70.4807 30088.0788 11.8898 57.5148
ENERGY: 600000 3.8629 2.8271 3.2702 0.0000 -10702.5268 1392.9230 0.0000 0.0000 1749.8673 -7549.7762 298.3983 -9299.6435 -7496.7919 297.4320 -465.7590 -392.7589 30153.0004 -173.2053 -118.6696
ENERGY: 900000 3.0506 2.2710 3.5320 0.0000 -10701.5714 1371.1489 0.0000 0.0000 1803.2834 -7518.2855 307.5071 -9321.5689 -7509.6660 298.7873 -672.7582 -623.6999 30557.1007 -177.6757 -122.9505
ENERGY: 1200000 0.8842 5.1205 5.2381 0.0000 -10642.0850 1412.7711 0.0000 0.0000 1748.9892 -7469.0820 298.2485 -9218.0711 -7506.4264 299.1776 -504.3105 -483.3690 31249.5496 -177.6484 -121.1213
ENERGY: 1500000 3.1357 9.0747 6.3862 0.0000 -10907.0097 1610.5460 0.0000 0.0000 1787.8833 -7489.9838 304.8810 -9277.8671 -7510.7567 299.4434 1501.7079 1579.2136 29946.8851 -116.4850 -58.2602
TCL: Running FEP window  20: Lambda1 0.9500000000000003 Lambda2 1.0    [dLambda 0.04999999999999971]
TCL: Setting parameter firsttimestep to 0
TCL: Setting parameter alchLambda to 0.9500000000000003
Info: NONBONDED TABLE R-SQUARED SPACING: 0.0625
Info: NONBONDED TABLE SIZE: 705 POINTS
TCL: Setting parameter alchLambda2 to 1.0
Info: NONBONDED TABLE R-SQUARED SPACING: 0.0625
Info: NONBONDED TABLE SIZE: 705 POINTS
TCL: Running for 1500000 steps
ETITLE: TS BOND ANGLE DIHED IMPRP ELECT VDW BOUNDARY MISC KINETIC TOTAL TEMP POTENTIAL TOTALAVG TEMPAVG PRESSURE GPRESSURE VOLUME PRESSAVG GPRESSAVG
ENERGY: 0 3.1357 9.0747 6.3862 0.0000 -10907.8142 1610.7054 0.0000 0.0000 1787.0127 -7491.4995 304.7325 -9278.5122 -7491.4995 304.7325 1513.9310 1589.9985 29946.8851 1513.9310 1589.9985
ENERGY: 300000 2.6392 4.0894 3.6729 0.0000 -10466.3412 1320.7063 0.0000 0.0000 1768.3620 -7366.8714 301.5521 -9135.2334 -7463.9023 299.3767 -720.9576 -687.0133 30728.2306 156.1514 215.7509
ENERGY: 600000 0.5121 4.0807 2.9989 0.0000 -10853.0086 1519.3059 0.0000 0.0000 1754.5201 -7571.5909 299.1917 -9326.1110 -7476.7127 298.5981 712.6833 816.8517 29961.9742 176.5946 238.1224
ENERGY: 900000 1.9613 5.0802 2.7579 0.0000 -10639.6037 1459.6874 0.0000 0.0000 1698.2767 -7471.8403 289.6007 -9170.1169 -7495.5854 296.8556 493.9827 546.8606 30136.4037 169.3630 224.5609
ENERGY: 1200000 1.8132 3.0656 1.9044 0.0000 -10642.5599 1432.5072 0.0000 0.0000 1730.5133 -7472.7562 295.0979 -9203.2696 -7491.1183 297.7568 79.6857 50.7455 30318.2683 84.5258 140.3907
ENERGY: 1500000 2.4490 6.4345 1.4482 0.0000 -10571.2779 1325.2810 0.0000 0.0000 1742.2805 -7493.3846 297.1045 -9235.6651 -7495.5605 298.2221 -838.9419 -841.8637 30386.3585 0.6454 57.8168
TCL: Exiting due to exit command.
