Info: SIMULATION PARAMETERS:
Info: TIMESTEP               2
Info: NUMBER OF STEPS        0
Info: STEPS PER CYCLE        10
Info: PERIODIC CELL BASIS 1  31.5082 0 0
Info: PERIODIC CELL BASIS 2  0 32.0007 0
Info: PERIODIC CELL BASIS 3  0 0 30.2624
Info: PERIODIC CELL CENTER   0 0 0
Info: WRAPPING WATERS AROUND PERIODIC BOUNDARIES ON OUTPUT.
Info: WRAPPING ALL CLUSTERS AROUND PERIODIC BOUNDARIES ON OUTPUT.
Info: FIRST LDB TIMESTEP     50
Info: LAST LDB TIMESTEP     -1
Info: HOM BACKGROUND SCALING 1
Info: PME BACKGROUND SCALING 1
Info: MIN ATOMS PER PATCH    40
Info: EMPTY PATCH LOAD       40 ATOMS
Info: VELOCITY FILE          mobley_5732611_equil.vel
Info: CENTER OF MASS MOVING INITIALLY? NO
Info: DIELECTRIC             1
Info: EXCLUDE                SCALED ONE-FOUR
Info: 1-4 ELECTROSTATICS SCALED BY 0.833333
Info: MODIFIED 1-4 VDW PARAMETERS WILL BE USED
Info: DCD FILENAME           mobley_5732611_prod.dcd
Info: DCD FREQUENCY          100000
Info: DCD FIRST STEP         100000
Info: DCD FILE WILL CONTAIN UNIT CELL DATA
Info: XST FILENAME           mobley_5732611_prod.xst
Info: XST FREQUENCY          100000
Info: NO VELOCITY DCD OUTPUT
Info: NO FORCE DCD OUTPUT
Info: OUTPUT FILENAME        mobley_5732611_prod
Info: BINARY OUTPUT FILES WILL BE USED
Info: RESTART FILENAME       mobley_5732611_prod.restart
Info: RESTART FREQUENCY      100000
Info: BINARY RESTART FILES WILL BE USED
Info: CUTOFF                 9
Info: PAIRLIST DISTANCE      11
Info: PAIRLIST SHRINK RATE   0.01
Info: PAIRLIST GROW RATE     0.01
Info: PAIRLIST TRIGGER       0.3
Info: PAIRLISTS PER CYCLE    2
Info: PAIRLISTS ENABLED
Info: MARGIN                 2
Info: HYDROGEN GROUP CUTOFF  2.5
Info: PATCH DIMENSION        15.5
Info: ENERGY OUTPUT STEPS    100000
Info: ENERGY EVALUATION STEPS    100000
Info: OUTPUT ENERGY PRECISION 4
Info: CROSSTERM ENERGY INCLUDED IN DIHEDRAL
Info: TIMING OUTPUT STEPS    1000000
Info: PRESSURE OUTPUT STEPS  100000
Info: ALCHEMICAL FEP ON
Info: FEP CURRENT LAMBDA VALUE     1
Info: FEP COMPARISON LAMBDA VALUE  0.95
Info: FEP INTRA-ALCHEMICAL NON-BONDED INTERACTIONS WILL BE RETAINED
Info: FEP INTRA-ALCHEMICAL BONDED INTERACTIONS WILL BE RETAINED
Info: FEP VDW SHIFTING COEFFICIENT 5
Info: FEP ELEC. ACTIVE FOR ANNIHILATED PARTICLES BETWEEN LAMBDA = 0 AND LAMBDA = 0.5
Info: FEP ELEC. ACTIVE FOR EXNIHILATED PARTICLES BETWEEN LAMBDA = 0.5 AND LAMBDA = 1
Info: FEP VDW ACTIVE FOR ANNIHILATED PARTICLES BETWEEN LAMBDA = 0 AND LAMBDA = 1
Info: FEP VDW ACTIVE FOR EXNIHILATED PARTICLES BETWEEN LAMBDA = 0 AND LAMBDA = 1
Info: FEP BOND ACTIVE FOR ANNIHILATED PARTICLES BETWEEN LAMBDA = 1 AND LAMBDA = 1
Info: FEP BOND ACTIVE FOR EXNIHILATED PARTICLES BETWEEN LAMBDA = 0 AND LAMBDA = 0
Info: LANGEVIN DYNAMICS ACTIVE
Info: LANGEVIN TEMPERATURE   300
Info: LANGEVIN USING BBK INTEGRATOR
Info: LANGEVIN DAMPING COEFFICIENT IS 1 INVERSE PS
Info: LANGEVIN DYNAMICS APPLIED TO HYDROGENS
Info: LANGEVIN PISTON PRESSURE CONTROL ACTIVE
Info:        TARGET PRESSURE IS 1.01325 BAR
Info:     OSCILLATION PERIOD IS 50 FS
Info:             DECAY TIME IS 25 FS
Info:     PISTON TEMPERATURE IS 300 K
Info:       PRESSURE CONTROL IS GROUP-BASED
Info:    INITIAL STRAIN RATE IS 4.17875e-06 4.17875e-06 4.17875e-06
Info:       CELL FLUCTUATION IS ISOTROPIC
Info: PARTICLE MESH EWALD (PME) ACTIVE
Info: PME TOLERANCE               1e-06
Info: PME EWALD COEFFICIENT       0.348832
Info: PME INTERPOLATION ORDER     4
Info: PME GRID DIMENSIONS         32 36 32
Info: PME MAXIMUM GRID SPACING    1
Info: PME CALCULATION WILL BE PERFORMED ON GPU
Info: FULL ELECTROSTATIC EVALUATION FREQUENCY      2
Info: USING VERLET I (r-RESPA) MTS SCHEME.
Info: C1 SPLITTING OF LONG RANGE ELECTROSTATICS
Info: PLACING ATOMS IN PATCHES BY HYDROGEN GROUPS
Info: RIGID BONDS TO HYDROGEN : ALL
Info:         ERROR TOLERANCE : 1e-08
Info:          MAX ITERATIONS : 100
Info: RIGID WATER USING SETTLE ALGORITHM
Info: RANDOM NUMBER SEED     1743549943
Info: USE HYDROGEN BONDS?    NO
Info: Using AMBER format force field!
Info: AMBER PARM FILE        mobley_5732611.prmtop
Info: COORDINATE PDB         mobley_5732611.pdb
Info: Exclusions will be read from PARM file!
Info: SCNB (VDW SCALING)     2
Info: USING ARITHMETIC MEAN TO COMBINE L-J SIGMA PARAMETERS
Info: BINARY COORDINATES     mobley_5732611_equil.coor
Info: SUMMARY OF PARAMETERS:
Info: 11 BONDS
Info: 14 ANGLES
Info:   14 HARMONIC
Info:   0 COSINE-BASED
Info: 5 DIHEDRAL
Info: 0 IMPROPER
Info: 0 CROSSTERM
Info: 0 VDW
Info: 45 VDW_PAIRS
Info: 0 NBTHOLE_PAIRS
Info: To read alchdata from file: mobley_5732611.pdb
Info: To read alchflag data from column: 5
Info: STRUCTURE SUMMARY:
Info: 2928 ATOMS
Info: 2928 BONDS
Info: 19 ANGLES
Info: 26 DIHEDRALS
Info: 0 IMPROPERS
Info: 0 CROSSTERMS
Info: 2964 EXCLUSIONS
Info: 2922 RIGID BONDS
Info: ALCH: 0 ATOMS TO DISAPPEAR IN FINAL STATE
Info: ALCH: 12 ATOMS TO APPEAR IN FINAL STATE
Info: 5862 DEGREES OF FREEDOM
Info: 978 HYDROGEN GROUPS
Info: 4 ATOMS IN LARGEST HYDROGEN GROUP
Info: 978 MIGRATION GROUPS
Info: 4 ATOMS IN LARGEST MIGRATION GROUP
Info: TOTAL MASS = 17593.7 amu
Info: TOTAL CHARGE = -0.000100072 e
Info: MASS DENSITY = 0.957481 g/cm^3
Info: ATOM DENSITY = 0.095959 atoms/A^3
Info: ADDED 0 IMPLICIT EXCLUSIONS
Info: NONBONDED TABLE R-SQUARED SPACING: 0.0625
Info: NONBONDED TABLE SIZE: 705 POINTS
Info: REDUCING NUMBER OF PATCHES TO IMPROVE LOAD BALANCE
Info: REMOVING COM VELOCITY 0.118653 -0.0374343 0.0078979
Info: Use 3D box decompostion in PME FFT.
Info: Updated CUDA force table with 4096 elements.
Info: Updated CUDA LJ table with 9 x 9 elements.
Info: Found 13 unique exclusion lists needing 24 bytes
TCL: Running for 1500000 steps
ETITLE: TS BOND ANGLE DIHED IMPRP ELECT VDW BOUNDARY MISC KINETIC TOTAL TEMP POTENTIAL TOTALAVG TEMPAVG PRESSURE GPRESSURE VOLUME PRESSAVG GPRESSAVG
ENERGY: 0 1.9464 2.3820 7.1030 0.0000 -10696.5110 1419.7855 0.0000 0.0000 1736.5403 -7528.7538 298.1463 -9265.2941 -7528.7538 298.1463 -379.9047 -325.2448 30513.0177 -379.9047 -325.2448
ENERGY: 300000 1.8652 6.8004 1.2093 0.0000 -10505.4515 1355.9808 0.0000 0.0000 1727.9519 -7411.6439 296.6718 -9139.5958 -7497.9851 295.5461 -375.1117 -288.1418 30329.8410 -365.4389 -299.6421
ENERGY: 600000 0.3315 3.2569 0.3413 0.0000 -10504.8506 1349.6072 0.0000 0.0000 1730.7454 -7420.5683 297.1514 -9151.3137 -7480.9446 296.4630 -466.8651 -431.8201 30317.5081 -232.5102 -161.2667
ENERGY: 900000 3.3116 2.9984 1.3816 0.0000 -10643.0660 1472.8240 0.0000 0.0000 1740.6110 -7421.9395 298.8452 -9162.5505 -7472.7855 296.6977 295.2843 348.4811 30569.5081 -127.8638 -53.6461
ENERGY: 1200000 0.3770 8.2910 2.2743 0.0000 -10683.6908 1401.6611 0.0000 0.0000 1745.3948 -7525.6926 299.6665 -9271.0873 -7465.6279 298.4838 -474.7366 -398.1743 30445.4355 -133.9443 -57.1762
ENERGY: 1500000 1.1937 3.6611 1.0164 0.0000 -10586.9319 1401.8455 0.0000 0.0000 1705.1805 -7474.0347 292.7621 -9179.2152 -7471.7969 297.5370 53.0369 120.9228 29861.6077 -122.8650 -49.5245
TCL: Running FEP window   2: Lambda1 0.95   Lambda2 0.8999999999999999 [dLambda -0.050000000000000044]
TCL: Setting parameter firsttimestep to 0
TCL: Setting parameter alchLambda to 0.95
Info: NONBONDED TABLE R-SQUARED SPACING: 0.0625
Info: NONBONDED TABLE SIZE: 705 POINTS
TCL: Setting parameter alchLambda2 to 0.8999999999999999
Info: NONBONDED TABLE R-SQUARED SPACING: 0.0625
Info: NONBONDED TABLE SIZE: 705 POINTS
TCL: Running for 1500000 steps
ETITLE: TS BOND ANGLE DIHED IMPRP ELECT VDW BOUNDARY MISC KINETIC TOTAL TEMP POTENTIAL TOTALAVG TEMPAVG PRESSURE GPRESSURE VOLUME PRESSAVG GPRESSAVG
ENERGY: 0 1.1937 3.6611 1.0164 0.0000 -10585.4324 1402.1771 0.0000 0.0000 1704.3330 -7473.0512 292.6166 -9177.3842 -7473.0512 292.6166 37.0065 119.3473 29861.6077 37.0065 119.3473
ENERGY: 300000 3.0486 2.3888 1.8181 0.0000 -10719.1474 1472.8129 0.0000 0.0000 1748.4503 -7490.6288 300.1911 -9239.0790 -7477.3302 298.3447 439.3710 499.9449 30034.3694 -257.9657 -194.2714
ENERGY: 600000 0.5174 3.6198 0.9511 0.0000 -10482.8999 1316.2629 0.0000 0.0000 1743.3301 -7418.2187 299.3121 -9161.5488 -7487.6640 297.7098 -904.9759 -860.3137 30659.0268 -211.2902 -143.5803
ENERGY: 900000 1.6785 2.7404 2.1515 0.0000 -10649.1557 1375.0078 0.0000 0.0000 1750.1968 -7517.3806 300.4910 -9267.5775 -7489.7614 298.8285 -429.0396 -320.5520 29757.2468 -217.9496 -144.6183
ENERGY: 1200000 0.4428 4.5041 0.7020 0.0000 -10770.5622 1477.4410 0.0000 0.0000 1783.8084 -7503.6639 306.2618 -9287.4723 -7495.6890 299.0359 279.3390 315.6556 29952.7617 -195.7839 -123.7504
ENERGY: 1500000 1.1522 5.4080 2.5083 0.0000 -10738.6552 1444.5306 0.0000 0.0000 1805.4504 -7479.6057 309.9775 -9285.0561 -7487.9154 299.7017 -192.3536 -146.7845 30405.5752 -157.2389 -85.0200
TCL: Running FEP window   3: Lambda1 0.8999999999999999 Lambda2 0.8499999999999999 [dLambda -0.050000000000000044]
TCL: Setting parameter firsttimestep to 0
TCL: Setting parameter alchLambda to 0.8999999999999999
Info: NONBONDED TABLE R-SQUARED SPACING: 0.0625
Info: NONBONDED TABLE SIZE: 705 POINTS
TCL: Setting parameter alchLambda2 to 0.8499999999999999
Info: NONBONDED TABLE R-SQUARED SPACING: 0.0625
Info: NONBONDED TABLE SIZE: 705 POINTS
TCL: Running for 1500000 steps
ETITLE: TS BOND ANGLE DIHED IMPRP ELECT VDW BOUNDARY MISC KINETIC TOTAL TEMP POTENTIAL TOTALAVG TEMPAVG PRESSURE GPRESSURE VOLUME PRESSAVG GPRESSAVG
ENERGY: 0 1.1522 5.4080 2.5083 0.0000 -10736.5962 1444.2257 0.0000 0.0000 1804.5577 -7478.7442 309.8242 -9283.3019 -7478.7442 309.8242 -238.8933 -154.9823 30405.5752 -238.8933 -154.9823
ENERGY: 300000 3.6679 3.5145 2.4518 0.0000 -10717.0871 1482.0887 0.0000 0.0000 1714.4715 -7510.8927 294.3573 -9225.3641 -7478.4696 300.7409 344.5481 370.8667 30262.5311 -37.3156 32.6240
ENERGY: 600000 2.1402 7.6714 1.8281 0.0000 -10611.5697 1339.3826 0.0000 0.0000 1766.1294 -7494.4179 303.2265 -9260.5473 -7484.4221 300.0580 -749.4413 -648.6820 30272.6313 -375.5063 -306.6821
ENERGY: 900000 3.5390 2.8876 2.1344 0.0000 -10681.0990 1438.6792 0.0000 0.0000 1722.8127 -7511.0461 295.7894 -9233.8588 -7487.8273 298.5691 267.1218 321.1545 29819.9692 -187.7838 -116.0384
ENERGY: 1200000 1.4991 4.1468 3.9940 0.0000 -10548.3808 1346.2995 0.0000 0.0000 1776.6268 -7415.8145 305.0288 -9192.4413 -7487.0539 299.1985 -641.1684 -566.8729 30609.6551 -215.2456 -145.2246
ENERGY: 1500000 3.9987 3.4111 1.9467 0.0000 -10522.8272 1363.6101 0.0000 0.0000 1739.2981 -7410.5625 298.6198 -9149.8607 -7474.0854 299.5450 -813.5289 -699.4232 31039.8443 -273.9066 -199.5490
TCL: Running FEP window   4: Lambda1 0.8499999999999999 Lambda2 0.7999999999999998 [dLambda -0.050000000000000044]
TCL: Setting parameter firsttimestep to 0
TCL: Setting parameter alchLambda to 0.8499999999999999
Info: NONBONDED TABLE R-SQUARED SPACING: 0.0625
Info: NONBONDED TABLE SIZE: 705 POINTS
TCL: Setting parameter alchLambda2 to 0.7999999999999998
Info: NONBONDED TABLE R-SQUARED SPACING: 0.0625
Info: NONBONDED TABLE SIZE: 705 POINTS
TCL: Running for 1500000 steps
ETITLE: TS BOND ANGLE DIHED IMPRP ELECT VDW BOUNDARY MISC KINETIC TOTAL TEMP POTENTIAL TOTALAVG TEMPAVG PRESSURE GPRESSURE VOLUME PRESSAVG GPRESSAVG
ENERGY: 0 3.9987 3.4111 1.9467 0.0000 -10520.3379 1362.2800 0.0000 0.0000 1738.4318 -7410.2696 298.4711 -9148.7015 -7410.2696 298.4711 -806.9339 -720.2159 31039.8443 -806.9339 -720.2159
ENERGY: 300000 2.0127 8.3556 0.8396 0.0000 -10518.6897 1372.3622 0.0000 0.0000 1750.6197 -7384.4998 300.5636 -9135.1195 -7432.4894 300.1951 -74.6751 60.6890 29988.3978 -346.3998 -256.6511
ENERGY: 600000 5.6382 4.3559 1.1180 0.0000 -10543.2079 1396.1173 0.0000 0.0000 1787.7338 -7348.2447 306.9357 -9135.9785 -7427.1285 301.4680 -232.6671 -129.2823 30775.5656 -179.9081 -75.6071
ENERGY: 900000 1.8501 3.3228 1.4639 0.0000 -10447.6577 1329.8459 0.0000 0.0000 1749.6341 -7361.5409 300.3944 -9111.1751 -7436.0074 300.9148 -519.9987 -536.2928 30496.2039 -173.5999 -90.1172
ENERGY: 1200000 0.9983 3.2625 3.1547 0.0000 -10718.2163 1454.9247 0.0000 0.0000 1751.2509 -7504.6252 300.6720 -9255.8761 -7446.3667 300.6268 100.0601 206.5100 30054.4595 -24.5563 60.2294
ENERGY: 1500000 0.5689 5.6607 1.1904 0.0000 -10733.1573 1471.6957 0.0000 0.0000 1781.5717 -7472.4698 305.8777 -9254.0416 -7444.2898 301.3931 332.8393 303.9969 30134.7122 -4.7519 73.9215
TCL: Running FEP window   5: Lambda1 0.7999999999999998 Lambda2 0.7499999999999998 [dLambda -0.050000000000000044]
TCL: Setting parameter firsttimestep to 0
TCL: Setting parameter alchLambda to 0.7999999999999998
Info: NONBONDED TABLE R-SQUARED SPACING: 0.0625
Info: NONBONDED TABLE SIZE: 705 POINTS
TCL: Setting parameter alchLambda2 to 0.7499999999999998
Info: NONBONDED TABLE R-SQUARED SPACING: 0.0625
Info: NONBONDED TABLE SIZE: 705 POINTS
TCL: Running for 1500000 steps
ETITLE: TS BOND ANGLE DIHED IMPRP ELECT VDW BOUNDARY MISC KINETIC TOTAL TEMP POTENTIAL TOTALAVG TEMPAVG PRESSURE GPRESSURE VOLUME PRESSAVG GPRESSAVG
ENERGY: 0 0.5689 5.6607 1.1904 0.0000 -10730.9189 1471.7632 0.0000 0.0000 1780.7183 -7471.0174 305.7312 -9251.7357 -7471.0174 305.7312 233.5833 302.2468 30134.7122 233.5833 302.2468
ENERGY: 300000 2.5007 3.7698 2.9916 0.0000 -10655.2282 1438.5524 0.0000 0.0000 1763.2885 -7444.1251 302.7387 -9207.4136 -7450.8859 301.7072 91.5362 114.9903 30258.5439 6.9524 82.0002
ENERGY: 600000 2.5282 7.9061 2.6161 0.0000 -10707.3366 1460.8646 0.0000 0.0000 1774.5941 -7458.8275 304.6798 -9233.4216 -7451.8329 302.1841 -50.3802 -5.8738 30669.0032 62.8739 131.6873
ENERGY: 900000 5.4253 5.2337 1.3476 0.0000 -10517.4548 1384.3515 0.0000 0.0000 1746.5447 -7374.5520 299.8640 -9121.0967 -7440.6613 301.7505 9.9350 79.3170 30224.0805 56.5475 119.7027
ENERGY: 1200000 1.7215 4.7353 2.1726 0.0000 -10512.8292 1368.5474 0.0000 0.0000 1686.7882 -7448.8643 289.6044 -9135.6525 -7441.3839 301.7384 -218.6821 -185.0093 29963.4703 32.2811 96.0448
ENERGY: 1500000 1.4376 4.9984 3.7822 0.0000 -10567.2625 1399.8898 0.0000 0.0000 1776.8914 -7380.2631 305.0742 -9157.1545 -7445.1110 301.8650 -182.3849 -125.8246 30449.0497 32.1839 90.4924
TCL: Running FEP window   6: Lambda1 0.7499999999999998 Lambda2 0.6999999999999997 [dLambda -0.050000000000000044]
TCL: Setting parameter firsttimestep to 0
TCL: Setting parameter alchLambda to 0.7499999999999998
Info: NONBONDED TABLE R-SQUARED SPACING: 0.0625
Info: NONBONDED TABLE SIZE: 705 POINTS
TCL: Setting parameter alchLambda2 to 0.6999999999999997
Info: NONBONDED TABLE R-SQUARED SPACING: 0.0625
Info: NONBONDED TABLE SIZE: 705 POINTS
TCL: Running for 1500000 steps
ETITLE: TS BOND ANGLE DIHED IMPRP ELECT VDW BOUNDARY MISC KINETIC TOTAL TEMP POTENTIAL TOTALAVG TEMPAVG PRESSURE GPRESSURE VOLUME PRESSAVG GPRESSAVG
ENERGY: 0 1.4376 4.9984 3.7822 0.0000 -10565.4048 1399.6189 0.0000 0.0000 1776.0186 -7379.5490 304.9243 -9155.5676 -7379.5490 304.9243 -210.2683 -132.2310 30449.0497 -210.2683 -132.2310
ENERGY: 300000 3.9639 4.8202 4.0113 0.0000 -10766.6674 1533.3843 0.0000 0.0000 1740.0291 -7480.4586 298.7453 -9220.4878 -7429.1053 303.3701 929.7666 999.2012 29628.1868 -119.7812 -55.9851
ENERGY: 600000 2.3953 4.3309 2.5878 0.0000 -10635.5230 1433.8798 0.0000 0.0000 1721.4077 -7470.9216 295.5482 -9192.3293 -7436.6854 302.2918 171.9081 168.6648 29966.0038 -99.3197 -46.0349
ENERGY: 900000 0.8129 3.6373 1.5080 0.0000 -10725.3388 1412.7130 0.0000 0.0000 1733.7847 -7572.8830 297.6732 -9306.6677 -7457.5147 300.3528 -534.9170 -479.4281 30374.1518 -147.2128 -85.4826
ENERGY: 1200000 0.5044 5.7140 5.2882 0.0000 -10675.2348 1480.6737 0.0000 0.0000 1780.5188 -7402.5356 305.6970 -9183.0544 -7452.1822 301.3044 517.6237 515.5121 30162.9529 -24.1565 29.4276
ENERGY: 1500000 1.6596 7.8890 1.1528 0.0000 -10686.6043 1432.4793 0.0000 0.0000 1732.4258 -7510.9978 297.4399 -9243.4236 -7449.5651 301.4391 -359.0467 -289.1901 30182.7742 -22.4925 33.2168
TCL: Running FEP window   7: Lambda1 0.6999999999999997 Lambda2 0.6499999999999997 [dLambda -0.050000000000000044]
TCL: Setting parameter firsttimestep to 0
TCL: Setting parameter alchLambda to 0.6999999999999997
Info: NONBONDED TABLE R-SQUARED SPACING: 0.0625
Info: NONBONDED TABLE SIZE: 705 POINTS
TCL: Setting parameter alchLambda2 to 0.6499999999999997
Info: NONBONDED TABLE R-SQUARED SPACING: 0.0625
Info: NONBONDED TABLE SIZE: 705 POINTS
TCL: Running for 1500000 steps
ETITLE: TS BOND ANGLE DIHED IMPRP ELECT VDW BOUNDARY MISC KINETIC TOTAL TEMP POTENTIAL TOTALAVG TEMPAVG PRESSURE GPRESSURE VOLUME PRESSAVG GPRESSAVG
ENERGY: 0 1.6596 7.8890 1.1528 0.0000 -10685.2798 1432.9010 0.0000 0.0000 1731.5861 -7510.0913 297.2957 -9241.6774 -7510.0913 297.2957 -365.4035 -288.1080 30182.7742 -365.4035 -288.1080
ENERGY: 300000 0.8387 3.3573 2.2179 0.0000 -10551.1243 1425.2913 0.0000 0.0000 1777.1492 -7342.2699 305.1184 -9119.4191 -7447.1925 299.1563 228.2260 359.9873 30225.2491 -210.3794 -113.6674
ENERGY: 600000 2.4353 5.8273 1.6544 0.0000 -10659.0365 1456.3274 0.0000 0.0000 1788.1574 -7404.6348 307.0084 -9192.7921 -7425.1108 300.7849 41.8121 122.4254 30456.0821 -81.5772 -9.4897
ENERGY: 900000 2.7322 6.4210 3.1887 0.0000 -10610.3867 1361.8990 0.0000 0.0000 1740.5333 -7495.6124 298.8319 -9236.1457 -7437.8997 300.3524 -764.3578 -593.1405 30167.1849 -209.4674 -127.1270
ENERGY: 1200000 1.4290 6.5954 1.5209 0.0000 -10693.9296 1427.3373 0.0000 0.0000 1819.0219 -7438.0251 312.3076 -9257.0470 -7440.0706 300.3544 -215.5289 -52.4048 30209.9445 -219.5720 -126.6704
ENERGY: 1500000 2.3443 4.8806 1.5107 0.0000 -10651.2385 1415.0817 0.0000 0.0000 1745.7313 -7481.6898 299.7243 -9227.4212 -7434.6263 301.4767 -176.3652 -134.6846 30138.9672 -179.4045 -95.1447
TCL: Running FEP window   8: Lambda1 0.6499999999999997 Lambda2 0.5999999999999996 [dLambda -0.050000000000000044]
TCL: Setting parameter firsttimestep to 0
TCL: Setting parameter alchLambda to 0.6499999999999997
Info: NONBONDED TABLE R-SQUARED SPACING: 0.0625
Info: NONBONDED TABLE SIZE: 705 POINTS
TCL: Setting parameter alchLambda2 to 0.5999999999999996
Info: NONBONDED TABLE R-SQUARED SPACING: 0.0625
Info: NONBONDED TABLE SIZE: 705 POINTS
TCL: Running for 1500000 steps
ETITLE: TS BOND ANGLE DIHED IMPRP ELECT VDW BOUNDARY MISC KINETIC TOTAL TEMP POTENTIAL TOTALAVG TEMPAVG PRESSURE GPRESSURE VOLUME PRESSAVG GPRESSAVG
ENERGY: 0 2.3443 4.8806 1.5107 0.0000 -10650.1041 1415.1733 0.0000 0.0000 1744.8505 -7481.3447 299.5731 -9226.1951 -7481.3447 299.5731 -212.5334 -138.3966 30138.9672 -212.5334 -138.3966
ENERGY: 300000 1.6904 5.0110 1.1005 0.0000 -10756.4644 1492.6816 0.0000 0.0000 1787.8099 -7468.1710 306.9488 -9255.9809 -7453.3214 301.4671 474.9611 557.6277 29847.1349 30.1263 87.2051
ENERGY: 600000 2.6154 2.2219 6.0625 0.0000 -10724.4167 1491.5658 0.0000 0.0000 1727.3153 -7494.6359 296.5625 -9221.9512 -7449.1191 298.8494 519.1216 547.4061 30083.7136 125.9543 181.1281
ENERGY: 900000 0.4720 4.7549 0.7324 0.0000 -10709.1110 1493.6967 0.0000 0.0000 1799.7450 -7409.7100 308.9979 -9209.4550 -7446.6079 299.7081 607.5559 647.2035 30090.8656 129.8725 195.5444
ENERGY: 1200000 1.6580 4.4741 2.2691 0.0000 -10541.0777 1365.4486 0.0000 0.0000 1791.5584 -7375.6695 307.5923 -9167.2279 -7432.8871 301.4491 -488.2481 -476.5471 30418.4392 42.1445 101.6831
ENERGY: 1500000 1.7735 3.2077 0.5530 0.0000 -10668.8506 1481.2894 0.0000 0.0000 1702.8198 -7479.2071 292.3568 -9182.0269 -7435.2692 300.5967 185.8684 270.6934 30546.1773 75.9862 133.2799
TCL: Running FEP window   9: Lambda1 0.5999999999999996 Lambda2 0.5499999999999996 [dLambda -0.050000000000000044]
TCL: Setting parameter firsttimestep to 0
TCL: Setting parameter alchLambda to 0.5999999999999996
Info: NONBONDED TABLE R-SQUARED SPACING: 0.0625
Info: NONBONDED TABLE SIZE: 705 POINTS
TCL: Setting parameter alchLambda2 to 0.5499999999999996
Info: NONBONDED TABLE R-SQUARED SPACING: 0.0625
Info: NONBONDED TABLE SIZE: 705 POINTS
TCL: Running for 1500000 steps
ETITLE: TS BOND ANGLE DIHED IMPRP ELECT VDW BOUNDARY MISC KINETIC TOTAL TEMP POTENTIAL TOTALAVG TEMPAVG PRESSURE GPRESSURE VOLUME PRESSAVG GPRESSAVG
ENERGY: 0 1.7735 3.2077 0.5530 0.0000 -10667.8249 1480.8677 0.0000 0.0000 1701.9405 -7479.4824 292.2059 -9181.4230 -7479.4824 292.2059 174.7911 261.5648 30546.1773 174.7911 261.5648
ENERGY: 300000 2.9596 4.1179 0.6001 0.0000 -10764.1092 1515.0432 0.0000 0.0000 1679.7960 -7561.5925 288.4039 -9241.3886 -7488.8410 293.0346 394.5759 502.0542 30115.5573 35.7611 117.6170
ENERGY: 600000 2.6571 3.5955 2.9153 0.0000 -10700.0969 1473.3420 0.0000 0.0000 1716.7572 -7500.8298 294.7497 -9217.5870 -7480.7129 294.9673 188.3341 292.6827 30434.2905 287.4417 365.6801
ENERGY: 900000 1.0301 4.8627 0.9936 0.0000 -10557.7485 1394.2688 0.0000 0.0000 1735.2288 -7421.3644 297.9211 -9156.5933 -7489.4926 294.5674 -68.1774 -9.9714 29975.5617 82.8508 154.2252
ENERGY: 1200000 2.2764 3.8290 2.5924 0.0000 -10631.8741 1423.8348 0.0000 0.0000 1743.8864 -7455.4550 299.4076 -9199.3414 -7477.8669 295.2203 -210.0128 -195.5720 30557.5724 19.7638 85.4832
ENERGY: 1500000 1.2716 6.5310 1.0854 0.0000 -10582.4837 1392.8325 0.0000 0.0000 1765.4528 -7415.3105 303.1103 -9180.7632 -7468.5681 296.9177 -238.3867 -216.2785 30297.7327 20.6319 81.3783
TCL: Running FEP window  10: Lambda1 0.5499999999999996 Lambda2 0.4999999999999996 [dLambda -0.04999999999999999]
TCL: Setting parameter firsttimestep to 0
TCL: Setting parameter alchLambda to 0.5499999999999996
Info: NONBONDED TABLE R-SQUARED SPACING: 0.0625
Info: NONBONDED TABLE SIZE: 705 POINTS
TCL: Setting parameter alchLambda2 to 0.4999999999999996
Info: NONBONDED TABLE R-SQUARED SPACING: 0.0625
Info: NONBONDED TABLE SIZE: 705 POINTS
TCL: Running for 1500000 steps
ETITLE: TS BOND ANGLE DIHED IMPRP ELECT VDW BOUNDARY MISC KINETIC TOTAL TEMP POTENTIAL TOTALAVG TEMPAVG PRESSURE GPRESSURE VOLUME PRESSAVG GPRESSAVG
ENERGY: 0 1.2716 6.5310 1.0854 0.0000 -10582.1867 1393.1185 0.0000 0.0000 1764.5572 -7415.6231 302.9565 -9180.1803 -7415.6231 302.9565 -296.9189 -219.2103 30297.7327 -296.9189 -219.2103
ENERGY: 300000 1.9650 6.2937 0.7538 0.0000 -10711.6280 1436.5794 0.0000 0.0000 1756.7337 -7509.3024 301.6133 -9266.0361 -7427.1318 301.7488 233.0819 238.5744 29727.6712 -91.5831 -41.0238
ENERGY: 600000 1.0700 5.2239 1.7827 0.0000 -10630.9067 1469.6977 0.0000 0.0000 1717.1682 -7435.9643 294.8203 -9153.1325 -7434.2719 298.8368 261.2514 404.6085 30077.7253 -40.2696 11.3154
ENERGY: 900000 1.9260 3.2416 1.1268 0.0000 -10608.7624 1460.9588 0.0000 0.0000 1756.8165 -7384.6927 301.6275 -9141.5092 -7433.1634 299.5184 396.3671 419.1895 30238.2709 75.7150 125.8694
ENERGY: 1200000 0.8324 4.8518 2.3960 0.0000 -10601.1647 1442.1395 0.0000 0.0000 1727.3402 -7423.6047 296.5667 -9150.9449 -7428.6869 299.9286 93.3349 194.2946 30228.7641 59.0527 111.6593
ENERGY: 1500000 3.7852 5.8385 1.8050 0.0000 -10629.2198 1412.4530 0.0000 0.0000 1715.3737 -7489.9643 294.5122 -9205.3380 -7432.8446 299.4918 246.6673 279.1835 29288.8808 39.3050 91.5365
TCL: Running FEP window  11: Lambda1 0.4999999999999996 Lambda2 0.4499999999999996 [dLambda -0.04999999999999999]
TCL: Setting parameter firsttimestep to 0
TCL: Setting parameter alchLambda to 0.4999999999999996
Info: NONBONDED TABLE R-SQUARED SPACING: 0.0625
Info: NONBONDED TABLE SIZE: 705 POINTS
TCL: Setting parameter alchLambda2 to 0.4499999999999996
Info: NONBONDED TABLE R-SQUARED SPACING: 0.0625
Info: NONBONDED TABLE SIZE: 705 POINTS
TCL: Running for 1500000 steps
ETITLE: TS BOND ANGLE DIHED IMPRP ELECT VDW BOUNDARY MISC KINETIC TOTAL TEMP POTENTIAL TOTALAVG TEMPAVG PRESSURE GPRESSURE VOLUME PRESSAVG GPRESSAVG
ENERGY: 0 3.7852 5.8385 1.8050 0.0000 -10628.4661 1412.8328 0.0000 0.0000 1714.4648 -7489.7398 294.3562 -9204.2045 -7489.7398 294.3562 175.1363 278.3876 29288.8808 175.1363 278.3876
ENERGY: 300000 1.2607 4.9183 2.7067 0.0000 -10598.4479 1414.0045 0.0000 0.0000 1749.2670 -7426.2908 300.3313 -9175.5577 -7407.9102 303.9098 7.4806 28.7111 30029.3208 138.2342 209.4095
ENERGY: 600000 1.3986 1.8511 4.1066 0.0000 -10697.6237 1458.4472 0.0000 0.0000 1823.8143 -7408.0059 313.1304 -9231.8202 -7395.8614 304.8800 214.3399 268.1320 30253.6378 171.1567 230.9079
ENERGY: 900000 3.1534 4.7898 1.2157 0.0000 -10463.6851 1336.5252 0.0000 0.0000 1723.1313 -7394.8696 295.8441 -9118.0009 -7397.2511 303.2541 -691.3495 -585.7349 30463.8625 5.1646 67.3693
ENERGY: 1200000 1.5296 6.0813 1.9497 0.0000 -10539.7844 1330.6852 0.0000 0.0000 1778.1688 -7421.3697 305.2935 -9199.5385 -7405.7085 303.7548 -764.1479 -728.9976 30117.7924 -34.9704 32.6773
ENERGY: 1500000 1.9574 3.4549 1.7332 0.0000 -10599.4536 1397.5460 0.0000 0.0000 1707.5674 -7487.1946 293.1720 -9194.7620 -7409.6348 303.0857 -363.3324 -211.8805 30104.9172 -52.0202 16.5973
TCL: Running FEP window  12: Lambda1 0.4499999999999996 Lambda2 0.39999999999999963 [dLambda -0.04999999999999999]
TCL: Setting parameter firsttimestep to 0
TCL: Setting parameter alchLambda to 0.4499999999999996
Info: NONBONDED TABLE R-SQUARED SPACING: 0.0625
Info: NONBONDED TABLE SIZE: 705 POINTS
TCL: Setting parameter alchLambda2 to 0.39999999999999963
Info: NONBONDED TABLE R-SQUARED SPACING: 0.0625
Info: NONBONDED TABLE SIZE: 705 POINTS
TCL: Running for 1500000 steps
ETITLE: TS BOND ANGLE DIHED IMPRP ELECT VDW BOUNDARY MISC KINETIC TOTAL TEMP POTENTIAL TOTALAVG TEMPAVG PRESSURE GPRESSURE VOLUME PRESSAVG GPRESSAVG
ENERGY: 0 1.9574 3.4549 1.7332 0.0000 -10599.4539 1398.0457 0.0000 0.0000 1706.7280 -7487.5346 293.0278 -9194.2626 -7487.5346 293.0278 -300.6551 -213.1513 30104.9172 -300.6551 -213.1513
ENERGY: 300000 0.9905 6.0319 1.0872 0.0000 -10707.7184 1492.5421 0.0000 0.0000 1734.4643 -7472.6024 297.7899 -9207.0667 -7499.2746 294.7797 224.3667 383.0934 30448.0799 -77.3894 8.6691
ENERGY: 600000 0.7613 3.2237 2.0445 0.0000 -10713.3198 1419.5538 0.0000 0.0000 1780.8209 -7506.9156 305.7488 -9287.7366 -7480.4077 298.3978 -288.7777 -257.5428 29945.8642 17.7829 85.5296
ENERGY: 900000 3.4101 4.7985 1.8187 0.0000 -10613.9485 1379.4961 0.0000 0.0000 1743.2550 -7481.1700 299.2992 -9224.4250 -7463.6393 299.1210 -267.9122 -207.5373 29697.5704 -9.2272 50.2241
ENERGY: 1200000 3.3516 2.4116 1.9842 0.0000 -10806.1506 1545.8061 0.0000 0.0000 1758.8536 -7493.7435 301.9773 -9252.5972 -7452.3256 300.6437 830.3897 947.6071 29942.7566 4.1901 68.9122
ENERGY: 1500000 1.7829 6.8082 0.5212 0.0000 -10616.1971 1378.6690 0.0000 0.0000 1772.8658 -7455.5499 304.3830 -9228.4157 -7448.6545 301.2719 -149.7778 -131.5648 29687.4462 -32.9556 27.8114
TCL: Running FEP window  13: Lambda1 0.39999999999999963 Lambda2 0.34999999999999964 [dLambda -0.04999999999999999]
TCL: Setting parameter firsttimestep to 0
TCL: Setting parameter alchLambda to 0.39999999999999963
Info: NONBONDED TABLE R-SQUARED SPACING: 0.0625
Info: NONBONDED TABLE SIZE: 705 POINTS
TCL: Setting parameter alchLambda2 to 0.34999999999999964
Info: NONBONDED TABLE R-SQUARED SPACING: 0.0625
Info: NONBONDED TABLE SIZE: 705 POINTS
TCL: Running for 1500000 steps
ETITLE: TS BOND ANGLE DIHED IMPRP ELECT VDW BOUNDARY MISC KINETIC TOTAL TEMP POTENTIAL TOTALAVG TEMPAVG PRESSURE GPRESSURE VOLUME PRESSAVG GPRESSAVG
ENERGY: 0 1.7829 6.8082 0.5212 0.0000 -10616.1962 1378.3489 0.0000 0.0000 1772.0021 -7456.7329 304.2347 -9228.7350 -7456.7329 304.2347 -229.2219 -138.8919 29687.4462 -229.2219 -138.8919
ENERGY: 300000 1.5578 3.3290 1.6332 0.0000 -10593.8463 1416.5623 0.0000 0.0000 1785.8091 -7384.9549 306.6053 -9170.7640 -7432.5663 302.1322 64.0457 79.4170 30103.7433 270.0074 311.6316
ENERGY: 600000 2.0744 5.1209 1.6492 0.0000 -10452.4493 1338.0881 0.0000 0.0000 1701.1877 -7404.3289 292.0766 -9105.5166 -7429.2042 300.7094 -472.0392 -439.4960 30150.9934 36.0721 76.6461
ENERGY: 900000 0.6567 7.5341 4.0944 0.0000 -10545.3730 1391.5587 0.0000 0.0000 1780.7440 -7360.7851 305.7356 -9141.5291 -7425.9625 301.5141 -3.6640 11.7357 30219.7689 23.3094 57.3004
ENERGY: 1200000 3.0254 3.8637 1.1620 0.0000 -10752.7671 1500.0806 0.0000 0.0000 1690.4350 -7554.2005 290.2305 -9244.6354 -7443.4799 300.5658 169.6912 234.0472 30146.2669 18.7295 56.5076
ENERGY: 1500000 1.8469 10.7932 1.0107 0.0000 -10554.8232 1318.0750 0.0000 0.0000 1758.5439 -7464.5534 301.9241 -9223.0973 -7433.6680 301.2785 -975.1985 -916.8400 30180.1922 -67.9274 -27.2298
TCL: Running FEP window  14: Lambda1 0.34999999999999964 Lambda2 0.29999999999999966 [dLambda -0.04999999999999999]
TCL: Setting parameter firsttimestep to 0
TCL: Setting parameter alchLambda to 0.34999999999999964
Info: NONBONDED TABLE R-SQUARED SPACING: 0.0625
Info: NONBONDED TABLE SIZE: 705 POINTS
TCL: Setting parameter alchLambda2 to 0.29999999999999966
Info: NONBONDED TABLE R-SQUARED SPACING: 0.0625
Info: NONBONDED TABLE SIZE: 705 POINTS
TCL: Running for 1500000 steps
ETITLE: TS BOND ANGLE DIHED IMPRP ELECT VDW BOUNDARY MISC KINETIC TOTAL TEMP POTENTIAL TOTALAVG TEMPAVG PRESSURE GPRESSURE VOLUME PRESSAVG GPRESSAVG
ENERGY: 0 1.8469 10.7932 1.0107 0.0000 -10554.8234 1318.4305 0.0000 0.0000 1757.6844 -7465.0576 301.7765 -9222.7421 -7465.0576 301.7765 -1018.8567 -918.6342 30180.1922 -1018.8567 -918.6342
ENERGY: 300000 3.8400 4.8881 1.3227 0.0000 -10612.5083 1435.6035 0.0000 0.0000 1752.7880 -7414.0660 300.9359 -9166.8541 -7478.6408 296.2311 -249.4578 -202.4748 30637.5345 -790.5008 -732.2895
ENERGY: 600000 0.9957 2.7113 2.3342 0.0000 -10576.7350 1364.4496 0.0000 0.0000 1780.7967 -7425.4476 305.7447 -9206.2443 -7442.7962 298.6764 -550.5712 -484.5433 30099.0096 -537.7039 -473.3117
ENERGY: 900000 1.9517 4.7384 0.4561 0.0000 -10617.3247 1464.2324 0.0000 0.0000 1702.9163 -7443.0296 292.3734 -9145.9460 -7432.8365 299.0557 512.4283 595.2880 29909.7067 -317.4173 -256.4534
ENERGY: 1200000 1.3955 4.1493 0.9034 0.0000 -10713.3629 1464.5043 0.0000 0.0000 1797.3650 -7445.0454 308.5893 -9242.4104 -7430.0368 300.1529 141.2874 183.7849 30059.1217 -226.8319 -164.8267
ENERGY: 1500000 1.7311 6.3923 1.4497 0.0000 -10688.0366 1435.8678 0.0000 0.0000 1770.7991 -7471.7966 304.0282 -9242.5957 -7427.7639 300.2361 151.8229 210.9538 29830.9927 -202.1779 -141.0377
TCL: Running FEP window  15: Lambda1 0.29999999999999966 Lambda2 0.24999999999999967 [dLambda -0.04999999999999999]
TCL: Setting parameter firsttimestep to 0
TCL: Setting parameter alchLambda to 0.29999999999999966
Info: NONBONDED TABLE R-SQUARED SPACING: 0.0625
Info: NONBONDED TABLE SIZE: 705 POINTS
TCL: Setting parameter alchLambda2 to 0.24999999999999967
Info: NONBONDED TABLE R-SQUARED SPACING: 0.0625
Info: NONBONDED TABLE SIZE: 705 POINTS
TCL: Running for 1500000 steps
ETITLE: TS BOND ANGLE DIHED IMPRP ELECT VDW BOUNDARY MISC KINETIC TOTAL TEMP POTENTIAL TOTALAVG TEMPAVG PRESSURE GPRESSURE VOLUME PRESSAVG GPRESSAVG
ENERGY: 0 1.7311 6.3923 1.4497 0.0000 -10688.0363 1436.2475 0.0000 0.0000 1769.9565 -7472.2592 303.8835 -9242.2157 -7472.2592 303.8835 119.4697 210.3598 29830.9927 119.4697 210.3598
ENERGY: 300000 1.7807 8.1086 1.4419 0.0000 -10690.4435 1496.2134 0.0000 0.0000 1754.5065 -7428.3925 301.2309 -9182.8990 -7429.7539 299.7088 642.3778 759.8659 29712.0943 197.0781 266.6956
ENERGY: 600000 1.5329 5.4342 2.1391 0.0000 -10635.5627 1404.4665 0.0000 0.0000 1712.8427 -7509.1474 294.0777 -9221.9901 -7459.9011 298.0091 -260.4117 -181.6016 30167.8531 114.8753 170.8720
ENERGY: 900000 1.5152 4.0731 2.2434 0.0000 -10705.7922 1431.8977 0.0000 0.0000 1717.1769 -7548.8858 294.8218 -9266.0627 -7467.7737 297.7587 -142.5769 -23.6395 29858.6670 -70.6534 -9.5406
ENERGY: 1200000 1.3024 4.8160 1.5176 0.0000 -10590.8594 1477.3469 0.0000 0.0000 1754.4782 -7351.3983 301.2261 -9105.8765 -7463.8111 298.0471 526.0900 609.6171 29922.6537 -61.6284 13.3420
ENERGY: 1500000 6.6976 6.5268 0.7174 0.0000 -10548.7377 1453.8699 0.0000 0.0000 1749.4220 -7331.5041 300.3580 -9080.9261 -7457.8188 298.3515 164.1371 226.6686 30718.1333 -51.5480 23.0474
TCL: Running FEP window  16: Lambda1 0.24999999999999967 Lambda2 0.19999999999999968 [dLambda -0.04999999999999999]
TCL: Setting parameter firsttimestep to 0
TCL: Setting parameter alchLambda to 0.24999999999999967
Info: NONBONDED TABLE R-SQUARED SPACING: 0.0625
Info: NONBONDED TABLE SIZE: 705 POINTS
TCL: Setting parameter alchLambda2 to 0.19999999999999968
Info: NONBONDED TABLE R-SQUARED SPACING: 0.0625
Info: NONBONDED TABLE SIZE: 705 POINTS
TCL: Running for 1500000 steps
ETITLE: TS BOND ANGLE DIHED IMPRP ELECT VDW BOUNDARY MISC KINETIC TOTAL TEMP POTENTIAL TOTALAVG TEMPAVG PRESSURE GPRESSURE VOLUME PRESSAVG GPRESSAVG
ENERGY: 0 6.6976 6.5268 0.7174 0.0000 -10548.7363 1453.8271 0.0000 0.0000 1748.5420 -7332.4254 300.2069 -9080.9674 -7332.4254 300.2069 141.2335 220.3458 30718.1333 141.2335 220.3458
ENERGY: 300000 2.6880 3.4882 1.0303 0.0000 -10555.2580 1416.7945 0.0000 0.0000 1788.8267 -7342.4303 307.1233 -9131.2569 -7395.3439 302.7941 231.0862 256.2034 30046.6915 90.0082 154.9740
ENERGY: 600000 0.2557 3.5413 2.5161 0.0000 -10684.0630 1404.4003 0.0000 0.0000 1752.9995 -7520.3502 300.9722 -9273.3496 -7432.2710 301.1759 -351.0014 -293.8821 29707.8308 18.9159 75.8021
ENERGY: 900000 1.0193 3.3255 1.9370 0.0000 -10581.2910 1380.7182 0.0000 0.0000 1722.7875 -7471.5035 295.7851 -9194.2910 -7440.1548 300.6707 -509.5801 -442.5104 30272.7529 -13.5840 38.3530
ENERGY: 1200000 1.8903 7.4670 1.6926 0.0000 -10503.6899 1355.4013 0.0000 0.0000 1738.9212 -7398.3175 298.5551 -9137.2387 -7436.2107 300.8306 -176.2991 -116.2806 29861.6203 85.2368 137.3863
ENERGY: 1500000 0.8291 5.0079 2.0500 0.0000 -10739.7224 1452.2466 0.0000 0.0000 1757.4081 -7522.1806 301.7291 -9279.5887 -7441.3678 300.2448 10.3621 112.6861 29907.1768 18.9307 78.3122
TCL: Running FEP window  17: Lambda1 0.19999999999999968 Lambda2 0.1499999999999997 [dLambda -0.04999999999999999]
TCL: Setting parameter firsttimestep to 0
TCL: Setting parameter alchLambda to 0.19999999999999968
Info: NONBONDED TABLE R-SQUARED SPACING: 0.0625
Info: NONBONDED TABLE SIZE: 705 POINTS
TCL: Setting parameter alchLambda2 to 0.1499999999999997
Info: NONBONDED TABLE R-SQUARED SPACING: 0.0625
Info: NONBONDED TABLE SIZE: 705 POINTS
TCL: Running for 1500000 steps
ETITLE: TS BOND ANGLE DIHED IMPRP ELECT VDW BOUNDARY MISC KINETIC TOTAL TEMP POTENTIAL TOTALAVG TEMPAVG PRESSURE GPRESSURE VOLUME PRESSAVG GPRESSAVG
ENERGY: 0 0.8291 5.0079 2.0500 0.0000 -10739.7217 1451.7514 0.0000 0.0000 1756.5627 -7523.5206 301.5839 -9280.0833 -7523.5206 301.5839 13.4860 107.4212 29907.1768 13.4860 107.4212
ENERGY: 300000 2.9511 5.6999 1.7211 0.0000 -10726.9645 1437.8226 0.0000 0.0000 1784.2697 -7494.5001 306.3410 -9278.7698 -7441.6331 300.8041 -348.7880 -276.4268 29977.5861 -354.9577 -278.4873
ENERGY: 600000 0.5978 4.9204 1.2178 0.0000 -10561.6420 1364.1387 0.0000 0.0000 1747.9112 -7442.8561 300.0986 -9190.7673 -7454.6214 300.4700 -168.5366 -168.4241 29596.6113 -178.6561 -129.3665
ENERGY: 900000 2.5483 3.9550 0.7991 0.0000 -10689.6969 1476.9159 0.0000 0.0000 1736.4889 -7468.9897 298.1375 -9205.4786 -7469.5508 298.9363 384.5236 474.9655 29756.3964 -95.7189 -44.2715
ENERGY: 1200000 3.5986 4.2594 2.7275 0.0000 -10634.1753 1454.5986 0.0000 0.0000 1731.1221 -7437.8691 297.2161 -9168.9911 -7470.3642 299.4079 364.4246 355.6977 30464.1358 -130.2511 -75.6537
ENERGY: 1500000 1.8524 5.0716 1.4865 0.0000 -10493.9816 1376.6008 0.0000 0.0000 1773.1412 -7335.8290 304.4303 -9108.9702 -7459.3380 300.1401 -348.2026 -270.7408 30704.9637 -213.0533 -154.3174
TCL: Running FEP window  18: Lambda1 0.1499999999999997 Lambda2 0.09999999999999969 [dLambda -0.05 ]
TCL: Setting parameter firsttimestep to 0
TCL: Setting parameter alchLambda to 0.1499999999999997
Info: NONBONDED TABLE R-SQUARED SPACING: 0.0625
Info: NONBONDED TABLE SIZE: 705 POINTS
TCL: Setting parameter alchLambda2 to 0.09999999999999969
Info: NONBONDED TABLE R-SQUARED SPACING: 0.0625
Info: NONBONDED TABLE SIZE: 705 POINTS
TCL: Running for 1500000 steps
ETITLE: TS BOND ANGLE DIHED IMPRP ELECT VDW BOUNDARY MISC KINETIC TOTAL TEMP POTENTIAL TOTALAVG TEMPAVG PRESSURE GPRESSURE VOLUME PRESSAVG GPRESSAVG
ENERGY: 0 1.8524 5.0716 1.4865 0.0000 -10493.9816 1377.0665 0.0000 0.0000 1772.3140 -7336.1906 304.2883 -9108.5046 -7336.1906 304.2883 -347.8575 -269.6592 30704.9637 -347.8575 -269.6592
ENERGY: 300000 1.0573 5.8082 3.9709 0.0000 -10645.1684 1448.7795 0.0000 0.0000 1762.5568 -7422.9957 302.6131 -9185.5526 -7396.8213 301.1036 202.4125 231.7609 29813.5375 -145.8991 -110.6284
ENERGY: 600000 0.7565 3.1081 2.7080 0.0000 -10610.8528 1443.4342 0.0000 0.0000 1776.7076 -7384.1384 305.0426 -9160.8460 -7422.1736 302.1949 159.0474 211.9873 30065.7669 -51.8264 -6.1425
ENERGY: 900000 1.5046 3.8417 1.4957 0.0000 -10680.6266 1446.6548 0.0000 0.0000 1781.7487 -7445.3811 305.9081 -9227.1298 -7430.1912 302.4994 241.2861 350.0127 29823.7374 -62.1778 -1.5055
ENERGY: 1200000 1.8553 3.6563 0.3472 0.0000 -10587.7152 1439.9707 0.0000 0.0000 1813.1432 -7328.7425 311.2982 -9141.8857 -7427.9447 301.6006 183.5704 254.6141 30016.9356 -33.8591 30.4981
ENERGY: 1500000 0.6859 2.7405 2.3669 0.0000 -10747.3530 1428.0305 0.0000 0.0000 1691.1291 -7622.4001 290.3497 -9313.5292 -7445.6163 300.5396 -265.3958 -158.6031 29634.3805 -67.1133 1.3338
TCL: Running FEP window  19: Lambda1 0.09999999999999969 Lambda2 0.049999999999999684 [dLambda -0.05 ]
TCL: Setting parameter firsttimestep to 0
TCL: Setting parameter alchLambda to 0.09999999999999969
Info: NONBONDED TABLE R-SQUARED SPACING: 0.0625
Info: NONBONDED TABLE SIZE: 705 POINTS
TCL: Setting parameter alchLambda2 to 0.049999999999999684
Info: NONBONDED TABLE R-SQUARED SPACING: 0.0625
Info: NONBONDED TABLE SIZE: 705 POINTS
TCL: Running for 1500000 steps
ETITLE: TS BOND ANGLE DIHED IMPRP ELECT VDW BOUNDARY MISC KINETIC TOTAL TEMP POTENTIAL TOTALAVG TEMPAVG PRESSURE GPRESSURE VOLUME PRESSAVG GPRESSAVG
ENERGY: 0 0.6859 2.7405 2.3669 0.0000 -10747.3528 1428.0437 0.0000 0.0000 1690.2472 -7623.2686 290.1983 -9313.5158 -7623.2686 290.1983 -258.8539 -161.8186 29634.3805 -258.8539 -161.8186
ENERGY: 300000 0.7750 4.6846 1.5453 0.0000 -10755.0689 1456.8845 0.0000 0.0000 1806.7009 -7484.4786 310.1922 -9291.1795 -7516.4208 298.9800 -103.2779 -86.3659 30166.1448 -241.6074 -166.2204
ENERGY: 600000 1.1139 5.4644 2.0970 0.0000 -10675.2359 1414.1358 0.0000 0.0000 1765.6562 -7486.7685 303.1452 -9252.4247 -7488.8409 300.4869 -176.0190 -123.0112 29839.3087 13.8838 75.4057
ENERGY: 900000 2.3926 3.3722 2.4116 0.0000 -10575.0966 1355.5409 0.0000 0.0000 1750.0852 -7461.2941 300.4718 -9211.3793 -7471.2697 300.1274 -643.7539 -619.1285 29965.9684 -37.3685 18.6816
ENERGY: 1200000 1.6748 5.2218 1.5336 0.0000 -10592.4675 1391.8060 0.0000 0.0000 1785.0481 -7407.1832 306.4746 -9192.2313 -7451.5460 301.1678 -180.4221 -162.6440 29901.0076 22.3053 76.5238
ENERGY: 1500000 1.5794 4.9483 0.7392 0.0000 -10673.9451 1492.4212 0.0000 0.0000 1757.2991 -7416.9579 301.7104 -9174.2569 -7439.3256 301.1702 678.4774 735.2956 29618.5641 26.4695 81.1253
TCL: Running FEP window  20: Lambda1 0.049999999999999684 Lambda2 0.0    [dLambda -0.049999999999999684]
TCL: Setting parameter firsttimestep to 0
TCL: Setting parameter alchLambda to 0.049999999999999684
Info: NONBONDED TABLE R-SQUARED SPACING: 0.0625
Info: NONBONDED TABLE SIZE: 705 POINTS
TCL: Setting parameter alchLambda2 to 0.0
Info: NONBONDED TABLE R-SQUARED SPACING: 0.0625
Info: NONBONDED TABLE SIZE: 705 POINTS
TCL: Running for 1500000 steps
ETITLE: TS BOND ANGLE DIHED IMPRP ELECT VDW BOUNDARY MISC KINETIC TOTAL TEMP POTENTIAL TOTALAVG TEMPAVG PRESSURE GPRESSURE VOLUME PRESSAVG GPRESSAVG
ENERGY: 0 1.5794 4.9483 0.7392 0.0000 -10673.9450 1492.3012 0.0000 0.0000 1756.4090 -7417.9678 301.5576 -9174.3768 -7417.9678 301.5576 652.9076 732.9283 29618.5641 652.9076 732.9283
ENERGY: 300000 0.9848 5.1035 1.6477 0.0000 -10490.9594 1325.9135 0.0000 0.0000 1734.2547 -7423.0553 297.7539 -9157.3099 -7434.6058 299.0907 -845.8559 -813.5807 30160.1295 -66.0877 15.6620
ENERGY: 600000 0.5646 7.9506 3.2877 0.0000 -10724.4612 1448.3273 0.0000 0.0000 1725.8309 -7538.5001 296.3076 -9264.3310 -7458.8617 298.6953 121.3787 227.5396 29446.2847 -186.3635 -113.2921
ENERGY: 900000 1.1418 5.6464 1.5005 0.0000 -10556.6682 1413.2300 0.0000 0.0000 1733.2842 -7401.8653 297.5873 -9135.1495 -7450.6855 299.1887 5.4340 58.0708 30058.3326 -60.3979 9.1789
ENERGY: 1200000 3.5778 3.8261 2.5349 0.0000 -10641.6533 1378.9182 0.0000 0.0000 1772.9542 -7479.8421 304.3982 -9252.7963 -7457.1808 299.6474 -393.7386 -300.8678 29696.3480 -53.1192 12.1750
ENERGY: 1500000 2.6823 3.0126 2.5724 0.0000 -10564.0048 1355.3184 0.0000 0.0000 1779.1741 -7421.2450 305.4661 -9200.4191 -7455.1878 299.6707 -614.0325 -569.3154 30380.8345 -151.3485 -83.1861
TCL: Exiting due to exit command.
