Info: SIMULATION PARAMETERS:
Info: TIMESTEP               2
Info: NUMBER OF STEPS        0
Info: STEPS PER CYCLE        10
Info: PERIODIC CELL BASIS 1  31.9802 0 0
Info: PERIODIC CELL BASIS 2  0 34.0961 0
Info: PERIODIC CELL BASIS 3  0 0 27.398
Info: PERIODIC CELL CENTER   0 0 0
Info: WRAPPING WATERS AROUND PERIODIC BOUNDARIES ON OUTPUT.
Info: WRAPPING ALL CLUSTERS AROUND PERIODIC BOUNDARIES ON OUTPUT.
Info: FIRST LDB TIMESTEP     50
Info: LAST LDB TIMESTEP     -1
Info: HOM BACKGROUND SCALING 1
Info: PME BACKGROUND SCALING 1
Info: MIN ATOMS PER PATCH    40
Info: EMPTY PATCH LOAD       40 ATOMS
Info: VELOCITY FILE          mobley_4149784_equil.vel
Info: CENTER OF MASS MOVING INITIALLY? NO
Info: DIELECTRIC             1
Info: EXCLUDE                SCALED ONE-FOUR
Info: 1-4 ELECTROSTATICS SCALED BY 0.833333
Info: MODIFIED 1-4 VDW PARAMETERS WILL BE USED
Info: DCD FILENAME           mobley_4149784_prod.dcd
Info: DCD FREQUENCY          100000
Info: DCD FIRST STEP         100000
Info: DCD FILE WILL CONTAIN UNIT CELL DATA
Info: XST FILENAME           mobley_4149784_prod.xst
Info: XST FREQUENCY          100000
Info: NO VELOCITY DCD OUTPUT
Info: NO FORCE DCD OUTPUT
Info: OUTPUT FILENAME        mobley_4149784_prod
Info: BINARY OUTPUT FILES WILL BE USED
Info: RESTART FILENAME       mobley_4149784_prod.restart
Info: RESTART FREQUENCY      100000
Info: BINARY RESTART FILES WILL BE USED
Info: CUTOFF                 9
Info: PAIRLIST DISTANCE      11
Info: PAIRLIST SHRINK RATE   0.01
Info: PAIRLIST GROW RATE     0.01
Info: PAIRLIST TRIGGER       0.3
Info: PAIRLISTS PER CYCLE    2
Info: PAIRLISTS ENABLED
Info: MARGIN                 2
Info: HYDROGEN GROUP CUTOFF  2.5
Info: PATCH DIMENSION        15.5
Info: ENERGY OUTPUT STEPS    100000
Info: ENERGY EVALUATION STEPS    100000
Info: OUTPUT ENERGY PRECISION 4
Info: CROSSTERM ENERGY INCLUDED IN DIHEDRAL
Info: TIMING OUTPUT STEPS    1000000
Info: PRESSURE OUTPUT STEPS  100000
Info: ALCHEMICAL FEP ON
Info: FEP CURRENT LAMBDA VALUE     0
Info: FEP COMPARISON LAMBDA VALUE  0.05
Info: FEP INTRA-ALCHEMICAL NON-BONDED INTERACTIONS WILL BE RETAINED
Info: FEP INTRA-ALCHEMICAL BONDED INTERACTIONS WILL BE RETAINED
Info: FEP VDW SHIFTING COEFFICIENT 5
Info: FEP ELEC. ACTIVE FOR ANNIHILATED PARTICLES BETWEEN LAMBDA = 0 AND LAMBDA = 0.5
Info: FEP ELEC. ACTIVE FOR EXNIHILATED PARTICLES BETWEEN LAMBDA = 0.5 AND LAMBDA = 1
Info: FEP VDW ACTIVE FOR ANNIHILATED PARTICLES BETWEEN LAMBDA = 0 AND LAMBDA = 1
Info: FEP VDW ACTIVE FOR EXNIHILATED PARTICLES BETWEEN LAMBDA = 0 AND LAMBDA = 1
Info: FEP BOND ACTIVE FOR ANNIHILATED PARTICLES BETWEEN LAMBDA = 1 AND LAMBDA = 1
Info: FEP BOND ACTIVE FOR EXNIHILATED PARTICLES BETWEEN LAMBDA = 0 AND LAMBDA = 0
Info: LANGEVIN DYNAMICS ACTIVE
Info: LANGEVIN TEMPERATURE   300
Info: LANGEVIN USING BBK INTEGRATOR
Info: LANGEVIN DAMPING COEFFICIENT IS 1 INVERSE PS
Info: LANGEVIN DYNAMICS APPLIED TO HYDROGENS
Info: LANGEVIN PISTON PRESSURE CONTROL ACTIVE
Info:        TARGET PRESSURE IS 1.01325 BAR
Info:     OSCILLATION PERIOD IS 50 FS
Info:             DECAY TIME IS 25 FS
Info:     PISTON TEMPERATURE IS 300 K
Info:       PRESSURE CONTROL IS GROUP-BASED
Info:    INITIAL STRAIN RATE IS -0.00019985 -0.00019985 -0.00019985
Info:       CELL FLUCTUATION IS ISOTROPIC
Info: PARTICLE MESH EWALD (PME) ACTIVE
Info: PME TOLERANCE               1e-06
Info: PME EWALD COEFFICIENT       0.348832
Info: PME INTERPOLATION ORDER     4
Info: PME GRID DIMENSIONS         32 36 28
Info: PME MAXIMUM GRID SPACING    1
Info: PME CALCULATION WILL BE PERFORMED ON GPU
Info: FULL ELECTROSTATIC EVALUATION FREQUENCY      2
Info: USING VERLET I (r-RESPA) MTS SCHEME.
Info: C1 SPLITTING OF LONG RANGE ELECTROSTATICS
Info: PLACING ATOMS IN PATCHES BY HYDROGEN GROUPS
Info: RIGID BONDS TO HYDROGEN : ALL
Info:         ERROR TOLERANCE : 1e-08
Info:          MAX ITERATIONS : 100
Info: RIGID WATER USING SETTLE ALGORITHM
Info: RANDOM NUMBER SEED     1743632960
Info: USE HYDROGEN BONDS?    NO
Info: Using AMBER format force field!
Info: AMBER PARM FILE        mobley_4149784.prmtop
Info: COORDINATE PDB         mobley_4149784.pdb
Info: Exclusions will be read from PARM file!
Info: SCNB (VDW SCALING)     2
Info: USING ARITHMETIC MEAN TO COMBINE L-J SIGMA PARAMETERS
Info: BINARY COORDINATES     mobley_4149784_equil.coor
Info: SUMMARY OF PARAMETERS:
Info: 6 BONDS
Info: 5 ANGLES
Info:   5 HARMONIC
Info:   0 COSINE-BASED
Info: 3 DIHEDRAL
Info: 0 IMPROPER
Info: 0 CROSSTERM
Info: 0 VDW
Info: 21 VDW_PAIRS
Info: 0 NBTHOLE_PAIRS
Info: To read alchdata from file: mobley_4149784.pdb
Info: To read alchflag data from column: 5
Info: STRUCTURE SUMMARY:
Info: 2953 ATOMS
Info: 2955 BONDS
Info: 38 ANGLES
Info: 68 DIHEDRALS
Info: 0 IMPROPERS
Info: 0 CROSSTERMS
Info: 3040 EXCLUSIONS
Info: 2937 RIGID BONDS
Info: ALCH: 0 ATOMS TO DISAPPEAR IN FINAL STATE
Info: ALCH: 22 ATOMS TO APPEAR IN FINAL STATE
Info: 5922 DEGREES OF FREEDOM
Info: 993 HYDROGEN GROUPS
Info: 3 ATOMS IN LARGEST HYDROGEN GROUP
Info: 993 MIGRATION GROUPS
Info: 3 ATOMS IN LARGEST MIGRATION GROUP
Info: TOTAL MASS = 17854.7 amu
Info: TOTAL CHARGE = 9.99607e-05 e
Info: MASS DENSITY = 0.992443 g/cm^3
Info: ATOM DENSITY = 0.0988456 atoms/A^3
Info: ADDED 0 IMPLICIT EXCLUSIONS
Info: NONBONDED TABLE R-SQUARED SPACING: 0.0625
Info: NONBONDED TABLE SIZE: 705 POINTS
Info: REDUCING NUMBER OF PATCHES TO IMPROVE LOAD BALANCE
Info: REMOVING COM VELOCITY 0.0124836 -0.136064 0.127536
Info: Use 3D box decompostion in PME FFT.
Info: Updated CUDA force table with 4096 elements.
Info: Updated CUDA LJ table with 6 x 6 elements.
Info: Found 24 unique exclusion lists needing 68 bytes
TCL: Running for 1500000 steps
ETITLE: TS BOND ANGLE DIHED IMPRP ELECT VDW BOUNDARY MISC KINETIC TOTAL TEMP POTENTIAL TOTALAVG TEMPAVG PRESSURE GPRESSURE VOLUME PRESSAVG GPRESSAVG
ENERGY: 0 3.5160 6.0036 1.6197 0.0000 -10664.8932 1409.6459 0.0000 0.0000 1806.2241 -7437.8839 306.9684 -9244.1080 -7437.8839 306.9684 -141.2205 -49.8886 29874.8788 -141.2205 -49.8886
ENERGY: 300000 5.7262 3.1542 5.7992 0.0000 -10483.4058 1364.7216 0.0000 0.0000 1739.5668 -7364.4379 295.6399 -9104.0047 -7449.5301 302.4006 -358.9677 -278.8579 30152.0775 -132.8456 -69.8080
ENERGY: 600000 6.2499 6.8055 6.8744 0.0000 -10756.4408 1471.7382 0.0000 0.0000 1744.0077 -7520.7651 296.3947 -9264.7727 -7456.0490 300.1428 64.2512 146.2533 30029.3400 37.8261 107.5862
ENERGY: 900000 5.9824 5.0984 4.3874 0.0000 -10702.3586 1458.6799 0.0000 0.0000 1749.6323 -7478.5781 297.3506 -9228.2104 -7472.3160 300.0313 55.8028 188.7818 30140.6239 25.3067 96.7593
ENERGY: 1200000 8.2480 4.2231 6.7377 0.0000 -10721.6712 1431.3018 0.0000 0.0000 1770.7391 -7500.4215 300.9377 -9271.1606 -7478.5359 299.7046 -222.2846 -190.6879 30109.9517 16.2053 81.5004
ENERGY: 1500000 4.0587 6.3786 4.4343 0.0000 -10534.8551 1421.4380 0.0000 0.0000 1766.1075 -7332.4380 300.1505 -9098.5455 -7463.1544 300.2718 96.5047 188.3985 30357.2099 15.6825 76.7962
TCL: Running FEP window   2: Lambda1 0.05   Lambda2 0.1    [dLambda 0.05  ]
TCL: Setting parameter firsttimestep to 0
TCL: Setting parameter alchLambda to 0.05
Info: NONBONDED TABLE R-SQUARED SPACING: 0.0625
Info: NONBONDED TABLE SIZE: 705 POINTS
TCL: Setting parameter alchLambda2 to 0.1
Info: NONBONDED TABLE R-SQUARED SPACING: 0.0625
Info: NONBONDED TABLE SIZE: 705 POINTS
TCL: Running for 1500000 steps
ETITLE: TS BOND ANGLE DIHED IMPRP ELECT VDW BOUNDARY MISC KINETIC TOTAL TEMP POTENTIAL TOTALAVG TEMPAVG PRESSURE GPRESSURE VOLUME PRESSAVG GPRESSAVG
ENERGY: 0 4.0587 6.3786 4.4343 0.0000 -10534.8556 1430.0836 0.0000 0.0000 1765.2154 -7324.6849 299.9989 -9089.9003 -7324.6849 299.9989 111.1236 204.9024 30357.2099 111.1236 204.9024
ENERGY: 300000 6.0173 6.3277 4.4650 0.0000 -10708.9714 1441.3939 0.0000 0.0000 1735.1185 -7515.6490 294.8839 -9250.7675 -7457.9712 298.8477 -131.0099 -123.3714 30288.6160 9.3496 47.0834
ENERGY: 600000 6.4283 7.0549 4.5142 0.0000 -10634.9449 1372.2542 0.0000 0.0000 1723.3354 -7521.3579 292.8814 -9244.6933 -7449.1254 299.4605 -510.4539 -434.9050 29804.9259 -123.6949 -72.6258
ENERGY: 900000 9.3179 4.9812 5.8870 0.0000 -10749.2002 1500.7479 0.0000 0.0000 1723.7118 -7504.5544 292.9454 -9228.2662 -7456.3006 298.8546 -69.0580 21.2109 30216.7256 -76.6663 -15.5961
ENERGY: 1200000 5.1759 3.4064 4.7674 0.0000 -10637.9229 1403.4902 0.0000 0.0000 1689.5476 -7531.5355 287.1392 -9221.0831 -7456.7399 298.6148 -151.9642 -144.9596 29899.0017 -90.8511 -36.7248
ENERGY: 1500000 6.6277 6.3143 4.6988 0.0000 -10628.1602 1422.8861 0.0000 0.0000 1746.9369 -7440.6964 296.8925 -9187.6333 -7451.7282 299.1244 -121.1982 -40.9218 30090.4786 -36.6058 21.8427
TCL: Running FEP window   3: Lambda1 0.1    Lambda2 0.15000000000000002 [dLambda 0.05000000000000002]
TCL: Setting parameter firsttimestep to 0
TCL: Setting parameter alchLambda to 0.1
Info: NONBONDED TABLE R-SQUARED SPACING: 0.0625
Info: NONBONDED TABLE SIZE: 705 POINTS
TCL: Setting parameter alchLambda2 to 0.15000000000000002
Info: NONBONDED TABLE R-SQUARED SPACING: 0.0625
Info: NONBONDED TABLE SIZE: 705 POINTS
TCL: Running for 1500000 steps
ETITLE: TS BOND ANGLE DIHED IMPRP ELECT VDW BOUNDARY MISC KINETIC TOTAL TEMP POTENTIAL TOTALAVG TEMPAVG PRESSURE GPRESSURE VOLUME PRESSAVG GPRESSAVG
ENERGY: 0 6.6277 6.3143 4.6988 0.0000 -10628.1593 1427.1905 0.0000 0.0000 1746.0696 -7437.2585 296.7451 -9183.3280 -7437.2585 296.7451 -121.5082 -25.6604 30090.4786 -121.5082 -25.6604
ENERGY: 300000 7.6270 4.5913 4.1933 0.0000 -10697.4986 1498.9191 0.0000 0.0000 1756.7379 -7425.4301 298.5582 -9182.1680 -7452.0706 298.5976 476.9929 535.8027 30260.0615 -179.7366 -104.0068
ENERGY: 600000 4.7685 10.0807 4.0820 0.0000 -10712.8479 1487.8151 0.0000 0.0000 1762.8598 -7443.2418 299.5986 -9206.1016 -7434.9438 298.9973 492.8139 571.3099 29854.0654 -148.1495 -79.9443
ENERGY: 900000 5.6284 5.6196 8.1116 0.0000 -10676.4149 1504.3242 0.0000 0.0000 1736.2114 -7416.5197 295.0697 -9152.7311 -7432.2155 299.0578 450.7953 492.9707 30690.8101 -15.2778 49.2858
ENERGY: 1200000 6.7920 10.2274 7.9841 0.0000 -10554.5136 1415.0648 0.0000 0.0000 1757.2163 -7357.2289 298.6395 -9114.4453 -7427.5654 299.9472 -345.3194 -286.5623 30692.1432 -32.5475 34.6619
ENERGY: 1500000 5.3682 5.7269 6.6329 0.0000 -10633.1030 1439.2605 0.0000 0.0000 1793.1409 -7382.9735 304.7449 -9176.1144 -7427.8647 300.0329 52.2343 74.6912 29990.5532 62.2010 126.3802
TCL: Running FEP window   4: Lambda1 0.15000000000000002 Lambda2 0.2    [dLambda 0.04999999999999999]
TCL: Setting parameter firsttimestep to 0
TCL: Setting parameter alchLambda to 0.15000000000000002
Info: NONBONDED TABLE R-SQUARED SPACING: 0.0625
Info: NONBONDED TABLE SIZE: 705 POINTS
TCL: Setting parameter alchLambda2 to 0.2
Info: NONBONDED TABLE R-SQUARED SPACING: 0.0625
Info: NONBONDED TABLE SIZE: 705 POINTS
TCL: Running for 1500000 steps
ETITLE: TS BOND ANGLE DIHED IMPRP ELECT VDW BOUNDARY MISC KINETIC TOTAL TEMP POTENTIAL TOTALAVG TEMPAVG PRESSURE GPRESSURE VOLUME PRESSAVG GPRESSAVG
ENERGY: 0 5.3682 5.7269 6.6329 0.0000 -10633.1025 1439.4074 0.0000 0.0000 1792.2389 -7383.7281 304.5916 -9175.9671 -7383.7281 304.5916 5.7831 82.3966 29990.5532 5.7831 82.3966
ENERGY: 300000 3.3889 3.2715 6.1335 0.0000 -10598.0792 1411.3077 0.0000 0.0000 1806.6823 -7367.2953 307.0462 -9173.9776 -7458.1903 303.9261 55.8205 63.8756 30321.7358 -170.7088 -103.7825
ENERGY: 600000 5.3192 3.1882 4.1715 0.0000 -10704.5765 1468.0329 0.0000 0.0000 1804.9759 -7418.8888 306.7562 -9223.8646 -7435.0780 304.2530 292.1057 390.1827 30158.3740 -185.2106 -112.4061
ENERGY: 900000 9.9446 6.5091 3.5659 0.0000 -10633.6409 1390.9348 0.0000 0.0000 1777.1908 -7445.4958 302.0341 -9222.6865 -7444.8514 302.4950 -579.3398 -525.6689 30231.0578 -170.3065 -109.5727
ENERGY: 1200000 3.0808 4.4443 4.0104 0.0000 -10644.4760 1411.7611 0.0000 0.0000 1757.5885 -7463.5909 298.7027 -9221.1794 -7452.3104 301.7240 -236.5675 -159.6816 30096.9372 -153.1975 -92.5016
ENERGY: 1500000 8.6002 1.8417 3.9048 0.0000 -10832.9851 1545.0758 0.0000 0.0000 1754.7823 -7518.7804 298.2258 -9273.5626 -7458.7787 301.5386 488.3622 547.9433 30216.1304 -122.6691 -67.7114
TCL: Running FEP window   5: Lambda1 0.2    Lambda2 0.25   [dLambda 0.04999999999999999]
TCL: Setting parameter firsttimestep to 0
TCL: Setting parameter alchLambda to 0.2
Info: NONBONDED TABLE R-SQUARED SPACING: 0.0625
Info: NONBONDED TABLE SIZE: 705 POINTS
TCL: Setting parameter alchLambda2 to 0.25
Info: NONBONDED TABLE R-SQUARED SPACING: 0.0625
Info: NONBONDED TABLE SIZE: 705 POINTS
TCL: Running for 1500000 steps
ETITLE: TS BOND ANGLE DIHED IMPRP ELECT VDW BOUNDARY MISC KINETIC TOTAL TEMP POTENTIAL TOTALAVG TEMPAVG PRESSURE GPRESSURE VOLUME PRESSAVG GPRESSAVG
ENERGY: 0 8.6002 1.8417 3.9048 0.0000 -10832.9858 1544.7542 0.0000 0.0000 1753.9060 -7519.9790 298.0769 -9273.8850 -7519.9790 298.0769 462.0833 553.4028 30216.1304 462.0833 553.4028
ENERGY: 300000 5.7380 3.0689 4.7224 0.0000 -10598.7402 1440.9107 0.0000 0.0000 1733.5257 -7410.7747 294.6132 -9144.3003 -7440.3763 297.7871 -67.7190 21.5590 30823.7365 -74.3626 -9.1400
ENERGY: 600000 7.5581 3.7930 5.7921 0.0000 -10816.3652 1493.6960 0.0000 0.0000 1772.5016 -7533.0243 301.2372 -9305.5259 -7426.4871 299.9325 224.6637 246.9826 30429.8791 -8.9086 40.8176
ENERGY: 900000 9.5856 7.2187 5.0151 0.0000 -10679.3546 1441.5805 0.0000 0.0000 1799.9221 -7416.0325 305.8973 -9215.9547 -7416.7278 301.5661 -49.8113 -60.4877 30330.7288 62.1176 107.7082
ENERGY: 1200000 8.0076 4.1102 3.5347 0.0000 -10642.1771 1405.9664 0.0000 0.0000 1734.2778 -7486.2804 294.7411 -9220.5582 -7427.0016 300.8122 -419.7129 -409.0957 30437.9697 92.4309 142.6574
ENERGY: 1500000 4.0143 5.6666 3.7085 0.0000 -10640.8885 1386.7326 0.0000 0.0000 1778.2753 -7462.4913 302.2184 -9240.7665 -7436.0565 300.4499 -326.8642 -221.8113 29844.6368 76.7437 130.9179
TCL: Running FEP window   6: Lambda1 0.25   Lambda2 0.3    [dLambda 0.04999999999999999]
TCL: Setting parameter firsttimestep to 0
TCL: Setting parameter alchLambda to 0.25
Info: NONBONDED TABLE R-SQUARED SPACING: 0.0625
Info: NONBONDED TABLE SIZE: 705 POINTS
TCL: Setting parameter alchLambda2 to 0.3
Info: NONBONDED TABLE R-SQUARED SPACING: 0.0625
Info: NONBONDED TABLE SIZE: 705 POINTS
TCL: Running for 1500000 steps
ETITLE: TS BOND ANGLE DIHED IMPRP ELECT VDW BOUNDARY MISC KINETIC TOTAL TEMP POTENTIAL TOTALAVG TEMPAVG PRESSURE GPRESSURE VOLUME PRESSAVG GPRESSAVG
ENERGY: 0 4.0143 5.6666 3.7084 0.0000 -10640.8887 1386.6970 0.0000 0.0000 1777.3943 -7463.4081 302.0687 -9240.8024 -7463.4081 302.0687 -300.1443 -213.5413 29844.6368 -300.1443 -213.5413
ENERGY: 300000 5.6326 5.0145 4.8374 0.0000 -10682.3318 1399.6518 0.0000 0.0000 1747.9475 -7519.2481 297.0642 -9267.1956 -7462.6716 301.1411 -568.1369 -477.3707 30127.5519 56.8368 132.7155
ENERGY: 600000 6.9362 5.4577 8.1738 0.0000 -10648.3243 1429.1957 0.0000 0.0000 1805.1731 -7393.3878 306.7897 -9198.5609 -7418.1417 302.6430 3.0949 28.2547 30391.5826 -5.3990 57.6410
ENERGY: 900000 11.2865 4.5672 8.2833 0.0000 -10662.8602 1425.3391 0.0000 0.0000 1748.7248 -7464.6593 297.1963 -9213.3841 -7420.4328 302.3840 -417.7412 -362.9799 30410.9957 35.3127 92.0885
ENERGY: 1200000 4.6177 2.6314 3.8294 0.0000 -10559.6125 1354.4820 0.0000 0.0000 1702.9066 -7491.1455 289.4095 -9194.0520 -7438.2976 301.4640 -643.5221 -622.3826 30627.3664 -88.8714 -40.2136
ENERGY: 1500000 6.8805 5.4026 6.5859 0.0000 -10600.3068 1368.8784 0.0000 0.0000 1763.4420 -7449.1173 299.6975 -9212.5593 -7443.4453 301.0455 -608.1926 -484.5768 29989.0724 -135.4295 -82.5129
TCL: Running FEP window   7: Lambda1 0.3    Lambda2 0.35   [dLambda 0.04999999999999999]
TCL: Setting parameter firsttimestep to 0
TCL: Setting parameter alchLambda to 0.3
Info: NONBONDED TABLE R-SQUARED SPACING: 0.0625
Info: NONBONDED TABLE SIZE: 705 POINTS
TCL: Setting parameter alchLambda2 to 0.35
Info: NONBONDED TABLE R-SQUARED SPACING: 0.0625
Info: NONBONDED TABLE SIZE: 705 POINTS
TCL: Running for 1500000 steps
ETITLE: TS BOND ANGLE DIHED IMPRP ELECT VDW BOUNDARY MISC KINETIC TOTAL TEMP POTENTIAL TOTALAVG TEMPAVG PRESSURE GPRESSURE VOLUME PRESSAVG GPRESSAVG
ENERGY: 0 6.8805 5.4026 6.5859 0.0000 -10600.3071 1369.8527 0.0000 0.0000 1762.5799 -7449.0055 299.5510 -9211.5854 -7449.0055 299.5510 -556.9345 -472.0494 29989.0724 -556.9345 -472.0494
ENERGY: 300000 8.2438 2.7626 7.5893 0.0000 -10743.9222 1506.5606 0.0000 0.0000 1787.2595 -7431.5064 303.7453 -9218.7660 -7433.3080 301.8926 685.0128 732.5559 30032.3956 -97.8753 -31.9186
ENERGY: 600000 10.9551 6.5218 3.1790 0.0000 -10530.4109 1367.0431 0.0000 0.0000 1792.0845 -7350.6274 304.5653 -9142.7119 -7440.8757 300.1605 -320.6773 -296.2320 30281.2424 -105.7755 -62.2601
ENERGY: 900000 6.1258 6.3620 5.8266 0.0000 -10530.3522 1375.8046 0.0000 0.0000 1720.4293 -7415.8038 292.3875 -9136.2331 -7437.8430 299.6937 -312.5911 -281.6704 30353.4359 -105.0497 -51.2020
ENERGY: 1200000 8.5082 4.7043 5.2121 0.0000 -10632.0279 1407.1995 0.0000 0.0000 1780.2289 -7426.1749 302.5505 -9206.4038 -7436.4873 299.4529 -204.9921 -125.2550 30342.4279 -189.3217 -132.7340
ENERGY: 1500000 4.8761 7.3228 6.5621 0.0000 -10714.2937 1540.7371 0.0000 0.0000 1699.9994 -7454.7962 288.9154 -9154.7956 -7431.9949 299.4793 1029.8410 1091.5895 30014.6025 -100.1691 -42.7903
TCL: Running FEP window   8: Lambda1 0.35   Lambda2 0.39999999999999997 [dLambda 0.04999999999999999]
TCL: Setting parameter firsttimestep to 0
TCL: Setting parameter alchLambda to 0.35
Info: NONBONDED TABLE R-SQUARED SPACING: 0.0625
Info: NONBONDED TABLE SIZE: 705 POINTS
TCL: Setting parameter alchLambda2 to 0.39999999999999997
Info: NONBONDED TABLE R-SQUARED SPACING: 0.0625
Info: NONBONDED TABLE SIZE: 705 POINTS
TCL: Running for 1500000 steps
ETITLE: TS BOND ANGLE DIHED IMPRP ELECT VDW BOUNDARY MISC KINETIC TOTAL TEMP POTENTIAL TOTALAVG TEMPAVG PRESSURE GPRESSURE VOLUME PRESSAVG GPRESSAVG
ENERGY: 0 4.8761 7.3228 6.5621 0.0000 -10714.2939 1541.5761 0.0000 0.0000 1699.1405 -7454.8163 288.7695 -9153.9568 -7454.8163 288.7695 1027.6127 1104.9997 30014.6025 1027.6127 1104.9997
ENERGY: 300000 7.7723 5.3520 4.0040 0.0000 -10466.5852 1281.2693 0.0000 0.0000 1725.8174 -7442.3702 293.3032 -9168.1876 -7473.0379 293.4402 -1240.3261 -1169.1130 30308.1452 81.2761 160.5586
ENERGY: 600000 4.9196 9.0898 7.5619 0.0000 -10646.8152 1433.8735 0.0000 0.0000 1789.5501 -7401.8204 304.1346 -9191.3705 -7467.9729 297.4223 -203.2297 -119.7420 30131.8778 66.7078 134.2974
ENERGY: 900000 4.6974 5.7141 4.7196 0.0000 -10606.1099 1375.4932 0.0000 0.0000 1835.8049 -7379.6807 311.9956 -9215.4855 -7447.5110 299.0155 -750.6566 -723.4001 30751.7849 -54.3706 6.6034
ENERGY: 1200000 7.7422 6.6921 7.4444 0.0000 -10802.7919 1479.8827 0.0000 0.0000 1774.3425 -7526.6879 301.5501 -9301.0304 -7454.6281 299.0690 -244.9617 -190.3879 30444.0300 -113.2714 -58.8631
ENERGY: 1500000 6.0209 3.1063 6.8577 0.0000 -10664.2439 1439.4463 0.0000 0.0000 1747.2297 -7461.5831 296.9422 -9208.8128 -7446.7806 300.3175 -38.8602 -12.2596 30462.6986 -81.7669 -29.1858
TCL: Running FEP window   9: Lambda1 0.39999999999999997 Lambda2 0.44999999999999996 [dLambda 0.04999999999999999]
TCL: Setting parameter firsttimestep to 0
TCL: Setting parameter alchLambda to 0.39999999999999997
Info: NONBONDED TABLE R-SQUARED SPACING: 0.0625
Info: NONBONDED TABLE SIZE: 705 POINTS
TCL: Setting parameter alchLambda2 to 0.44999999999999996
Info: NONBONDED TABLE R-SQUARED SPACING: 0.0625
Info: NONBONDED TABLE SIZE: 705 POINTS
TCL: Running for 1500000 steps
ETITLE: TS BOND ANGLE DIHED IMPRP ELECT VDW BOUNDARY MISC KINETIC TOTAL TEMP POTENTIAL TOTALAVG TEMPAVG PRESSURE GPRESSURE VOLUME PRESSAVG GPRESSAVG
ENERGY: 0 6.0208 3.1063 6.8577 0.0000 -10664.2436 1441.9533 0.0000 0.0000 1746.3270 -7459.9785 296.7888 -9206.3055 -7459.9785 296.7888 -77.9648 15.3471 30462.6986 -77.9648 15.3471
ENERGY: 300000 3.5991 3.8108 5.7480 0.0000 -10613.6811 1304.7784 0.0000 0.0000 1781.0463 -7514.6984 302.6894 -9295.7447 -7473.8621 300.7672 -1259.3477 -1166.2784 30808.6967 11.2377 80.5727
ENERGY: 600000 5.7289 4.2023 5.5462 0.0000 -10639.8746 1422.5735 0.0000 0.0000 1740.3623 -7461.4615 295.7751 -9201.8238 -7476.3959 298.7383 35.1160 197.1506 29912.8136 44.2711 134.6047
ENERGY: 900000 5.9602 8.4076 5.8343 0.0000 -10635.0347 1387.7715 0.0000 0.0000 1754.8305 -7472.2306 298.2340 -9227.0611 -7479.6779 298.0241 -575.3140 -538.3508 30337.3160 -25.3963 50.5770
ENERGY: 1200000 7.8283 2.1191 7.2924 0.0000 -10590.0483 1352.5054 0.0000 0.0000 1810.2099 -7410.0933 307.6457 -9220.3032 -7465.6596 299.2312 -1014.7407 -919.8105 31036.5039 -61.4109 18.5346
ENERGY: 1500000 4.9587 5.0112 5.2064 0.0000 -10614.6189 1385.8265 0.0000 0.0000 1756.3902 -7457.2260 298.4991 -9213.6161 -7469.9859 299.2805 -670.2089 -582.1541 30800.5440 12.2059 87.4052
TCL: Running FEP window  10: Lambda1 0.44999999999999996 Lambda2 0.49999999999999994 [dLambda 0.04999999999999999]
TCL: Setting parameter firsttimestep to 0
TCL: Setting parameter alchLambda to 0.44999999999999996
Info: NONBONDED TABLE R-SQUARED SPACING: 0.0625
Info: NONBONDED TABLE SIZE: 705 POINTS
TCL: Setting parameter alchLambda2 to 0.49999999999999994
Info: NONBONDED TABLE R-SQUARED SPACING: 0.0625
Info: NONBONDED TABLE SIZE: 705 POINTS
TCL: Running for 1500000 steps
ETITLE: TS BOND ANGLE DIHED IMPRP ELECT VDW BOUNDARY MISC KINETIC TOTAL TEMP POTENTIAL TOTALAVG TEMPAVG PRESSURE GPRESSURE VOLUME PRESSAVG GPRESSAVG
ENERGY: 0 4.9587 5.0112 5.2064 0.0000 -10614.6165 1385.1891 0.0000 0.0000 1755.4995 -7458.7516 298.3477 -9214.2511 -7458.7516 298.3477 -668.5407 -578.1715 30800.5440 -668.5407 -578.1715
ENERGY: 300000 8.5176 5.7251 3.1357 0.0000 -10669.9105 1406.8431 0.0000 0.0000 1747.2109 -7498.4781 296.9391 -9245.6890 -7449.6579 299.1284 -467.5936 -469.9133 30576.3484 -168.1964 -97.9806
ENERGY: 600000 6.5370 5.1641 8.8938 0.0000 -10643.7111 1406.5191 0.0000 0.0000 1797.2030 -7419.3942 305.4352 -9216.5971 -7434.3794 300.9897 -95.0583 -86.6297 30304.2881 -250.0888 -193.7326
ENERGY: 900000 3.8422 4.5025 6.9073 0.0000 -10560.8508 1367.0097 0.0000 0.0000 1790.2796 -7388.3094 304.2586 -9178.5890 -7430.1956 301.7173 -299.7983 -248.5844 30330.5361 -322.8474 -263.7154
ENERGY: 1200000 7.5339 5.0019 4.5702 0.0000 -10646.7649 1437.8921 0.0000 0.0000 1746.2779 -7445.4889 296.7805 -9191.7668 -7443.5517 301.3227 -206.4478 -161.4277 30691.6725 -210.2034 -148.7438
ENERGY: 1500000 5.2485 3.5886 6.6161 0.0000 -10786.0013 1510.3867 0.0000 0.0000 1819.7443 -7440.4171 309.2661 -9260.1614 -7449.9621 300.9796 481.1266 484.8034 30216.8925 -164.2985 -105.8522
TCL: Running FEP window  11: Lambda1 0.49999999999999994 Lambda2 0.5499999999999999 [dLambda 0.04999999999999999]
TCL: Setting parameter firsttimestep to 0
TCL: Setting parameter alchLambda to 0.49999999999999994
Info: NONBONDED TABLE R-SQUARED SPACING: 0.0625
Info: NONBONDED TABLE SIZE: 705 POINTS
TCL: Setting parameter alchLambda2 to 0.5499999999999999
Info: NONBONDED TABLE R-SQUARED SPACING: 0.0625
Info: NONBONDED TABLE SIZE: 705 POINTS
TCL: Running for 1500000 steps
ETITLE: TS BOND ANGLE DIHED IMPRP ELECT VDW BOUNDARY MISC KINETIC TOTAL TEMP POTENTIAL TOTALAVG TEMPAVG PRESSURE GPRESSURE VOLUME PRESSAVG GPRESSAVG
ENERGY: 0 5.2485 3.5886 6.6161 0.0000 -10786.0015 1511.1576 0.0000 0.0000 1818.8569 -7440.5338 309.1153 -9259.3907 -7440.5338 309.1153 437.5418 502.0098 30216.8925 437.5418 502.0098
ENERGY: 300000 9.6356 5.6671 5.9381 0.0000 -10678.0106 1430.6662 0.0000 0.0000 1766.4055 -7459.6980 300.2012 -9226.1035 -7431.0925 304.6495 -347.8454 -239.3475 30197.3716 93.4231 180.8307
ENERGY: 600000 5.0134 10.4948 5.5560 0.0000 -10674.9918 1439.8153 0.0000 0.0000 1726.5924 -7487.5200 293.4349 -9214.1123 -7460.8955 301.9833 3.8879 65.1649 30233.2829 79.7583 147.0265
ENERGY: 900000 4.1214 1.9688 7.4220 0.0000 -10625.7677 1436.8737 0.0000 0.0000 1747.3845 -7427.9974 296.9686 -9175.3819 -7469.5299 300.0279 3.8447 127.3205 30615.6604 47.4270 118.4526
ENERGY: 1200000 7.2067 5.9692 5.4732 0.0000 -10758.9519 1483.0528 0.0000 0.0000 1786.9349 -7470.3151 303.6902 -9257.2501 -7469.1976 299.6883 94.7447 184.3127 30361.1818 46.8697 120.3188
ENERGY: 1500000 5.8235 6.4757 5.7926 0.0000 -10529.5814 1350.6448 0.0000 0.0000 1736.7351 -7424.1098 295.1587 -9160.8448 -7469.6456 299.9175 -820.0495 -724.3751 30821.8798 31.5323 102.5940
TCL: Running FEP window  12: Lambda1 0.5499999999999999 Lambda2 0.6    [dLambda 0.050000000000000044]
TCL: Setting parameter firsttimestep to 0
TCL: Setting parameter alchLambda to 0.5499999999999999
Info: NONBONDED TABLE R-SQUARED SPACING: 0.0625
Info: NONBONDED TABLE SIZE: 705 POINTS
TCL: Setting parameter alchLambda2 to 0.6
Info: NONBONDED TABLE R-SQUARED SPACING: 0.0625
Info: NONBONDED TABLE SIZE: 705 POINTS
TCL: Running for 1500000 steps
ETITLE: TS BOND ANGLE DIHED IMPRP ELECT VDW BOUNDARY MISC KINETIC TOTAL TEMP POTENTIAL TOTALAVG TEMPAVG PRESSURE GPRESSURE VOLUME PRESSAVG GPRESSAVG
ENERGY: 0 5.8235 6.4757 5.7926 0.0000 -10529.6894 1349.9960 0.0000 0.0000 1735.8872 -7425.7144 295.0146 -9161.6016 -7425.7144 295.0146 -812.6707 -720.7138 30821.8798 -812.6707 -720.7138
ENERGY: 300000 5.1432 7.2241 2.2583 0.0000 -10756.9146 1450.5468 0.0000 0.0000 1810.6083 -7481.1339 307.7135 -9291.7422 -7439.7746 300.9935 -52.9818 8.2523 30391.9178 -479.4317 -402.0673
ENERGY: 600000 3.8599 4.6570 5.0221 0.0000 -10478.8596 1387.2201 0.0000 0.0000 1787.7023 -7290.3983 303.8206 -9078.1006 -7418.8524 300.7143 -437.6976 -366.9193 31233.8432 -372.0105 -294.7391
ENERGY: 900000 7.7950 3.5849 6.2758 0.0000 -10551.4923 1393.2064 0.0000 0.0000 1682.2829 -7458.3473 285.9045 -9140.6302 -7440.2644 298.9910 -502.7546 -383.2396 30450.9295 -271.8246 -190.1552
ENERGY: 1200000 6.8375 7.1770 5.9651 0.0000 -10774.8972 1482.1789 0.0000 0.0000 1805.0138 -7467.7247 306.7627 -9272.7386 -7449.0450 299.7472 354.2862 384.8687 30327.3671 -205.3592 -128.2927
ENERGY: 1500000 4.2998 4.8037 3.8556 0.0000 -10761.8907 1472.5349 0.0000 0.0000 1765.5300 -7510.8666 300.0524 -9276.3967 -7448.4499 300.5469 206.5968 223.5522 30408.3371 -231.0258 -159.3202
TCL: Running FEP window  13: Lambda1 0.6    Lambda2 0.65   [dLambda 0.050000000000000044]
TCL: Setting parameter firsttimestep to 0
TCL: Setting parameter alchLambda to 0.6
Info: NONBONDED TABLE R-SQUARED SPACING: 0.0625
Info: NONBONDED TABLE SIZE: 705 POINTS
TCL: Setting parameter alchLambda2 to 0.65
Info: NONBONDED TABLE R-SQUARED SPACING: 0.0625
Info: NONBONDED TABLE SIZE: 705 POINTS
TCL: Running for 1500000 steps
ETITLE: TS BOND ANGLE DIHED IMPRP ELECT VDW BOUNDARY MISC KINETIC TOTAL TEMP POTENTIAL TOTALAVG TEMPAVG PRESSURE GPRESSURE VOLUME PRESSAVG GPRESSAVG
ENERGY: 0 4.2998 4.8037 3.8556 0.0000 -10761.9703 1472.7967 0.0000 0.0000 1764.6571 -7511.5576 299.9040 -9276.2146 -7511.5576 299.9040 155.1169 243.1624 30408.3371 155.1169 243.1624
ENERGY: 300000 6.7386 6.1736 2.5935 0.0000 -10667.8265 1445.6297 0.0000 0.0000 1744.1212 -7462.5698 296.4139 -9206.6910 -7455.6767 299.5115 283.8920 249.7981 30393.4367 284.8459 335.9189
ENERGY: 600000 3.3317 8.3049 2.8410 0.0000 -10751.2301 1486.4611 0.0000 0.0000 1723.9216 -7526.3697 292.9810 -9250.2913 -7474.3545 300.2221 235.3778 359.2289 30587.9445 22.4663 94.0133
ENERGY: 900000 4.0641 6.5417 3.0135 0.0000 -10526.9402 1312.0860 0.0000 0.0000 1774.6387 -7426.5963 301.6004 -9201.2350 -7457.3442 299.4528 -862.6585 -779.2056 30391.6505 -179.3145 -110.0858
ENERGY: 1200000 5.5662 7.8108 6.6933 0.0000 -10759.4397 1491.3961 0.0000 0.0000 1772.4021 -7475.5712 301.2203 -9247.9733 -7457.5205 299.9895 210.1759 300.2512 30386.2174 -133.2743 -61.5618
ENERGY: 1500000 7.9593 5.5561 6.3106 0.0000 -10667.7357 1393.0586 0.0000 0.0000 1745.5168 -7509.3344 296.6511 -9254.8512 -7459.1412 299.8518 -189.8871 -170.2165 30117.5507 -105.0240 -38.7964
TCL: Running FEP window  14: Lambda1 0.65   Lambda2 0.7000000000000001 [dLambda 0.050000000000000044]
TCL: Setting parameter firsttimestep to 0
TCL: Setting parameter alchLambda to 0.65
Info: NONBONDED TABLE R-SQUARED SPACING: 0.0625
Info: NONBONDED TABLE SIZE: 705 POINTS
TCL: Setting parameter alchLambda2 to 0.7000000000000001
Info: NONBONDED TABLE R-SQUARED SPACING: 0.0625
Info: NONBONDED TABLE SIZE: 705 POINTS
TCL: Running for 1500000 steps
ETITLE: TS BOND ANGLE DIHED IMPRP ELECT VDW BOUNDARY MISC KINETIC TOTAL TEMP POTENTIAL TOTALAVG TEMPAVG PRESSURE GPRESSURE VOLUME PRESSAVG GPRESSAVG
ENERGY: 0 7.9593 5.5561 6.3106 0.0000 -10667.5307 1393.2705 0.0000 0.0000 1744.6408 -7509.7935 296.5023 -9254.4343 -7509.7935 296.5023 -244.6717 -155.4178 30117.5507 -244.6717 -155.4178
ENERGY: 300000 8.8838 3.4725 7.0095 0.0000 -10621.4409 1438.2008 0.0000 0.0000 1777.4181 -7386.4561 302.0728 -9163.8742 -7491.1148 297.1130 -28.7091 55.4001 30518.8655 -258.3583 -172.1252
ENERGY: 600000 6.3757 5.2992 8.2863 0.0000 -10677.6182 1422.1080 0.0000 0.0000 1692.0423 -7543.5067 287.5631 -9235.5490 -7484.4408 295.5985 244.8449 305.5310 30075.9649 -271.3353 -207.5152
ENERGY: 900000 6.7395 5.6371 7.5019 0.0000 -10682.4602 1404.1746 0.0000 0.0000 1775.7291 -7482.6780 301.7857 -9258.4071 -7479.6118 297.0242 -469.8300 -413.4605 30382.8251 -252.8195 -195.7212
ENERGY: 1200000 5.3639 3.4958 3.9108 0.0000 -10565.5496 1370.5551 0.0000 0.0000 1791.0705 -7391.1535 304.3930 -9182.2240 -7462.1786 298.0738 -589.5277 -582.6806 30841.8323 -219.6240 -171.4048
ENERGY: 1500000 5.6712 3.9919 3.5702 0.0000 -10585.3055 1421.7578 0.0000 0.0000 1757.6356 -7392.6788 298.7107 -9150.3144 -7465.8723 297.9365 185.5676 177.2448 30305.6555 -209.5688 -166.8136
TCL: Running FEP window  15: Lambda1 0.7000000000000001 Lambda2 0.7500000000000001 [dLambda 0.050000000000000044]
TCL: Setting parameter firsttimestep to 0
TCL: Setting parameter alchLambda to 0.7000000000000001
Info: NONBONDED TABLE R-SQUARED SPACING: 0.0625
Info: NONBONDED TABLE SIZE: 705 POINTS
TCL: Setting parameter alchLambda2 to 0.7500000000000001
Info: NONBONDED TABLE R-SQUARED SPACING: 0.0625
Info: NONBONDED TABLE SIZE: 705 POINTS
TCL: Running for 1500000 steps
ETITLE: TS BOND ANGLE DIHED IMPRP ELECT VDW BOUNDARY MISC KINETIC TOTAL TEMP POTENTIAL TOTALAVG TEMPAVG PRESSURE GPRESSURE VOLUME PRESSAVG GPRESSAVG
ENERGY: 0 5.6712 3.9919 3.5702 0.0000 -10585.5335 1421.5145 0.0000 0.0000 1756.7550 -7394.0307 298.5611 -9150.7857 -7394.0307 298.5611 107.8474 187.2644 30305.6555 107.8474 187.2644
ENERGY: 300000 8.6922 4.9591 3.7459 0.0000 -10782.8989 1541.9931 0.0000 0.0000 1781.3114 -7442.1972 302.7344 -9223.5086 -7423.7851 299.8409 525.6311 563.0910 30535.1021 17.3246 87.7134
ENERGY: 600000 6.7732 6.4537 5.8081 0.0000 -10642.3768 1435.5841 0.0000 0.0000 1799.7471 -7388.0107 305.8676 -9187.7578 -7415.9821 300.5231 -178.3403 -99.7469 30619.5233 28.6441 106.1508
ENERGY: 900000 6.1594 3.1294 9.1816 0.0000 -10700.5351 1403.0921 0.0000 0.0000 1792.1719 -7486.8007 304.5802 -9278.9725 -7425.9312 301.0340 -265.4171 -183.8749 30076.9121 -49.9662 20.6480
ENERGY: 1200000 5.9755 4.5193 5.5906 0.0000 -10572.1869 1381.3422 0.0000 0.0000 1748.9732 -7425.7861 297.2386 -9174.7593 -7438.9316 300.5602 -502.2524 -396.8562 30495.2134 -43.2289 27.4047
ENERGY: 1500000 5.2542 4.9170 2.6914 0.0000 -10731.2400 1463.7156 0.0000 0.0000 1749.9891 -7504.6727 297.4112 -9254.6617 -7441.4799 300.3252 394.5283 455.9625 30329.6611 -10.0745 52.0111
TCL: Running FEP window  16: Lambda1 0.7500000000000001 Lambda2 0.8000000000000002 [dLambda 0.050000000000000044]
TCL: Setting parameter firsttimestep to 0
TCL: Setting parameter alchLambda to 0.7500000000000001
Info: NONBONDED TABLE R-SQUARED SPACING: 0.0625
Info: NONBONDED TABLE SIZE: 705 POINTS
TCL: Setting parameter alchLambda2 to 0.8000000000000002
Info: NONBONDED TABLE R-SQUARED SPACING: 0.0625
Info: NONBONDED TABLE SIZE: 705 POINTS
TCL: Running for 1500000 steps
ETITLE: TS BOND ANGLE DIHED IMPRP ELECT VDW BOUNDARY MISC KINETIC TOTAL TEMP POTENTIAL TOTALAVG TEMPAVG PRESSURE GPRESSURE VOLUME PRESSAVG GPRESSAVG
ENERGY: 0 5.2542 4.9170 2.6914 0.0000 -10731.8895 1463.2799 0.0000 0.0000 1749.1133 -7506.6336 297.2624 -9255.7469 -7506.6336 297.2624 378.3947 466.1739 30329.6611 378.3947 466.1739
ENERGY: 300000 7.4389 9.1573 5.0570 0.0000 -10730.4793 1465.1684 0.0000 0.0000 1772.4198 -7471.2380 301.2233 -9243.6578 -7495.2189 300.1563 346.0734 383.4788 30077.0158 401.1764 464.4604
ENERGY: 600000 4.5118 3.4482 2.8844 0.0000 -10672.8890 1421.4344 0.0000 0.0000 1735.9432 -7504.6669 295.0241 -9240.6101 -7474.7459 299.2854 -21.8819 29.6634 30288.7127 131.0287 179.6190
ENERGY: 900000 5.6402 7.0562 3.2564 0.0000 -10683.8650 1410.0645 0.0000 0.0000 1778.5100 -7479.3378 302.2583 -9257.8479 -7485.9814 298.2343 -395.6135 -421.1568 30483.9239 -72.3547 -24.7890
ENERGY: 1200000 8.1236 6.7224 5.1825 0.0000 -10589.3006 1367.9342 0.0000 0.0000 1760.3685 -7440.9694 299.1752 -9201.3379 -7472.5835 299.5608 -120.9471 -84.2169 30100.7339 -72.6560 -28.1338
ENERGY: 1500000 4.9691 3.3071 6.3803 0.0000 -10601.8328 1369.4882 0.0000 0.0000 1743.4241 -7474.2640 296.2955 -9217.6881 -7464.7620 299.9282 -29.9539 18.8671 29991.4335 -69.9421 -14.8497
TCL: Running FEP window  17: Lambda1 0.8000000000000002 Lambda2 0.8500000000000002 [dLambda 0.050000000000000044]
TCL: Setting parameter firsttimestep to 0
TCL: Setting parameter alchLambda to 0.8000000000000002
Info: NONBONDED TABLE R-SQUARED SPACING: 0.0625
Info: NONBONDED TABLE SIZE: 705 POINTS
TCL: Setting parameter alchLambda2 to 0.8500000000000002
Info: NONBONDED TABLE R-SQUARED SPACING: 0.0625
Info: NONBONDED TABLE SIZE: 705 POINTS
TCL: Running for 1500000 steps
ETITLE: TS BOND ANGLE DIHED IMPRP ELECT VDW BOUNDARY MISC KINETIC TOTAL TEMP POTENTIAL TOTALAVG TEMPAVG PRESSURE GPRESSURE VOLUME PRESSAVG GPRESSAVG
ENERGY: 0 4.9691 3.3071 6.3803 0.0000 -10602.2214 1370.7485 0.0000 0.0000 1742.5364 -7474.2800 296.1446 -9216.8164 -7474.2800 296.1446 -39.5011 55.6044 29991.4335 -39.5011 55.6044
ENERGY: 300000 3.6735 3.2951 4.0162 0.0000 -10509.0389 1310.4834 0.0000 0.0000 1729.9636 -7457.6070 294.0079 -9187.5706 -7460.1450 299.4418 -860.3462 -805.8383 30679.8708 -215.1824 -153.3923
ENERGY: 600000 3.8569 6.1786 7.0351 0.0000 -10661.1637 1418.0741 0.0000 0.0000 1790.3141 -7435.7050 304.2645 -9226.0191 -7457.5480 301.8774 201.8764 269.9272 29939.7200 -151.4718 -81.5695
ENERGY: 900000 4.0857 3.4734 6.6514 0.0000 -10527.8245 1386.5371 0.0000 0.0000 1783.7192 -7343.3577 303.1436 -9127.0769 -7439.9348 301.2413 -332.0517 -266.2849 30669.9801 -242.7518 -176.3736
ENERGY: 1200000 5.1818 2.6894 4.9652 0.0000 -10688.2941 1436.8777 0.0000 0.0000 1751.0679 -7487.5121 297.5945 -9238.5800 -7446.1965 300.9580 -38.3708 -15.7577 30363.0551 -305.1234 -234.3306
ENERGY: 1500000 7.8500 5.2405 6.5656 0.0000 -10543.0628 1316.5779 0.0000 0.0000 1743.3260 -7463.5028 296.2788 -9206.8288 -7449.6730 300.8240 -771.9457 -743.3054 30287.1490 -331.4120 -270.3397
TCL: Running FEP window  18: Lambda1 0.8500000000000002 Lambda2 0.9000000000000002 [dLambda 0.050000000000000044]
TCL: Setting parameter firsttimestep to 0
TCL: Setting parameter alchLambda to 0.8500000000000002
Info: NONBONDED TABLE R-SQUARED SPACING: 0.0625
Info: NONBONDED TABLE SIZE: 705 POINTS
TCL: Setting parameter alchLambda2 to 0.9000000000000002
Info: NONBONDED TABLE R-SQUARED SPACING: 0.0625
Info: NONBONDED TABLE SIZE: 705 POINTS
TCL: Running for 1500000 steps
ETITLE: TS BOND ANGLE DIHED IMPRP ELECT VDW BOUNDARY MISC KINETIC TOTAL TEMP POTENTIAL TOTALAVG TEMPAVG PRESSURE GPRESSURE VOLUME PRESSAVG GPRESSAVG
ENERGY: 0 7.8500 5.2405 6.5656 0.0000 -10543.9329 1316.1367 0.0000 0.0000 1742.4630 -7465.6772 296.1321 -9208.1402 -7465.6772 296.1321 -824.3080 -731.0817 30287.1490 -824.3080 -731.0817
ENERGY: 300000 8.9388 4.5691 5.5065 0.0000 -10676.7475 1380.9537 0.0000 0.0000 1812.8518 -7463.9276 308.0947 -9276.7795 -7458.5952 303.5358 -418.0349 -378.3380 29965.6311 -103.6032 -59.4407
ENERGY: 600000 7.2194 4.5561 2.3618 0.0000 -10887.5462 1582.9260 0.0000 0.0000 1724.1880 -7566.2949 293.0263 -9290.4829 -7475.5799 299.2722 1002.7006 1101.2257 30157.3063 -5.0528 59.6050
ENERGY: 900000 4.1740 8.1444 7.6205 0.0000 -10670.7816 1423.4314 0.0000 0.0000 1767.8482 -7459.5630 300.4464 -9227.4112 -7457.7111 299.9270 -90.4873 -21.0916 30516.4038 -135.0812 -77.3759
ENERGY: 1200000 3.5035 4.0252 7.1972 0.0000 -10509.8344 1357.2924 0.0000 0.0000 1701.7302 -7436.0860 289.2096 -9137.8162 -7445.1850 299.5729 -452.7306 -442.5499 30886.9110 -285.9212 -229.1101
ENERGY: 1500000 2.2741 6.9099 3.9548 0.0000 -10689.8595 1444.9004 0.0000 0.0000 1748.9470 -7482.8732 297.2341 -9231.8202 -7452.9152 299.1465 264.4199 268.7631 30418.4018 -115.9506 -60.9515
TCL: Running FEP window  19: Lambda1 0.9000000000000002 Lambda2 0.9500000000000003 [dLambda 0.050000000000000044]
TCL: Setting parameter firsttimestep to 0
TCL: Setting parameter alchLambda to 0.9000000000000002
Info: NONBONDED TABLE R-SQUARED SPACING: 0.0625
Info: NONBONDED TABLE SIZE: 705 POINTS
TCL: Setting parameter alchLambda2 to 0.9500000000000003
Info: NONBONDED TABLE R-SQUARED SPACING: 0.0625
Info: NONBONDED TABLE SIZE: 705 POINTS
TCL: Running for 1500000 steps
ETITLE: TS BOND ANGLE DIHED IMPRP ELECT VDW BOUNDARY MISC KINETIC TOTAL TEMP POTENTIAL TOTALAVG TEMPAVG PRESSURE GPRESSURE VOLUME PRESSAVG GPRESSAVG
ENERGY: 0 2.2741 6.9099 3.9548 0.0000 -10690.4003 1444.7221 0.0000 0.0000 1748.0504 -7484.4889 297.0817 -9232.5393 -7484.4889 297.0817 214.0076 287.6420 30418.4018 214.0076 287.6420
ENERGY: 300000 3.3135 2.0352 10.2946 0.0000 -10641.4219 1432.8770 0.0000 0.0000 1748.3529 -7444.5486 297.1331 -9192.9015 -7427.5238 297.9878 30.0712 91.6512 30771.6625 -25.6067 70.0376
ENERGY: 600000 3.7513 4.5838 6.0505 0.0000 -10759.3038 1439.9692 0.0000 0.0000 1751.1390 -7553.8100 297.6066 -9304.9490 -7445.8954 297.8384 -228.2583 -162.3771 30479.4835 -88.4837 -2.8975
ENERGY: 900000 3.8720 8.6219 3.2528 0.0000 -10623.7938 1452.3828 0.0000 0.0000 1747.3721 -7408.2923 296.9664 -9155.6643 -7447.1077 297.5641 -135.1286 -13.5227 30767.7077 -97.1760 -6.0262
ENERGY: 1200000 5.3676 5.9908 6.3707 0.0000 -10656.6964 1393.6782 0.0000 0.0000 1722.6230 -7522.6661 292.7603 -9245.2891 -7452.6071 298.3672 -487.7087 -441.7337 30830.0161 -193.4832 -116.3070
ENERGY: 1500000 8.1987 2.4882 6.1071 0.0000 -10720.9650 1451.9591 0.0000 0.0000 1786.3532 -7465.8586 303.5913 -9252.2119 -7456.3916 298.8880 177.1691 200.7749 30336.7930 -303.8221 -233.3862
TCL: Running FEP window  20: Lambda1 0.9500000000000003 Lambda2 1.0    [dLambda 0.04999999999999971]
TCL: Setting parameter firsttimestep to 0
TCL: Setting parameter alchLambda to 0.9500000000000003
Info: NONBONDED TABLE R-SQUARED SPACING: 0.0625
Info: NONBONDED TABLE SIZE: 705 POINTS
TCL: Setting parameter alchLambda2 to 1.0
Info: NONBONDED TABLE R-SQUARED SPACING: 0.0625
Info: NONBONDED TABLE SIZE: 705 POINTS
TCL: Running for 1500000 steps
ETITLE: TS BOND ANGLE DIHED IMPRP ELECT VDW BOUNDARY MISC KINETIC TOTAL TEMP POTENTIAL TOTALAVG TEMPAVG PRESSURE GPRESSURE VOLUME PRESSAVG GPRESSAVG
ENERGY: 0 8.1987 2.4882 6.1071 0.0000 -10721.5149 1452.2667 0.0000 0.0000 1785.5269 -7466.9273 303.4509 -9252.4542 -7466.9273 303.4509 143.3813 225.8520 30336.7930 143.3813 225.8520
ENERGY: 300000 4.5135 3.2304 3.2450 0.0000 -10562.1496 1350.6221 0.0000 0.0000 1848.8295 -7351.7090 314.2092 -9200.5385 -7469.5443 304.3376 -620.6019 -566.3901 30888.1200 -27.4279 28.2478
ENERGY: 600000 5.9325 4.8005 3.7124 0.0000 -10729.3484 1437.7805 0.0000 0.0000 1796.0122 -7481.1103 305.2328 -9277.1225 -7461.9408 305.2885 -81.0503 -70.1264 30969.3887 6.8150 41.0325
ENERGY: 900000 5.2645 4.0641 3.4358 0.0000 -10719.2476 1445.4018 0.0000 0.0000 1767.7591 -7493.3224 300.4312 -9261.0815 -7479.1219 303.9144 337.7514 398.0127 29718.1897 132.6749 176.9206
ENERGY: 1200000 6.4446 6.3060 4.7301 0.0000 -10685.5755 1418.6974 0.0000 0.0000 1771.8196 -7477.5778 301.1213 -9249.3974 -7478.2515 303.4060 -246.8984 -184.4229 30378.0363 50.7538 95.8695
ENERGY: 1500000 7.4602 5.1126 5.2109 0.0000 -10680.0729 1444.1708 0.0000 0.0000 1820.0404 -7398.0780 309.3164 -9218.1184 -7465.2188 303.1755 438.6960 405.4642 30554.7043 49.4474 90.6765
TCL: Exiting due to exit command.
