Info: SIMULATION PARAMETERS:
Info: TIMESTEP               2
Info: NUMBER OF STEPS        0
Info: STEPS PER CYCLE        10
Info: PERIODIC CELL BASIS 1  32.2399 0 0
Info: PERIODIC CELL BASIS 2  0 30.619 0
Info: PERIODIC CELL BASIS 3  0 0 31.744
Info: PERIODIC CELL CENTER   0 0 0
Info: WRAPPING WATERS AROUND PERIODIC BOUNDARIES ON OUTPUT.
Info: WRAPPING ALL CLUSTERS AROUND PERIODIC BOUNDARIES ON OUTPUT.
Info: FIRST LDB TIMESTEP     50
Info: LAST LDB TIMESTEP     -1
Info: HOM BACKGROUND SCALING 1
Info: PME BACKGROUND SCALING 1
Info: MIN ATOMS PER PATCH    40
Info: EMPTY PATCH LOAD       40 ATOMS
Info: VELOCITY FILE          mobley_7015518_equil.vel
Info: CENTER OF MASS MOVING INITIALLY? NO
Info: DIELECTRIC             1
Info: EXCLUDE                SCALED ONE-FOUR
Info: 1-4 ELECTROSTATICS SCALED BY 0.833333
Info: MODIFIED 1-4 VDW PARAMETERS WILL BE USED
Info: DCD FILENAME           mobley_7015518_prod.dcd
Info: DCD FREQUENCY          100000
Info: DCD FIRST STEP         100000
Info: DCD FILE WILL CONTAIN UNIT CELL DATA
Info: XST FILENAME           mobley_7015518_prod.xst
Info: XST FREQUENCY          100000
Info: NO VELOCITY DCD OUTPUT
Info: NO FORCE DCD OUTPUT
Info: OUTPUT FILENAME        mobley_7015518_prod
Info: BINARY OUTPUT FILES WILL BE USED
Info: RESTART FILENAME       mobley_7015518_prod.restart
Info: RESTART FREQUENCY      100000
Info: BINARY RESTART FILES WILL BE USED
Info: CUTOFF                 9
Info: PAIRLIST DISTANCE      11
Info: PAIRLIST SHRINK RATE   0.01
Info: PAIRLIST GROW RATE     0.01
Info: PAIRLIST TRIGGER       0.3
Info: PAIRLISTS PER CYCLE    2
Info: PAIRLISTS ENABLED
Info: MARGIN                 2
Info: HYDROGEN GROUP CUTOFF  2.5
Info: PATCH DIMENSION        15.5
Info: ENERGY OUTPUT STEPS    100000
Info: ENERGY EVALUATION STEPS    100000
Info: OUTPUT ENERGY PRECISION 4
Info: CROSSTERM ENERGY INCLUDED IN DIHEDRAL
Info: TIMING OUTPUT STEPS    1000000
Info: PRESSURE OUTPUT STEPS  100000
Info: ALCHEMICAL FEP ON
Info: FEP CURRENT LAMBDA VALUE     0
Info: FEP COMPARISON LAMBDA VALUE  0.05
Info: FEP INTRA-ALCHEMICAL NON-BONDED INTERACTIONS WILL BE RETAINED
Info: FEP INTRA-ALCHEMICAL BONDED INTERACTIONS WILL BE RETAINED
Info: FEP VDW SHIFTING COEFFICIENT 5
Info: FEP ELEC. ACTIVE FOR ANNIHILATED PARTICLES BETWEEN LAMBDA = 0 AND LAMBDA = 0.5
Info: FEP ELEC. ACTIVE FOR EXNIHILATED PARTICLES BETWEEN LAMBDA = 0.5 AND LAMBDA = 1
Info: FEP VDW ACTIVE FOR ANNIHILATED PARTICLES BETWEEN LAMBDA = 0 AND LAMBDA = 1
Info: FEP VDW ACTIVE FOR EXNIHILATED PARTICLES BETWEEN LAMBDA = 0 AND LAMBDA = 1
Info: FEP BOND ACTIVE FOR ANNIHILATED PARTICLES BETWEEN LAMBDA = 1 AND LAMBDA = 1
Info: FEP BOND ACTIVE FOR EXNIHILATED PARTICLES BETWEEN LAMBDA = 0 AND LAMBDA = 0
Info: LANGEVIN DYNAMICS ACTIVE
Info: LANGEVIN TEMPERATURE   300
Info: LANGEVIN USING BBK INTEGRATOR
Info: LANGEVIN DAMPING COEFFICIENT IS 1 INVERSE PS
Info: LANGEVIN DYNAMICS APPLIED TO HYDROGENS
Info: LANGEVIN PISTON PRESSURE CONTROL ACTIVE
Info:        TARGET PRESSURE IS 1.01325 BAR
Info:     OSCILLATION PERIOD IS 50 FS
Info:             DECAY TIME IS 25 FS
Info:     PISTON TEMPERATURE IS 300 K
Info:       PRESSURE CONTROL IS GROUP-BASED
Info:    INITIAL STRAIN RATE IS -0.000481694 -0.000481694 -0.000481694
Info:       CELL FLUCTUATION IS ISOTROPIC
Info: PARTICLE MESH EWALD (PME) ACTIVE
Info: PME TOLERANCE               1e-06
Info: PME EWALD COEFFICIENT       0.348832
Info: PME INTERPOLATION ORDER     4
Info: PME GRID DIMENSIONS         36 32 32
Info: PME MAXIMUM GRID SPACING    1
Info: PME CALCULATION WILL BE PERFORMED ON GPU
Info: FULL ELECTROSTATIC EVALUATION FREQUENCY      2
Info: USING VERLET I (r-RESPA) MTS SCHEME.
Info: C1 SPLITTING OF LONG RANGE ELECTROSTATICS
Info: PLACING ATOMS IN PATCHES BY HYDROGEN GROUPS
Info: RIGID BONDS TO HYDROGEN : ALL
Info:         ERROR TOLERANCE : 1e-08
Info:          MAX ITERATIONS : 100
Info: RIGID WATER USING SETTLE ALGORITHM
Info: RANDOM NUMBER SEED     1743502326
Info: USE HYDROGEN BONDS?    NO
Info: Using AMBER format force field!
Info: AMBER PARM FILE        mobley_7015518.prmtop
Info: COORDINATE PDB         mobley_7015518.pdb
Info: Exclusions will be read from PARM file!
Info: SCNB (VDW SCALING)     2
Info: USING ARITHMETIC MEAN TO COMBINE L-J SIGMA PARAMETERS
Info: BINARY COORDINATES     mobley_7015518_equil.coor
Info: SUMMARY OF PARAMETERS:
Info: 4 BONDS
Info: 3 ANGLES
Info:   3 HARMONIC
Info:   0 COSINE-BASED
Info: 1 DIHEDRAL
Info: 0 IMPROPER
Info: 0 CROSSTERM
Info: 0 VDW
Info: 15 VDW_PAIRS
Info: 0 NBTHOLE_PAIRS
Info: To read alchdata from file: mobley_7015518.pdb
Info: To read alchflag data from column: 5
Info: STRUCTURE SUMMARY:
Info: 3000 ATOMS
Info: 2999 BONDS
Info: 13 ANGLES
Info: 6 DIHEDRALS
Info: 0 IMPROPERS
Info: 0 CROSSTERMS
Info: 3018 EXCLUSIONS
Info: 2997 RIGID BONDS
Info: ALCH: 0 ATOMS TO DISAPPEAR IN FINAL STATE
Info: ALCH: 9 ATOMS TO APPEAR IN FINAL STATE
Info: 6003 DEGREES OF FREEDOM
Info: 1000 HYDROGEN GROUPS
Info: 4 ATOMS IN LARGEST HYDROGEN GROUP
Info: 1000 MIGRATION GROUPS
Info: 4 ATOMS IN LARGEST MIGRATION GROUP
Info: TOTAL MASS = 18008 amu
Info: TOTAL CHARGE = 9.99942e-05 e
Info: MASS DENSITY = 0.954287 g/cm^3
Info: ATOM DENSITY = 0.095736 atoms/A^3
Info: ADDED 0 IMPLICIT EXCLUSIONS
Info: NONBONDED TABLE R-SQUARED SPACING: 0.0625
Info: NONBONDED TABLE SIZE: 705 POINTS
Info: REMOVING COM VELOCITY -0.0221828 0.0385485 -0.0643012
Info: Use 3D box decompostion in PME FFT.
Info: Updated CUDA force table with 4096 elements.
Info: Updated CUDA LJ table with 5 x 5 elements.
Info: Found 12 unique exclusion lists needing 16 bytes
TCL: Running for 1500000 steps
ETITLE: TS BOND ANGLE DIHED IMPRP ELECT VDW BOUNDARY MISC KINETIC TOTAL TEMP POTENTIAL TOTALAVG TEMPAVG PRESSURE GPRESSURE VOLUME PRESSAVG GPRESSAVG
ENERGY: 0 1.4456 5.2004 0.1315 0.0000 -10787.8478 1323.2712 0.0000 0.0000 1786.8635 -7670.9356 299.5804 -9457.7991 -7670.9356 299.5804 -1328.5699 -1251.4473 31336.1754 -1328.5699 -1251.4473
ENERGY: 300000 0.6183 5.7766 1.1323 0.0000 -10921.9315 1479.2827 0.0000 0.0000 1773.9851 -7661.1365 297.4213 -9435.1216 -7599.7090 304.4963 -141.5572 -97.0410 31237.7415 -553.9167 -505.5941
ENERGY: 600000 0.1818 1.4065 1.1553 0.0000 -11077.5032 1593.4496 0.0000 0.0000 1797.7325 -7683.5775 301.4027 -9481.3100 -7601.7545 304.0330 1040.3232 1034.2843 30485.7135 -194.0529 -161.1058
ENERGY: 900000 0.4543 3.3158 0.7990 0.0000 -10872.1852 1545.0783 0.0000 0.0000 1766.6370 -7555.9008 296.1893 -9322.5379 -7614.1003 302.1208 920.0182 973.4227 30584.9929 -86.3344 -55.1563
ENERGY: 1200000 0.1144 4.0444 0.1359 0.0000 -10875.7665 1423.6621 0.0000 0.0000 1753.4987 -7694.3111 293.9866 -9447.8098 -7626.8594 300.1444 -243.2992 -173.5407 30385.4509 -61.9696 -17.3619
ENERGY: 1500000 2.7560 2.0245 0.4461 0.0000 -10901.7639 1513.2184 0.0000 0.0000 1805.5575 -7577.7615 302.7146 -9383.3190 -7617.7876 300.7460 445.3822 513.7901 30756.2109 -28.5068 18.1102
TCL: Running FEP window   2: Lambda1 0.05   Lambda2 0.1    [dLambda 0.05  ]
TCL: Setting parameter firsttimestep to 0
TCL: Setting parameter alchLambda to 0.05
Info: NONBONDED TABLE R-SQUARED SPACING: 0.0625
Info: NONBONDED TABLE SIZE: 705 POINTS
TCL: Setting parameter alchLambda2 to 0.1
Info: NONBONDED TABLE R-SQUARED SPACING: 0.0625
Info: NONBONDED TABLE SIZE: 705 POINTS
TCL: Running for 1500000 steps
ETITLE: TS BOND ANGLE DIHED IMPRP ELECT VDW BOUNDARY MISC KINETIC TOTAL TEMP POTENTIAL TOTALAVG TEMPAVG PRESSURE GPRESSURE VOLUME PRESSAVG GPRESSAVG
ENERGY: 0 2.7560 2.0245 0.4461 0.0000 -10901.7638 1514.0707 0.0000 0.0000 1804.6368 -7577.8297 302.5602 -9382.4666 -7577.8297 302.5602 453.1181 516.8090 30756.2109 453.1181 516.8090
ENERGY: 300000 0.1440 3.0254 0.1915 0.0000 -10876.1480 1448.8436 0.0000 0.0000 1820.1540 -7603.7894 305.1618 -9423.9434 -7571.8567 302.9614 -177.9465 -155.3107 30845.0870 -129.3127 -69.0400
ENERGY: 600000 0.0056 6.2110 0.0375 0.0000 -10837.8270 1445.6905 0.0000 0.0000 1805.7357 -7580.1468 302.7445 -9385.8825 -7589.8504 302.5769 -83.0640 -20.1684 30732.3740 -179.7682 -118.9674
ENERGY: 900000 0.5726 2.6054 1.5955 0.0000 -10728.9276 1481.7544 0.0000 0.0000 1794.3707 -7448.0290 300.8390 -9242.3997 -7581.2495 301.7709 393.7574 405.3518 31408.5474 -164.3193 -111.6484
ENERGY: 1200000 0.8115 3.9545 0.0816 0.0000 -10877.7617 1449.8834 0.0000 0.0000 1743.8758 -7679.1549 292.3732 -9423.0306 -7590.2860 301.4329 -75.1953 -44.2399 30660.8875 -78.5112 -25.6894
ENERGY: 1500000 0.0525 2.6944 0.0898 0.0000 -10863.0439 1450.0517 0.0000 0.0000 1800.9617 -7609.1937 301.9441 -9410.1554 -7595.5273 301.2434 -130.5858 -111.2077 30762.4766 -72.3984 -21.6683
TCL: Running FEP window   3: Lambda1 0.1    Lambda2 0.15000000000000002 [dLambda 0.05000000000000002]
TCL: Setting parameter firsttimestep to 0
TCL: Setting parameter alchLambda to 0.1
Info: NONBONDED TABLE R-SQUARED SPACING: 0.0625
Info: NONBONDED TABLE SIZE: 705 POINTS
TCL: Setting parameter alchLambda2 to 0.15000000000000002
Info: NONBONDED TABLE R-SQUARED SPACING: 0.0625
Info: NONBONDED TABLE SIZE: 705 POINTS
TCL: Running for 1500000 steps
ETITLE: TS BOND ANGLE DIHED IMPRP ELECT VDW BOUNDARY MISC KINETIC TOTAL TEMP POTENTIAL TOTALAVG TEMPAVG PRESSURE GPRESSURE VOLUME PRESSAVG GPRESSAVG
ENERGY: 0 0.0525 2.6944 0.0898 0.0000 -10863.0453 1450.0257 0.0000 0.0000 1800.0736 -7610.1093 301.7952 -9410.1829 -7610.1093 301.7952 -196.3169 -106.5643 30762.4766 -196.3169 -106.5643
ENERGY: 300000 0.1825 1.2779 0.4509 0.0000 -10984.3173 1494.5380 0.0000 0.0000 1828.1528 -7659.7152 306.5029 -9487.8679 -7662.4645 298.4877 246.5091 284.2177 30337.3769 62.7320 147.4318
ENERGY: 600000 0.2548 5.4456 0.0902 0.0000 -10838.6652 1425.1161 0.0000 0.0000 1784.4315 -7623.3270 299.1727 -9407.7585 -7662.3759 296.9749 -164.1874 -117.6215 30507.9402 19.0722 92.4637
ENERGY: 900000 0.3710 3.4597 1.7473 0.0000 -10857.9534 1490.6414 0.0000 0.0000 1823.9329 -7537.8011 305.7954 -9361.7340 -7619.8524 298.4119 165.0843 212.9109 30898.8369 57.3910 123.9631
ENERGY: 1200000 0.4779 2.7466 0.7713 0.0000 -10898.1139 1501.2191 0.0000 0.0000 1761.4337 -7631.4652 295.3169 -9392.8989 -7611.4989 299.5055 473.1920 445.0617 30525.5650 50.3024 100.9654
ENERGY: 1500000 0.9470 3.4305 0.1122 0.0000 -10978.1260 1519.6883 0.0000 0.0000 1785.6387 -7668.3092 299.3751 -9453.9479 -7620.4479 300.1971 519.6220 572.6776 30314.8189 81.4945 129.0664
TCL: Running FEP window   4: Lambda1 0.15000000000000002 Lambda2 0.2    [dLambda 0.04999999999999999]
TCL: Setting parameter firsttimestep to 0
TCL: Setting parameter alchLambda to 0.15000000000000002
Info: NONBONDED TABLE R-SQUARED SPACING: 0.0625
Info: NONBONDED TABLE SIZE: 705 POINTS
TCL: Setting parameter alchLambda2 to 0.2
Info: NONBONDED TABLE R-SQUARED SPACING: 0.0625
Info: NONBONDED TABLE SIZE: 705 POINTS
TCL: Running for 1500000 steps
ETITLE: TS BOND ANGLE DIHED IMPRP ELECT VDW BOUNDARY MISC KINETIC TOTAL TEMP POTENTIAL TOTALAVG TEMPAVG PRESSURE GPRESSURE VOLUME PRESSAVG GPRESSAVG
ENERGY: 0 0.9470 3.4305 0.1122 0.0000 -10978.1260 1520.3376 0.0000 0.0000 1784.7255 -7668.5731 299.2220 -9453.2986 -7668.5731 299.2220 508.1160 579.7682 30314.8189 508.1160 579.7682
ENERGY: 300000 0.0222 3.4092 0.3548 0.0000 -10798.4385 1421.5725 0.0000 0.0000 1774.0269 -7599.0527 297.4283 -9373.0797 -7607.8580 301.6352 -399.8926 -272.8142 31212.5925 87.1440 173.5411
ENERGY: 600000 0.1706 5.1097 0.1851 0.0000 -10844.1094 1401.5277 0.0000 0.0000 1803.5360 -7633.5803 302.3757 -9437.1164 -7622.6356 301.6026 -792.2217 -699.8716 31035.3119 -146.5778 -68.0763
ENERGY: 900000 0.5196 4.2412 0.3723 0.0000 -10946.6529 1552.2575 0.0000 0.0000 1819.0471 -7570.2151 304.9762 -9389.2622 -7607.3189 301.6525 641.1244 671.1385 31033.4642 -71.5427 8.6134
ENERGY: 1200000 1.0504 4.0803 0.7368 0.0000 -10947.4864 1480.2906 0.0000 0.0000 1734.5118 -7726.8164 290.8033 -9461.3283 -7612.5152 301.0844 -198.8423 -68.5679 30814.9072 -95.4033 -15.6086
ENERGY: 1500000 1.5337 2.3128 0.2972 0.0000 -10980.7271 1503.3565 0.0000 0.0000 1798.2789 -7674.9480 301.4943 -9473.2269 -7621.1056 301.0632 188.8628 293.5216 30667.3145 -19.7931 63.0925
TCL: Running FEP window   5: Lambda1 0.2    Lambda2 0.25   [dLambda 0.04999999999999999]
TCL: Setting parameter firsttimestep to 0
TCL: Setting parameter alchLambda to 0.2
Info: NONBONDED TABLE R-SQUARED SPACING: 0.0625
Info: NONBONDED TABLE SIZE: 705 POINTS
TCL: Setting parameter alchLambda2 to 0.25
Info: NONBONDED TABLE R-SQUARED SPACING: 0.0625
Info: NONBONDED TABLE SIZE: 705 POINTS
TCL: Running for 1500000 steps
ETITLE: TS BOND ANGLE DIHED IMPRP ELECT VDW BOUNDARY MISC KINETIC TOTAL TEMP POTENTIAL TOTALAVG TEMPAVG PRESSURE GPRESSURE VOLUME PRESSAVG GPRESSAVG
ENERGY: 0 1.5337 2.3128 0.2972 0.0000 -10980.7277 1503.4346 0.0000 0.0000 1797.3746 -7675.7748 301.3427 -9473.1494 -7675.7748 301.3427 212.0384 294.9471 30667.3145 212.0384 294.9471
ENERGY: 300000 0.4027 4.9132 0.3097 0.0000 -10921.7371 1522.3542 0.0000 0.0000 1781.7160 -7612.0413 298.7174 -9393.7573 -7656.1037 298.4306 506.9825 568.6121 30770.0139 116.6070 195.1864
ENERGY: 600000 0.0484 4.1283 0.4131 0.0000 -11035.8135 1547.3380 0.0000 0.0000 1812.9538 -7670.9320 303.9546 -9483.8858 -7657.1993 300.7263 251.8618 291.8947 31019.7316 177.1004 248.2618
ENERGY: 900000 0.9170 4.2209 0.0799 0.0000 -10706.3251 1345.4865 0.0000 0.0000 1813.1131 -7542.5076 303.9813 -9355.6207 -7641.0491 300.6221 -717.9879 -735.7266 31186.6032 -29.0142 46.7692
ENERGY: 1200000 0.2537 3.0945 0.2149 0.0000 -10883.1416 1490.8296 0.0000 0.0000 1768.3277 -7620.4212 296.4728 -9388.7489 -7635.3846 300.0285 263.8831 292.6535 30754.6049 -44.0947 23.8720
ENERGY: 1500000 0.3454 3.8778 0.0421 0.0000 -10816.5860 1424.3232 0.0000 0.0000 1831.1992 -7556.7983 307.0136 -9387.9976 -7635.8030 300.8978 -153.2602 -128.4773 30640.1365 -5.8280 66.0456
TCL: Running FEP window   6: Lambda1 0.25   Lambda2 0.3    [dLambda 0.04999999999999999]
TCL: Setting parameter firsttimestep to 0
TCL: Setting parameter alchLambda to 0.25
Info: NONBONDED TABLE R-SQUARED SPACING: 0.0625
Info: NONBONDED TABLE SIZE: 705 POINTS
TCL: Setting parameter alchLambda2 to 0.3
Info: NONBONDED TABLE R-SQUARED SPACING: 0.0625
Info: NONBONDED TABLE SIZE: 705 POINTS
TCL: Running for 1500000 steps
ETITLE: TS BOND ANGLE DIHED IMPRP ELECT VDW BOUNDARY MISC KINETIC TOTAL TEMP POTENTIAL TOTALAVG TEMPAVG PRESSURE GPRESSURE VOLUME PRESSAVG GPRESSAVG
ENERGY: 0 0.3454 3.8778 0.0421 0.0000 -10816.5858 1424.6332 0.0000 0.0000 1830.3096 -7557.3776 306.8645 -9387.6873 -7557.3776 306.8645 -213.2996 -125.8521 30640.1365 -213.2996 -125.8521
ENERGY: 300000 0.9999 4.8904 0.7880 0.0000 -10824.8707 1408.1110 0.0000 0.0000 1813.4260 -7596.6554 304.0338 -9410.0814 -7595.3232 301.1862 -620.0989 -574.3169 31119.1066 -184.3015 -109.7240
ENERGY: 600000 0.6575 4.7485 1.2155 0.0000 -10855.3810 1462.6177 0.0000 0.0000 1834.0609 -7552.0809 307.4934 -9386.1418 -7590.4116 302.5115 95.9733 175.3926 30948.8497 -12.9954 55.3342
ENERGY: 900000 0.3640 3.4118 0.2078 0.0000 -10920.9213 1444.1860 0.0000 0.0000 1790.2760 -7682.4756 300.1525 -9472.7516 -7597.4949 300.8759 -146.8895 -20.4674 30479.5550 -16.6002 65.0196
ENERGY: 1200000 0.3998 2.2841 0.4018 0.0000 -10906.4615 1486.7075 0.0000 0.0000 1730.0618 -7686.6065 290.0572 -9416.6684 -7616.4364 300.2416 -137.7867 -39.7035 31263.2461 100.3617 180.8830
ENERGY: 1500000 0.3025 3.1521 2.4339 0.0000 -10874.2787 1396.6835 0.0000 0.0000 1776.8400 -7694.8666 297.8999 -9471.7067 -7632.3291 299.2505 -819.4090 -765.0473 30823.7824 66.3061 144.1498
TCL: Running FEP window   7: Lambda1 0.3    Lambda2 0.35   [dLambda 0.04999999999999999]
TCL: Setting parameter firsttimestep to 0
TCL: Setting parameter alchLambda to 0.3
Info: NONBONDED TABLE R-SQUARED SPACING: 0.0625
Info: NONBONDED TABLE SIZE: 705 POINTS
TCL: Setting parameter alchLambda2 to 0.35
Info: NONBONDED TABLE R-SQUARED SPACING: 0.0625
Info: NONBONDED TABLE SIZE: 705 POINTS
TCL: Running for 1500000 steps
ETITLE: TS BOND ANGLE DIHED IMPRP ELECT VDW BOUNDARY MISC KINETIC TOTAL TEMP POTENTIAL TOTALAVG TEMPAVG PRESSURE GPRESSURE VOLUME PRESSAVG GPRESSAVG
ENERGY: 0 0.3025 3.1521 2.4339 0.0000 -10874.2783 1396.4518 0.0000 0.0000 1775.9916 -7695.9463 297.7577 -9471.9380 -7695.9463 297.7577 -820.7084 -761.2212 30823.7824 -820.7084 -761.2212
ENERGY: 300000 0.2071 4.5512 0.1877 0.0000 -10737.4328 1351.4451 0.0000 0.0000 1776.4342 -7604.6075 297.8319 -9381.0417 -7667.2430 297.0128 -850.1018 -786.4509 30990.8069 -430.3429 -373.3714
ENERGY: 600000 0.5123 3.0709 1.9964 0.0000 -10606.1303 1338.5557 0.0000 0.0000 1801.4860 -7460.5091 302.0320 -9261.9951 -7610.9232 299.8063 -722.8748 -751.5568 31688.0171 -503.8768 -474.6893
ENERGY: 900000 0.3505 2.9080 1.4633 0.0000 -10841.9207 1387.9899 0.0000 0.0000 1773.4224 -7675.7867 297.3269 -9449.2091 -7632.1445 298.9717 -433.2065 -367.5862 30546.0378 -457.4278 -421.5408
ENERGY: 1200000 0.1928 2.3852 0.9063 0.0000 -11059.1878 1545.7276 0.0000 0.0000 1781.5145 -7728.4614 298.6836 -9509.9760 -7633.2740 298.8371 473.7487 475.9507 30609.9214 -269.3802 -228.7744
ENERGY: 1500000 0.8654 3.4270 0.1195 0.0000 -10947.9642 1539.4296 0.0000 0.0000 1778.8776 -7625.2450 298.2415 -9404.1227 -7632.0450 299.6694 575.0881 626.9581 30784.7453 -191.2753 -138.9502
TCL: Running FEP window   8: Lambda1 0.35   Lambda2 0.39999999999999997 [dLambda 0.04999999999999999]
TCL: Setting parameter firsttimestep to 0
TCL: Setting parameter alchLambda to 0.35
Info: NONBONDED TABLE R-SQUARED SPACING: 0.0625
Info: NONBONDED TABLE SIZE: 705 POINTS
TCL: Setting parameter alchLambda2 to 0.39999999999999997
Info: NONBONDED TABLE R-SQUARED SPACING: 0.0625
Info: NONBONDED TABLE SIZE: 705 POINTS
TCL: Running for 1500000 steps
ETITLE: TS BOND ANGLE DIHED IMPRP ELECT VDW BOUNDARY MISC KINETIC TOTAL TEMP POTENTIAL TOTALAVG TEMPAVG PRESSURE GPRESSURE VOLUME PRESSAVG GPRESSAVG
ENERGY: 0 0.8654 3.4270 0.1195 0.0000 -10947.9631 1541.9317 0.0000 0.0000 1777.9689 -7623.6505 298.0892 -9401.6194 -7623.6505 298.0892 571.0022 641.1283 30784.7453 571.0022 641.1283
ENERGY: 300000 0.3477 3.0378 0.1527 0.0000 -10880.7122 1436.6220 0.0000 0.0000 1828.7174 -7611.8345 306.5975 -9440.5519 -7656.5591 299.2546 -533.3540 -470.5828 31093.3755 -63.4785 -4.0092
ENERGY: 600000 0.3526 2.1198 0.2807 0.0000 -10788.4955 1463.5442 0.0000 0.0000 1871.2416 -7450.9565 313.7270 -9322.1981 -7608.1043 300.6471 134.0184 201.9030 31133.8227 -110.7329 -30.7860
ENERGY: 900000 0.4922 5.7754 0.0979 0.0000 -10999.2628 1496.8470 0.0000 0.0000 1808.1165 -7687.9338 303.1436 -9496.0503 -7614.2098 300.6068 225.1879 255.2960 30507.3855 -22.5403 55.6287
ENERGY: 1200000 0.3528 3.2314 0.7516 0.0000 -10953.0956 1511.6214 0.0000 0.0000 1822.8671 -7614.2713 305.6167 -9437.1384 -7614.3527 301.6911 390.2699 426.7256 30825.0900 33.3239 109.4127
ENERGY: 1500000 0.4155 5.3081 0.3460 0.0000 -10945.0205 1518.3405 0.0000 0.0000 1775.8020 -7644.8085 297.7259 -9420.6105 -7612.3397 301.5534 454.2650 501.1358 30483.8095 47.9549 117.8837
TCL: Running FEP window   9: Lambda1 0.39999999999999997 Lambda2 0.44999999999999996 [dLambda 0.04999999999999999]
TCL: Setting parameter firsttimestep to 0
TCL: Setting parameter alchLambda to 0.39999999999999997
Info: NONBONDED TABLE R-SQUARED SPACING: 0.0625
Info: NONBONDED TABLE SIZE: 705 POINTS
TCL: Setting parameter alchLambda2 to 0.44999999999999996
Info: NONBONDED TABLE R-SQUARED SPACING: 0.0625
Info: NONBONDED TABLE SIZE: 705 POINTS
TCL: Running for 1500000 steps
ETITLE: TS BOND ANGLE DIHED IMPRP ELECT VDW BOUNDARY MISC KINETIC TOTAL TEMP POTENTIAL TOTALAVG TEMPAVG PRESSURE GPRESSURE VOLUME PRESSAVG GPRESSAVG
ENERGY: 0 0.4155 5.3081 0.3460 0.0000 -10945.0202 1518.6157 0.0000 0.0000 1774.8838 -7645.4510 297.5719 -9420.3348 -7645.4510 297.5719 416.0671 506.5393 30483.8095 416.0671 506.5393
ENERGY: 300000 2.1443 4.9664 0.1555 0.0000 -10773.0682 1377.7363 0.0000 0.0000 1797.8354 -7590.2303 301.4199 -9388.0657 -7652.2530 298.1710 -329.1526 -277.8981 30405.4341 69.0504 108.9166
ENERGY: 600000 1.6085 1.8480 0.2724 0.0000 -10782.9878 1427.1598 0.0000 0.0000 1757.6290 -7594.4702 294.6790 -9352.0991 -7630.7812 299.1309 -291.6707 -214.1068 31038.8928 -50.3394 -8.6379
ENERGY: 900000 0.5574 4.4232 0.0654 0.0000 -10795.2754 1396.2284 0.0000 0.0000 1770.6927 -7623.3083 296.8693 -9394.0010 -7630.3657 298.9417 -351.7649 -295.5165 30580.1112 -142.5160 -100.1273
ENERGY: 1200000 0.6884 5.1023 0.3567 0.0000 -10883.2017 1408.1330 0.0000 0.0000 1798.3017 -7670.6197 301.4981 -9468.9214 -7635.4611 299.8702 -513.1904 -429.1659 30725.5114 -260.1499 -213.0113
ENERGY: 1500000 4.9970 1.1123 0.0992 0.0000 -10889.2693 1437.1214 0.0000 0.0000 1728.5046 -7717.4348 289.7961 -9445.9394 -7650.6760 298.5516 -433.0385 -357.6086 30670.2382 -248.8600 -201.9434
TCL: Running FEP window  10: Lambda1 0.44999999999999996 Lambda2 0.49999999999999994 [dLambda 0.04999999999999999]
TCL: Setting parameter firsttimestep to 0
TCL: Setting parameter alchLambda to 0.44999999999999996
Info: NONBONDED TABLE R-SQUARED SPACING: 0.0625
Info: NONBONDED TABLE SIZE: 705 POINTS
TCL: Setting parameter alchLambda2 to 0.49999999999999994
Info: NONBONDED TABLE R-SQUARED SPACING: 0.0625
Info: NONBONDED TABLE SIZE: 705 POINTS
TCL: Running for 1500000 steps
ETITLE: TS BOND ANGLE DIHED IMPRP ELECT VDW BOUNDARY MISC KINETIC TOTAL TEMP POTENTIAL TOTALAVG TEMPAVG PRESSURE GPRESSURE VOLUME PRESSAVG GPRESSAVG
ENERGY: 0 4.9970 1.1123 0.0992 0.0000 -10889.2680 1437.1819 0.0000 0.0000 1727.5914 -7718.2861 289.6430 -9445.8776 -7718.2861 289.6430 -433.8303 -356.4993 30670.2382 -433.8303 -356.4993
ENERGY: 300000 0.5467 2.5290 0.5436 0.0000 -10977.7314 1517.2195 0.0000 0.0000 1772.2873 -7684.6054 297.1366 -9456.8927 -7691.1678 295.6199 283.9215 343.5913 30753.4384 -242.4606 -153.0131
ENERGY: 600000 0.8759 2.7712 0.2677 0.0000 -10991.0422 1552.7975 0.0000 0.0000 1748.5892 -7685.7406 293.1635 -9434.3298 -7673.2197 297.3394 849.8699 936.5904 30392.5852 -51.1591 22.6949
ENERGY: 900000 0.0085 2.4247 0.4091 0.0000 -10956.9149 1564.0828 0.0000 0.0000 1757.3785 -7632.6114 294.6370 -9389.9899 -7644.7293 298.6495 723.9708 817.5369 30975.6963 150.5519 218.3361
ENERGY: 1200000 0.0708 4.0601 0.7711 0.0000 -10785.6848 1403.3203 0.0000 0.0000 1831.2379 -7546.2246 307.0201 -9377.4625 -7630.4634 300.1002 -463.8923 -438.1262 31091.0228 68.8125 132.3486
ENERGY: 1500000 0.1576 2.9994 0.1424 0.0000 -10676.9234 1322.5756 0.0000 0.0000 1804.7600 -7546.2884 302.5809 -9351.0484 -7627.6979 300.6461 -1299.9206 -1225.6207 31843.7841 -21.6542 41.2900
TCL: Running FEP window  11: Lambda1 0.49999999999999994 Lambda2 0.5499999999999999 [dLambda 0.04999999999999999]
TCL: Setting parameter firsttimestep to 0
TCL: Setting parameter alchLambda to 0.49999999999999994
Info: NONBONDED TABLE R-SQUARED SPACING: 0.0625
Info: NONBONDED TABLE SIZE: 705 POINTS
TCL: Setting parameter alchLambda2 to 0.5499999999999999
Info: NONBONDED TABLE R-SQUARED SPACING: 0.0625
Info: NONBONDED TABLE SIZE: 705 POINTS
TCL: Running for 1500000 steps
ETITLE: TS BOND ANGLE DIHED IMPRP ELECT VDW BOUNDARY MISC KINETIC TOTAL TEMP POTENTIAL TOTALAVG TEMPAVG PRESSURE GPRESSURE VOLUME PRESSAVG GPRESSAVG
ENERGY: 0 0.1576 2.9994 0.1424 0.0000 -10676.9216 1322.6712 0.0000 0.0000 1803.8784 -7547.0726 302.4331 -9350.9510 -7547.0726 302.4331 -1292.2223 -1221.6506 31843.7841 -1292.2223 -1221.6506
ENERGY: 300000 0.3862 4.3757 0.4305 0.0000 -10832.7295 1410.0201 0.0000 0.0000 1813.2011 -7604.3159 303.9961 -9417.5170 -7599.9912 302.2659 -565.3531 -460.5610 30986.9618 -427.5165 -336.8090
ENERGY: 600000 0.3412 1.7210 0.0265 0.0000 -10938.5921 1479.6154 0.0000 0.0000 1790.6981 -7666.1899 300.2233 -9456.8880 -7618.5702 301.1744 271.1802 342.5682 30473.1456 -164.6401 -89.7011
ENERGY: 900000 0.2130 7.3822 0.5840 0.0000 -10668.8352 1373.0672 0.0000 0.0000 1788.2788 -7499.3100 299.8177 -9287.5888 -7601.3068 300.4521 -583.3563 -539.4135 31378.4971 -86.2727 -8.2237
ENERGY: 1200000 0.6516 1.5198 0.1711 0.0000 -10815.6926 1447.9743 0.0000 0.0000 1753.9840 -7611.3919 294.0679 -9365.3759 -7594.7757 300.6556 -23.2794 42.9396 30778.0344 -32.5646 44.2650
ENERGY: 1500000 0.0105 3.3034 0.1140 0.0000 -10842.7148 1439.9958 0.0000 0.0000 1768.0350 -7631.2560 296.4237 -9399.2910 -7608.2536 299.4959 -173.1226 -122.4403 30952.4008 -109.7692 -37.4123
TCL: Running FEP window  12: Lambda1 0.5499999999999999 Lambda2 0.6    [dLambda 0.050000000000000044]
TCL: Setting parameter firsttimestep to 0
TCL: Setting parameter alchLambda to 0.5499999999999999
Info: NONBONDED TABLE R-SQUARED SPACING: 0.0625
Info: NONBONDED TABLE SIZE: 705 POINTS
TCL: Setting parameter alchLambda2 to 0.6
Info: NONBONDED TABLE R-SQUARED SPACING: 0.0625
Info: NONBONDED TABLE SIZE: 705 POINTS
TCL: Running for 1500000 steps
ETITLE: TS BOND ANGLE DIHED IMPRP ELECT VDW BOUNDARY MISC KINETIC TOTAL TEMP POTENTIAL TOTALAVG TEMPAVG PRESSURE GPRESSURE VOLUME PRESSAVG GPRESSAVG
ENERGY: 0 0.0105 3.3034 0.1140 0.0000 -10842.6941 1439.6869 0.0000 0.0000 1767.1138 -7632.4655 296.2692 -9399.5793 -7632.4655 296.2692 -204.7229 -123.6657 30952.4008 -204.7229 -123.6657
ENERGY: 300000 1.5742 5.0668 2.4290 0.0000 -10946.1951 1479.3563 0.0000 0.0000 1798.9927 -7658.7761 301.6140 -9457.7688 -7647.2892 300.3497 -134.8775 -36.9111 30973.8644 48.9317 113.4356
ENERGY: 600000 1.8854 5.0065 0.2212 0.0000 -10889.9092 1451.5161 0.0000 0.0000 1752.1185 -7679.1614 293.7552 -9431.2799 -7666.4589 296.8695 -323.3613 -308.7741 31067.9124 -161.7013 -118.8815
ENERGY: 900000 0.9276 2.1951 1.3006 0.0000 -10848.4921 1441.5890 0.0000 0.0000 1818.6527 -7583.8270 304.9101 -9402.4797 -7664.9134 297.1751 -172.2364 -108.9502 30987.6383 -137.2202 -91.7176
ENERGY: 1200000 0.1732 2.5336 0.4748 0.0000 -10821.4734 1464.7531 0.0000 0.0000 1784.0157 -7569.5231 299.1030 -9353.5388 -7651.4682 297.0076 160.6914 189.0726 30905.3749 -180.8655 -128.1123
ENERGY: 1500000 1.6270 1.7804 0.9064 0.0000 -10807.4258 1395.8094 0.0000 0.0000 1818.2578 -7589.0449 304.8439 -9407.3026 -7647.8997 297.9621 -435.7188 -343.0524 30646.1669 -166.2583 -109.8351
TCL: Running FEP window  13: Lambda1 0.6    Lambda2 0.65   [dLambda 0.050000000000000044]
TCL: Setting parameter firsttimestep to 0
TCL: Setting parameter alchLambda to 0.6
Info: NONBONDED TABLE R-SQUARED SPACING: 0.0625
Info: NONBONDED TABLE SIZE: 705 POINTS
TCL: Setting parameter alchLambda2 to 0.65
Info: NONBONDED TABLE R-SQUARED SPACING: 0.0625
Info: NONBONDED TABLE SIZE: 705 POINTS
TCL: Running for 1500000 steps
ETITLE: TS BOND ANGLE DIHED IMPRP ELECT VDW BOUNDARY MISC KINETIC TOTAL TEMP POTENTIAL TOTALAVG TEMPAVG PRESSURE GPRESSURE VOLUME PRESSAVG GPRESSAVG
ENERGY: 0 1.6270 1.7804 0.9064 0.0000 -10806.9565 1395.6097 0.0000 0.0000 1817.3782 -7589.6549 304.6964 -9407.0330 -7589.6549 304.6964 -443.3147 -342.5899 30646.1669 -443.3147 -342.5899
ENERGY: 300000 0.1451 2.8826 1.9200 0.0000 -10837.1151 1416.6335 0.0000 0.0000 1795.9068 -7619.6271 301.0966 -9415.5339 -7635.5657 301.2390 -399.0220 -266.0290 31025.3292 -381.9827 -309.7857
ENERGY: 600000 0.2984 6.7922 0.4393 0.0000 -10900.6905 1465.9438 0.0000 0.0000 1804.6760 -7622.5408 302.5668 -9427.2168 -7618.5725 301.2294 -119.4634 -37.5747 30982.5178 -91.9059 -31.6776
ENERGY: 900000 0.4180 2.0349 0.3052 0.0000 -10793.3401 1438.3276 0.0000 0.0000 1794.9536 -7557.3008 300.9368 -9352.2544 -7623.8555 300.3452 -27.6989 46.3737 30797.9869 25.6743 84.4348
ENERGY: 1200000 0.1604 6.1812 0.2146 0.0000 -10846.2879 1422.4109 0.0000 0.0000 1768.0141 -7649.3065 296.4202 -9417.3207 -7624.4409 301.1966 -414.6563 -344.7439 31109.4114 18.7217 75.8242
ENERGY: 1500000 0.1280 3.8965 0.2435 0.0000 -10826.6784 1410.6287 0.0000 0.0000 1758.8420 -7652.9397 294.8824 -9411.7817 -7635.6218 300.4007 -387.9686 -353.7744 30830.6377 -44.4566 11.4030
TCL: Running FEP window  14: Lambda1 0.65   Lambda2 0.7000000000000001 [dLambda 0.050000000000000044]
TCL: Setting parameter firsttimestep to 0
TCL: Setting parameter alchLambda to 0.65
Info: NONBONDED TABLE R-SQUARED SPACING: 0.0625
Info: NONBONDED TABLE SIZE: 705 POINTS
TCL: Setting parameter alchLambda2 to 0.7000000000000001
Info: NONBONDED TABLE R-SQUARED SPACING: 0.0625
Info: NONBONDED TABLE SIZE: 705 POINTS
TCL: Running for 1500000 steps
ETITLE: TS BOND ANGLE DIHED IMPRP ELECT VDW BOUNDARY MISC KINETIC TOTAL TEMP POTENTIAL TOTALAVG TEMPAVG PRESSURE GPRESSURE VOLUME PRESSAVG GPRESSAVG
ENERGY: 0 0.1280 3.8965 0.2435 0.0000 -10826.3373 1410.9093 0.0000 0.0000 1757.9114 -7653.2486 294.7264 -9411.1600 -7653.2486 294.7264 -424.6872 -345.5662 30830.6377 -424.6872 -345.5662
ENERGY: 300000 0.6458 1.5844 0.5679 0.0000 -10810.3740 1426.9773 0.0000 0.0000 1798.3220 -7582.2765 301.5015 -9380.5985 -7592.8205 300.8875 30.7258 14.1023 30437.8978 113.6620 166.5749
ENERGY: 600000 0.2526 3.6317 0.1353 0.0000 -10848.5062 1478.7539 0.0000 0.0000 1811.8751 -7553.8576 303.7738 -9365.7327 -7583.6723 301.3681 234.8419 334.2796 30771.3198 14.3930 71.3636
ENERGY: 900000 0.0541 3.4965 0.6843 0.0000 -10827.8203 1404.1834 0.0000 0.0000 1757.7333 -7661.6688 294.6965 -9419.4020 -7601.7551 300.4973 -408.7122 -325.4628 30732.3438 -79.4922 -15.2911
ENERGY: 1200000 0.3084 3.6374 0.8212 0.0000 -10939.2192 1501.5875 0.0000 0.0000 1768.2990 -7664.5656 296.4679 -9432.8646 -7607.7534 299.7796 18.6883 59.0813 31112.4010 -34.4441 23.9815
ENERGY: 1500000 0.7551 2.4902 0.7745 0.0000 -10877.1245 1488.5362 0.0000 0.0000 1820.5258 -7564.0428 305.2241 -9384.5686 -7607.4290 299.3714 344.2344 410.2581 30971.5856 20.3103 77.7589
TCL: Running FEP window  15: Lambda1 0.7000000000000001 Lambda2 0.7500000000000001 [dLambda 0.050000000000000044]
TCL: Setting parameter firsttimestep to 0
TCL: Setting parameter alchLambda to 0.7000000000000001
Info: NONBONDED TABLE R-SQUARED SPACING: 0.0625
Info: NONBONDED TABLE SIZE: 705 POINTS
TCL: Setting parameter alchLambda2 to 0.7500000000000001
Info: NONBONDED TABLE R-SQUARED SPACING: 0.0625
Info: NONBONDED TABLE SIZE: 705 POINTS
TCL: Running for 1500000 steps
ETITLE: TS BOND ANGLE DIHED IMPRP ELECT VDW BOUNDARY MISC KINETIC TOTAL TEMP POTENTIAL TOTALAVG TEMPAVG PRESSURE GPRESSURE VOLUME PRESSAVG GPRESSAVG
ENERGY: 0 0.7551 2.4902 0.7745 0.0000 -10877.3808 1488.9157 0.0000 0.0000 1819.6489 -7564.7964 305.0771 -9384.4453 -7564.7964 305.0771 336.1290 421.9605 30971.5856 336.1290 421.9605
ENERGY: 300000 0.1295 5.5936 0.1125 0.0000 -11048.6863 1543.7353 0.0000 0.0000 1756.2210 -7742.8943 294.4430 -9499.1153 -7676.1862 297.5077 223.6953 253.3172 31386.9809 14.9112 65.9470
ENERGY: 600000 0.3040 2.3824 0.7113 0.0000 -10964.5072 1476.9233 0.0000 0.0000 1813.5979 -7670.5884 304.0626 -9484.1863 -7656.9246 299.6182 -218.5353 -115.9779 30737.0049 105.1750 163.5966
ENERGY: 900000 0.3104 5.9789 0.9834 0.0000 -10890.1228 1488.1369 0.0000 0.0000 1796.9311 -7597.7820 301.2683 -9394.7131 -7638.1461 299.8803 200.7542 303.3379 30886.8809 51.8602 114.0967
ENERGY: 1200000 0.5726 1.9342 0.9990 0.0000 -10887.8419 1501.7041 0.0000 0.0000 1710.5189 -7672.1131 286.7807 -9382.6320 -7631.3874 298.7441 319.2644 364.2234 30739.9470 29.6933 89.4619
ENERGY: 1500000 0.2537 3.3159 0.8329 0.0000 -10983.3367 1547.0618 0.0000 0.0000 1830.6691 -7601.2033 306.9247 -9431.8724 -7622.9130 299.4274 562.7013 584.6874 30922.2157 68.5668 127.7201
TCL: Running FEP window  16: Lambda1 0.7500000000000001 Lambda2 0.8000000000000002 [dLambda 0.050000000000000044]
TCL: Setting parameter firsttimestep to 0
TCL: Setting parameter alchLambda to 0.7500000000000001
Info: NONBONDED TABLE R-SQUARED SPACING: 0.0625
Info: NONBONDED TABLE SIZE: 705 POINTS
TCL: Setting parameter alchLambda2 to 0.8000000000000002
Info: NONBONDED TABLE R-SQUARED SPACING: 0.0625
Info: NONBONDED TABLE SIZE: 705 POINTS
TCL: Running for 1500000 steps
ETITLE: TS BOND ANGLE DIHED IMPRP ELECT VDW BOUNDARY MISC KINETIC TOTAL TEMP POTENTIAL TOTALAVG TEMPAVG PRESSURE GPRESSURE VOLUME PRESSAVG GPRESSAVG
ENERGY: 0 0.2537 3.3159 0.8329 0.0000 -10983.8840 1547.7702 0.0000 0.0000 1829.7520 -7601.9592 306.7710 -9431.7112 -7601.9592 306.7710 501.6017 592.9131 30922.2157 501.6017 592.9131
ENERGY: 300000 0.6611 3.0921 0.3359 0.0000 -11006.2733 1515.7837 0.0000 0.0000 1756.4826 -7729.9180 294.4868 -9486.4006 -7594.0913 303.2694 376.9544 400.7569 30615.2488 227.7865 277.1537
ENERGY: 600000 0.7160 1.5494 0.1169 0.0000 -10818.3787 1393.1284 0.0000 0.0000 1746.5064 -7676.3616 292.8143 -9422.8680 -7620.9566 301.3505 -754.4530 -691.6493 31354.6685 13.4738 74.4181
ENERGY: 900000 2.1541 3.9268 0.9093 0.0000 -10940.2515 1484.9443 0.0000 0.0000 1772.2748 -7676.0421 297.1345 -9448.3170 -7633.2268 299.6866 18.4256 52.3228 30944.7932 -37.1127 17.8491
ENERGY: 1200000 0.0477 4.8630 0.1084 0.0000 -10842.6550 1442.2062 0.0000 0.0000 1799.2448 -7596.1848 301.6562 -9395.4296 -7638.5487 299.8076 -133.7650 -125.2955 31003.3266 -34.3591 17.6195
ENERGY: 1500000 0.5402 1.2098 0.2916 0.0000 -10896.4195 1478.5874 0.0000 0.0000 1740.0509 -7675.7396 291.7320 -9415.7905 -7640.5252 299.0062 305.3162 325.5165 30620.1909 -59.9775 -10.7135
TCL: Running FEP window  17: Lambda1 0.8000000000000002 Lambda2 0.8500000000000002 [dLambda 0.050000000000000044]
TCL: Setting parameter firsttimestep to 0
TCL: Setting parameter alchLambda to 0.8000000000000002
Info: NONBONDED TABLE R-SQUARED SPACING: 0.0625
Info: NONBONDED TABLE SIZE: 705 POINTS
TCL: Setting parameter alchLambda2 to 0.8500000000000002
Info: NONBONDED TABLE R-SQUARED SPACING: 0.0625
Info: NONBONDED TABLE SIZE: 705 POINTS
TCL: Running for 1500000 steps
ETITLE: TS BOND ANGLE DIHED IMPRP ELECT VDW BOUNDARY MISC KINETIC TOTAL TEMP POTENTIAL TOTALAVG TEMPAVG PRESSURE GPRESSURE VOLUME PRESSAVG GPRESSAVG
ENERGY: 0 0.5402 1.2098 0.2916 0.0000 -10896.9798 1478.2662 0.0000 0.0000 1739.1806 -7677.4914 291.5860 -9416.6720 -7677.4914 291.5860 223.3528 324.2922 30620.1909 223.3528 324.2922
ENERGY: 300000 0.0871 1.5978 0.3223 0.0000 -11025.9436 1523.7547 0.0000 0.0000 1728.3060 -7771.8757 289.7628 -9500.1817 -7669.6591 292.8920 137.6705 233.0495 31002.2220 -162.4688 -79.2045
ENERGY: 600000 0.2657 2.6095 0.4356 0.0000 -10780.3846 1418.9105 0.0000 0.0000 1803.9714 -7554.1919 302.4487 -9358.1633 -7640.8785 296.0448 -172.8741 -170.8895 31279.8012 -20.2730 51.5744
ENERGY: 900000 0.6834 1.1478 0.6174 0.0000 -11000.8736 1502.4765 0.0000 0.0000 1746.8460 -7749.1025 292.8712 -9495.9485 -7650.0563 295.4664 249.5050 317.7405 30494.7598 8.3081 74.2326
ENERGY: 1200000 0.5870 2.7030 0.7243 0.0000 -10696.4844 1328.0004 0.0000 0.0000 1795.8255 -7568.6442 301.0830 -9364.4697 -7643.1844 296.2015 -869.1069 -836.8540 31054.6386 -248.5475 -185.0294
ENERGY: 1500000 1.0328 6.7957 2.1704 0.0000 -10910.5597 1467.7285 0.0000 0.0000 1799.1947 -7633.6376 301.6478 -9432.8323 -7649.9481 296.9245 -74.5582 10.9562 31114.2959 -144.9345 -80.5665
TCL: Running FEP window  18: Lambda1 0.8500000000000002 Lambda2 0.9000000000000002 [dLambda 0.050000000000000044]
TCL: Setting parameter firsttimestep to 0
TCL: Setting parameter alchLambda to 0.8500000000000002
Info: NONBONDED TABLE R-SQUARED SPACING: 0.0625
Info: NONBONDED TABLE SIZE: 705 POINTS
TCL: Setting parameter alchLambda2 to 0.9000000000000002
Info: NONBONDED TABLE R-SQUARED SPACING: 0.0625
Info: NONBONDED TABLE SIZE: 705 POINTS
TCL: Running for 1500000 steps
ETITLE: TS BOND ANGLE DIHED IMPRP ELECT VDW BOUNDARY MISC KINETIC TOTAL TEMP POTENTIAL TOTALAVG TEMPAVG PRESSURE GPRESSURE VOLUME PRESSAVG GPRESSAVG
ENERGY: 0 1.0328 6.7957 2.1704 0.0000 -10910.4971 1467.4387 0.0000 0.0000 1798.3063 -7634.7532 301.4989 -9433.0595 -7634.7532 301.4989 -63.2261 14.0370 31114.2959 -63.2261 14.0370
ENERGY: 300000 1.1958 3.7646 0.7791 0.0000 -10773.2121 1396.8921 0.0000 0.0000 1801.2691 -7569.3115 301.9956 -9370.5805 -7595.3135 299.9414 -451.5189 -401.1392 30968.9237 -218.3453 -150.3512
ENERGY: 600000 0.7661 5.2470 0.8682 0.0000 -10662.1427 1364.0771 0.0000 0.0000 1766.7905 -7524.3937 296.2150 -9291.1842 -7594.1424 299.4685 -574.7726 -497.4355 31037.1393 -284.7925 -223.8114
ENERGY: 900000 1.2446 4.4112 0.1019 0.0000 -10772.0858 1449.8165 0.0000 0.0000 1808.9836 -7507.5280 303.2890 -9316.5116 -7588.7641 300.8138 -142.1833 -26.6902 31360.7005 -179.9420 -114.0562
ENERGY: 1200000 1.0468 6.8594 1.3878 0.0000 -10915.8103 1503.3569 0.0000 0.0000 1814.5979 -7588.5615 304.2303 -9403.1594 -7602.8058 301.0188 263.5518 314.5522 30850.6489 -121.9395 -58.8172
ENERGY: 1500000 0.2527 4.1953 0.1724 0.0000 -11074.2536 1585.8649 0.0000 0.0000 1797.0481 -7686.7201 301.2879 -9483.7682 -7609.2797 301.3200 575.5276 697.9150 31019.0867 -45.7783 22.2474
TCL: Running FEP window  19: Lambda1 0.9000000000000002 Lambda2 0.9500000000000003 [dLambda 0.050000000000000044]
TCL: Setting parameter firsttimestep to 0
TCL: Setting parameter alchLambda to 0.9000000000000002
Info: NONBONDED TABLE R-SQUARED SPACING: 0.0625
Info: NONBONDED TABLE SIZE: 705 POINTS
TCL: Setting parameter alchLambda2 to 0.9500000000000003
Info: NONBONDED TABLE R-SQUARED SPACING: 0.0625
Info: NONBONDED TABLE SIZE: 705 POINTS
TCL: Running for 1500000 steps
ETITLE: TS BOND ANGLE DIHED IMPRP ELECT VDW BOUNDARY MISC KINETIC TOTAL TEMP POTENTIAL TOTALAVG TEMPAVG PRESSURE GPRESSURE VOLUME PRESSAVG GPRESSAVG
ENERGY: 0 0.2527 4.1953 0.1724 0.0000 -11075.2277 1585.8634 0.0000 0.0000 1796.1657 -7688.5782 301.1400 -9484.7438 -7688.5782 301.1400 621.3081 701.0460 31019.0867 621.3081 701.0460
ENERGY: 300000 0.5894 5.2691 1.5022 0.0000 -10927.6416 1428.2657 0.0000 0.0000 1791.3507 -7700.6645 300.3327 -9492.0152 -7647.8599 301.7325 -380.1532 -340.3008 30689.6856 -101.5161 -62.3655
ENERGY: 600000 0.1843 1.5397 0.5175 0.0000 -10729.9616 1359.6868 0.0000 0.0000 1812.0963 -7555.9371 303.8109 -9368.0334 -7606.9224 301.7822 -661.1422 -580.0986 31135.2422 -254.3878 -197.3807
ENERGY: 900000 0.1449 2.4891 0.6819 0.0000 -10819.5512 1428.4629 0.0000 0.0000 1788.2215 -7599.5508 299.8081 -9387.7723 -7599.5604 301.8448 -264.9224 -209.6262 31089.6092 -157.1186 -104.8346
ENERGY: 1200000 0.0725 6.8448 0.5002 0.0000 -10844.1502 1429.3956 0.0000 0.0000 1783.1516 -7624.1854 298.9581 -9407.3370 -7620.7927 301.1091 -359.7529 -341.1112 31171.2459 -85.5246 -31.4398
ENERGY: 1500000 0.8087 4.4852 0.7446 0.0000 -10902.2276 1444.6060 0.0000 0.0000 1854.5459 -7597.0372 310.9278 -9451.5831 -7619.0195 301.9140 -135.7616 -26.9863 30342.7626 -117.4559 -66.7469
TCL: Running FEP window  20: Lambda1 0.9500000000000003 Lambda2 1.0    [dLambda 0.04999999999999971]
TCL: Setting parameter firsttimestep to 0
TCL: Setting parameter alchLambda to 0.9500000000000003
Info: NONBONDED TABLE R-SQUARED SPACING: 0.0625
Info: NONBONDED TABLE SIZE: 705 POINTS
TCL: Setting parameter alchLambda2 to 1.0
Info: NONBONDED TABLE R-SQUARED SPACING: 0.0625
Info: NONBONDED TABLE SIZE: 705 POINTS
TCL: Running for 1500000 steps
ETITLE: TS BOND ANGLE DIHED IMPRP ELECT VDW BOUNDARY MISC KINETIC TOTAL TEMP POTENTIAL TOTALAVG TEMPAVG PRESSURE GPRESSURE VOLUME PRESSAVG GPRESSAVG
ENERGY: 0 0.8087 4.4852 0.7446 0.0000 -10902.7892 1444.2950 0.0000 0.0000 1853.6689 -7598.7867 310.7808 -9452.4556 -7598.7867 310.7808 -122.9463 -26.5042 30342.7626 -122.9463 -26.5042
ENERGY: 300000 0.6348 1.9290 0.2474 0.0000 -10895.9849 1455.1603 0.0000 0.0000 1793.5596 -7644.4538 300.7031 -9438.0134 -7605.5744 305.0001 -41.6331 21.7597 30723.0627 -129.1081 -58.2240
ENERGY: 600000 0.3510 3.3964 0.4139 0.0000 -10717.0122 1331.3347 0.0000 0.0000 1849.1554 -7532.3607 310.0241 -9381.5161 -7608.7059 303.5703 -855.0257 -815.4472 31144.3825 -161.7798 -96.7942
ENERGY: 900000 0.3633 4.5695 0.1099 0.0000 -10695.8827 1378.9067 0.0000 0.0000 1791.8048 -7520.1286 300.4089 -9311.9334 -7604.8090 302.7502 -586.0559 -519.3496 31541.3837 -162.3368 -105.5698
ENERGY: 1200000 0.0306 5.9825 1.8850 0.0000 -10894.9215 1464.7143 0.0000 0.0000 1843.4717 -7578.8374 309.0712 -9422.3091 -7607.1684 303.1513 43.6513 125.6437 30709.8350 -227.3352 -159.0293
ENERGY: 1500000 0.5304 4.1910 1.3398 0.0000 -10777.0911 1389.3329 0.0000 0.0000 1771.9816 -7609.7154 297.0854 -9381.6970 -7610.4854 302.2170 -615.0473 -564.2229 31026.2482 -221.5353 -161.6344
TCL: Exiting due to exit command.
