Info: SIMULATION PARAMETERS:
Info: TIMESTEP               2
Info: NUMBER OF STEPS        0
Info: STEPS PER CYCLE        10
Info: PERIODIC CELL BASIS 1  29.9781 0 0
Info: PERIODIC CELL BASIS 2  0 33.1234 0
Info: PERIODIC CELL BASIS 3  0 0 30.6143
Info: PERIODIC CELL CENTER   0 0 0
Info: WRAPPING WATERS AROUND PERIODIC BOUNDARIES ON OUTPUT.
Info: WRAPPING ALL CLUSTERS AROUND PERIODIC BOUNDARIES ON OUTPUT.
Info: FIRST LDB TIMESTEP     50
Info: LAST LDB TIMESTEP     -1
Info: HOM BACKGROUND SCALING 1
Info: PME BACKGROUND SCALING 1
Info: MIN ATOMS PER PATCH    40
Info: EMPTY PATCH LOAD       40 ATOMS
Info: VELOCITY FILE          mobley_9121449_equil.vel
Info: CENTER OF MASS MOVING INITIALLY? NO
Info: DIELECTRIC             1
Info: EXCLUDE                SCALED ONE-FOUR
Info: 1-4 ELECTROSTATICS SCALED BY 0.833333
Info: MODIFIED 1-4 VDW PARAMETERS WILL BE USED
Info: DCD FILENAME           mobley_9121449_prod.dcd
Info: DCD FREQUENCY          100000
Info: DCD FIRST STEP         100000
Info: DCD FILE WILL CONTAIN UNIT CELL DATA
Info: XST FILENAME           mobley_9121449_prod.xst
Info: XST FREQUENCY          100000
Info: NO VELOCITY DCD OUTPUT
Info: NO FORCE DCD OUTPUT
Info: OUTPUT FILENAME        mobley_9121449_prod
Info: BINARY OUTPUT FILES WILL BE USED
Info: RESTART FILENAME       mobley_9121449_prod.restart
Info: RESTART FREQUENCY      100000
Info: BINARY RESTART FILES WILL BE USED
Info: CUTOFF                 9
Info: PAIRLIST DISTANCE      11
Info: PAIRLIST SHRINK RATE   0.01
Info: PAIRLIST GROW RATE     0.01
Info: PAIRLIST TRIGGER       0.3
Info: PAIRLISTS PER CYCLE    2
Info: PAIRLISTS ENABLED
Info: MARGIN                 2
Info: HYDROGEN GROUP CUTOFF  2.5
Info: PATCH DIMENSION        15.5
Info: ENERGY OUTPUT STEPS    100000
Info: ENERGY EVALUATION STEPS    100000
Info: OUTPUT ENERGY PRECISION 4
Info: CROSSTERM ENERGY INCLUDED IN DIHEDRAL
Info: TIMING OUTPUT STEPS    1000000
Info: PRESSURE OUTPUT STEPS  100000
Info: ALCHEMICAL FEP ON
Info: FEP CURRENT LAMBDA VALUE     1
Info: FEP COMPARISON LAMBDA VALUE  0.95
Info: FEP INTRA-ALCHEMICAL NON-BONDED INTERACTIONS WILL BE RETAINED
Info: FEP INTRA-ALCHEMICAL BONDED INTERACTIONS WILL BE RETAINED
Info: FEP VDW SHIFTING COEFFICIENT 5
Info: FEP ELEC. ACTIVE FOR ANNIHILATED PARTICLES BETWEEN LAMBDA = 0 AND LAMBDA = 0.5
Info: FEP ELEC. ACTIVE FOR EXNIHILATED PARTICLES BETWEEN LAMBDA = 0.5 AND LAMBDA = 1
Info: FEP VDW ACTIVE FOR ANNIHILATED PARTICLES BETWEEN LAMBDA = 0 AND LAMBDA = 1
Info: FEP VDW ACTIVE FOR EXNIHILATED PARTICLES BETWEEN LAMBDA = 0 AND LAMBDA = 1
Info: FEP BOND ACTIVE FOR ANNIHILATED PARTICLES BETWEEN LAMBDA = 1 AND LAMBDA = 1
Info: FEP BOND ACTIVE FOR EXNIHILATED PARTICLES BETWEEN LAMBDA = 0 AND LAMBDA = 0
Info: LANGEVIN DYNAMICS ACTIVE
Info: LANGEVIN TEMPERATURE   300
Info: LANGEVIN USING BBK INTEGRATOR
Info: LANGEVIN DAMPING COEFFICIENT IS 1 INVERSE PS
Info: LANGEVIN DYNAMICS APPLIED TO HYDROGENS
Info: LANGEVIN PISTON PRESSURE CONTROL ACTIVE
Info:        TARGET PRESSURE IS 1.01325 BAR
Info:     OSCILLATION PERIOD IS 50 FS
Info:             DECAY TIME IS 25 FS
Info:     PISTON TEMPERATURE IS 300 K
Info:       PRESSURE CONTROL IS GROUP-BASED
Info:    INITIAL STRAIN RATE IS 0.000290126 0.000290126 0.000290126
Info:       CELL FLUCTUATION IS ISOTROPIC
Info: PARTICLE MESH EWALD (PME) ACTIVE
Info: PME TOLERANCE               1e-06
Info: PME EWALD COEFFICIENT       0.348832
Info: PME INTERPOLATION ORDER     4
Info: PME GRID DIMENSIONS         32 36 32
Info: PME MAXIMUM GRID SPACING    1
Info: PME CALCULATION WILL BE PERFORMED ON GPU
Info: FULL ELECTROSTATIC EVALUATION FREQUENCY      2
Info: USING VERLET I (r-RESPA) MTS SCHEME.
Info: C1 SPLITTING OF LONG RANGE ELECTROSTATICS
Info: PLACING ATOMS IN PATCHES BY HYDROGEN GROUPS
Info: RIGID BONDS TO HYDROGEN : ALL
Info:         ERROR TOLERANCE : 1e-08
Info:          MAX ITERATIONS : 100
Info: RIGID WATER USING SETTLE ALGORITHM
Info: RANDOM NUMBER SEED     1743524309
Info: USE HYDROGEN BONDS?    NO
Info: Using AMBER format force field!
Info: AMBER PARM FILE        mobley_9121449.prmtop
Info: COORDINATE PDB         mobley_9121449.pdb
Info: Exclusions will be read from PARM file!
Info: SCNB (VDW SCALING)     2
Info: USING ARITHMETIC MEAN TO COMBINE L-J SIGMA PARAMETERS
Info: BINARY COORDINATES     mobley_9121449_equil.coor
Info: SUMMARY OF PARAMETERS:
Info: 7 BONDS
Info: 6 ANGLES
Info:   6 HARMONIC
Info:   0 COSINE-BASED
Info: 3 DIHEDRAL
Info: 0 IMPROPER
Info: 0 CROSSTERM
Info: 0 VDW
Info: 21 VDW_PAIRS
Info: 0 NBTHOLE_PAIRS
Info: To read alchdata from file: mobley_9121449.pdb
Info: To read alchflag data from column: 5
Info: STRUCTURE SUMMARY:
Info: 2956 ATOMS
Info: 2955 BONDS
Info: 14 ANGLES
Info: 13 DIHEDRALS
Info: 0 IMPROPERS
Info: 0 CROSSTERMS
Info: 2982 EXCLUSIONS
Info: 2952 RIGID BONDS
Info: ALCH: 0 ATOMS TO DISAPPEAR IN FINAL STATE
Info: ALCH: 10 ATOMS TO APPEAR IN FINAL STATE
Info: 5916 DEGREES OF FREEDOM
Info: 986 HYDROGEN GROUPS
Info: 4 ATOMS IN LARGEST HYDROGEN GROUP
Info: 986 MIGRATION GROUPS
Info: 4 ATOMS IN LARGEST MIGRATION GROUP
Info: TOTAL MASS = 17745.8 amu
Info: TOTAL CHARGE = 1.16415e-08 e
Info: MASS DENSITY = 0.969375 g/cm^3
Info: ATOM DENSITY = 0.0972392 atoms/A^3
Info: ADDED 0 IMPLICIT EXCLUSIONS
Info: NONBONDED TABLE R-SQUARED SPACING: 0.0625
Info: NONBONDED TABLE SIZE: 705 POINTS
Info: REMOVING COM VELOCITY 0.29479 -0.128151 -0.0723335
Info: Use 3D box decompostion in PME FFT.
Info: Updated CUDA force table with 4096 elements.
Info: Updated CUDA LJ table with 6 x 6 elements.
Info: Found 13 unique exclusion lists needing 20 bytes
TCL: Running for 1500000 steps
ETITLE: TS BOND ANGLE DIHED IMPRP ELECT VDW BOUNDARY MISC KINETIC TOTAL TEMP POTENTIAL TOTALAVG TEMPAVG PRESSURE GPRESSURE VOLUME PRESSAVG GPRESSAVG
ENERGY: 0 0.5272 2.0414 0.0374 0.0000 -10559.8769 1318.8993 0.0000 0.0000 1739.2004 -7499.1711 295.8774 -9238.3716 -7499.1711 295.8774 -818.7743 -736.3971 30399.2640 -818.7743 -736.3971
ENERGY: 300000 0.4264 2.2686 0.2204 0.0000 -10687.8323 1430.6345 0.0000 0.0000 1786.5175 -7467.7649 303.9271 -9254.2824 -7533.4652 296.1706 -220.4074 -70.0779 30772.5225 -181.9704 -96.5452
ENERGY: 600000 0.1746 7.5609 0.4702 0.0000 -10736.0431 1475.5030 0.0000 0.0000 1727.4097 -7524.9247 293.8716 -9252.3344 -7538.7367 297.3849 94.6997 150.2506 30774.5160 -106.4702 -29.0968
ENERGY: 900000 1.0296 2.2456 0.4889 0.0000 -10660.6862 1342.2751 0.0000 0.0000 1768.2326 -7546.4143 300.8165 -9314.6469 -7522.5915 299.6962 -873.1909 -792.2179 30455.9325 -125.2021 -57.8962
ENERGY: 1200000 2.5565 2.2351 0.7028 0.0000 -10780.4447 1469.8987 0.0000 0.0000 1798.6619 -7506.3898 305.9932 -9305.0517 -7527.2590 299.5692 254.9513 318.5629 30344.0208 -95.1538 -29.0138
ENERGY: 1500000 0.2218 4.7569 0.0427 0.0000 -10631.0607 1381.8359 0.0000 0.0000 1745.5786 -7498.6247 296.9625 -9244.2033 -7524.2230 298.9000 -140.6062 -57.2166 30073.9250 -51.5964 17.5183
TCL: Running FEP window   2: Lambda1 0.95   Lambda2 0.8999999999999999 [dLambda -0.050000000000000044]
TCL: Setting parameter firsttimestep to 0
TCL: Setting parameter alchLambda to 0.95
Info: NONBONDED TABLE R-SQUARED SPACING: 0.0625
Info: NONBONDED TABLE SIZE: 705 POINTS
TCL: Setting parameter alchLambda2 to 0.8999999999999999
Info: NONBONDED TABLE R-SQUARED SPACING: 0.0625
Info: NONBONDED TABLE SIZE: 705 POINTS
TCL: Running for 1500000 steps
ETITLE: TS BOND ANGLE DIHED IMPRP ELECT VDW BOUNDARY MISC KINETIC TOTAL TEMP POTENTIAL TOTALAVG TEMPAVG PRESSURE GPRESSURE VOLUME PRESSAVG GPRESSAVG
ENERGY: 0 0.2218 4.7569 0.0427 0.0000 -10630.7342 1382.1000 0.0000 0.0000 1744.7296 -7498.8831 296.8181 -9243.6127 -7498.8831 296.8181 -146.0887 -62.9758 30073.9250 -146.0887 -62.9758
ENERGY: 300000 0.2408 4.3565 0.2477 0.0000 -10688.0249 1397.4957 0.0000 0.0000 1777.9438 -7507.7402 302.4686 -9285.6841 -7506.5105 300.5227 -357.2958 -241.6609 30335.4451 66.9959 137.2984
ENERGY: 600000 1.0620 5.6680 0.0390 0.0000 -10660.4321 1360.8776 0.0000 0.0000 1768.8407 -7523.9449 300.9199 -9292.7856 -7526.1082 300.3530 -571.1078 -550.4859 30431.5374 -87.3608 -22.9505
ENERGY: 900000 0.9234 2.6598 0.0722 0.0000 -10773.9840 1479.2949 0.0000 0.0000 1805.6568 -7485.3769 307.1832 -9291.0336 -7524.3452 301.1088 611.0326 673.3712 29851.5553 -51.9292 11.1964
ENERGY: 1200000 0.5751 3.8594 0.1541 0.0000 -10565.8448 1356.0859 0.0000 0.0000 1749.7298 -7455.4405 297.6687 -9205.1703 -7535.4953 300.1122 -549.1773 -545.0067 31047.8756 -167.2792 -111.4553
ENERGY: 1500000 1.3679 4.9024 0.8173 0.0000 -10761.2747 1583.4386 0.0000 0.0000 1705.9681 -7464.7804 290.2239 -9170.7485 -7528.7938 299.3681 1308.5111 1414.6012 30622.0749 -22.4740 33.4604
TCL: Running FEP window   3: Lambda1 0.8999999999999999 Lambda2 0.8499999999999999 [dLambda -0.050000000000000044]
TCL: Setting parameter firsttimestep to 0
TCL: Setting parameter alchLambda to 0.8999999999999999
Info: NONBONDED TABLE R-SQUARED SPACING: 0.0625
Info: NONBONDED TABLE SIZE: 705 POINTS
TCL: Setting parameter alchLambda2 to 0.8499999999999999
Info: NONBONDED TABLE R-SQUARED SPACING: 0.0625
Info: NONBONDED TABLE SIZE: 705 POINTS
TCL: Running for 1500000 steps
ETITLE: TS BOND ANGLE DIHED IMPRP ELECT VDW BOUNDARY MISC KINETIC TOTAL TEMP POTENTIAL TOTALAVG TEMPAVG PRESSURE GPRESSURE VOLUME PRESSAVG GPRESSAVG
ENERGY: 0 1.3679 4.9024 0.8173 0.0000 -10761.1929 1583.5633 0.0000 0.0000 1705.0999 -7465.4422 290.0762 -9170.5421 -7465.4422 290.0762 1331.0946 1405.7520 30622.0749 1331.0946 1405.7520
ENERGY: 300000 3.1161 4.5874 0.1472 0.0000 -10645.3850 1410.9430 0.0000 0.0000 1815.2647 -7411.3267 308.8177 -9226.5914 -7518.8287 298.2582 -61.1514 37.3561 30492.8282 261.9012 331.4867
ENERGY: 600000 0.5768 2.7422 0.0329 0.0000 -10731.5424 1419.0947 0.0000 0.0000 1751.2438 -7557.8520 297.9263 -9309.0958 -7516.2936 300.4680 -464.9635 -432.7836 30758.4022 133.0624 198.9121
ENERGY: 900000 1.7658 4.2258 0.4173 0.0000 -10657.1349 1458.7017 0.0000 0.0000 1760.1729 -7431.8512 299.4453 -9192.0241 -7495.3524 301.5529 261.9404 317.6445 30454.6682 190.4076 262.2229
ENERGY: 1200000 0.7511 4.0731 0.0602 0.0000 -10593.3675 1322.8601 0.0000 0.0000 1776.1040 -7489.5189 302.1556 -9265.6230 -7491.3667 301.4948 -959.4874 -848.7750 30544.2789 -69.6904 -3.6970
ENERGY: 1500000 0.9848 3.4049 0.0560 0.0000 -10621.8954 1412.3306 0.0000 0.0000 1781.7034 -7423.4157 303.1082 -9205.1191 -7487.0463 301.8599 47.8015 135.9193 30501.5140 -109.2474 -40.3213
TCL: Running FEP window   4: Lambda1 0.8499999999999999 Lambda2 0.7999999999999998 [dLambda -0.050000000000000044]
TCL: Setting parameter firsttimestep to 0
TCL: Setting parameter alchLambda to 0.8499999999999999
Info: NONBONDED TABLE R-SQUARED SPACING: 0.0625
Info: NONBONDED TABLE SIZE: 705 POINTS
TCL: Setting parameter alchLambda2 to 0.7999999999999998
Info: NONBONDED TABLE R-SQUARED SPACING: 0.0625
Info: NONBONDED TABLE SIZE: 705 POINTS
TCL: Running for 1500000 steps
ETITLE: TS BOND ANGLE DIHED IMPRP ELECT VDW BOUNDARY MISC KINETIC TOTAL TEMP POTENTIAL TOTALAVG TEMPAVG PRESSURE GPRESSURE VOLUME PRESSAVG GPRESSAVG
ENERGY: 0 0.9848 3.4049 0.0560 0.0000 -10621.6044 1412.3288 0.0000 0.0000 1780.8385 -7423.9914 302.9610 -9204.8299 -7423.9914 302.9610 48.2386 126.6699 30501.5140 48.2386 126.6699
ENERGY: 300000 1.3115 3.7851 0.4281 0.0000 -10891.4133 1552.7633 0.0000 0.0000 1756.8143 -7576.3110 298.8740 -9333.1253 -7510.9420 300.7792 645.4574 714.5390 30686.0999 -69.5303 -9.2496
ENERGY: 600000 0.3688 10.1600 0.1665 0.0000 -10575.8779 1374.0448 0.0000 0.0000 1702.1118 -7489.0260 289.5678 -9191.1378 -7504.4761 297.8440 -570.8394 -482.6345 30947.8423 -35.1935 23.7064
ENERGY: 900000 1.2579 3.3364 0.6370 0.0000 -10760.0567 1492.4428 0.0000 0.0000 1748.2759 -7514.1067 297.4214 -9262.3826 -7517.0956 298.0618 491.6754 548.3537 30388.5485 65.1308 119.5388
ENERGY: 1200000 0.7183 6.7991 0.3730 0.0000 -10891.9715 1593.7261 0.0000 0.0000 1755.5510 -7534.8040 298.6590 -9290.3550 -7523.0398 297.7140 1073.2219 1166.8234 30358.5116 108.6433 160.9304
ENERGY: 1500000 1.2445 2.7035 0.5592 0.0000 -10711.6574 1470.5966 0.0000 0.0000 1779.4434 -7457.1103 302.7237 -9236.5536 -7508.5379 298.6491 361.2893 393.9254 30648.3081 54.4710 106.1465
TCL: Running FEP window   5: Lambda1 0.7999999999999998 Lambda2 0.7499999999999998 [dLambda -0.050000000000000044]
TCL: Setting parameter firsttimestep to 0
TCL: Setting parameter alchLambda to 0.7999999999999998
Info: NONBONDED TABLE R-SQUARED SPACING: 0.0625
Info: NONBONDED TABLE SIZE: 705 POINTS
TCL: Setting parameter alchLambda2 to 0.7499999999999998
Info: NONBONDED TABLE R-SQUARED SPACING: 0.0625
Info: NONBONDED TABLE SIZE: 705 POINTS
TCL: Running for 1500000 steps
ETITLE: TS BOND ANGLE DIHED IMPRP ELECT VDW BOUNDARY MISC KINETIC TOTAL TEMP POTENTIAL TOTALAVG TEMPAVG PRESSURE GPRESSURE VOLUME PRESSAVG GPRESSAVG
ENERGY: 0 1.2445 2.7035 0.5592 0.0000 -10711.5374 1471.0562 0.0000 0.0000 1778.5066 -7457.4673 302.5643 -9235.9740 -7457.4673 302.5643 312.2814 391.4146 30648.3081 312.2814 391.4146
ENERGY: 300000 1.5820 4.7889 0.0451 0.0000 -10681.2023 1418.5819 0.0000 0.0000 1810.7077 -7445.4966 308.0425 -9256.2044 -7486.9084 303.3390 -269.5944 -185.0344 30630.5338 -6.6220 49.0737
ENERGY: 600000 0.6172 1.6629 0.9818 0.0000 -10786.2814 1500.8590 0.0000 0.0000 1733.9263 -7548.2342 294.9802 -9282.1605 -7516.8695 299.9078 524.3475 566.1666 30246.1751 -28.7752 23.8029
ENERGY: 900000 0.6647 5.6819 0.1431 0.0000 -10759.4810 1443.7166 0.0000 0.0000 1746.6208 -7562.6539 297.1398 -9309.2747 -7502.5951 300.2952 -86.4757 4.8374 30252.7906 -64.0869 -10.3951
ENERGY: 1200000 1.6928 2.5794 1.0557 0.0000 -10874.1302 1545.6115 0.0000 0.0000 1791.8125 -7531.3783 304.8279 -9323.1908 -7503.5597 301.1812 859.3945 859.0086 30524.0852 -45.5218 7.2924
ENERGY: 1500000 0.3019 6.8707 0.5296 0.0000 -10716.2855 1428.6819 0.0000 0.0000 1768.7438 -7511.1577 300.9034 -9279.9014 -7512.5041 300.7009 -193.0438 -81.1815 30557.0077 -36.8360 18.7337
TCL: Running FEP window   6: Lambda1 0.7499999999999998 Lambda2 0.6999999999999997 [dLambda -0.050000000000000044]
TCL: Setting parameter firsttimestep to 0
TCL: Setting parameter alchLambda to 0.7499999999999998
Info: NONBONDED TABLE R-SQUARED SPACING: 0.0625
Info: NONBONDED TABLE SIZE: 705 POINTS
TCL: Setting parameter alchLambda2 to 0.6999999999999997
Info: NONBONDED TABLE R-SQUARED SPACING: 0.0625
Info: NONBONDED TABLE SIZE: 705 POINTS
TCL: Running for 1500000 steps
ETITLE: TS BOND ANGLE DIHED IMPRP ELECT VDW BOUNDARY MISC KINETIC TOTAL TEMP POTENTIAL TOTALAVG TEMPAVG PRESSURE GPRESSURE VOLUME PRESSAVG GPRESSAVG
ENERGY: 0 0.3019 6.8707 0.5296 0.0000 -10716.1780 1428.3975 0.0000 0.0000 1767.8559 -7512.2224 300.7524 -9280.0783 -7512.2224 300.7524 -189.8008 -90.4322 30557.0077 -189.8008 -90.4322
ENERGY: 300000 1.3793 2.8825 0.0228 0.0000 -10718.4558 1432.2379 0.0000 0.0000 1794.9047 -7487.0286 305.3540 -9281.9333 -7491.1833 304.7803 -247.4005 -239.5662 30875.1454 -294.4734 -229.9194
ENERGY: 600000 0.9997 2.3352 0.0489 0.0000 -10740.1037 1409.7523 0.0000 0.0000 1740.9120 -7586.0557 296.1686 -9326.9676 -7516.8636 302.2248 -441.5975 -277.0763 30305.3809 -149.2462 -77.4134
ENERGY: 900000 0.9499 6.0237 0.0539 0.0000 -10604.1135 1339.0583 0.0000 0.0000 1756.3934 -7501.6342 298.8024 -9258.0276 -7511.1114 301.1232 -783.0820 -738.0399 30650.0918 -238.9277 -170.2543
ENERGY: 1200000 0.1128 8.3233 0.2787 0.0000 -10602.4310 1323.2504 0.0000 0.0000 1811.7276 -7458.7383 308.2160 -9270.4658 -7503.3845 300.9699 -1018.5109 -1062.0284 31092.2335 -298.4507 -228.6593
ENERGY: 1500000 2.0953 7.0993 1.0298 0.0000 -10687.5806 1433.3632 0.0000 0.0000 1718.3285 -7525.6645 292.3266 -9243.9930 -7500.6939 300.3441 -120.4153 11.1103 30324.8601 -246.2485 -177.8450
TCL: Running FEP window   7: Lambda1 0.6999999999999997 Lambda2 0.6499999999999997 [dLambda -0.050000000000000044]
TCL: Setting parameter firsttimestep to 0
TCL: Setting parameter alchLambda to 0.6999999999999997
Info: NONBONDED TABLE R-SQUARED SPACING: 0.0625
Info: NONBONDED TABLE SIZE: 705 POINTS
TCL: Setting parameter alchLambda2 to 0.6499999999999997
Info: NONBONDED TABLE R-SQUARED SPACING: 0.0625
Info: NONBONDED TABLE SIZE: 705 POINTS
TCL: Running for 1500000 steps
ETITLE: TS BOND ANGLE DIHED IMPRP ELECT VDW BOUNDARY MISC KINETIC TOTAL TEMP POTENTIAL TOTALAVG TEMPAVG PRESSURE GPRESSURE VOLUME PRESSAVG GPRESSAVG
ENERGY: 0 2.0953 7.0993 1.0298 0.0000 -10687.5171 1433.5576 0.0000 0.0000 1717.4059 -7526.3292 292.1697 -9243.7352 -7526.3292 292.1697 -94.2344 6.6444 30324.8601 -94.2344 6.6444
ENERGY: 300000 0.8090 2.9305 0.0122 0.0000 -10699.3749 1424.2887 0.0000 0.0000 1797.3784 -7473.9560 305.7748 -9271.3344 -7543.4654 299.3595 -282.4038 -230.9859 30861.0971 -134.9532 -77.0225
ENERGY: 600000 0.5576 3.9004 0.0813 0.0000 -10689.2734 1464.7757 0.0000 0.0000 1784.1890 -7435.7694 303.5310 -9219.9584 -7521.2057 301.8764 441.6674 566.0489 30247.5488 55.0250 115.2741
ENERGY: 900000 0.2828 3.2331 1.1108 0.0000 -10763.4417 1496.6390 0.0000 0.0000 1775.6960 -7486.4800 302.0862 -9262.1761 -7528.1867 302.0697 478.5807 548.7162 30414.4340 146.2122 207.9690
ENERGY: 1200000 0.4472 6.8868 0.0318 0.0000 -10807.4370 1457.2779 0.0000 0.0000 1775.4902 -7567.3032 302.0512 -9342.7933 -7529.7311 302.6032 -89.4995 -27.8702 30502.6058 70.3130 134.5454
ENERGY: 1500000 1.6398 6.4107 1.4259 0.0000 -10689.4143 1433.5937 0.0000 0.0000 1755.7102 -7490.6340 298.6861 -9246.3442 -7532.2828 302.0047 203.9581 219.4723 30256.5247 51.0064 120.5153
TCL: Running FEP window   8: Lambda1 0.6499999999999997 Lambda2 0.5999999999999996 [dLambda -0.050000000000000044]
TCL: Setting parameter firsttimestep to 0
TCL: Setting parameter alchLambda to 0.6499999999999997
Info: NONBONDED TABLE R-SQUARED SPACING: 0.0625
Info: NONBONDED TABLE SIZE: 705 POINTS
TCL: Setting parameter alchLambda2 to 0.5999999999999996
Info: NONBONDED TABLE R-SQUARED SPACING: 0.0625
Info: NONBONDED TABLE SIZE: 705 POINTS
TCL: Running for 1500000 steps
ETITLE: TS BOND ANGLE DIHED IMPRP ELECT VDW BOUNDARY MISC KINETIC TOTAL TEMP POTENTIAL TOTALAVG TEMPAVG PRESSURE GPRESSURE VOLUME PRESSAVG GPRESSAVG
ENERGY: 0 1.6398 6.4107 1.4259 0.0000 -10689.1409 1433.6568 0.0000 0.0000 1754.8473 -7491.1605 298.5393 -9246.0078 -7491.1605 298.5393 141.8529 212.2720 30256.5247 141.8529 212.2720
ENERGY: 300000 2.2860 2.6063 0.0154 0.0000 -10725.1701 1470.0331 0.0000 0.0000 1744.5918 -7505.6374 296.7946 -9250.2292 -7472.8144 299.5600 172.3964 295.9626 30240.3754 34.7785 110.7524
ENERGY: 600000 2.5303 3.2956 0.7921 0.0000 -10720.4739 1438.6995 0.0000 0.0000 1755.3842 -7519.7723 298.6307 -9275.1565 -7491.9684 299.0165 77.0759 142.7592 30355.3342 -135.9712 -67.2726
ENERGY: 900000 0.8551 6.0961 1.0635 0.0000 -10700.5965 1384.9572 0.0000 0.0000 1803.5022 -7504.1225 306.8166 -9307.6246 -7512.9158 298.2204 -159.1517 -30.9614 29831.3260 -142.1102 -70.0178
ENERGY: 1200000 0.6787 3.3718 0.3808 0.0000 -10656.0104 1430.3319 0.0000 0.0000 1774.6331 -7446.6140 301.9053 -9221.2471 -7510.9142 298.6076 146.4090 178.3647 30153.8913 -155.4331 -85.8161
ENERGY: 1500000 0.2995 3.1673 0.0304 0.0000 -10666.3810 1427.6403 0.0000 0.0000 1798.6766 -7436.5668 305.9957 -9235.2434 -7513.4004 299.6467 165.4495 159.0738 30374.0146 -121.5143 -53.5910
TCL: Running FEP window   9: Lambda1 0.5999999999999996 Lambda2 0.5499999999999996 [dLambda -0.050000000000000044]
TCL: Setting parameter firsttimestep to 0
TCL: Setting parameter alchLambda to 0.5999999999999996
Info: NONBONDED TABLE R-SQUARED SPACING: 0.0625
Info: NONBONDED TABLE SIZE: 705 POINTS
TCL: Setting parameter alchLambda2 to 0.5499999999999996
Info: NONBONDED TABLE R-SQUARED SPACING: 0.0625
Info: NONBONDED TABLE SIZE: 705 POINTS
TCL: Running for 1500000 steps
ETITLE: TS BOND ANGLE DIHED IMPRP ELECT VDW BOUNDARY MISC KINETIC TOTAL TEMP POTENTIAL TOTALAVG TEMPAVG PRESSURE GPRESSURE VOLUME PRESSAVG GPRESSAVG
ENERGY: 0 0.2995 3.1673 0.0304 0.0000 -10666.3080 1427.0424 0.0000 0.0000 1797.8048 -7437.9635 305.8474 -9235.7683 -7437.9635 305.8474 64.2394 149.7167 30374.0146 64.2394 149.7167
ENERGY: 300000 0.1663 5.7780 0.1505 0.0000 -10686.5317 1404.3414 0.0000 0.0000 1752.9779 -7523.1176 298.2213 -9276.0955 -7489.9320 301.8917 -174.7894 -99.2587 30023.7771 67.9298 132.6156
ENERGY: 600000 0.1595 4.2325 0.1760 0.0000 -10826.5266 1425.8552 0.0000 0.0000 1742.1472 -7653.9562 296.3788 -9396.1034 -7528.4327 299.8712 -371.1193 -344.0013 30366.8605 26.6511 73.2239
ENERGY: 900000 0.9769 5.1302 0.1054 0.0000 -10770.6805 1447.3108 0.0000 0.0000 1756.1967 -7560.9606 298.7689 -9317.1573 -7528.6777 299.5075 -99.6594 -95.0784 30591.6099 -46.3230 8.2965
ENERGY: 1200000 3.4379 2.6286 0.5666 0.0000 -10724.2113 1390.5163 0.0000 0.0000 1768.4664 -7558.5956 300.8562 -9327.0619 -7533.8945 299.5119 -791.5900 -729.6758 30613.6990 -208.6350 -156.8941
ENERGY: 1500000 0.0994 3.3048 0.1599 0.0000 -10837.0042 1487.6160 0.0000 0.0000 1763.5644 -7582.2598 300.0223 -9345.8242 -7537.2316 299.6046 416.7367 463.9181 30041.0306 -85.6870 -35.8744
TCL: Running FEP window  10: Lambda1 0.5499999999999996 Lambda2 0.4999999999999996 [dLambda -0.04999999999999999]
TCL: Setting parameter firsttimestep to 0
TCL: Setting parameter alchLambda to 0.5499999999999996
Info: NONBONDED TABLE R-SQUARED SPACING: 0.0625
Info: NONBONDED TABLE SIZE: 705 POINTS
TCL: Setting parameter alchLambda2 to 0.4999999999999996
Info: NONBONDED TABLE R-SQUARED SPACING: 0.0625
Info: NONBONDED TABLE SIZE: 705 POINTS
TCL: Running for 1500000 steps
ETITLE: TS BOND ANGLE DIHED IMPRP ELECT VDW BOUNDARY MISC KINETIC TOTAL TEMP POTENTIAL TOTALAVG TEMPAVG PRESSURE GPRESSURE VOLUME PRESSAVG GPRESSAVG
ENERGY: 0 0.0994 3.3048 0.1599 0.0000 -10836.8859 1487.7881 0.0000 0.0000 1762.6712 -7582.8626 299.8703 -9345.5337 -7582.8626 299.8703 386.1294 458.8321 30041.0306 386.1294 458.8321
ENERGY: 300000 0.4342 3.4560 0.1333 0.0000 -10839.4236 1473.2445 0.0000 0.0000 1751.2209 -7610.9347 297.9224 -9362.1556 -7534.9686 301.9948 229.5607 300.9202 30058.2528 49.7060 108.8148
ENERGY: 600000 2.6985 5.1177 0.2751 0.0000 -10700.5030 1410.0669 0.0000 0.0000 1792.5215 -7489.8232 304.9486 -9282.3448 -7534.0583 299.0940 -145.5737 -31.0059 30333.7042 -57.5939 -10.0175
ENERGY: 900000 0.2090 2.2538 0.0410 0.0000 -10759.1739 1460.9960 0.0000 0.0000 1746.6878 -7548.9863 297.1512 -9295.6740 -7524.6055 298.8069 -11.7621 -4.6519 30652.3792 0.0707 43.2446
ENERGY: 1200000 0.2441 6.5280 0.2774 0.0000 -10590.4114 1360.2054 0.0000 0.0000 1827.3043 -7395.8521 310.8659 -9223.1564 -7515.2710 298.6025 -529.1054 -443.7689 30393.4906 -116.0259 -65.3392
ENERGY: 1500000 0.6384 1.9231 0.2404 0.0000 -10662.4554 1366.4790 0.0000 0.0000 1730.1897 -7562.9848 294.3445 -9293.1744 -7510.9355 298.7380 -878.5816 -803.3443 30814.0661 -171.9230 -114.7684
TCL: Running FEP window  11: Lambda1 0.4999999999999996 Lambda2 0.4499999999999996 [dLambda -0.04999999999999999]
TCL: Setting parameter firsttimestep to 0
TCL: Setting parameter alchLambda to 0.4999999999999996
Info: NONBONDED TABLE R-SQUARED SPACING: 0.0625
Info: NONBONDED TABLE SIZE: 705 POINTS
TCL: Setting parameter alchLambda2 to 0.4499999999999996
Info: NONBONDED TABLE R-SQUARED SPACING: 0.0625
Info: NONBONDED TABLE SIZE: 705 POINTS
TCL: Running for 1500000 steps
ETITLE: TS BOND ANGLE DIHED IMPRP ELECT VDW BOUNDARY MISC KINETIC TOTAL TEMP POTENTIAL TOTALAVG TEMPAVG PRESSURE GPRESSURE VOLUME PRESSAVG GPRESSAVG
ENERGY: 0 0.6384 1.9231 0.2404 0.0000 -10662.4035 1366.7817 0.0000 0.0000 1729.3322 -7563.4876 294.1986 -9292.8198 -7563.4876 294.1986 -893.6881 -804.8516 30814.0661 -893.6881 -804.8516
ENERGY: 300000 0.4842 5.6035 0.0216 0.0000 -10601.5074 1333.1873 0.0000 0.0000 1854.0915 -7408.1192 315.4230 -9262.2107 -7462.4193 303.6615 -789.4161 -729.4606 30448.2507 -608.3181 -548.1508
ENERGY: 600000 3.3108 1.9200 0.2807 0.0000 -10769.9462 1483.5572 0.0000 0.0000 1749.8139 -7531.0637 297.6830 -9280.8775 -7492.8045 299.9922 347.5775 391.0863 30474.3755 -429.7140 -366.9519
ENERGY: 900000 0.6742 6.3040 0.4899 0.0000 -10685.1865 1444.0418 0.0000 0.0000 1794.4011 -7439.2754 305.2683 -9233.6765 -7486.7995 300.4924 -16.9777 105.8018 30417.3204 -251.8443 -183.8372
ENERGY: 1200000 0.5691 3.1768 0.4986 0.0000 -10793.0847 1466.6838 0.0000 0.0000 1721.1106 -7601.0458 292.7999 -9322.1563 -7498.5138 299.5051 140.9907 154.0246 30403.1938 -295.7749 -236.1469
ENERGY: 1500000 0.4572 5.2822 0.0947 0.0000 -10695.8820 1381.4960 0.0000 0.0000 1762.5334 -7546.0184 299.8469 -9308.5518 -7498.0347 300.0735 -548.8528 -500.7396 30181.0390 -297.9635 -237.1287
TCL: Running FEP window  12: Lambda1 0.4499999999999996 Lambda2 0.39999999999999963 [dLambda -0.04999999999999999]
TCL: Setting parameter firsttimestep to 0
TCL: Setting parameter alchLambda to 0.4499999999999996
Info: NONBONDED TABLE R-SQUARED SPACING: 0.0625
Info: NONBONDED TABLE SIZE: 705 POINTS
TCL: Setting parameter alchLambda2 to 0.39999999999999963
Info: NONBONDED TABLE R-SQUARED SPACING: 0.0625
Info: NONBONDED TABLE SIZE: 705 POINTS
TCL: Running for 1500000 steps
ETITLE: TS BOND ANGLE DIHED IMPRP ELECT VDW BOUNDARY MISC KINETIC TOTAL TEMP POTENTIAL TOTALAVG TEMPAVG PRESSURE GPRESSURE VOLUME PRESSAVG GPRESSAVG
ENERGY: 0 0.4572 5.2822 0.0947 0.0000 -10695.8805 1381.6851 0.0000 0.0000 1761.6508 -7546.7105 299.6968 -9308.3613 -7546.7105 299.6968 -595.3039 -506.7990 30181.0390 -595.3039 -506.7990
ENERGY: 300000 2.6109 5.3517 0.1595 0.0000 -10790.4340 1478.7832 0.0000 0.0000 1775.8214 -7527.7072 302.1075 -9303.5287 -7524.3150 301.1450 418.0328 494.3608 29757.6698 8.7477 96.7438
ENERGY: 600000 0.7956 4.0680 0.2171 0.0000 -10661.7753 1423.9930 0.0000 0.0000 1738.7901 -7493.9115 295.8076 -9232.7016 -7514.3480 300.9691 39.6471 73.7085 30320.5409 -107.8764 -41.6037
ENERGY: 900000 1.9741 3.1676 0.3480 0.0000 -10917.6682 1546.9946 0.0000 0.0000 1799.6504 -7565.5334 306.1614 -9365.1839 -7506.8907 300.8739 747.9356 859.8258 29879.4352 13.7541 70.5748
ENERGY: 1200000 0.8208 2.9804 0.5751 0.0000 -10724.4961 1468.4743 0.0000 0.0000 1759.4869 -7492.1586 299.3286 -9251.6455 -7512.4829 299.8424 572.6812 627.5894 29821.9819 46.9675 94.1001
ENERGY: 1500000 2.2335 3.1567 0.5003 0.0000 -10761.3405 1429.5325 0.0000 0.0000 1691.8800 -7634.0374 287.8272 -9325.9175 -7519.8825 298.8509 -240.0642 -128.2637 30208.2474 -31.9957 20.0057
TCL: Running FEP window  13: Lambda1 0.39999999999999963 Lambda2 0.34999999999999964 [dLambda -0.04999999999999999]
TCL: Setting parameter firsttimestep to 0
TCL: Setting parameter alchLambda to 0.39999999999999963
Info: NONBONDED TABLE R-SQUARED SPACING: 0.0625
Info: NONBONDED TABLE SIZE: 705 POINTS
TCL: Setting parameter alchLambda2 to 0.34999999999999964
Info: NONBONDED TABLE R-SQUARED SPACING: 0.0625
Info: NONBONDED TABLE SIZE: 705 POINTS
TCL: Running for 1500000 steps
ETITLE: TS BOND ANGLE DIHED IMPRP ELECT VDW BOUNDARY MISC KINETIC TOTAL TEMP POTENTIAL TOTALAVG TEMPAVG PRESSURE GPRESSURE VOLUME PRESSAVG GPRESSAVG
ENERGY: 0 2.2335 3.1567 0.5003 0.0000 -10761.3419 1429.6425 0.0000 0.0000 1690.9917 -7634.8171 287.6760 -9325.8088 -7634.8171 287.6760 -209.8048 -131.1468 30208.2474 -209.8048 -131.1468
ENERGY: 300000 0.1651 3.3406 0.7911 0.0000 -10775.3253 1510.0235 0.0000 0.0000 1773.9075 -7487.0975 301.7819 -9261.0050 -7545.4781 298.1747 450.5483 479.1869 30579.2219 337.3689 398.1896
ENERGY: 600000 0.1554 2.8830 0.0488 0.0000 -10751.7486 1452.6792 0.0000 0.0000 1786.3937 -7509.5884 303.9061 -9295.9821 -7532.2086 300.1332 33.8916 76.3382 30411.6257 126.7346 182.3124
ENERGY: 900000 1.8532 2.8110 0.1805 0.0000 -10768.6507 1464.3391 0.0000 0.0000 1750.2261 -7549.2407 297.7532 -9299.4668 -7541.6139 299.9627 161.6598 257.6767 30167.7003 109.1132 165.1668
ENERGY: 1200000 3.4164 4.4536 0.2389 0.0000 -10577.0921 1360.5551 0.0000 0.0000 1797.6067 -7410.8215 305.8137 -9208.4282 -7532.7728 300.3912 -329.0339 -288.9782 30364.7907 187.5070 239.0920
ENERGY: 1500000 0.4783 3.2379 0.0955 0.0000 -10734.1387 1419.3337 0.0000 0.0000 1752.6508 -7558.3425 298.1656 -9310.9933 -7527.7727 300.8994 -198.6996 -207.3275 30307.2387 48.5616 100.8684
TCL: Running FEP window  14: Lambda1 0.34999999999999964 Lambda2 0.29999999999999966 [dLambda -0.04999999999999999]
TCL: Setting parameter firsttimestep to 0
TCL: Setting parameter alchLambda to 0.34999999999999964
Info: NONBONDED TABLE R-SQUARED SPACING: 0.0625
Info: NONBONDED TABLE SIZE: 705 POINTS
TCL: Setting parameter alchLambda2 to 0.29999999999999966
Info: NONBONDED TABLE R-SQUARED SPACING: 0.0625
Info: NONBONDED TABLE SIZE: 705 POINTS
TCL: Running for 1500000 steps
ETITLE: TS BOND ANGLE DIHED IMPRP ELECT VDW BOUNDARY MISC KINETIC TOTAL TEMP POTENTIAL TOTALAVG TEMPAVG PRESSURE GPRESSURE VOLUME PRESSAVG GPRESSAVG
ENERGY: 0 0.4783 3.2379 0.0955 0.0000 -10734.1387 1419.5482 0.0000 0.0000 1751.7550 -7559.0238 298.0133 -9310.7788 -7559.0238 298.0133 -283.3457 -207.4153 30307.2387 -283.3457 -207.4153
ENERGY: 300000 1.6782 4.4219 1.6596 0.0000 -10753.0315 1463.8398 0.0000 0.0000 1730.1615 -7551.2706 294.3397 -9281.4321 -7525.7386 301.5985 133.3888 242.3502 29949.2669 47.7308 135.1615
ENERGY: 600000 2.8076 2.7284 0.0644 0.0000 -10757.4341 1487.0215 0.0000 0.0000 1750.6637 -7514.1484 297.8276 -9264.8121 -7521.1616 300.9027 211.9552 317.5133 30418.3761 85.4680 180.1415
ENERGY: 900000 1.3242 4.0377 0.0309 0.0000 -10605.3586 1395.8527 0.0000 0.0000 1806.7387 -7397.3745 307.3672 -9204.1132 -7506.3090 300.6737 -148.6732 -103.3985 30607.7316 -20.8916 61.3517
ENERGY: 1200000 2.7821 2.8033 0.3895 0.0000 -10832.6379 1448.1472 0.0000 0.0000 1771.1935 -7607.3223 301.3202 -9378.5159 -7509.7005 300.2969 -178.3495 -134.5406 30107.1449 -57.7177 20.5326
ENERGY: 1500000 0.1828 2.4381 0.9479 0.0000 -10748.2746 1370.8288 0.0000 0.0000 1778.0384 -7595.8386 302.4847 -9373.8770 -7518.9574 300.4978 -691.2992 -631.1584 30078.4750 -65.2616 8.8967
TCL: Running FEP window  15: Lambda1 0.29999999999999966 Lambda2 0.24999999999999967 [dLambda -0.04999999999999999]
TCL: Setting parameter firsttimestep to 0
TCL: Setting parameter alchLambda to 0.29999999999999966
Info: NONBONDED TABLE R-SQUARED SPACING: 0.0625
Info: NONBONDED TABLE SIZE: 705 POINTS
TCL: Setting parameter alchLambda2 to 0.24999999999999967
Info: NONBONDED TABLE R-SQUARED SPACING: 0.0625
Info: NONBONDED TABLE SIZE: 705 POINTS
TCL: Running for 1500000 steps
ETITLE: TS BOND ANGLE DIHED IMPRP ELECT VDW BOUNDARY MISC KINETIC TOTAL TEMP POTENTIAL TOTALAVG TEMPAVG PRESSURE GPRESSURE VOLUME PRESSAVG GPRESSAVG
ENERGY: 0 0.1828 2.4381 0.9479 0.0000 -10748.2754 1370.5134 0.0000 0.0000 1777.1810 -7597.0122 302.3388 -9374.1932 -7597.0122 302.3388 -721.6204 -635.6221 30078.4750 -721.6204 -635.6221
ENERGY: 300000 1.1337 4.8388 0.2323 0.0000 -10736.1914 1430.5401 0.0000 0.0000 1782.6153 -7516.8311 303.2633 -9299.4464 -7517.7769 302.7113 5.0893 62.8593 30270.4993 -37.0910 27.0634
ENERGY: 600000 0.7754 2.2341 0.0931 0.0000 -10730.5798 1412.6338 0.0000 0.0000 1766.6477 -7548.1957 300.5468 -9314.8433 -7511.1177 301.6815 -135.9078 -167.3994 30105.7674 -45.8477 2.7264
ENERGY: 900000 0.8665 4.0562 0.4529 0.0000 -10857.0116 1503.0261 0.0000 0.0000 1724.2348 -7624.3751 293.3315 -9348.6099 -7520.5236 301.7206 590.5039 604.5448 29762.9709 91.9371 148.2451
ENERGY: 1200000 0.2277 5.8483 0.2939 0.0000 -10836.3409 1517.5664 0.0000 0.0000 1792.6704 -7519.7342 304.9739 -9312.4046 -7518.4262 301.4828 734.8174 731.4095 29753.9299 42.7124 95.2679
ENERGY: 1500000 1.1697 5.0737 0.1374 0.0000 -10839.0046 1570.4455 0.0000 0.0000 1770.4883 -7491.6901 301.2002 -9262.1784 -7519.8813 301.6447 1091.1068 1160.0433 29938.1042 161.7420 211.9522
TCL: Running FEP window  16: Lambda1 0.24999999999999967 Lambda2 0.19999999999999968 [dLambda -0.04999999999999999]
TCL: Setting parameter firsttimestep to 0
TCL: Setting parameter alchLambda to 0.24999999999999967
Info: NONBONDED TABLE R-SQUARED SPACING: 0.0625
Info: NONBONDED TABLE SIZE: 705 POINTS
TCL: Setting parameter alchLambda2 to 0.19999999999999968
Info: NONBONDED TABLE R-SQUARED SPACING: 0.0625
Info: NONBONDED TABLE SIZE: 705 POINTS
TCL: Running for 1500000 steps
ETITLE: TS BOND ANGLE DIHED IMPRP ELECT VDW BOUNDARY MISC KINETIC TOTAL TEMP POTENTIAL TOTALAVG TEMPAVG PRESSURE GPRESSURE VOLUME PRESSAVG GPRESSAVG
ENERGY: 0 1.1697 5.0737 0.1374 0.0000 -10839.0044 1569.5158 0.0000 0.0000 1769.5751 -7493.5328 301.0449 -9263.1079 -7493.5328 301.0449 1082.9273 1149.5104 29938.1042 1082.9273 1149.5104
ENERGY: 300000 1.4188 3.7716 0.4577 0.0000 -10890.7742 1542.7983 0.0000 0.0000 1819.3147 -7523.0130 309.5067 -9342.3277 -7518.5770 304.3860 680.4042 758.2820 30077.0916 531.4342 593.2666
ENERGY: 600000 1.6697 4.1803 0.0809 0.0000 -10749.9107 1462.9575 0.0000 0.0000 1747.8639 -7533.1584 297.3513 -9281.0223 -7541.3278 300.0422 -187.3833 -74.9165 30903.2769 293.4964 367.4709
ENERGY: 900000 0.5814 3.0817 0.0290 0.0000 -10573.7963 1247.1709 0.0000 0.0000 1754.1882 -7568.7453 298.4272 -9322.9335 -7555.5079 299.0428 -1735.8694 -1672.3554 30599.3464 123.2605 198.4804
ENERGY: 1200000 0.9826 2.2799 0.1125 0.0000 -10847.8601 1483.6265 0.0000 0.0000 1719.7959 -7641.0626 292.5763 -9360.8585 -7559.5943 297.8913 -5.4730 109.1128 30118.2817 49.1253 127.8295
ENERGY: 1500000 1.9926 2.3604 0.2971 0.0000 -10557.5151 1341.6608 0.0000 0.0000 1716.9372 -7494.2671 292.0900 -9211.2043 -7546.3835 297.9053 -378.4860 -362.6997 30129.3738 46.3070 117.0790
TCL: Running FEP window  17: Lambda1 0.19999999999999968 Lambda2 0.1499999999999997 [dLambda -0.04999999999999999]
TCL: Setting parameter firsttimestep to 0
TCL: Setting parameter alchLambda to 0.19999999999999968
Info: NONBONDED TABLE R-SQUARED SPACING: 0.0625
Info: NONBONDED TABLE SIZE: 705 POINTS
TCL: Setting parameter alchLambda2 to 0.1499999999999997
Info: NONBONDED TABLE R-SQUARED SPACING: 0.0625
Info: NONBONDED TABLE SIZE: 705 POINTS
TCL: Running for 1500000 steps
ETITLE: TS BOND ANGLE DIHED IMPRP ELECT VDW BOUNDARY MISC KINETIC TOTAL TEMP POTENTIAL TOTALAVG TEMPAVG PRESSURE GPRESSURE VOLUME PRESSAVG GPRESSAVG
ENERGY: 0 1.9926 2.3604 0.2971 0.0000 -10557.5142 1341.8225 0.0000 0.0000 1716.0633 -7494.9784 291.9413 -9211.0417 -7494.9784 291.9413 -436.6012 -363.4530 30129.3738 -436.6012 -363.4530
ENERGY: 300000 0.3599 3.3508 0.0218 0.0000 -10607.4808 1438.7257 0.0000 0.0000 1838.9946 -7326.0280 312.8547 -9165.0226 -7455.1152 301.3291 198.9958 249.2932 30475.6809 -15.4872 36.3173
ENERGY: 600000 0.9639 3.0755 0.3599 0.0000 -10577.3225 1298.5417 0.0000 0.0000 1800.2700 -7474.1115 306.2668 -9274.3815 -7473.8125 300.0432 -1227.9589 -1175.9884 30734.7741 -164.3673 -115.5669
ENERGY: 900000 0.5189 7.1123 0.0404 0.0000 -10581.1278 1377.5538 0.0000 0.0000 1750.9064 -7444.9959 297.8689 -9195.9023 -7487.4528 299.1988 -455.9676 -320.3071 30692.8252 -234.4570 -175.1282
ENERGY: 1200000 0.4621 2.2187 0.0637 0.0000 -10652.3532 1365.1908 0.0000 0.0000 1746.4049 -7538.0128 297.1031 -9284.4177 -7503.1093 298.0587 -684.7377 -620.2910 30673.5970 -352.3811 -294.0853
ENERGY: 1500000 0.3350 2.7148 0.5236 0.0000 -10706.1439 1401.7976 0.0000 0.0000 1709.0161 -7591.7568 290.7424 -9300.7730 -7505.3839 298.5650 -364.0024 -289.4868 30161.6241 -209.2248 -148.5979
TCL: Running FEP window  18: Lambda1 0.1499999999999997 Lambda2 0.09999999999999969 [dLambda -0.05 ]
TCL: Setting parameter firsttimestep to 0
TCL: Setting parameter alchLambda to 0.1499999999999997
Info: NONBONDED TABLE R-SQUARED SPACING: 0.0625
Info: NONBONDED TABLE SIZE: 705 POINTS
TCL: Setting parameter alchLambda2 to 0.09999999999999969
Info: NONBONDED TABLE R-SQUARED SPACING: 0.0625
Info: NONBONDED TABLE SIZE: 705 POINTS
TCL: Running for 1500000 steps
ETITLE: TS BOND ANGLE DIHED IMPRP ELECT VDW BOUNDARY MISC KINETIC TOTAL TEMP POTENTIAL TOTALAVG TEMPAVG PRESSURE GPRESSURE VOLUME PRESSAVG GPRESSAVG
ENERGY: 0 0.3350 2.7148 0.5236 0.0000 -10706.1447 1402.1360 0.0000 0.0000 1708.1114 -7592.3241 290.5885 -9300.4354 -7592.3241 290.5885 -378.2133 -287.5947 30161.6241 -378.2133 -287.5947
ENERGY: 300000 0.8881 4.3573 0.0707 0.0000 -10754.1546 1469.4220 0.0000 0.0000 1835.3537 -7444.0627 312.2353 -9279.4164 -7492.6115 303.0726 300.4280 386.1719 30128.0835 -203.2329 -118.3820
ENERGY: 600000 2.2531 2.8889 0.0946 0.0000 -10775.6715 1460.0941 0.0000 0.0000 1784.8477 -7525.4932 303.6431 -9310.3408 -7506.0089 302.4524 109.1302 137.4380 30274.4502 -145.5824 -72.2060
ENERGY: 900000 0.4382 3.0121 0.2100 0.0000 -10908.6361 1522.4449 0.0000 0.0000 1732.6284 -7649.9025 294.7594 -9382.5310 -7529.5771 300.9203 576.1347 627.5526 29741.7409 -72.3660 -5.4462
ENERGY: 1200000 0.5616 3.9764 0.0697 0.0000 -10947.0507 1585.1909 0.0000 0.0000 1811.2842 -7545.9678 308.1405 -9357.2520 -7534.5224 301.3300 1342.0479 1401.7805 29685.9454 103.0894 165.9402
ENERGY: 1500000 0.9754 4.8952 0.2852 0.0000 -10792.8631 1531.9189 0.0000 0.0000 1762.8208 -7491.9676 299.8958 -9254.7884 -7532.4564 300.8517 583.5034 614.0413 30623.4219 45.6442 115.0003
TCL: Running FEP window  19: Lambda1 0.09999999999999969 Lambda2 0.049999999999999684 [dLambda -0.05 ]
TCL: Setting parameter firsttimestep to 0
TCL: Setting parameter alchLambda to 0.09999999999999969
Info: NONBONDED TABLE R-SQUARED SPACING: 0.0625
Info: NONBONDED TABLE SIZE: 705 POINTS
TCL: Setting parameter alchLambda2 to 0.049999999999999684
Info: NONBONDED TABLE R-SQUARED SPACING: 0.0625
Info: NONBONDED TABLE SIZE: 705 POINTS
TCL: Running for 1500000 steps
ETITLE: TS BOND ANGLE DIHED IMPRP ELECT VDW BOUNDARY MISC KINETIC TOTAL TEMP POTENTIAL TOTALAVG TEMPAVG PRESSURE GPRESSURE VOLUME PRESSAVG GPRESSAVG
ENERGY: 0 0.9754 4.8952 0.2852 0.0000 -10792.8631 1531.5559 0.0000 0.0000 1761.9359 -7493.2155 299.7453 -9255.1514 -7493.2155 299.7453 530.9495 608.8418 30623.4219 530.9495 608.8418
ENERGY: 300000 1.8480 4.0696 0.2374 0.0000 -10883.0108 1536.5799 0.0000 0.0000 1735.2453 -7605.0306 295.2046 -9340.2759 -7584.8052 295.7822 451.8285 517.2014 30190.5274 369.2020 427.1171
ENERGY: 600000 0.5590 3.7923 0.4079 0.0000 -10776.5899 1498.8789 0.0000 0.0000 1753.7635 -7519.1883 298.3550 -9272.9519 -7561.1919 295.9733 409.1106 446.9834 30205.1143 185.7478 227.3857
ENERGY: 900000 0.1705 4.3188 1.9874 0.0000 -10690.0868 1391.1357 0.0000 0.0000 1796.2568 -7496.2175 305.5840 -9292.4743 -7539.1399 297.7331 -456.8780 -400.2493 30337.4463 88.9081 136.8986
ENERGY: 1200000 1.9956 3.9680 0.0581 0.0000 -10792.8728 1518.9822 0.0000 0.0000 1785.8220 -7482.0470 303.8088 -9267.8689 -7530.5865 298.2628 723.3241 807.3764 29773.6765 139.5591 192.7855
ENERGY: 1500000 0.6983 2.8988 0.2222 0.0000 -10658.4370 1394.2726 0.0000 0.0000 1733.5178 -7526.8274 294.9107 -9260.3452 -7526.0594 298.8719 -321.1947 -259.5683 30136.9641 109.2845 163.3704
TCL: Running FEP window  20: Lambda1 0.049999999999999684 Lambda2 0.0    [dLambda -0.049999999999999684]
TCL: Setting parameter firsttimestep to 0
TCL: Setting parameter alchLambda to 0.049999999999999684
Info: NONBONDED TABLE R-SQUARED SPACING: 0.0625
Info: NONBONDED TABLE SIZE: 705 POINTS
TCL: Setting parameter alchLambda2 to 0.0
Info: NONBONDED TABLE R-SQUARED SPACING: 0.0625
Info: NONBONDED TABLE SIZE: 705 POINTS
TCL: Running for 1500000 steps
ETITLE: TS BOND ANGLE DIHED IMPRP ELECT VDW BOUNDARY MISC KINETIC TOTAL TEMP POTENTIAL TOTALAVG TEMPAVG PRESSURE GPRESSURE VOLUME PRESSAVG GPRESSAVG
ENERGY: 0 0.6983 2.8988 0.2222 0.0000 -10658.4366 1394.2187 0.0000 0.0000 1732.6455 -7527.7532 294.7623 -9260.3987 -7527.7532 294.7623 -330.5395 -259.1743 30136.9641 -330.5395 -259.1743
ENERGY: 300000 0.3646 2.6504 0.9670 0.0000 -10729.4855 1407.8422 0.0000 0.0000 1769.7425 -7547.9187 301.0733 -9317.6613 -7497.6989 301.8739 -672.5919 -629.8877 30657.4878 -482.5831 -411.9122
ENERGY: 600000 0.5201 2.7443 0.0929 0.0000 -10668.8512 1411.4259 0.0000 0.0000 1776.7770 -7477.2910 302.2701 -9254.0681 -7493.3868 301.6356 -364.7883 -345.8564 30828.8084 -221.5721 -161.7403
ENERGY: 900000 2.0247 3.9370 0.1481 0.0000 -10869.5617 1534.3036 0.0000 0.0000 1777.6487 -7551.4996 302.4184 -9329.1483 -7496.6775 301.5544 388.2572 440.4444 30317.5122 -257.1649 -196.1440
ENERGY: 1200000 1.9747 3.1471 0.3657 0.0000 -10635.3060 1343.7933 0.0000 0.0000 1779.8528 -7506.1724 302.7933 -9286.0253 -7499.3473 301.0111 -738.6616 -672.5769 30268.4966 -208.0348 -159.2951
ENERGY: 1500000 2.1821 2.7422 0.1069 0.0000 -10684.8331 1432.1333 0.0000 0.0000 1787.7468 -7459.9218 304.1363 -9247.6686 -7504.2912 300.7312 -19.8671 -1.4717 30401.5317 -113.2064 -65.7074
TCL: Exiting due to exit command.
