Info: SIMULATION PARAMETERS:
Info: TIMESTEP               2
Info: NUMBER OF STEPS        0
Info: STEPS PER CYCLE        10
Info: PERIODIC CELL BASIS 1  31.271 0 0
Info: PERIODIC CELL BASIS 2  0 30.6011 0
Info: PERIODIC CELL BASIS 3  0 0 32.333
Info: PERIODIC CELL CENTER   0 0 0
Info: WRAPPING WATERS AROUND PERIODIC BOUNDARIES ON OUTPUT.
Info: WRAPPING ALL CLUSTERS AROUND PERIODIC BOUNDARIES ON OUTPUT.
Info: FIRST LDB TIMESTEP     50
Info: LAST LDB TIMESTEP     -1
Info: HOM BACKGROUND SCALING 1
Info: PME BACKGROUND SCALING 1
Info: MIN ATOMS PER PATCH    40
Info: EMPTY PATCH LOAD       40 ATOMS
Info: VELOCITY FILE          mobley_4715906_equil.vel
Info: CENTER OF MASS MOVING INITIALLY? NO
Info: DIELECTRIC             1
Info: EXCLUDE                SCALED ONE-FOUR
Info: 1-4 ELECTROSTATICS SCALED BY 0.833333
Info: MODIFIED 1-4 VDW PARAMETERS WILL BE USED
Info: DCD FILENAME           mobley_4715906_prod.dcd
Info: DCD FREQUENCY          100000
Info: DCD FIRST STEP         100000
Info: DCD FILE WILL CONTAIN UNIT CELL DATA
Info: XST FILENAME           mobley_4715906_prod.xst
Info: XST FREQUENCY          100000
Info: NO VELOCITY DCD OUTPUT
Info: NO FORCE DCD OUTPUT
Info: OUTPUT FILENAME        mobley_4715906_prod
Info: BINARY OUTPUT FILES WILL BE USED
Info: RESTART FILENAME       mobley_4715906_prod.restart
Info: RESTART FREQUENCY      100000
Info: BINARY RESTART FILES WILL BE USED
Info: CUTOFF                 9
Info: PAIRLIST DISTANCE      11
Info: PAIRLIST SHRINK RATE   0.01
Info: PAIRLIST GROW RATE     0.01
Info: PAIRLIST TRIGGER       0.3
Info: PAIRLISTS PER CYCLE    2
Info: PAIRLISTS ENABLED
Info: MARGIN                 2
Info: HYDROGEN GROUP CUTOFF  2.5
Info: PATCH DIMENSION        15.5
Info: ENERGY OUTPUT STEPS    100000
Info: ENERGY EVALUATION STEPS    100000
Info: OUTPUT ENERGY PRECISION 4
Info: CROSSTERM ENERGY INCLUDED IN DIHEDRAL
Info: TIMING OUTPUT STEPS    1000000
Info: PRESSURE OUTPUT STEPS  100000
Info: ALCHEMICAL FEP ON
Info: FEP CURRENT LAMBDA VALUE     0
Info: FEP COMPARISON LAMBDA VALUE  0.05
Info: FEP INTRA-ALCHEMICAL NON-BONDED INTERACTIONS WILL BE RETAINED
Info: FEP INTRA-ALCHEMICAL BONDED INTERACTIONS WILL BE RETAINED
Info: FEP VDW SHIFTING COEFFICIENT 5
Info: FEP ELEC. ACTIVE FOR ANNIHILATED PARTICLES BETWEEN LAMBDA = 0 AND LAMBDA = 0.5
Info: FEP ELEC. ACTIVE FOR EXNIHILATED PARTICLES BETWEEN LAMBDA = 0.5 AND LAMBDA = 1
Info: FEP VDW ACTIVE FOR ANNIHILATED PARTICLES BETWEEN LAMBDA = 0 AND LAMBDA = 1
Info: FEP VDW ACTIVE FOR EXNIHILATED PARTICLES BETWEEN LAMBDA = 0 AND LAMBDA = 1
Info: FEP BOND ACTIVE FOR ANNIHILATED PARTICLES BETWEEN LAMBDA = 1 AND LAMBDA = 1
Info: FEP BOND ACTIVE FOR EXNIHILATED PARTICLES BETWEEN LAMBDA = 0 AND LAMBDA = 0
Info: LANGEVIN DYNAMICS ACTIVE
Info: LANGEVIN TEMPERATURE   300
Info: LANGEVIN USING BBK INTEGRATOR
Info: LANGEVIN DAMPING COEFFICIENT IS 1 INVERSE PS
Info: LANGEVIN DYNAMICS APPLIED TO HYDROGENS
Info: LANGEVIN PISTON PRESSURE CONTROL ACTIVE
Info:        TARGET PRESSURE IS 1.01325 BAR
Info:     OSCILLATION PERIOD IS 50 FS
Info:             DECAY TIME IS 25 FS
Info:     PISTON TEMPERATURE IS 300 K
Info:       PRESSURE CONTROL IS GROUP-BASED
Info:    INITIAL STRAIN RATE IS -0.000180274 -0.000180274 -0.000180274
Info:       CELL FLUCTUATION IS ISOTROPIC
Info: PARTICLE MESH EWALD (PME) ACTIVE
Info: PME TOLERANCE               1e-06
Info: PME EWALD COEFFICIENT       0.348832
Info: PME INTERPOLATION ORDER     4
Info: PME GRID DIMENSIONS         32 32 36
Info: PME MAXIMUM GRID SPACING    1
Info: PME CALCULATION WILL BE PERFORMED ON GPU
Info: FULL ELECTROSTATIC EVALUATION FREQUENCY      2
Info: USING VERLET I (r-RESPA) MTS SCHEME.
Info: C1 SPLITTING OF LONG RANGE ELECTROSTATICS
Info: PLACING ATOMS IN PATCHES BY HYDROGEN GROUPS
Info: RIGID BONDS TO HYDROGEN : ALL
Info:         ERROR TOLERANCE : 1e-08
Info:          MAX ITERATIONS : 100
Info: RIGID WATER USING SETTLE ALGORITHM
Info: RANDOM NUMBER SEED     1743641587
Info: USE HYDROGEN BONDS?    NO
Info: Using AMBER format force field!
Info: AMBER PARM FILE        mobley_4715906.prmtop
Info: COORDINATE PDB         mobley_4715906.pdb
Info: Exclusions will be read from PARM file!
Info: SCNB (VDW SCALING)     2
Info: USING ARITHMETIC MEAN TO COMBINE L-J SIGMA PARAMETERS
Info: BINARY COORDINATES     mobley_4715906_equil.coor
Info: SUMMARY OF PARAMETERS:
Info: 4 BONDS
Info: 3 ANGLES
Info:   3 HARMONIC
Info:   0 COSINE-BASED
Info: 5 DIHEDRAL
Info: 0 IMPROPER
Info: 0 CROSSTERM
Info: 0 VDW
Info: 10 VDW_PAIRS
Info: 0 NBTHOLE_PAIRS
Info: To read alchdata from file: mobley_4715906.pdb
Info: To read alchflag data from column: 5
Info: STRUCTURE SUMMARY:
Info: 2961 ATOMS
Info: 2961 BONDS
Info: 48 ANGLES
Info: 94 DIHEDRALS
Info: 0 IMPROPERS
Info: 0 CROSSTERMS
Info: 3078 EXCLUSIONS
Info: 2953 RIGID BONDS
Info: ALCH: 0 ATOMS TO DISAPPEAR IN FINAL STATE
Info: ALCH: 24 ATOMS TO APPEAR IN FINAL STATE
Info: 5930 DEGREES OF FREEDOM
Info: 987 HYDROGEN GROUPS
Info: 4 ATOMS IN LARGEST HYDROGEN GROUP
Info: 987 MIGRATION GROUPS
Info: 4 ATOMS IN LARGEST MIGRATION GROUP
Info: TOTAL MASS = 17749.9 amu
Info: TOTAL CHARGE = -0.000199981 e
Info: MASS DENSITY = 0.952641 g/cm^3
Info: ATOM DENSITY = 0.0957003 atoms/A^3
Info: ADDED 0 IMPLICIT EXCLUSIONS
Info: NONBONDED TABLE R-SQUARED SPACING: 0.0625
Info: NONBONDED TABLE SIZE: 705 POINTS
Info: REMOVING COM VELOCITY 0.0745785 -0.104703 -0.0906693
Info: Use 3D box decompostion in PME FFT.
Info: Updated CUDA force table with 4096 elements.
Info: Updated CUDA LJ table with 4 x 4 elements.
Info: Found 27 unique exclusion lists needing 84 bytes
TCL: Running for 1500000 steps
ETITLE: TS BOND ANGLE DIHED IMPRP ELECT VDW BOUNDARY MISC KINETIC TOTAL TEMP POTENTIAL TOTALAVG TEMPAVG PRESSURE GPRESSURE VOLUME PRESSAVG GPRESSAVG
ENERGY: 0 1.3355 16.8589 6.4266 0.0000 -10694.6001 1509.1580 0.0000 0.0000 1761.8135 -7399.0076 299.0168 -9160.8211 -7399.0076 299.0168 466.7152 537.7624 30940.3482 466.7152 537.7624
ENERGY: 300000 3.4173 9.8290 7.8272 0.0000 -10564.1584 1416.9853 0.0000 0.0000 1775.6191 -7350.4806 301.3599 -9126.0996 -7388.6755 300.0370 -155.0120 -119.2220 30554.1881 -4.6326 49.9174
ENERGY: 600000 4.9481 10.5226 5.9402 0.0000 -10779.0452 1528.5712 0.0000 0.0000 1772.3649 -7456.6983 300.8076 -9229.0632 -7414.3919 299.8309 523.7768 605.2634 30270.6303 34.7350 111.7724
ENERGY: 900000 3.5706 12.6559 6.7806 0.0000 -10637.9951 1437.1012 0.0000 0.0000 1795.2606 -7382.6263 304.6935 -9177.8869 -7425.4634 299.7974 -142.9744 -104.9595 30655.9371 24.9546 99.0989
ENERGY: 1200000 3.4681 12.0259 5.6002 0.0000 -10770.1353 1453.8585 0.0000 0.0000 1813.2139 -7481.9687 307.7405 -9295.1826 -7432.1989 300.8021 -43.2236 62.4539 30171.6652 -7.2660 65.5698
ENERGY: 1500000 1.2735 14.0730 6.0645 0.0000 -10799.0039 1520.5732 0.0000 0.0000 1743.9721 -7513.0476 295.9888 -9257.0198 -7440.5237 300.1736 559.3866 632.2305 29998.5647 54.0448 123.9986
TCL: Running FEP window   2: Lambda1 0.05   Lambda2 0.1    [dLambda 0.05  ]
TCL: Setting parameter firsttimestep to 0
TCL: Setting parameter alchLambda to 0.05
Info: NONBONDED TABLE R-SQUARED SPACING: 0.0625
Info: NONBONDED TABLE SIZE: 705 POINTS
TCL: Setting parameter alchLambda2 to 0.1
Info: NONBONDED TABLE R-SQUARED SPACING: 0.0625
Info: NONBONDED TABLE SIZE: 705 POINTS
TCL: Running for 1500000 steps
ETITLE: TS BOND ANGLE DIHED IMPRP ELECT VDW BOUNDARY MISC KINETIC TOTAL TEMP POTENTIAL TOTALAVG TEMPAVG PRESSURE GPRESSURE VOLUME PRESSAVG GPRESSAVG
ENERGY: 0 1.2735 14.0730 6.0645 0.0000 -10799.0040 1526.7462 0.0000 0.0000 1743.1068 -7507.7400 295.8419 -9250.8468 -7507.7400 295.8419 559.8760 642.2297 29998.5647 559.8760 642.2297
ENERGY: 300000 1.7487 10.1210 6.9745 0.0000 -10713.3534 1447.1672 0.0000 0.0000 1797.6333 -7449.7088 305.0962 -9247.3420 -7492.0493 300.2117 281.0282 234.8352 30001.0009 125.7089 171.2571
ENERGY: 600000 4.2910 8.9887 7.0695 0.0000 -10711.6501 1489.4547 0.0000 0.0000 1777.1347 -7424.7116 301.6171 -9201.8463 -7481.2845 299.1639 595.3310 633.0415 29819.8237 56.1439 105.5098
ENERGY: 900000 2.6865 13.0113 6.6829 0.0000 -10687.5042 1467.3121 0.0000 0.0000 1834.8836 -7362.9278 311.4184 -9197.8114 -7458.1716 301.4069 -101.3819 -51.3176 30708.6036 -17.0108 33.3807
ENERGY: 1200000 6.3258 11.4124 6.5526 0.0000 -10600.9552 1387.9966 0.0000 0.0000 1776.5172 -7412.1506 301.5124 -9188.6678 -7458.6016 301.2832 -419.0764 -356.7278 30177.5957 -25.4073 24.4816
ENERGY: 1500000 2.9332 9.9253 6.6064 0.0000 -10859.4970 1524.4382 0.0000 0.0000 1797.3671 -7518.2269 305.0510 -9315.5939 -7461.6668 301.2583 606.4250 686.3947 29629.3949 80.7707 130.7034
TCL: Running FEP window   3: Lambda1 0.1    Lambda2 0.15000000000000002 [dLambda 0.05000000000000002]
TCL: Setting parameter firsttimestep to 0
TCL: Setting parameter alchLambda to 0.1
Info: NONBONDED TABLE R-SQUARED SPACING: 0.0625
Info: NONBONDED TABLE SIZE: 705 POINTS
TCL: Setting parameter alchLambda2 to 0.15000000000000002
Info: NONBONDED TABLE R-SQUARED SPACING: 0.0625
Info: NONBONDED TABLE SIZE: 705 POINTS
TCL: Running for 1500000 steps
ETITLE: TS BOND ANGLE DIHED IMPRP ELECT VDW BOUNDARY MISC KINETIC TOTAL TEMP POTENTIAL TOTALAVG TEMPAVG PRESSURE GPRESSURE VOLUME PRESSAVG GPRESSAVG
ENERGY: 0 2.9332 9.9253 6.6064 0.0000 -10859.4979 1525.9782 0.0000 0.0000 1796.5273 -7517.5274 304.9085 -9314.0547 -7517.5274 304.9085 602.8238 695.4010 29629.3949 602.8238 695.4010
ENERGY: 300000 2.3407 14.6662 6.4808 0.0000 -10624.6178 1398.3231 0.0000 0.0000 1759.7000 -7443.1071 298.6581 -9202.8071 -7460.6671 297.2199 -421.6988 -362.7745 30749.7956 138.5450 199.2000
ENERGY: 600000 3.1892 13.7664 7.5316 0.0000 -10785.0815 1524.9474 0.0000 0.0000 1792.6669 -7442.9801 304.2533 -9235.6470 -7460.8013 299.3767 563.8048 625.9942 30131.6094 139.9816 186.3624
ENERGY: 900000 1.3064 9.0839 6.3804 0.0000 -10695.1756 1413.0719 0.0000 0.0000 1781.4437 -7483.8894 302.3485 -9265.3331 -7463.9482 298.9342 -221.3766 -130.2606 30003.5483 -65.7583 -13.6993
ENERGY: 1200000 3.1546 13.2879 7.1727 0.0000 -10605.3414 1342.4165 0.0000 0.0000 1759.3133 -7479.9965 298.5925 -9239.3098 -7454.5274 298.9544 -767.4258 -734.5361 30016.4284 -79.8238 -26.0121
ENERGY: 1500000 4.2121 11.7282 7.1034 0.0000 -10628.4445 1386.9721 0.0000 0.0000 1768.6555 -7449.7730 300.1781 -9218.4285 -7465.0468 298.4945 -706.0025 -610.3375 30677.6930 -107.2366 -47.5251
TCL: Running FEP window   4: Lambda1 0.15000000000000002 Lambda2 0.2    [dLambda 0.04999999999999999]
TCL: Setting parameter firsttimestep to 0
TCL: Setting parameter alchLambda to 0.15000000000000002
Info: NONBONDED TABLE R-SQUARED SPACING: 0.0625
Info: NONBONDED TABLE SIZE: 705 POINTS
TCL: Setting parameter alchLambda2 to 0.2
Info: NONBONDED TABLE R-SQUARED SPACING: 0.0625
Info: NONBONDED TABLE SIZE: 705 POINTS
TCL: Running for 1500000 steps
ETITLE: TS BOND ANGLE DIHED IMPRP ELECT VDW BOUNDARY MISC KINETIC TOTAL TEMP POTENTIAL TOTALAVG TEMPAVG PRESSURE GPRESSURE VOLUME PRESSAVG GPRESSAVG
ENERGY: 0 4.2121 11.7283 7.1034 0.0000 -10628.4433 1389.1163 0.0000 0.0000 1767.7949 -7448.4883 300.0320 -9216.2832 -7448.4883 300.0320 -699.8448 -596.6381 30677.6930 -699.8448 -596.6381
ENERGY: 300000 2.9489 13.1631 7.4024 0.0000 -10563.0961 1369.0275 0.0000 0.0000 1797.2087 -7373.3454 305.0241 -9170.5541 -7459.5821 301.8675 -678.9782 -584.0908 30584.8715 -446.0893 -360.0578
ENERGY: 600000 4.4873 10.6458 7.6855 0.0000 -10764.6334 1412.0583 0.0000 0.0000 1724.6365 -7605.1202 292.7071 -9329.7566 -7478.8970 301.3696 -551.9828 -493.9359 29838.4247 -350.5002 -280.7669
ENERGY: 900000 2.8902 9.1005 6.6505 0.0000 -10688.6359 1414.2523 0.0000 0.0000 1795.9752 -7459.7671 304.8148 -9255.7424 -7469.6176 301.7076 -18.5623 -30.9783 29916.9233 -287.5408 -221.2062
ENERGY: 1200000 4.4505 13.2141 6.8035 0.0000 -10840.1388 1581.1286 0.0000 0.0000 1820.9505 -7413.5917 309.0536 -9234.5422 -7464.2767 301.8520 1459.1087 1528.9408 29591.5816 -76.7600 -13.8657
ENERGY: 1500000 2.0304 13.2425 6.0605 0.0000 -10950.9377 1623.1593 0.0000 0.0000 1761.6573 -7544.7877 298.9903 -9306.4450 -7473.1888 301.4550 1135.2746 1197.6936 30262.6491 45.2567 106.9993
TCL: Running FEP window   5: Lambda1 0.2    Lambda2 0.25   [dLambda 0.04999999999999999]
TCL: Setting parameter firsttimestep to 0
TCL: Setting parameter alchLambda to 0.2
Info: NONBONDED TABLE R-SQUARED SPACING: 0.0625
Info: NONBONDED TABLE SIZE: 705 POINTS
TCL: Setting parameter alchLambda2 to 0.25
Info: NONBONDED TABLE R-SQUARED SPACING: 0.0625
Info: NONBONDED TABLE SIZE: 705 POINTS
TCL: Running for 1500000 steps
ETITLE: TS BOND ANGLE DIHED IMPRP ELECT VDW BOUNDARY MISC KINETIC TOTAL TEMP POTENTIAL TOTALAVG TEMPAVG PRESSURE GPRESSURE VOLUME PRESSAVG GPRESSAVG
ENERGY: 0 2.0304 13.2425 6.0605 0.0000 -10950.9389 1623.4087 0.0000 0.0000 1760.7938 -7545.4031 298.8438 -9306.1969 -7545.4031 298.8438 1118.6391 1204.2279 30262.6491 1118.6391 1204.2279
ENERGY: 300000 2.8468 10.6117 6.2988 0.0000 -10698.3857 1443.6651 0.0000 0.0000 1727.8780 -7507.0854 293.2573 -9234.9634 -7503.5311 296.8664 -182.4951 -137.1454 30463.6791 146.6655 220.9094
ENERGY: 600000 5.0756 11.7971 6.9632 0.0000 -10724.8880 1471.0588 0.0000 0.0000 1757.7374 -7472.2560 298.3250 -9229.9934 -7482.9783 299.0381 245.7278 240.0824 30125.3339 151.0843 208.5721
ENERGY: 900000 2.4088 10.7939 6.0831 0.0000 -10776.6308 1522.9802 0.0000 0.0000 1731.4286 -7502.9362 293.8599 -9234.3649 -7473.5301 298.8095 652.1502 753.8614 30106.6634 -1.6665 63.7408
ENERGY: 1200000 6.4952 7.6903 6.1403 0.0000 -10767.7478 1504.8275 0.0000 0.0000 1720.6603 -7521.9343 292.0323 -9242.5945 -7457.8660 299.9573 576.7310 619.5472 29764.5897 12.3805 80.3702
ENERGY: 1500000 1.8228 8.8400 5.8690 0.0000 -10670.3812 1430.5793 0.0000 0.0000 1765.4506 -7457.8195 299.6341 -9223.2701 -7448.1702 300.3581 -19.6333 -1.9589 30189.0052 -21.0147 45.0714
TCL: Running FEP window   6: Lambda1 0.25   Lambda2 0.3    [dLambda 0.04999999999999999]
TCL: Setting parameter firsttimestep to 0
TCL: Setting parameter alchLambda to 0.25
Info: NONBONDED TABLE R-SQUARED SPACING: 0.0625
Info: NONBONDED TABLE SIZE: 705 POINTS
TCL: Setting parameter alchLambda2 to 0.3
Info: NONBONDED TABLE R-SQUARED SPACING: 0.0625
Info: NONBONDED TABLE SIZE: 705 POINTS
TCL: Running for 1500000 steps
ETITLE: TS BOND ANGLE DIHED IMPRP ELECT VDW BOUNDARY MISC KINETIC TOTAL TEMP POTENTIAL TOTALAVG TEMPAVG PRESSURE GPRESSURE VOLUME PRESSAVG GPRESSAVG
ENERGY: 0 1.8228 8.8400 5.8690 0.0000 -10670.3804 1430.3826 0.0000 0.0000 1764.5557 -7458.9104 299.4822 -9223.4661 -7458.9104 299.4822 -87.2987 1.7180 30189.0052 -87.2987 1.7180
ENERGY: 300000 2.8344 12.1715 6.2284 0.0000 -10466.2676 1314.0957 0.0000 0.0000 1709.9099 -7421.0278 290.2077 -9130.9376 -7417.6916 300.2085 -1089.9059 -1053.2211 30916.2909 -304.8715 -258.7149
ENERGY: 600000 2.6214 14.6928 7.2343 0.0000 -10746.2098 1470.6568 0.0000 0.0000 1709.1204 -7541.8840 290.0737 -9251.0044 -7446.2347 299.2650 -104.6156 -52.4530 30528.6114 -254.3646 -200.1647
ENERGY: 900000 5.5296 13.3073 7.0379 0.0000 -10679.0220 1508.5848 0.0000 0.0000 1763.9080 -7380.6543 299.3723 -9144.5624 -7432.8348 300.5835 390.4783 385.4717 30778.1502 -90.2535 -34.1316
ENERGY: 1200000 3.5434 10.9630 7.5617 0.0000 -10781.9292 1496.5920 0.0000 0.0000 1743.7365 -7519.5327 295.9488 -9263.2692 -7440.5454 299.9579 226.6283 291.7377 30374.5686 -55.2658 0.5510
ENERGY: 1500000 3.4810 12.5177 6.2778 0.0000 -10565.8358 1370.3686 0.0000 0.0000 1774.0830 -7399.1076 301.0992 -9173.1906 -7433.1336 300.6554 -713.7130 -656.7929 30770.7503 -43.4284 8.2605
TCL: Running FEP window   7: Lambda1 0.3    Lambda2 0.35   [dLambda 0.04999999999999999]
TCL: Setting parameter firsttimestep to 0
TCL: Setting parameter alchLambda to 0.3
Info: NONBONDED TABLE R-SQUARED SPACING: 0.0625
Info: NONBONDED TABLE SIZE: 705 POINTS
TCL: Setting parameter alchLambda2 to 0.35
Info: NONBONDED TABLE R-SQUARED SPACING: 0.0625
Info: NONBONDED TABLE SIZE: 705 POINTS
TCL: Running for 1500000 steps
ETITLE: TS BOND ANGLE DIHED IMPRP ELECT VDW BOUNDARY MISC KINETIC TOTAL TEMP POTENTIAL TOTALAVG TEMPAVG PRESSURE GPRESSURE VOLUME PRESSAVG GPRESSAVG
ENERGY: 0 3.4810 12.5177 6.2778 0.0000 -10565.8361 1369.9721 0.0000 0.0000 1773.2034 -7400.3841 300.9499 -9173.5875 -7400.3841 300.9499 -739.7319 -656.3949 30770.7503 -739.7319 -656.3949
ENERGY: 300000 1.8681 10.8283 6.9932 0.0000 -10770.0235 1519.8270 0.0000 0.0000 1753.0417 -7477.4652 297.5281 -9230.5069 -7441.4851 301.0792 465.6232 540.2527 30810.4430 -159.4824 -89.9497
ENERGY: 600000 2.4051 14.5566 5.4744 0.0000 -10771.7601 1509.7686 0.0000 0.0000 1751.6890 -7487.8664 297.2985 -9239.5554 -7451.6811 300.1260 436.6589 441.5885 30436.5955 -38.4944 2.4265
ENERGY: 900000 6.2589 10.1918 7.3071 0.0000 -10615.2386 1321.2684 0.0000 0.0000 1787.9300 -7482.2825 303.4493 -9270.2124 -7455.0731 299.7238 -1298.2692 -1225.7085 30649.7004 -157.9177 -108.6791
ENERGY: 1200000 1.3833 12.1420 6.8746 0.0000 -10758.8479 1501.5481 0.0000 0.0000 1726.9164 -7509.9835 293.0940 -9236.8999 -7459.8837 298.7883 400.2402 456.8598 30168.6988 -91.8668 -38.9909
ENERGY: 1500000 3.6375 14.0544 7.7231 0.0000 -10578.2608 1387.4744 0.0000 0.0000 1777.1205 -7388.2510 301.6147 -9165.3715 -7454.8646 299.4304 -454.4805 -375.2893 30823.5967 -130.9370 -80.2135
TCL: Running FEP window   8: Lambda1 0.35   Lambda2 0.39999999999999997 [dLambda 0.04999999999999999]
TCL: Setting parameter firsttimestep to 0
TCL: Setting parameter alchLambda to 0.35
Info: NONBONDED TABLE R-SQUARED SPACING: 0.0625
Info: NONBONDED TABLE SIZE: 705 POINTS
TCL: Setting parameter alchLambda2 to 0.39999999999999997
Info: NONBONDED TABLE R-SQUARED SPACING: 0.0625
Info: NONBONDED TABLE SIZE: 705 POINTS
TCL: Running for 1500000 steps
ETITLE: TS BOND ANGLE DIHED IMPRP ELECT VDW BOUNDARY MISC KINETIC TOTAL TEMP POTENTIAL TOTALAVG TEMPAVG PRESSURE GPRESSURE VOLUME PRESSAVG GPRESSAVG
ENERGY: 0 3.6375 14.0544 7.7231 0.0000 -10578.2604 1386.8591 0.0000 0.0000 1776.2409 -7389.7455 301.4655 -9165.9864 -7389.7455 301.4655 -477.4079 -375.0201 30823.5967 -477.4079 -375.0201
ENERGY: 300000 3.1690 12.3710 5.7886 0.0000 -10705.0275 1434.0650 0.0000 0.0000 1748.1090 -7501.5248 296.6909 -9249.6338 -7486.4052 294.7954 -231.7811 -231.6150 30493.5937 -479.4024 -432.8549
ENERGY: 600000 1.9778 14.1398 7.4540 0.0000 -10789.9455 1516.6901 0.0000 0.0000 1771.9456 -7477.7382 300.7364 -9249.6837 -7488.9248 296.3101 623.5928 711.1844 30074.6919 -271.0706 -224.8651
ENERGY: 900000 3.6284 13.6919 7.8438 0.0000 -10726.2649 1447.3171 0.0000 0.0000 1721.2491 -7532.5346 292.1322 -9253.7837 -7480.6451 296.5268 -24.5361 95.5967 30018.1675 -303.6251 -241.0560
ENERGY: 1200000 2.4428 13.6890 6.9592 0.0000 -10645.1161 1442.2133 0.0000 0.0000 1791.4214 -7388.3904 304.0419 -9179.8117 -7454.5779 298.3556 101.7813 142.0206 30473.2444 -218.6436 -160.0978
ENERGY: 1500000 3.2185 10.5304 5.9396 0.0000 -10683.3552 1435.7897 0.0000 0.0000 1719.0774 -7508.7994 291.7636 -9227.8769 -7468.0497 297.2981 -13.7047 100.3685 30072.3269 -176.7198 -118.8837
TCL: Running FEP window   9: Lambda1 0.39999999999999997 Lambda2 0.44999999999999996 [dLambda 0.04999999999999999]
TCL: Setting parameter firsttimestep to 0
TCL: Setting parameter alchLambda to 0.39999999999999997
Info: NONBONDED TABLE R-SQUARED SPACING: 0.0625
Info: NONBONDED TABLE SIZE: 705 POINTS
TCL: Setting parameter alchLambda2 to 0.44999999999999996
Info: NONBONDED TABLE R-SQUARED SPACING: 0.0625
Info: NONBONDED TABLE SIZE: 705 POINTS
TCL: Running for 1500000 steps
ETITLE: TS BOND ANGLE DIHED IMPRP ELECT VDW BOUNDARY MISC KINETIC TOTAL TEMP POTENTIAL TOTALAVG TEMPAVG PRESSURE GPRESSURE VOLUME PRESSAVG GPRESSAVG
ENERGY: 0 3.2185 10.5304 5.9396 0.0000 -10683.3559 1435.8479 0.0000 0.0000 1718.1585 -7509.6609 291.6077 -9227.8194 -7509.6609 291.6077 31.9869 109.3119 30072.3269 31.9869 109.3119
ENERGY: 300000 1.7182 9.7303 6.7480 0.0000 -10648.3221 1401.9975 0.0000 0.0000 1759.5170 -7468.6112 298.6271 -9228.1282 -7497.4098 296.8303 -253.9458 -214.5276 30443.0687 246.5615 292.5712
ENERGY: 600000 6.8477 7.1163 6.5881 0.0000 -10551.1216 1417.6589 0.0000 0.0000 1784.9436 -7327.9670 302.9425 -9112.9106 -7472.0373 297.6389 381.6284 412.0874 30319.2603 72.8463 105.8007
ENERGY: 900000 1.4530 12.0483 5.7988 0.0000 -10660.1957 1376.7051 0.0000 0.0000 1765.5527 -7498.6378 299.6514 -9264.1905 -7466.9217 298.9242 -581.4381 -505.3166 30279.4904 -118.1488 -70.8738
ENERGY: 1200000 3.3357 12.4654 6.3054 0.0000 -10660.2351 1443.4320 0.0000 0.0000 1777.4432 -7417.2534 301.6695 -9194.6966 -7450.3163 299.6607 151.0971 195.4155 30367.8712 -119.7660 -78.1498
ENERGY: 1500000 2.3441 15.0314 6.3755 0.0000 -10776.2336 1514.1590 0.0000 0.0000 1829.4769 -7408.8467 310.5007 -9238.3237 -7450.8796 301.1575 653.3802 782.3705 30160.9649 -86.6634 -36.4730
TCL: Running FEP window  10: Lambda1 0.44999999999999996 Lambda2 0.49999999999999994 [dLambda 0.04999999999999999]
TCL: Setting parameter firsttimestep to 0
TCL: Setting parameter alchLambda to 0.44999999999999996
Info: NONBONDED TABLE R-SQUARED SPACING: 0.0625
Info: NONBONDED TABLE SIZE: 705 POINTS
TCL: Setting parameter alchLambda2 to 0.49999999999999994
Info: NONBONDED TABLE R-SQUARED SPACING: 0.0625
Info: NONBONDED TABLE SIZE: 705 POINTS
TCL: Running for 1500000 steps
ETITLE: TS BOND ANGLE DIHED IMPRP ELECT VDW BOUNDARY MISC KINETIC TOTAL TEMP POTENTIAL TOTALAVG TEMPAVG PRESSURE GPRESSURE VOLUME PRESSAVG GPRESSAVG
ENERGY: 0 2.3441 15.0314 6.3755 0.0000 -10776.2348 1515.1269 0.0000 0.0000 1828.6096 -7408.7473 310.3535 -9237.3570 -7408.7473 310.3535 714.2059 801.4780 30160.9649 714.2059 801.4780
ENERGY: 300000 5.5929 17.3235 7.6605 0.0000 -10751.9003 1495.3356 0.0000 0.0000 1751.1939 -7474.7938 297.2145 -9225.9878 -7436.2179 297.9106 208.0973 285.8357 30408.5532 -18.7066 62.1984
ENERGY: 600000 1.9692 14.6197 6.3276 0.0000 -10832.0703 1519.4407 0.0000 0.0000 1778.5225 -7511.1906 301.8527 -9289.7131 -7475.6514 299.8292 562.3520 608.9936 30094.6422 211.6412 286.3387
ENERGY: 900000 1.4777 15.5379 6.8360 0.0000 -10772.3100 1485.1572 0.0000 0.0000 1730.7154 -7532.5856 293.7388 -9263.3011 -7481.9004 299.1699 338.1310 459.5204 30067.4143 74.3481 153.3275
ENERGY: 1200000 2.4889 16.4578 7.4133 0.0000 -10750.0187 1479.8937 0.0000 0.0000 1765.7855 -7477.9796 299.6909 -9243.7651 -7487.1828 298.5418 168.0438 261.7356 30338.5463 61.9346 137.8821
ENERGY: 1500000 2.5953 9.4105 6.6341 0.0000 -10613.8844 1359.1643 0.0000 0.0000 1735.7749 -7500.3054 294.5975 -9236.0803 -7482.0516 298.7916 -547.8307 -530.4156 30532.6660 -41.1836 31.4613
TCL: Running FEP window  11: Lambda1 0.49999999999999994 Lambda2 0.5499999999999999 [dLambda 0.04999999999999999]
TCL: Setting parameter firsttimestep to 0
TCL: Setting parameter alchLambda to 0.49999999999999994
Info: NONBONDED TABLE R-SQUARED SPACING: 0.0625
Info: NONBONDED TABLE SIZE: 705 POINTS
TCL: Setting parameter alchLambda2 to 0.5499999999999999
Info: NONBONDED TABLE R-SQUARED SPACING: 0.0625
Info: NONBONDED TABLE SIZE: 705 POINTS
TCL: Running for 1500000 steps
ETITLE: TS BOND ANGLE DIHED IMPRP ELECT VDW BOUNDARY MISC KINETIC TOTAL TEMP POTENTIAL TOTALAVG TEMPAVG PRESSURE GPRESSURE VOLUME PRESSAVG GPRESSAVG
ENERGY: 0 2.5953 9.4105 6.6341 0.0000 -10613.8874 1360.2829 0.0000 0.0000 1734.8847 -7500.0800 294.4464 -9234.9647 -7500.0800 294.4464 -601.5161 -516.1059 30532.6660 -601.5161 -516.1059
ENERGY: 300000 4.3198 12.6159 5.8256 0.0000 -10624.1297 1431.3242 0.0000 0.0000 1750.3753 -7419.6688 297.0755 -9170.0441 -7475.9915 295.6599 -204.7076 -91.1011 30777.2696 -401.0276 -314.5700
ENERGY: 600000 3.5919 13.8459 6.4727 0.0000 -10757.9678 1477.2629 0.0000 0.0000 1768.2993 -7488.4951 300.1176 -9256.7944 -7484.1329 297.7759 21.9285 111.8961 30560.8970 -120.4207 -23.2501
ENERGY: 900000 1.8901 10.7551 6.3606 0.0000 -10622.5197 1462.8599 0.0000 0.0000 1788.7263 -7351.9278 303.5845 -9140.6541 -7475.1256 298.7397 330.9863 422.2117 30622.2016 28.0168 121.8528
ENERGY: 1200000 1.0575 11.2834 6.2179 0.0000 -10739.0852 1452.2888 0.0000 0.0000 1775.6216 -7492.6160 301.3603 -9268.2376 -7474.1459 298.7540 132.7643 130.1955 30281.6406 94.7645 179.9394
ENERGY: 1500000 3.6768 12.5947 6.8854 0.0000 -10849.2449 1537.0084 0.0000 0.0000 1704.5132 -7584.5664 289.2918 -9289.0796 -7484.4193 297.7875 436.1439 472.1188 30409.3897 44.4668 132.6191
TCL: Running FEP window  12: Lambda1 0.5499999999999999 Lambda2 0.6    [dLambda 0.050000000000000044]
TCL: Setting parameter firsttimestep to 0
TCL: Setting parameter alchLambda to 0.5499999999999999
Info: NONBONDED TABLE R-SQUARED SPACING: 0.0625
Info: NONBONDED TABLE SIZE: 705 POINTS
TCL: Setting parameter alchLambda2 to 0.6
Info: NONBONDED TABLE R-SQUARED SPACING: 0.0625
Info: NONBONDED TABLE SIZE: 705 POINTS
TCL: Running for 1500000 steps
ETITLE: TS BOND ANGLE DIHED IMPRP ELECT VDW BOUNDARY MISC KINETIC TOTAL TEMP POTENTIAL TOTALAVG TEMPAVG PRESSURE GPRESSURE VOLUME PRESSAVG GPRESSAVG
ENERGY: 0 3.6768 12.5947 6.8854 0.0000 -10849.2538 1537.9083 0.0000 0.0000 1703.6094 -7584.5793 289.1384 -9288.1887 -7584.5793 289.1384 418.4547 489.8666 30409.3897 418.4547 489.8666
ENERGY: 300000 2.4540 11.7183 6.1543 0.0000 -10657.3941 1398.3378 0.0000 0.0000 1819.5815 -7419.1482 308.8213 -9238.7297 -7487.1626 299.0221 -342.4649 -310.0386 30630.5173 -69.3605 -2.3286
ENERGY: 600000 3.4810 10.9146 6.0404 0.0000 -10744.5292 1415.2164 0.0000 0.0000 1749.7034 -7559.1735 296.9615 -9308.8769 -7478.4334 300.5308 -342.9593 -314.1167 30153.4272 -175.2316 -121.6558
ENERGY: 900000 2.9022 14.4945 5.6651 0.0000 -10830.0719 1612.2109 0.0000 0.0000 1828.2156 -7366.5836 310.2867 -9194.7992 -7464.8240 301.6925 1347.8284 1453.0052 30267.8071 48.2572 110.5795
ENERGY: 1200000 2.2241 11.3276 7.0615 0.0000 -10814.2395 1560.6946 0.0000 0.0000 1778.4645 -7454.4673 301.8428 -9232.9317 -7470.7131 300.6754 556.8083 615.7983 30688.8276 34.0999 104.7469
ENERGY: 1500000 2.0770 10.4755 5.7287 0.0000 -10658.4725 1366.4852 0.0000 0.0000 1795.8502 -7477.8559 304.7936 -9273.7060 -7464.0548 301.6908 -595.1122 -561.1514 30374.9098 -68.2975 1.4754
TCL: Running FEP window  13: Lambda1 0.6    Lambda2 0.65   [dLambda 0.050000000000000044]
TCL: Setting parameter firsttimestep to 0
TCL: Setting parameter alchLambda to 0.6
Info: NONBONDED TABLE R-SQUARED SPACING: 0.0625
Info: NONBONDED TABLE SIZE: 705 POINTS
TCL: Setting parameter alchLambda2 to 0.65
Info: NONBONDED TABLE R-SQUARED SPACING: 0.0625
Info: NONBONDED TABLE SIZE: 705 POINTS
TCL: Running for 1500000 steps
ETITLE: TS BOND ANGLE DIHED IMPRP ELECT VDW BOUNDARY MISC KINETIC TOTAL TEMP POTENTIAL TOTALAVG TEMPAVG PRESSURE GPRESSURE VOLUME PRESSAVG GPRESSAVG
ENERGY: 0 2.0770 10.4755 5.7287 0.0000 -10658.5259 1366.9920 0.0000 0.0000 1794.9828 -7478.2699 304.6464 -9273.2527 -7478.2699 304.6464 -636.7797 -547.9954 30374.9098 -636.7797 -547.9954
ENERGY: 300000 4.6306 14.4657 5.7896 0.0000 -10813.6295 1487.1123 0.0000 0.0000 1747.7596 -7553.8716 296.6316 -9301.6312 -7443.4872 303.8273 113.6425 213.5862 30299.9928 12.2244 108.1355
ENERGY: 600000 1.1744 11.2745 6.5767 0.0000 -10636.4841 1444.8229 0.0000 0.0000 1781.2437 -7391.3919 302.3145 -9172.6356 -7445.8840 303.4850 39.2768 142.8243 30668.6684 91.1240 177.7067
ENERGY: 900000 1.1946 7.4428 6.6054 0.0000 -10662.8231 1462.1933 0.0000 0.0000 1728.0860 -7457.3010 293.2926 -9185.3870 -7453.8598 300.2091 71.7564 150.3897 30815.0739 -75.8290 9.6519
ENERGY: 1200000 2.1530 16.8248 6.0766 0.0000 -10759.3427 1451.7927 0.0000 0.0000 1757.0318 -7525.4638 298.2053 -9282.4956 -7465.7270 299.4022 -65.9653 30.1538 30348.0024 -30.0086 47.3599
ENERGY: 1500000 1.2462 10.8095 7.1982 0.0000 -10732.3855 1351.4214 0.0000 0.0000 1761.5370 -7600.1732 298.9699 -9361.7102 -7479.2832 299.0815 -1036.0262 -913.9899 30195.7314 -164.2619 -90.7522
TCL: Running FEP window  14: Lambda1 0.65   Lambda2 0.7000000000000001 [dLambda 0.050000000000000044]
TCL: Setting parameter firsttimestep to 0
TCL: Setting parameter alchLambda to 0.65
Info: NONBONDED TABLE R-SQUARED SPACING: 0.0625
Info: NONBONDED TABLE SIZE: 705 POINTS
TCL: Setting parameter alchLambda2 to 0.7000000000000001
Info: NONBONDED TABLE R-SQUARED SPACING: 0.0625
Info: NONBONDED TABLE SIZE: 705 POINTS
TCL: Running for 1500000 steps
ETITLE: TS BOND ANGLE DIHED IMPRP ELECT VDW BOUNDARY MISC KINETIC TOTAL TEMP POTENTIAL TOTALAVG TEMPAVG PRESSURE GPRESSURE VOLUME PRESSAVG GPRESSAVG
ENERGY: 0 1.2461 10.8095 7.1982 0.0000 -10732.3615 1351.6518 0.0000 0.0000 1760.6153 -7600.8406 298.8135 -9361.4559 -7600.8406 298.8135 -990.2350 -898.9231 30195.7314 -990.2350 -898.9231
ENERGY: 300000 2.6240 10.0133 5.8297 0.0000 -10558.8463 1355.5198 0.0000 0.0000 1751.1622 -7433.6973 297.2091 -9184.8595 -7484.7011 298.0018 -812.1225 -728.8457 30809.3469 -390.8375 -317.6167
ENERGY: 600000 1.6972 16.8225 6.5826 0.0000 -10708.9782 1461.8926 0.0000 0.0000 1743.6558 -7478.3275 295.9351 -9221.9834 -7480.1165 297.8973 450.9146 534.0579 30015.3934 -240.0519 -158.2393
ENERGY: 900000 6.0908 10.4454 6.3253 0.0000 -10677.1422 1419.7607 0.0000 0.0000 1764.9272 -7469.5926 299.5453 -9234.5198 -7467.6786 299.0497 -441.7631 -335.0953 30541.3830 -255.8152 -176.0487
ENERGY: 1200000 4.2128 10.9743 6.7908 0.0000 -10672.0824 1422.4077 0.0000 0.0000 1774.9832 -7452.7135 301.2520 -9227.6968 -7468.5003 299.3487 -296.1852 -253.1204 30467.0159 -201.1115 -129.9910
ENERGY: 1500000 0.4416 7.4950 7.9423 0.0000 -10687.3186 1423.6838 0.0000 0.0000 1787.1755 -7460.5803 303.3213 -9247.7559 -7460.4314 299.2159 211.6490 308.9446 29841.8615 -260.6245 -191.7913
TCL: Running FEP window  15: Lambda1 0.7000000000000001 Lambda2 0.7500000000000001 [dLambda 0.050000000000000044]
TCL: Setting parameter firsttimestep to 0
TCL: Setting parameter alchLambda to 0.7000000000000001
Info: NONBONDED TABLE R-SQUARED SPACING: 0.0625
Info: NONBONDED TABLE SIZE: 705 POINTS
TCL: Setting parameter alchLambda2 to 0.7500000000000001
Info: NONBONDED TABLE R-SQUARED SPACING: 0.0625
Info: NONBONDED TABLE SIZE: 705 POINTS
TCL: Running for 1500000 steps
ETITLE: TS BOND ANGLE DIHED IMPRP ELECT VDW BOUNDARY MISC KINETIC TOTAL TEMP POTENTIAL TOTALAVG TEMPAVG PRESSURE GPRESSURE VOLUME PRESSAVG GPRESSAVG
ENERGY: 0 0.4416 7.4950 7.9423 0.0000 -10687.3397 1424.2403 0.0000 0.0000 1786.2756 -7460.9449 303.1686 -9247.2205 -7460.9449 303.1686 226.1137 326.1609 29841.8615 226.1137 326.1609
ENERGY: 300000 2.4305 12.8432 6.2100 0.0000 -10567.7357 1381.8889 0.0000 0.0000 1717.9324 -7446.4307 291.5693 -9164.3632 -7467.2820 297.4844 -358.0925 -299.2583 30570.7518 -28.0832 40.3611
ENERGY: 600000 1.4238 14.6525 7.3463 0.0000 -10675.4796 1401.9257 0.0000 0.0000 1741.1306 -7509.0008 295.5065 -9250.1314 -7474.8543 296.6590 -354.1787 -289.2348 30470.1139 -129.8015 -72.2748
ENERGY: 900000 3.9705 11.9259 6.0006 0.0000 -10499.0202 1335.2706 0.0000 0.0000 1766.8088 -7375.0437 299.8646 -9141.8525 -7465.0640 298.1581 -727.6868 -623.5705 30537.2597 -72.3373 -4.4125
ENERGY: 1200000 1.6884 15.2009 6.2004 0.0000 -10603.3107 1438.2867 0.0000 0.0000 1782.7143 -7359.2199 302.5641 -9141.9342 -7450.0271 298.8922 190.0109 218.2670 30782.5982 -36.9073 32.9970
ENERGY: 1500000 1.3195 9.5936 6.3110 0.0000 -10703.4814 1472.9762 0.0000 0.0000 1746.4194 -7466.8617 296.4041 -9213.2810 -7453.5184 299.2297 306.1788 408.0756 30207.7874 39.0357 108.4719
TCL: Running FEP window  16: Lambda1 0.7500000000000001 Lambda2 0.8000000000000002 [dLambda 0.050000000000000044]
TCL: Setting parameter firsttimestep to 0
TCL: Setting parameter alchLambda to 0.7500000000000001
Info: NONBONDED TABLE R-SQUARED SPACING: 0.0625
Info: NONBONDED TABLE SIZE: 705 POINTS
TCL: Setting parameter alchLambda2 to 0.8000000000000002
Info: NONBONDED TABLE R-SQUARED SPACING: 0.0625
Info: NONBONDED TABLE SIZE: 705 POINTS
TCL: Running for 1500000 steps
ETITLE: TS BOND ANGLE DIHED IMPRP ELECT VDW BOUNDARY MISC KINETIC TOTAL TEMP POTENTIAL TOTALAVG TEMPAVG PRESSURE GPRESSURE VOLUME PRESSAVG GPRESSAVG
ENERGY: 0 1.3195 9.5936 6.3110 0.0000 -10703.4801 1473.1642 0.0000 0.0000 1745.5498 -7467.5419 296.2565 -9213.0917 -7467.5419 296.2565 327.6948 418.3783 30207.7874 327.6948 418.3783
ENERGY: 300000 4.0722 9.6407 6.3874 0.0000 -10612.1859 1434.3582 0.0000 0.0000 1770.4852 -7387.2422 300.4886 -9157.7274 -7489.6268 297.7131 217.7400 245.1366 30484.1994 17.7107 92.3785
ENERGY: 600000 2.2978 15.3109 6.7605 0.0000 -10644.9724 1429.8559 0.0000 0.0000 1767.7708 -7422.9765 300.0279 -9190.7473 -7476.2167 298.4913 83.7789 185.5718 30331.4782 54.7578 119.8841
ENERGY: 900000 1.2525 14.9382 6.1797 0.0000 -10641.6021 1447.9104 0.0000 0.0000 1820.8119 -7350.5095 309.0301 -9171.3214 -7459.9458 299.4469 101.8741 215.8270 30679.1898 102.8841 166.9136
ENERGY: 1200000 2.2543 12.1640 5.8241 0.0000 -10737.8213 1449.3392 0.0000 0.0000 1759.6535 -7508.5862 298.6502 -9268.2397 -7462.0142 299.9039 -153.8060 -81.2907 30505.5865 -4.2031 60.4956
ENERGY: 1500000 2.0742 16.6203 6.9078 0.0000 -10682.1398 1402.2213 0.0000 0.0000 1709.5607 -7544.7555 290.1484 -9254.3162 -7461.9810 299.7470 -500.7058 -434.2478 30510.6426 -64.8186 -2.5420
TCL: Running FEP window  17: Lambda1 0.8000000000000002 Lambda2 0.8500000000000002 [dLambda 0.050000000000000044]
TCL: Setting parameter firsttimestep to 0
TCL: Setting parameter alchLambda to 0.8000000000000002
Info: NONBONDED TABLE R-SQUARED SPACING: 0.0625
Info: NONBONDED TABLE SIZE: 705 POINTS
TCL: Setting parameter alchLambda2 to 0.8500000000000002
Info: NONBONDED TABLE R-SQUARED SPACING: 0.0625
Info: NONBONDED TABLE SIZE: 705 POINTS
TCL: Running for 1500000 steps
ETITLE: TS BOND ANGLE DIHED IMPRP ELECT VDW BOUNDARY MISC KINETIC TOTAL TEMP POTENTIAL TOTALAVG TEMPAVG PRESSURE GPRESSURE VOLUME PRESSAVG GPRESSAVG
ENERGY: 0 2.0742 16.6203 6.9078 0.0000 -10682.1453 1402.1901 0.0000 0.0000 1708.6384 -7545.7145 289.9919 -9254.3529 -7545.7145 289.9919 -513.6972 -426.0286 30510.6426 -513.6972 -426.0286
ENERGY: 300000 4.8584 15.8135 6.8045 0.0000 -10779.3147 1404.0507 0.0000 0.0000 1723.7529 -7624.0346 292.5571 -9347.7875 -7537.8618 295.6009 -413.8195 -316.2081 30049.6588 -454.9859 -375.9384
ENERGY: 600000 2.6945 8.4571 5.8219 0.0000 -10536.4248 1311.2548 0.0000 0.0000 1731.2770 -7476.9194 293.8341 -9208.1964 -7515.2886 298.1223 -1046.1388 -990.5825 30427.2761 -357.7611 -275.9738
ENERGY: 900000 3.1574 12.2120 6.3672 0.0000 -10689.1338 1452.0172 0.0000 0.0000 1791.0739 -7424.3062 303.9829 -9215.3801 -7494.0104 299.7378 192.6773 255.9213 30565.2739 -187.7192 -104.2485
ENERGY: 1200000 0.9183 13.3634 6.1858 0.0000 -10708.2043 1441.9380 0.0000 0.0000 1763.5935 -7482.2053 299.3189 -9245.7988 -7486.8193 299.9227 -134.0634 -76.9615 30499.3372 -191.1988 -114.5227
ENERGY: 1500000 1.2444 12.8701 6.4046 0.0000 -10656.9504 1424.3496 0.0000 0.0000 1713.0189 -7499.0627 290.7354 -9212.0817 -7486.4688 299.1799 -39.0279 0.6806 30598.4655 -102.4400 -28.2115
TCL: Running FEP window  18: Lambda1 0.8500000000000002 Lambda2 0.9000000000000002 [dLambda 0.050000000000000044]
TCL: Setting parameter firsttimestep to 0
TCL: Setting parameter alchLambda to 0.8500000000000002
Info: NONBONDED TABLE R-SQUARED SPACING: 0.0625
Info: NONBONDED TABLE SIZE: 705 POINTS
TCL: Setting parameter alchLambda2 to 0.9000000000000002
Info: NONBONDED TABLE R-SQUARED SPACING: 0.0625
Info: NONBONDED TABLE SIZE: 705 POINTS
TCL: Running for 1500000 steps
ETITLE: TS BOND ANGLE DIHED IMPRP ELECT VDW BOUNDARY MISC KINETIC TOTAL TEMP POTENTIAL TOTALAVG TEMPAVG PRESSURE GPRESSURE VOLUME PRESSAVG GPRESSAVG
ENERGY: 0 1.2444 12.8701 6.4046 0.0000 -10656.9740 1425.1460 0.0000 0.0000 1712.1446 -7499.1643 290.5870 -9211.3089 -7499.1643 290.5870 -44.5342 25.6073 30598.4655 -44.5342 25.6073
ENERGY: 300000 6.0265 12.6273 5.5860 0.0000 -10765.2406 1460.1250 0.0000 0.0000 1736.4986 -7544.3772 294.7204 -9280.8759 -7503.4271 294.8381 10.6608 94.5204 30046.1960 105.7418 179.7539
ENERGY: 600000 3.9285 9.3289 6.0206 0.0000 -10584.4163 1428.7273 0.0000 0.0000 1727.6142 -7408.7968 293.2125 -9136.4110 -7470.0581 296.2520 -39.3073 48.4682 30770.9152 -40.1435 20.7404
ENERGY: 900000 4.5579 10.2615 6.4399 0.0000 -10660.4963 1403.2530 0.0000 0.0000 1728.2165 -7507.7677 293.3147 -9235.9841 -7478.1668 295.2789 -458.6641 -396.8329 30578.0538 4.2149 67.3986
ENERGY: 1200000 3.8707 7.0091 9.0512 0.0000 -10662.8018 1428.4653 0.0000 0.0000 1724.1340 -7490.2716 292.6218 -9214.4056 -7475.9682 296.1175 -220.0502 -185.7366 30588.2367 -31.3228 27.7612
ENERGY: 1500000 1.9445 10.9707 6.2052 0.0000 -10691.9753 1427.7448 0.0000 0.0000 1800.9562 -7444.1540 305.6602 -9245.1102 -7477.0932 296.8134 57.9457 82.4877 30346.5504 -18.8124 38.5106
TCL: Running FEP window  19: Lambda1 0.9000000000000002 Lambda2 0.9500000000000003 [dLambda 0.050000000000000044]
TCL: Setting parameter firsttimestep to 0
TCL: Setting parameter alchLambda to 0.9000000000000002
Info: NONBONDED TABLE R-SQUARED SPACING: 0.0625
Info: NONBONDED TABLE SIZE: 705 POINTS
TCL: Setting parameter alchLambda2 to 0.9500000000000003
Info: NONBONDED TABLE R-SQUARED SPACING: 0.0625
Info: NONBONDED TABLE SIZE: 705 POINTS
TCL: Running for 1500000 steps
ETITLE: TS BOND ANGLE DIHED IMPRP ELECT VDW BOUNDARY MISC KINETIC TOTAL TEMP POTENTIAL TOTALAVG TEMPAVG PRESSURE GPRESSURE VOLUME PRESSAVG GPRESSAVG
ENERGY: 0 1.9445 10.9707 6.2052 0.0000 -10691.9656 1427.7707 0.0000 0.0000 1800.0954 -7444.9791 305.5141 -9245.0745 -7444.9791 305.5141 16.8089 98.4552 30346.5504 16.8089 98.4552
ENERGY: 300000 1.6858 11.6878 5.9153 0.0000 -10748.1153 1432.3690 0.0000 0.0000 1763.4682 -7532.9891 299.2977 -9296.4574 -7435.6545 301.6945 -384.2711 -307.5760 30684.5516 -511.4732 -434.6270
ENERGY: 600000 2.4373 17.2542 7.5387 0.0000 -10795.2255 1486.5559 0.0000 0.0000 1759.5307 -7521.9086 298.6294 -9281.4394 -7456.9811 301.4811 156.4101 260.3525 30591.2044 -334.3327 -261.8287
ENERGY: 900000 1.1016 13.4305 6.6485 0.0000 -10798.3884 1499.1636 0.0000 0.0000 1690.5418 -7587.5025 286.9205 -9278.0443 -7466.8538 299.9785 310.9277 356.8877 30368.4959 -180.3064 -114.7377
ENERGY: 1200000 3.2283 11.6037 7.1065 0.0000 -10571.3150 1348.8861 0.0000 0.0000 1770.9429 -7429.5477 300.5663 -9200.4905 -7467.3676 299.5148 -935.6729 -878.4569 31249.7782 -290.9606 -228.8214
ENERGY: 1500000 2.4696 9.6839 7.4646 0.0000 -10679.8175 1390.4461 0.0000 0.0000 1762.4268 -7507.3264 299.1209 -9269.7533 -7462.1413 300.9007 -325.7821 -265.3085 30250.3400 -195.1223 -129.7444
TCL: Running FEP window  20: Lambda1 0.9500000000000003 Lambda2 1.0    [dLambda 0.04999999999999971]
TCL: Setting parameter firsttimestep to 0
TCL: Setting parameter alchLambda to 0.9500000000000003
Info: NONBONDED TABLE R-SQUARED SPACING: 0.0625
Info: NONBONDED TABLE SIZE: 705 POINTS
TCL: Setting parameter alchLambda2 to 1.0
Info: NONBONDED TABLE R-SQUARED SPACING: 0.0625
Info: NONBONDED TABLE SIZE: 705 POINTS
TCL: Running for 1500000 steps
ETITLE: TS BOND ANGLE DIHED IMPRP ELECT VDW BOUNDARY MISC KINETIC TOTAL TEMP POTENTIAL TOTALAVG TEMPAVG PRESSURE GPRESSURE VOLUME PRESSAVG GPRESSAVG
ENERGY: 0 2.4696 9.6839 7.4646 0.0000 -10679.8311 1390.4739 0.0000 0.0000 1761.5748 -7508.1644 298.9763 -9269.7392 -7508.1644 298.9763 -322.7548 -250.4602 30250.3400 -322.7548 -250.4602
ENERGY: 300000 2.1643 9.4445 6.5929 0.0000 -10603.7485 1417.2244 0.0000 0.0000 1744.0341 -7424.2882 295.9993 -9168.3223 -7458.9814 298.0906 85.9499 95.6354 30626.9664 167.1684 234.6229
ENERGY: 600000 2.6489 8.6081 8.1554 0.0000 -10613.0974 1354.6949 0.0000 0.0000 1744.7760 -7494.2142 296.1252 -9238.9902 -7448.2137 301.0451 -754.3069 -710.9875 30787.7103 -113.9323 -55.2437
ENERGY: 900000 2.4493 11.6770 5.6303 0.0000 -10698.5277 1424.3488 0.0000 0.0000 1742.5163 -7511.9060 295.7417 -9254.4223 -7451.0003 300.6143 -258.6636 -176.3827 30526.5177 -62.9961 -6.1444
ENERGY: 1200000 3.2928 6.5783 6.3074 0.0000 -10728.2129 1389.8585 0.0000 0.0000 1761.0688 -7561.1071 298.8904 -9322.1760 -7464.5404 299.5725 -645.5991 -523.0199 30127.1863 -78.4149 -18.3200
ENERGY: 1500000 1.3514 9.6061 6.5844 0.0000 -10681.4662 1413.1816 0.0000 0.0000 1822.6670 -7428.0755 309.3449 -9250.7425 -7468.2568 300.1066 -105.3665 -65.4487 30577.6476 -36.9816 22.2007
TCL: Exiting due to exit command.
