Info: SIMULATION PARAMETERS:
Info: TIMESTEP               2
Info: NUMBER OF STEPS        0
Info: STEPS PER CYCLE        10
Info: PERIODIC CELL BASIS 1  30.9045 0 0
Info: PERIODIC CELL BASIS 2  0 31.2585 0
Info: PERIODIC CELL BASIS 3  0 0 31.3512
Info: PERIODIC CELL CENTER   0 0 0
Info: WRAPPING WATERS AROUND PERIODIC BOUNDARIES ON OUTPUT.
Info: WRAPPING ALL CLUSTERS AROUND PERIODIC BOUNDARIES ON OUTPUT.
Info: FIRST LDB TIMESTEP     50
Info: LAST LDB TIMESTEP     -1
Info: HOM BACKGROUND SCALING 1
Info: PME BACKGROUND SCALING 1
Info: MIN ATOMS PER PATCH    40
Info: EMPTY PATCH LOAD       40 ATOMS
Info: VELOCITY FILE          mobley_468867_equil.vel
Info: CENTER OF MASS MOVING INITIALLY? NO
Info: DIELECTRIC             1
Info: EXCLUDE                SCALED ONE-FOUR
Info: 1-4 ELECTROSTATICS SCALED BY 0.833333
Info: MODIFIED 1-4 VDW PARAMETERS WILL BE USED
Info: DCD FILENAME           mobley_468867_prod.dcd
Info: DCD FREQUENCY          100000
Info: DCD FIRST STEP         100000
Info: DCD FILE WILL CONTAIN UNIT CELL DATA
Info: XST FILENAME           mobley_468867_prod.xst
Info: XST FREQUENCY          100000
Info: NO VELOCITY DCD OUTPUT
Info: NO FORCE DCD OUTPUT
Info: OUTPUT FILENAME        mobley_468867_prod
Info: BINARY OUTPUT FILES WILL BE USED
Info: RESTART FILENAME       mobley_468867_prod.restart
Info: RESTART FREQUENCY      100000
Info: BINARY RESTART FILES WILL BE USED
Info: CUTOFF                 9
Info: PAIRLIST DISTANCE      11
Info: PAIRLIST SHRINK RATE   0.01
Info: PAIRLIST GROW RATE     0.01
Info: PAIRLIST TRIGGER       0.3
Info: PAIRLISTS PER CYCLE    2
Info: PAIRLISTS ENABLED
Info: MARGIN                 2
Info: HYDROGEN GROUP CUTOFF  2.5
Info: PATCH DIMENSION        15.5
Info: ENERGY OUTPUT STEPS    100000
Info: ENERGY EVALUATION STEPS    100000
Info: OUTPUT ENERGY PRECISION 4
Info: CROSSTERM ENERGY INCLUDED IN DIHEDRAL
Info: TIMING OUTPUT STEPS    1000000
Info: PRESSURE OUTPUT STEPS  100000
Info: ALCHEMICAL FEP ON
Info: FEP CURRENT LAMBDA VALUE     1
Info: FEP COMPARISON LAMBDA VALUE  0.95
Info: FEP INTRA-ALCHEMICAL NON-BONDED INTERACTIONS WILL BE RETAINED
Info: FEP INTRA-ALCHEMICAL BONDED INTERACTIONS WILL BE RETAINED
Info: FEP VDW SHIFTING COEFFICIENT 5
Info: FEP ELEC. ACTIVE FOR ANNIHILATED PARTICLES BETWEEN LAMBDA = 0 AND LAMBDA = 0.5
Info: FEP ELEC. ACTIVE FOR EXNIHILATED PARTICLES BETWEEN LAMBDA = 0.5 AND LAMBDA = 1
Info: FEP VDW ACTIVE FOR ANNIHILATED PARTICLES BETWEEN LAMBDA = 0 AND LAMBDA = 1
Info: FEP VDW ACTIVE FOR EXNIHILATED PARTICLES BETWEEN LAMBDA = 0 AND LAMBDA = 1
Info: FEP BOND ACTIVE FOR ANNIHILATED PARTICLES BETWEEN LAMBDA = 1 AND LAMBDA = 1
Info: FEP BOND ACTIVE FOR EXNIHILATED PARTICLES BETWEEN LAMBDA = 0 AND LAMBDA = 0
Info: LANGEVIN DYNAMICS ACTIVE
Info: LANGEVIN TEMPERATURE   300
Info: LANGEVIN USING BBK INTEGRATOR
Info: LANGEVIN DAMPING COEFFICIENT IS 1 INVERSE PS
Info: LANGEVIN DYNAMICS APPLIED TO HYDROGENS
Info: LANGEVIN PISTON PRESSURE CONTROL ACTIVE
Info:        TARGET PRESSURE IS 1.01325 BAR
Info:     OSCILLATION PERIOD IS 50 FS
Info:             DECAY TIME IS 25 FS
Info:     PISTON TEMPERATURE IS 300 K
Info:       PRESSURE CONTROL IS GROUP-BASED
Info:    INITIAL STRAIN RATE IS -0.000254417 -0.000254417 -0.000254417
Info:       CELL FLUCTUATION IS ISOTROPIC
Info: PARTICLE MESH EWALD (PME) ACTIVE
Info: PME TOLERANCE               1e-06
Info: PME EWALD COEFFICIENT       0.348832
Info: PME INTERPOLATION ORDER     4
Info: PME GRID DIMENSIONS         32 32 32
Info: PME MAXIMUM GRID SPACING    1
Info: PME CALCULATION WILL BE PERFORMED ON GPU
Info: FULL ELECTROSTATIC EVALUATION FREQUENCY      2
Info: USING VERLET I (r-RESPA) MTS SCHEME.
Info: C1 SPLITTING OF LONG RANGE ELECTROSTATICS
Info: PLACING ATOMS IN PATCHES BY HYDROGEN GROUPS
Info: RIGID BONDS TO HYDROGEN : ALL
Info:         ERROR TOLERANCE : 1e-08
Info:          MAX ITERATIONS : 100
Info: RIGID WATER USING SETTLE ALGORITHM
Info: RANDOM NUMBER SEED     1743647697
Info: USE HYDROGEN BONDS?    NO
Info: Using AMBER format force field!
Info: AMBER PARM FILE        mobley_468867.prmtop
Info: COORDINATE PDB         mobley_468867.pdb
Info: Exclusions will be read from PARM file!
Info: SCNB (VDW SCALING)     2
Info: USING ARITHMETIC MEAN TO COMBINE L-J SIGMA PARAMETERS
Info: BINARY COORDINATES     mobley_468867_equil.coor
Info: SUMMARY OF PARAMETERS:
Info: 10 BONDS
Info: 15 ANGLES
Info:   15 HARMONIC
Info:   0 COSINE-BASED
Info: 15 DIHEDRAL
Info: 0 IMPROPER
Info: 0 CROSSTERM
Info: 0 VDW
Info: 36 VDW_PAIRS
Info: 0 NBTHOLE_PAIRS
Info: To read alchdata from file: mobley_468867.pdb
Info: To read alchflag data from column: 5
Info: STRUCTURE SUMMARY:
Info: 2908 ATOMS
Info: 2910 BONDS
Info: 48 ANGLES
Info: 115 DIHEDRALS
Info: 0 IMPROPERS
Info: 0 CROSSTERMS
Info: 3027 EXCLUSIONS
Info: 2891 RIGID BONDS
Info: ALCH: 0 ATOMS TO DISAPPEAR IN FINAL STATE
Info: ALCH: 22 ATOMS TO APPEAR IN FINAL STATE
Info: 5833 DEGREES OF FREEDOM
Info: 979 HYDROGEN GROUPS
Info: 3 ATOMS IN LARGEST HYDROGEN GROUP
Info: 979 MIGRATION GROUPS
Info: 3 ATOMS IN LARGEST MIGRATION GROUP
Info: TOTAL MASS = 17704.7 amu
Info: TOTAL CHARGE = 9.99968e-05 e
Info: MASS DENSITY = 0.970739 g/cm^3
Info: ATOM DENSITY = 0.0960173 atoms/A^3
Info: ADDED 0 IMPLICIT EXCLUSIONS
Info: NONBONDED TABLE R-SQUARED SPACING: 0.0625
Info: NONBONDED TABLE SIZE: 705 POINTS
Info: REMOVING COM VELOCITY 0.00279993 0.0771688 -0.410425
Info: Use 3D box decompostion in PME FFT.
Info: Updated CUDA force table with 4096 elements.
Info: Updated CUDA LJ table with 8 x 8 elements.
Info: Found 25 unique exclusion lists needing 72 bytes
TCL: Running for 1500000 steps
ETITLE: TS BOND ANGLE DIHED IMPRP ELECT VDW BOUNDARY MISC KINETIC TOTAL TEMP POTENTIAL TOTALAVG TEMPAVG PRESSURE GPRESSURE VOLUME PRESSAVG GPRESSAVG
ENERGY: 0 7.7292 55.1146 14.2708 0.0000 -10505.0649 1397.8230 0.0000 0.0000 1755.7920 -7274.3354 302.9504 -9030.1273 -7274.3354 302.9504 -258.9865 -173.4294 30286.1948 -258.9865 -173.4294
ENERGY: 300000 6.1419 61.0751 15.2512 0.0000 -10411.1717 1333.9004 0.0000 0.0000 1733.3336 -7261.4695 299.0753 -8994.8031 -7254.2472 300.9563 -527.2423 -442.3594 30633.9869 -401.3720 -337.1413
ENERGY: 600000 6.5910 56.2797 13.8754 0.0000 -10258.3625 1273.2862 0.0000 0.0000 1728.1173 -7180.2130 298.1753 -8908.3303 -7244.5212 301.5252 -706.1965 -655.8941 30394.6957 -508.8779 -442.3478
ENERGY: 900000 8.4401 57.4233 15.5704 0.0000 -10480.4262 1384.3688 0.0000 0.0000 1721.1085 -7293.5152 296.9660 -9014.6237 -7249.0251 299.6170 -284.4732 -237.1445 30403.4894 -359.7780 -297.0474
ENERGY: 1200000 8.7561 59.5193 13.5277 0.0000 -10477.2977 1421.6839 0.0000 0.0000 1706.4168 -7267.3940 294.4310 -8973.8108 -7247.8284 299.3081 -38.1201 4.9881 30402.9661 -273.7654 -218.7152
ENERGY: 1500000 7.1638 58.2641 13.1879 0.0000 -10545.3618 1471.6679 0.0000 0.0000 1763.8646 -7231.2136 304.3432 -8995.0782 -7251.8017 299.7105 731.9712 815.1208 30026.2811 -197.3115 -140.5101
TCL: Running FEP window   2: Lambda1 0.95   Lambda2 0.8999999999999999 [dLambda -0.050000000000000044]
TCL: Setting parameter firsttimestep to 0
TCL: Setting parameter alchLambda to 0.95
Info: NONBONDED TABLE R-SQUARED SPACING: 0.0625
Info: NONBONDED TABLE SIZE: 705 POINTS
TCL: Setting parameter alchLambda2 to 0.8999999999999999
Info: NONBONDED TABLE R-SQUARED SPACING: 0.0625
Info: NONBONDED TABLE SIZE: 705 POINTS
TCL: Running for 1500000 steps
ETITLE: TS BOND ANGLE DIHED IMPRP ELECT VDW BOUNDARY MISC KINETIC TOTAL TEMP POTENTIAL TOTALAVG TEMPAVG PRESSURE GPRESSURE VOLUME PRESSAVG GPRESSAVG
ENERGY: 0 7.1638 58.2641 13.1879 0.0000 -10544.9471 1471.7590 0.0000 0.0000 1763.0134 -7231.5588 304.1964 -8994.5723 -7231.5588 304.1964 719.3446 794.6032 30026.2811 719.3446 794.6032
ENERGY: 300000 7.5386 51.5781 15.3490 0.0000 -10593.3985 1481.4718 0.0000 0.0000 1729.8983 -7307.5627 298.4826 -9037.4611 -7292.4755 302.2693 528.8298 537.2109 30012.4388 41.1013 94.3023
ENERGY: 600000 10.7552 59.5850 13.0820 0.0000 -10430.1134 1375.0806 0.0000 0.0000 1724.7657 -7246.8449 297.5970 -8971.6106 -7274.7782 299.3184 -441.0773 -419.1605 30599.8482 -5.0603 51.0621
ENERGY: 900000 4.8064 53.0959 13.3588 0.0000 -10609.4240 1455.0613 0.0000 0.0000 1733.2446 -7349.8570 299.0600 -9083.1016 -7296.6109 298.6142 282.3012 356.1445 30095.3524 147.5781 209.5174
ENERGY: 1200000 5.6117 54.1166 13.0545 0.0000 -10602.1233 1487.5540 0.0000 0.0000 1710.6714 -7331.1151 295.1651 -9041.7865 -7294.1064 298.9569 684.5353 680.6667 29820.6188 174.2910 234.1289
ENERGY: 1500000 8.0909 54.3834 11.9119 0.0000 -10497.2608 1377.4458 0.0000 0.0000 1770.4487 -7274.9800 305.4793 -9045.4287 -7289.5741 300.1072 -365.8580 -303.1578 29617.4966 102.1051 166.6824
TCL: Running FEP window   3: Lambda1 0.8999999999999999 Lambda2 0.8499999999999999 [dLambda -0.050000000000000044]
TCL: Setting parameter firsttimestep to 0
TCL: Setting parameter alchLambda to 0.8999999999999999
Info: NONBONDED TABLE R-SQUARED SPACING: 0.0625
Info: NONBONDED TABLE SIZE: 705 POINTS
TCL: Setting parameter alchLambda2 to 0.8499999999999999
Info: NONBONDED TABLE R-SQUARED SPACING: 0.0625
Info: NONBONDED TABLE SIZE: 705 POINTS
TCL: Running for 1500000 steps
ETITLE: TS BOND ANGLE DIHED IMPRP ELECT VDW BOUNDARY MISC KINETIC TOTAL TEMP POTENTIAL TOTALAVG TEMPAVG PRESSURE GPRESSURE VOLUME PRESSAVG GPRESSAVG
ENERGY: 0 8.0909 54.3834 11.9119 0.0000 -10497.0172 1378.6760 0.0000 0.0000 1769.5693 -7274.3857 305.3275 -9043.9550 -7274.3857 305.3275 -388.6087 -302.4996 29617.4966 -388.6087 -302.4996
ENERGY: 300000 4.0931 58.8120 12.3683 0.0000 -10452.7097 1357.2326 0.0000 0.0000 1735.8394 -7284.3643 299.5077 -9020.2037 -7255.6286 298.2811 -122.0039 -110.1743 29801.9409 -167.0719 -108.1082
ENERGY: 600000 9.8681 60.0779 14.8618 0.0000 -10479.2732 1423.3217 0.0000 0.0000 1743.5372 -7227.6066 300.8359 -8971.1437 -7270.8509 297.8616 707.3728 769.2322 29356.9047 19.1940 70.3766
ENERGY: 900000 9.3090 59.1247 14.6219 0.0000 -10389.6653 1297.7765 0.0000 0.0000 1748.2183 -7260.6149 301.6436 -9008.8332 -7261.5122 298.8004 -795.5520 -786.6228 30184.6904 -39.9477 13.7821
ENERGY: 1200000 6.0368 53.4152 15.8640 0.0000 -10513.7159 1441.9539 0.0000 0.0000 1702.7758 -7293.6703 293.8028 -8996.4460 -7263.9060 299.1839 494.6083 515.4679 30008.3761 -32.4947 17.0094
ENERGY: 1500000 7.6099 57.1315 14.5596 0.0000 -10361.4461 1352.5096 0.0000 0.0000 1703.3187 -7226.3168 293.8964 -8929.6355 -7264.1456 298.5962 -51.9658 -49.7402 30266.8589 7.6021 58.4214
TCL: Running FEP window   4: Lambda1 0.8499999999999999 Lambda2 0.7999999999999998 [dLambda -0.050000000000000044]
TCL: Setting parameter firsttimestep to 0
TCL: Setting parameter alchLambda to 0.8499999999999999
Info: NONBONDED TABLE R-SQUARED SPACING: 0.0625
Info: NONBONDED TABLE SIZE: 705 POINTS
TCL: Setting parameter alchLambda2 to 0.7999999999999998
Info: NONBONDED TABLE R-SQUARED SPACING: 0.0625
Info: NONBONDED TABLE SIZE: 705 POINTS
TCL: Running for 1500000 steps
ETITLE: TS BOND ANGLE DIHED IMPRP ELECT VDW BOUNDARY MISC KINETIC TOTAL TEMP POTENTIAL TOTALAVG TEMPAVG PRESSURE GPRESSURE VOLUME PRESSAVG GPRESSAVG
ENERGY: 0 7.6099 57.1315 14.5596 0.0000 -10361.1832 1353.6082 0.0000 0.0000 1702.4334 -7225.8406 293.7437 -8928.2740 -7225.8406 293.7437 -131.4600 -51.9982 30266.8589 -131.4600 -51.9982
ENERGY: 300000 7.7219 53.8116 15.3250 0.0000 -10495.3453 1398.7424 0.0000 0.0000 1714.4799 -7305.2645 295.8222 -9019.7444 -7277.8093 293.6317 -87.3740 -23.0235 30243.3940 -5.1485 75.0283
ENERGY: 600000 7.7389 59.0725 14.4440 0.0000 -10557.1738 1395.7292 0.0000 0.0000 1717.7579 -7362.4313 296.3878 -9080.1892 -7300.6915 294.9359 -114.0807 -34.5004 30140.8391 -184.3172 -106.0751
ENERGY: 900000 10.6702 53.1435 13.0965 0.0000 -10370.7914 1359.5973 0.0000 0.0000 1699.7679 -7234.5161 293.2838 -8934.2840 -7281.3847 296.0373 -569.0369 -474.9893 30341.0520 -262.4720 -184.5655
ENERGY: 1200000 5.5733 57.4799 13.3355 0.0000 -10527.5059 1406.4495 0.0000 0.0000 1716.9153 -7327.7523 296.2424 -9044.6676 -7278.3714 297.1291 -106.4062 -50.3504 30115.2512 -246.2026 -167.9449
ENERGY: 1500000 5.8401 57.0592 12.5643 0.0000 -10404.6248 1341.2465 0.0000 0.0000 1736.2149 -7251.6997 299.5725 -8987.9147 -7276.7217 297.7154 -674.2130 -593.1570 30506.5630 -266.2044 -192.8633
TCL: Running FEP window   5: Lambda1 0.7999999999999998 Lambda2 0.7499999999999998 [dLambda -0.050000000000000044]
TCL: Setting parameter firsttimestep to 0
TCL: Setting parameter alchLambda to 0.7999999999999998
Info: NONBONDED TABLE R-SQUARED SPACING: 0.0625
Info: NONBONDED TABLE SIZE: 705 POINTS
TCL: Setting parameter alchLambda2 to 0.7499999999999998
Info: NONBONDED TABLE R-SQUARED SPACING: 0.0625
Info: NONBONDED TABLE SIZE: 705 POINTS
TCL: Running for 1500000 steps
ETITLE: TS BOND ANGLE DIHED IMPRP ELECT VDW BOUNDARY MISC KINETIC TOTAL TEMP POTENTIAL TOTALAVG TEMPAVG PRESSURE GPRESSURE VOLUME PRESSAVG GPRESSAVG
ENERGY: 0 5.8401 57.0592 12.5643 0.0000 -10404.4435 1342.1630 0.0000 0.0000 1735.3472 -7251.4698 299.4227 -8986.8169 -7251.4698 299.4227 -689.3998 -598.8866 30506.5630 -689.3998 -598.8866
ENERGY: 300000 6.8452 59.5390 14.4882 0.0000 -10488.8374 1358.0394 0.0000 0.0000 1745.0444 -7304.8812 301.0959 -9049.9256 -7264.4596 301.8201 -663.3892 -595.9449 30095.6369 -68.3849 -6.0747
ENERGY: 600000 7.6669 53.9255 14.3946 0.0000 -10507.2362 1396.1366 0.0000 0.0000 1705.7178 -7329.3948 294.3104 -9035.1126 -7284.6264 298.9977 -467.7805 -404.9820 30461.6148 56.4619 104.8484
ENERGY: 900000 6.4911 60.5926 13.6112 0.0000 -10324.8438 1292.5504 0.0000 0.0000 1729.9883 -7221.6103 298.4981 -8951.5985 -7271.7122 299.4010 -807.7476 -697.9715 30308.9228 112.7442 169.4782
ENERGY: 1200000 5.3908 60.5872 12.7720 0.0000 -10460.0692 1311.9511 0.0000 0.0000 1719.0144 -7350.3538 296.6046 -9069.3682 -7270.7963 299.9013 -1050.2215 -969.1856 30099.4437 -40.6861 20.9276
ENERGY: 1500000 5.3689 52.6684 14.1933 0.0000 -10487.7018 1407.6613 0.0000 0.0000 1752.7534 -7255.0565 302.4261 -9007.8100 -7275.1416 299.3613 -162.7001 -98.7208 30368.7606 -42.6643 16.8454
TCL: Running FEP window   6: Lambda1 0.7499999999999998 Lambda2 0.6999999999999997 [dLambda -0.050000000000000044]
TCL: Setting parameter firsttimestep to 0
TCL: Setting parameter alchLambda to 0.7499999999999998
Info: NONBONDED TABLE R-SQUARED SPACING: 0.0625
Info: NONBONDED TABLE SIZE: 705 POINTS
TCL: Setting parameter alchLambda2 to 0.6999999999999997
Info: NONBONDED TABLE R-SQUARED SPACING: 0.0625
Info: NONBONDED TABLE SIZE: 705 POINTS
TCL: Running for 1500000 steps
ETITLE: TS BOND ANGLE DIHED IMPRP ELECT VDW BOUNDARY MISC KINETIC TOTAL TEMP POTENTIAL TOTALAVG TEMPAVG PRESSURE GPRESSURE VOLUME PRESSAVG GPRESSAVG
ENERGY: 0 5.3689 52.6683 14.1933 0.0000 -10487.2967 1408.2342 0.0000 0.0000 1751.8793 -7254.9527 302.2752 -9006.8320 -7254.9527 302.2752 -196.8689 -107.2303 30368.7606 -196.8689 -107.2303
ENERGY: 300000 7.0258 54.6017 15.2032 0.0000 -10544.7458 1430.3897 0.0000 0.0000 1753.3888 -7284.1366 302.5357 -9037.5254 -7268.4155 302.6780 -181.3021 -98.2071 30117.9559 47.5050 114.8766
ENERGY: 600000 5.1030 57.6342 13.4051 0.0000 -10524.0760 1407.2939 0.0000 0.0000 1741.5095 -7299.1303 300.4860 -9040.6398 -7303.8817 301.5166 -47.5752 117.9573 29926.6078 -26.5919 60.3431
ENERGY: 900000 3.9094 55.6048 13.5497 0.0000 -10558.3546 1472.2507 0.0000 0.0000 1653.3721 -7359.6678 285.2785 -9013.0399 -7298.7967 299.4214 556.0425 603.3328 29984.3252 70.0816 148.9232
ENERGY: 1200000 8.6246 56.0036 12.9176 0.0000 -10534.5146 1437.5022 0.0000 0.0000 1781.7531 -7237.7134 307.4298 -9019.4665 -7284.0452 300.5625 84.5516 151.9872 30235.3940 -1.0542 76.1724
ENERGY: 1500000 2.9070 58.9627 13.1734 0.0000 -10570.1033 1432.4507 0.0000 0.0000 1743.2619 -7319.3475 300.7884 -9062.6095 -7278.1412 300.7957 519.4246 603.0773 29391.3856 10.8662 88.6340
TCL: Running FEP window   7: Lambda1 0.6999999999999997 Lambda2 0.6499999999999997 [dLambda -0.050000000000000044]
TCL: Setting parameter firsttimestep to 0
TCL: Setting parameter alchLambda to 0.6999999999999997
Info: NONBONDED TABLE R-SQUARED SPACING: 0.0625
Info: NONBONDED TABLE SIZE: 705 POINTS
TCL: Setting parameter alchLambda2 to 0.6499999999999997
Info: NONBONDED TABLE R-SQUARED SPACING: 0.0625
Info: NONBONDED TABLE SIZE: 705 POINTS
TCL: Running for 1500000 steps
ETITLE: TS BOND ANGLE DIHED IMPRP ELECT VDW BOUNDARY MISC KINETIC TOTAL TEMP POTENTIAL TOTALAVG TEMPAVG PRESSURE GPRESSURE VOLUME PRESSAVG GPRESSAVG
ENERGY: 0 2.9070 58.9627 13.1734 0.0000 -10569.8457 1432.6862 0.0000 0.0000 1742.3975 -7319.7189 300.6392 -9062.1164 -7319.7189 300.6392 514.1403 587.8112 29391.3856 514.1403 587.8112
ENERGY: 300000 4.6534 61.3280 17.8597 0.0000 -10553.7476 1446.3291 0.0000 0.0000 1795.0513 -7228.5261 309.7243 -9023.5774 -7311.9820 303.9149 229.4705 280.5519 30187.3964 -146.3730 -80.8639
ENERGY: 600000 9.9864 55.1861 12.6219 0.0000 -10550.6470 1392.7917 0.0000 0.0000 1772.4653 -7307.5956 305.8272 -9080.0609 -7299.8595 302.7487 -289.5312 -196.5064 29891.0682 -160.3727 -90.5229
ENERGY: 900000 8.8287 54.3722 14.7429 0.0000 -10531.1813 1442.5028 0.0000 0.0000 1777.3754 -7233.3593 306.6744 -9010.7346 -7291.4876 302.4515 404.7679 449.0311 30201.4696 -65.0333 10.8623
ENERGY: 1200000 5.7708 56.5538 12.9470 0.0000 -10549.2013 1465.2413 0.0000 0.0000 1776.3373 -7232.3509 306.4953 -9008.6882 -7288.3059 302.2851 723.6632 724.6948 29650.5502 -31.8558 34.3942
ENERGY: 1500000 5.4454 62.7233 14.1722 0.0000 -10352.6463 1390.8396 0.0000 0.0000 1758.2845 -7121.1813 303.3804 -8879.4658 -7277.7913 301.3659 86.1107 199.6032 30308.0950 -2.5949 72.4226
TCL: Running FEP window   8: Lambda1 0.6499999999999997 Lambda2 0.5999999999999996 [dLambda -0.050000000000000044]
TCL: Setting parameter firsttimestep to 0
TCL: Setting parameter alchLambda to 0.6499999999999997
Info: NONBONDED TABLE R-SQUARED SPACING: 0.0625
Info: NONBONDED TABLE SIZE: 705 POINTS
TCL: Setting parameter alchLambda2 to 0.5999999999999996
Info: NONBONDED TABLE R-SQUARED SPACING: 0.0625
Info: NONBONDED TABLE SIZE: 705 POINTS
TCL: Running for 1500000 steps
ETITLE: TS BOND ANGLE DIHED IMPRP ELECT VDW BOUNDARY MISC KINETIC TOTAL TEMP POTENTIAL TOTALAVG TEMPAVG PRESSURE GPRESSURE VOLUME PRESSAVG GPRESSAVG
ENERGY: 0 5.4454 62.7232 14.1722 0.0000 -10352.4331 1391.5436 0.0000 0.0000 1757.4743 -7121.0743 303.2406 -8878.5486 -7121.0743 303.2406 101.9140 194.1571 30308.0950 101.9140 194.1571
ENERGY: 300000 4.7414 54.6059 14.2200 0.0000 -10482.2480 1414.4263 0.0000 0.0000 1763.5035 -7230.7509 304.2809 -8994.2544 -7226.8100 300.8126 220.8488 329.1021 30003.7971 74.5042 168.8617
ENERGY: 600000 2.7247 54.2413 14.7747 0.0000 -10570.5659 1449.8303 0.0000 0.0000 1723.9555 -7325.0395 297.4572 -9048.9950 -7269.7547 299.4088 382.3881 413.9951 29820.1362 -4.6159 66.1078
ENERGY: 900000 9.5852 56.0718 16.3342 0.0000 -10487.3407 1442.0227 0.0000 0.0000 1727.8574 -7235.4693 298.1304 -8963.3268 -7276.1772 298.1881 432.8264 454.7100 30056.8221 66.1379 127.6252
ENERGY: 1200000 2.5990 56.2156 12.3391 0.0000 -10309.4172 1280.2723 0.0000 0.0000 1743.8734 -7214.1179 300.8939 -8957.9913 -7280.7216 298.4203 -902.2550 -865.6844 30654.8090 66.9418 128.0207
ENERGY: 1500000 7.2130 55.7960 13.9536 0.0000 -10469.9850 1379.8029 0.0000 0.0000 1692.4992 -7320.7203 292.0296 -9013.2194 -7289.9445 298.2824 -381.3660 -368.9062 30076.7264 53.3908 114.0573
TCL: Running FEP window   9: Lambda1 0.5999999999999996 Lambda2 0.5499999999999996 [dLambda -0.050000000000000044]
TCL: Setting parameter firsttimestep to 0
TCL: Setting parameter alchLambda to 0.5999999999999996
Info: NONBONDED TABLE R-SQUARED SPACING: 0.0625
Info: NONBONDED TABLE SIZE: 705 POINTS
TCL: Setting parameter alchLambda2 to 0.5499999999999996
Info: NONBONDED TABLE R-SQUARED SPACING: 0.0625
Info: NONBONDED TABLE SIZE: 705 POINTS
TCL: Running for 1500000 steps
ETITLE: TS BOND ANGLE DIHED IMPRP ELECT VDW BOUNDARY MISC KINETIC TOTAL TEMP POTENTIAL TOTALAVG TEMPAVG PRESSURE GPRESSURE VOLUME PRESSAVG GPRESSAVG
ENERGY: 0 7.2130 55.7960 13.9536 0.0000 -10469.9697 1380.1912 0.0000 0.0000 1691.6042 -7321.2116 291.8752 -9012.8158 -7321.2116 291.8752 -462.5484 -373.9151 30076.7264 -462.5484 -373.9151
ENERGY: 300000 8.9540 57.8530 13.3137 0.0000 -10503.2232 1379.8886 0.0000 0.0000 1773.9915 -7269.2223 306.0906 -9043.2138 -7305.9000 298.4219 -459.7627 -383.5467 29928.8646 -500.1286 -427.3640
ENERGY: 600000 5.8733 57.7708 13.0870 0.0000 -10509.5420 1427.6177 0.0000 0.0000 1733.0829 -7272.1103 299.0321 -9005.1932 -7286.8781 298.6681 583.0217 621.6203 29579.6958 -389.3589 -317.4939
ENERGY: 900000 7.2271 57.1482 15.8600 0.0000 -10512.7238 1423.0846 0.0000 0.0000 1707.5286 -7301.8753 294.6228 -9009.4039 -7295.2218 296.9917 -178.0153 -99.7835 30002.2547 -451.3403 -388.8048
ENERGY: 1200000 3.0961 55.0955 14.1272 0.0000 -10519.8083 1430.1504 0.0000 0.0000 1760.8125 -7256.5266 303.8166 -9017.3391 -7292.3113 298.0060 416.7932 453.5383 29949.5417 -305.8916 -249.9451
ENERGY: 1500000 6.6644 55.9470 15.5000 0.0000 -10548.7495 1428.9790 0.0000 0.0000 1728.3756 -7313.2834 298.2198 -9041.6591 -7294.0408 297.7001 470.1062 517.2332 29792.4856 -158.0627 -104.9600
TCL: Running FEP window  10: Lambda1 0.5499999999999996 Lambda2 0.4999999999999996 [dLambda -0.04999999999999999]
TCL: Setting parameter firsttimestep to 0
TCL: Setting parameter alchLambda to 0.5499999999999996
Info: NONBONDED TABLE R-SQUARED SPACING: 0.0625
Info: NONBONDED TABLE SIZE: 705 POINTS
TCL: Setting parameter alchLambda2 to 0.4999999999999996
Info: NONBONDED TABLE R-SQUARED SPACING: 0.0625
Info: NONBONDED TABLE SIZE: 705 POINTS
TCL: Running for 1500000 steps
ETITLE: TS BOND ANGLE DIHED IMPRP ELECT VDW BOUNDARY MISC KINETIC TOTAL TEMP POTENTIAL TOTALAVG TEMPAVG PRESSURE GPRESSURE VOLUME PRESSAVG GPRESSAVG
ENERGY: 0 6.6644 55.9470 15.5000 0.0000 -10548.3509 1429.6033 0.0000 0.0000 1727.5449 -7313.0914 298.0765 -9040.6362 -7313.0914 298.0765 416.4382 511.1009 29792.4856 416.4382 511.1009
ENERGY: 300000 3.4367 62.9059 13.0089 0.0000 -10468.6762 1436.2037 0.0000 0.0000 1759.3587 -7193.7623 303.5658 -8953.1210 -7248.3249 302.2471 670.0156 731.3727 29922.4626 363.7167 405.3585
ENERGY: 600000 8.0996 55.9330 12.8799 0.0000 -10473.2739 1411.9794 0.0000 0.0000 1727.2029 -7257.1791 298.0175 -8984.3820 -7256.1133 300.3104 159.2855 242.0775 29723.3116 85.8201 133.7607
ENERGY: 900000 6.3416 52.7276 13.2461 0.0000 -10556.5820 1430.5868 0.0000 0.0000 1761.1164 -7292.5635 303.8691 -9053.6799 -7275.0835 299.3451 -18.7217 26.0489 29963.8568 -24.3838 30.2282
ENERGY: 1200000 7.4100 63.3574 13.7317 0.0000 -10648.6846 1518.2694 0.0000 0.0000 1741.7627 -7304.1534 300.5297 -9045.9161 -7275.5290 299.5847 708.8543 806.5724 29608.4883 -48.9340 15.1813
ENERGY: 1500000 5.9262 51.5517 13.4912 0.0000 -10520.0899 1431.6959 0.0000 0.0000 1751.7828 -7265.6420 302.2586 -9017.4249 -7275.4006 300.0772 279.0037 358.9348 30297.3908 47.2945 113.4141
TCL: Running FEP window  11: Lambda1 0.4999999999999996 Lambda2 0.4499999999999996 [dLambda -0.04999999999999999]
TCL: Setting parameter firsttimestep to 0
TCL: Setting parameter alchLambda to 0.4999999999999996
Info: NONBONDED TABLE R-SQUARED SPACING: 0.0625
Info: NONBONDED TABLE SIZE: 705 POINTS
TCL: Setting parameter alchLambda2 to 0.4499999999999996
Info: NONBONDED TABLE R-SQUARED SPACING: 0.0625
Info: NONBONDED TABLE SIZE: 705 POINTS
TCL: Running for 1500000 steps
ETITLE: TS BOND ANGLE DIHED IMPRP ELECT VDW BOUNDARY MISC KINETIC TOTAL TEMP POTENTIAL TOTALAVG TEMPAVG PRESSURE GPRESSURE VOLUME PRESSAVG GPRESSAVG
ENERGY: 0 5.9262 51.5517 13.4912 0.0000 -10519.6821 1432.2663 0.0000 0.0000 1750.9416 -7265.5050 302.1135 -9016.4466 -7265.5050 302.1135 273.1590 356.1429 30297.3908 273.1590 356.1429
ENERGY: 300000 8.6675 54.8801 13.4931 0.0000 -10423.0068 1377.0686 0.0000 0.0000 1746.4750 -7222.4226 301.3428 -8968.8976 -7272.3599 300.1978 -81.2030 -12.7509 29977.3707 0.3474 66.8427
ENERGY: 600000 6.1085 57.0306 12.7500 0.0000 -10644.0280 1455.9871 0.0000 0.0000 1750.6372 -7361.5146 302.0609 -9112.1518 -7256.1895 301.9449 306.7649 358.8066 29770.0289 -126.7294 -58.2750
ENERGY: 900000 4.6482 64.7217 13.6735 0.0000 -10491.7151 1403.9245 0.0000 0.0000 1703.5159 -7301.2314 293.9305 -9004.7473 -7250.4880 301.1933 58.5101 94.5085 30242.6745 -120.3937 -55.0306
ENERGY: 1200000 9.4189 54.5453 13.4245 0.0000 -10435.5814 1322.5522 0.0000 0.0000 1720.1759 -7315.4646 296.8050 -9035.6406 -7255.0755 301.7256 -935.2870 -972.9718 30130.7650 -130.5789 -72.0263
ENERGY: 1500000 6.5509 57.9044 13.0382 0.0000 -10341.3349 1281.9602 0.0000 0.0000 1780.1540 -7201.7273 307.1539 -8981.8813 -7253.1317 302.4315 -986.0896 -923.4502 30398.8546 -137.8311 -77.1862
TCL: Running FEP window  12: Lambda1 0.4499999999999996 Lambda2 0.39999999999999963 [dLambda -0.04999999999999999]
TCL: Setting parameter firsttimestep to 0
TCL: Setting parameter alchLambda to 0.4499999999999996
Info: NONBONDED TABLE R-SQUARED SPACING: 0.0625
Info: NONBONDED TABLE SIZE: 705 POINTS
TCL: Setting parameter alchLambda2 to 0.39999999999999963
Info: NONBONDED TABLE R-SQUARED SPACING: 0.0625
Info: NONBONDED TABLE SIZE: 705 POINTS
TCL: Running for 1500000 steps
ETITLE: TS BOND ANGLE DIHED IMPRP ELECT VDW BOUNDARY MISC KINETIC TOTAL TEMP POTENTIAL TOTALAVG TEMPAVG PRESSURE GPRESSURE VOLUME PRESSAVG GPRESSAVG
ENERGY: 0 6.5509 57.9044 13.0382 0.0000 -10341.3347 1282.7951 0.0000 0.0000 1779.3054 -7201.7407 307.0074 -8981.0462 -7201.7407 307.0074 -991.1229 -924.1434 30398.8546 -991.1229 -924.1434
ENERGY: 300000 6.9973 57.9282 14.6852 0.0000 -10472.4376 1388.1972 0.0000 0.0000 1725.6663 -7278.9635 297.7524 -9004.6297 -7239.6588 301.8595 -498.5185 -441.9635 30555.2447 -454.9543 -379.6637
ENERGY: 600000 6.0668 54.4276 12.4527 0.0000 -10349.4390 1288.6676 0.0000 0.0000 1712.9986 -7274.8257 295.5666 -8987.8243 -7248.5357 299.7496 -1136.0013 -1078.4507 30187.5375 -491.8119 -434.8646
ENERGY: 900000 3.9713 53.6223 13.0262 0.0000 -10702.0117 1519.8608 0.0000 0.0000 1742.8392 -7368.6919 300.7154 -9111.5311 -7261.5994 300.4707 718.6231 785.0748 29812.9125 -277.5568 -222.6802
ENERGY: 1200000 3.4254 53.9743 14.2298 0.0000 -10453.1395 1444.5580 0.0000 0.0000 1706.2607 -7230.6913 294.4041 -8936.9520 -7257.4968 300.5301 371.4752 456.2571 30093.2583 -151.0546 -90.6181
ENERGY: 1500000 7.1910 55.2736 13.8454 0.0000 -10476.9515 1393.9320 0.0000 0.0000 1740.5392 -7266.1703 300.3186 -9006.7095 -7258.7593 300.7197 -353.7902 -301.8171 30214.0069 -129.4426 -70.6845
TCL: Running FEP window  13: Lambda1 0.39999999999999963 Lambda2 0.34999999999999964 [dLambda -0.04999999999999999]
TCL: Setting parameter firsttimestep to 0
TCL: Setting parameter alchLambda to 0.39999999999999963
Info: NONBONDED TABLE R-SQUARED SPACING: 0.0625
Info: NONBONDED TABLE SIZE: 705 POINTS
TCL: Setting parameter alchLambda2 to 0.34999999999999964
Info: NONBONDED TABLE R-SQUARED SPACING: 0.0625
Info: NONBONDED TABLE SIZE: 705 POINTS
TCL: Running for 1500000 steps
ETITLE: TS BOND ANGLE DIHED IMPRP ELECT VDW BOUNDARY MISC KINETIC TOTAL TEMP POTENTIAL TOTALAVG TEMPAVG PRESSURE GPRESSURE VOLUME PRESSAVG GPRESSAVG
ENERGY: 0 7.1909 55.2736 13.8454 0.0000 -10476.9502 1394.6487 0.0000 0.0000 1739.6612 -7266.3302 300.1671 -9005.9915 -7266.3302 300.1671 -400.6443 -305.6182 30214.0069 -400.6443 -305.6182
ENERGY: 300000 4.3304 56.7880 12.5462 0.0000 -10409.3786 1423.6422 0.0000 0.0000 1656.8227 -7255.2492 285.8739 -8912.0719 -7240.4157 296.0543 205.7550 292.8848 30520.4400 132.3293 210.7085
ENERGY: 600000 3.3267 53.9768 15.5337 0.0000 -10393.3425 1362.8888 0.0000 0.0000 1727.6661 -7229.9505 298.0974 -8957.6166 -7241.5404 298.6357 -509.1848 -402.8282 30206.9517 34.2485 107.7977
ENERGY: 900000 6.8312 56.4222 16.5121 0.0000 -10523.7949 1355.9351 0.0000 0.0000 1762.4121 -7325.6822 304.0926 -9088.0942 -7253.7022 299.5333 -660.4652 -539.0150 29837.5591 -116.3430 -40.8019
ENERGY: 1200000 6.6922 62.9689 13.7605 0.0000 -10663.6550 1507.1221 0.0000 0.0000 1754.3803 -7318.7310 302.7068 -9073.1114 -7267.4333 298.6426 408.6960 398.3738 30023.7799 -91.4401 -29.2773
ENERGY: 1500000 10.6144 58.7962 13.2617 0.0000 -10399.8010 1264.5387 0.0000 0.0000 1775.9764 -7276.6135 306.4330 -9052.5899 -7261.1039 300.0819 -1136.7112 -1124.9801 29708.0793 -194.1982 -130.7056
TCL: Running FEP window  14: Lambda1 0.34999999999999964 Lambda2 0.29999999999999966 [dLambda -0.04999999999999999]
TCL: Setting parameter firsttimestep to 0
TCL: Setting parameter alchLambda to 0.34999999999999964
Info: NONBONDED TABLE R-SQUARED SPACING: 0.0625
Info: NONBONDED TABLE SIZE: 705 POINTS
TCL: Setting parameter alchLambda2 to 0.29999999999999966
Info: NONBONDED TABLE R-SQUARED SPACING: 0.0625
Info: NONBONDED TABLE SIZE: 705 POINTS
TCL: Running for 1500000 steps
ETITLE: TS BOND ANGLE DIHED IMPRP ELECT VDW BOUNDARY MISC KINETIC TOTAL TEMP POTENTIAL TOTALAVG TEMPAVG PRESSURE GPRESSURE VOLUME PRESSAVG GPRESSAVG
ENERGY: 0 10.6144 58.7962 13.2617 0.0000 -10399.8006 1265.0817 0.0000 0.0000 1775.1424 -7276.9042 306.2891 -9052.0466 -7276.9042 306.2891 -1215.6707 -1131.8114 29708.0793 -1215.6707 -1131.8114
ENERGY: 300000 3.7899 54.7983 14.1073 0.0000 -10514.6510 1396.1680 0.0000 0.0000 1715.3272 -7330.4603 295.9684 -9045.7875 -7257.8380 302.3791 -368.1625 -250.9198 30271.2073 -598.9523 -512.9739
ENERGY: 600000 6.0988 55.4661 16.6858 0.0000 -10435.8681 1447.0534 0.0000 0.0000 1791.9630 -7118.6009 309.1914 -8910.5639 -7236.8883 303.0974 421.8874 476.3057 30077.6190 -234.1097 -154.8165
ENERGY: 900000 5.0589 55.8797 16.1351 0.0000 -10373.7905 1309.8923 0.0000 0.0000 1744.7621 -7242.0624 301.0472 -8986.8245 -7242.7370 302.7498 -1043.4274 -988.0131 30177.5380 -295.9968 -218.0853
ENERGY: 1200000 9.8803 53.3450 13.9537 0.0000 -10576.8448 1419.2421 0.0000 0.0000 1712.9914 -7367.4324 295.5654 -9080.4238 -7259.5736 302.6257 -302.6990 -156.3616 29517.9994 -127.4647 -43.5371
ENERGY: 1500000 4.7783 57.6614 13.2990 0.0000 -10522.5132 1507.3049 0.0000 0.0000 1712.6357 -7226.8339 295.5040 -8939.4696 -7250.9978 302.1709 771.9910 816.1949 30275.3051 -39.8945 40.9738
TCL: Running FEP window  15: Lambda1 0.29999999999999966 Lambda2 0.24999999999999967 [dLambda -0.04999999999999999]
TCL: Setting parameter firsttimestep to 0
TCL: Setting parameter alchLambda to 0.29999999999999966
Info: NONBONDED TABLE R-SQUARED SPACING: 0.0625
Info: NONBONDED TABLE SIZE: 705 POINTS
TCL: Setting parameter alchLambda2 to 0.24999999999999967
Info: NONBONDED TABLE R-SQUARED SPACING: 0.0625
Info: NONBONDED TABLE SIZE: 705 POINTS
TCL: Running for 1500000 steps
ETITLE: TS BOND ANGLE DIHED IMPRP ELECT VDW BOUNDARY MISC KINETIC TOTAL TEMP POTENTIAL TOTALAVG TEMPAVG PRESSURE GPRESSURE VOLUME PRESSAVG GPRESSAVG
ENERGY: 0 4.7783 57.6614 13.2990 0.0000 -10522.5136 1507.8494 0.0000 0.0000 1711.8032 -7227.1223 295.3604 -8938.9255 -7227.1223 295.3604 744.2977 812.9345 30275.3051 744.2977 812.9345
ENERGY: 300000 8.8243 56.1873 16.4458 0.0000 -10440.4818 1342.7760 0.0000 0.0000 1727.9370 -7288.3115 298.1442 -9016.2484 -7285.3106 296.3473 -1046.0241 -1037.5395 30505.0076 -353.1025 -287.8739
ENERGY: 600000 10.7641 53.5670 14.8992 0.0000 -10543.7018 1440.1511 0.0000 0.0000 1753.6281 -7270.6923 302.5770 -9024.3204 -7268.3606 298.5150 260.9015 267.1408 29714.1148 -299.7052 -250.9319
ENERGY: 900000 5.8169 54.8456 12.5972 0.0000 -10686.0369 1537.3183 0.0000 0.0000 1705.1424 -7370.3165 294.2111 -9075.4589 -7270.0908 297.4421 461.3411 489.7498 30089.5951 -122.0614 -68.5386
ENERGY: 1200000 5.1898 57.6014 14.8186 0.0000 -10564.5916 1375.5861 0.0000 0.0000 1731.9597 -7379.4361 298.8382 -9111.3958 -7278.9351 297.9777 -400.8591 -354.8476 29327.7269 -164.6269 -108.3524
ENERGY: 1500000 5.5438 56.9292 14.6456 0.0000 -10571.6504 1561.3358 0.0000 0.0000 1727.6749 -7205.5210 298.0989 -8933.1959 -7268.8777 297.9261 1075.1719 1128.6240 30060.5767 -68.2705 -2.1195
TCL: Running FEP window  16: Lambda1 0.24999999999999967 Lambda2 0.19999999999999968 [dLambda -0.04999999999999999]
TCL: Setting parameter firsttimestep to 0
TCL: Setting parameter alchLambda to 0.24999999999999967
Info: NONBONDED TABLE R-SQUARED SPACING: 0.0625
Info: NONBONDED TABLE SIZE: 705 POINTS
TCL: Setting parameter alchLambda2 to 0.19999999999999968
Info: NONBONDED TABLE R-SQUARED SPACING: 0.0625
Info: NONBONDED TABLE SIZE: 705 POINTS
TCL: Running for 1500000 steps
ETITLE: TS BOND ANGLE DIHED IMPRP ELECT VDW BOUNDARY MISC KINETIC TOTAL TEMP POTENTIAL TOTALAVG TEMPAVG PRESSURE GPRESSURE VOLUME PRESSAVG GPRESSAVG
ENERGY: 0 5.5438 56.9292 14.6456 0.0000 -10571.6502 1561.2943 0.0000 0.0000 1726.7766 -7206.4607 297.9439 -8933.2373 -7206.4607 297.9439 1029.5956 1118.8873 30060.5767 1029.5956 1118.8873
ENERGY: 300000 3.1624 57.9616 12.4112 0.0000 -10364.9705 1331.0488 0.0000 0.0000 1771.5579 -7188.8286 305.6707 -8960.3865 -7224.0100 300.0149 -448.0101 -396.3803 30345.2871 201.4306 249.7232
ENERGY: 600000 9.2168 59.2837 13.1907 0.0000 -10483.9739 1432.8369 0.0000 0.0000 1770.7332 -7198.7128 305.5284 -8969.4459 -7230.3640 301.0753 117.5956 192.5470 30155.9442 173.5542 236.7929
ENERGY: 900000 6.2207 54.4257 14.6452 0.0000 -10579.0844 1441.6911 0.0000 0.0000 1707.8088 -7354.2930 294.6712 -9062.1018 -7239.2052 299.6665 -236.1973 -88.7021 29924.3546 75.7384 141.6193
ENERGY: 1200000 3.5609 53.9090 12.7132 0.0000 -10493.3054 1441.5975 0.0000 0.0000 1736.6165 -7244.9082 299.6418 -8981.5247 -7237.9409 299.9489 324.4445 451.2492 30000.8179 54.1365 125.7108
ENERGY: 1500000 4.4637 55.5941 12.6737 0.0000 -10430.5429 1387.4097 0.0000 0.0000 1664.0834 -7306.3183 287.1266 -8970.4017 -7255.3617 299.2060 -137.4088 -29.8952 29965.9339 50.0114 118.3472
TCL: Running FEP window  17: Lambda1 0.19999999999999968 Lambda2 0.1499999999999997 [dLambda -0.04999999999999999]
TCL: Setting parameter firsttimestep to 0
TCL: Setting parameter alchLambda to 0.19999999999999968
Info: NONBONDED TABLE R-SQUARED SPACING: 0.0625
Info: NONBONDED TABLE SIZE: 705 POINTS
TCL: Setting parameter alchLambda2 to 0.1499999999999997
Info: NONBONDED TABLE R-SQUARED SPACING: 0.0625
Info: NONBONDED TABLE SIZE: 705 POINTS
TCL: Running for 1500000 steps
ETITLE: TS BOND ANGLE DIHED IMPRP ELECT VDW BOUNDARY MISC KINETIC TOTAL TEMP POTENTIAL TOTALAVG TEMPAVG PRESSURE GPRESSURE VOLUME PRESSAVG GPRESSAVG
ENERGY: 0 4.4637 55.5941 12.6737 0.0000 -10430.5435 1387.9247 0.0000 0.0000 1663.2235 -7306.6638 286.9783 -8969.8873 -7306.6638 286.9783 -140.5666 -32.3332 29965.9339 -140.5666 -32.3332
ENERGY: 300000 3.6236 53.6668 13.8085 0.0000 -10596.1406 1463.7817 0.0000 0.0000 1722.5037 -7338.7563 297.2067 -9061.2600 -7301.1755 297.2442 421.7525 485.2150 29539.1393 65.3539 146.5471
ENERGY: 600000 5.0477 58.0020 13.6499 0.0000 -10591.0725 1445.7438 0.0000 0.0000 1721.6087 -7347.0205 297.0523 -9068.6292 -7284.8952 299.5696 56.6012 54.9034 29860.0757 -66.5742 0.1939
ENERGY: 900000 5.0251 55.0528 12.6217 0.0000 -10471.7239 1419.8361 0.0000 0.0000 1738.3940 -7240.7942 299.9485 -8979.1882 -7307.9037 298.2781 320.1562 443.5128 29319.7586 -59.4149 21.3581
ENERGY: 1200000 11.0047 58.5029 15.0778 0.0000 -10459.4527 1370.2400 0.0000 0.0000 1768.0418 -7236.5856 305.0640 -9004.6274 -7292.2149 299.1044 -323.9373 -291.6348 30154.3433 -59.4792 13.7303
ENERGY: 1500000 6.1815 54.9598 13.5861 0.0000 -10546.7720 1427.2145 0.0000 0.0000 1719.1849 -7325.6453 296.6340 -9044.8302 -7288.1411 299.4901 -280.7005 -202.4031 29697.9015 -105.6341 -34.1359
TCL: Running FEP window  18: Lambda1 0.1499999999999997 Lambda2 0.09999999999999969 [dLambda -0.05 ]
TCL: Setting parameter firsttimestep to 0
TCL: Setting parameter alchLambda to 0.1499999999999997
Info: NONBONDED TABLE R-SQUARED SPACING: 0.0625
Info: NONBONDED TABLE SIZE: 705 POINTS
TCL: Setting parameter alchLambda2 to 0.09999999999999969
Info: NONBONDED TABLE R-SQUARED SPACING: 0.0625
Info: NONBONDED TABLE SIZE: 705 POINTS
TCL: Running for 1500000 steps
ETITLE: TS BOND ANGLE DIHED IMPRP ELECT VDW BOUNDARY MISC KINETIC TOTAL TEMP POTENTIAL TOTALAVG TEMPAVG PRESSURE GPRESSURE VOLUME PRESSAVG GPRESSAVG
ENERGY: 0 6.1815 54.9598 13.5861 0.0000 -10546.7728 1427.1884 0.0000 0.0000 1718.3399 -7326.5172 296.4883 -9044.8571 -7326.5172 296.4883 -288.6745 -208.3695 29697.9015 -288.6745 -208.3695
ENERGY: 300000 7.5662 57.4911 15.1204 0.0000 -10517.2695 1463.2578 0.0000 0.0000 1769.8466 -7203.9874 305.3754 -8973.8340 -7233.9985 302.6764 589.0283 638.4627 29910.9079 62.5450 136.9235
ENERGY: 600000 5.5697 53.6482 15.8380 0.0000 -10515.7341 1411.6299 0.0000 0.0000 1761.7002 -7267.3482 303.9698 -9029.0483 -7251.7625 302.1483 -150.7740 -57.8049 30143.6377 -56.5054 21.0270
ENERGY: 900000 6.2794 51.5629 13.2275 0.0000 -10397.1699 1392.1386 0.0000 0.0000 1738.6466 -7195.3149 299.9920 -8933.9615 -7238.8771 302.4983 39.6266 44.9287 29762.1219 38.7179 115.8293
ENERGY: 1200000 7.2610 51.9363 15.7360 0.0000 -10442.8584 1412.7541 0.0000 0.0000 1745.9329 -7209.2381 301.2492 -8955.1710 -7246.9381 302.5749 321.5246 356.5136 29497.1330 5.7467 85.5759
ENERGY: 1500000 4.9115 56.4980 17.5079 0.0000 -10481.4423 1453.0734 0.0000 0.0000 1697.9102 -7251.5412 292.9632 -8949.4514 -7247.4429 302.6163 738.3927 739.4856 29377.5132 133.1355 208.0578
TCL: Running FEP window  19: Lambda1 0.09999999999999969 Lambda2 0.049999999999999684 [dLambda -0.05 ]
TCL: Setting parameter firsttimestep to 0
TCL: Setting parameter alchLambda to 0.09999999999999969
Info: NONBONDED TABLE R-SQUARED SPACING: 0.0625
Info: NONBONDED TABLE SIZE: 705 POINTS
TCL: Setting parameter alchLambda2 to 0.049999999999999684
Info: NONBONDED TABLE R-SQUARED SPACING: 0.0625
Info: NONBONDED TABLE SIZE: 705 POINTS
TCL: Running for 1500000 steps
ETITLE: TS BOND ANGLE DIHED IMPRP ELECT VDW BOUNDARY MISC KINETIC TOTAL TEMP POTENTIAL TOTALAVG TEMPAVG PRESSURE GPRESSURE VOLUME PRESSAVG GPRESSAVG
ENERGY: 0 4.9115 56.4980 17.5079 0.0000 -10481.4417 1452.6300 0.0000 0.0000 1697.0215 -7252.8728 292.8099 -8949.8943 -7252.8728 292.8099 645.9918 727.8396 29377.5132 645.9918 727.8396
ENERGY: 300000 8.6914 57.1320 13.9449 0.0000 -10505.3361 1412.4466 0.0000 0.0000 1718.3928 -7294.7284 296.4974 -9013.1212 -7267.8666 298.1606 -167.1266 -136.8432 29953.8173 504.6403 573.7229
ENERGY: 600000 7.8708 56.3902 12.5696 0.0000 -10318.1773 1341.0457 0.0000 0.0000 1775.9547 -7124.3463 306.4293 -8900.3010 -7232.6443 299.4516 -785.9578 -707.6662 30320.7515 76.1577 148.2333
ENERGY: 900000 3.7682 57.9055 14.0134 0.0000 -10501.0052 1375.5597 0.0000 0.0000 1770.1411 -7279.6172 305.4262 -9049.7583 -7253.6556 299.3944 -652.7063 -590.0727 29825.8029 -38.3831 24.4065
ENERGY: 1200000 12.9725 55.9781 14.3099 0.0000 -10419.6425 1308.3808 0.0000 0.0000 1701.3311 -7326.6701 293.5535 -9028.0012 -7263.4515 298.5552 -1137.2387 -1081.4902 29787.7947 -177.6657 -111.4133
ENERGY: 1500000 6.8360 53.8342 14.2390 0.0000 -10373.3230 1327.9282 0.0000 0.0000 1753.4471 -7217.0386 302.5458 -8970.4857 -7260.3412 298.8852 -683.7261 -639.6659 29852.7503 -215.3489 -143.6685
TCL: Running FEP window  20: Lambda1 0.049999999999999684 Lambda2 0.0    [dLambda -0.049999999999999684]
TCL: Setting parameter firsttimestep to 0
TCL: Setting parameter alchLambda to 0.049999999999999684
Info: NONBONDED TABLE R-SQUARED SPACING: 0.0625
Info: NONBONDED TABLE SIZE: 705 POINTS
TCL: Setting parameter alchLambda2 to 0.0
Info: NONBONDED TABLE R-SQUARED SPACING: 0.0625
Info: NONBONDED TABLE SIZE: 705 POINTS
TCL: Running for 1500000 steps
ETITLE: TS BOND ANGLE DIHED IMPRP ELECT VDW BOUNDARY MISC KINETIC TOTAL TEMP POTENTIAL TOTALAVG TEMPAVG PRESSURE GPRESSURE VOLUME PRESSAVG GPRESSAVG
ENERGY: 0 6.8360 53.8342 14.2390 0.0000 -10373.3237 1327.2474 0.0000 0.0000 1752.5836 -7218.5834 302.3968 -8971.1671 -7218.5834 302.3968 -732.5703 -650.4570 29852.7503 -732.5703 -650.4570
ENERGY: 300000 9.4516 55.2553 13.8012 0.0000 -10451.2970 1389.7595 0.0000 0.0000 1689.5321 -7293.4972 291.5177 -8983.0293 -7222.1173 297.7770 -288.5062 -241.5914 29710.4152 -89.7541 -43.0456
ENERGY: 600000 7.3499 57.6571 14.6725 0.0000 -10445.0449 1368.8927 0.0000 0.0000 1702.8008 -7293.6719 293.8071 -8996.4726 -7264.7753 297.5693 -420.6315 -301.4701 29740.8635 -169.1352 -98.1844
ENERGY: 900000 9.3824 51.8351 14.7457 0.0000 -10474.4086 1359.8521 0.0000 0.0000 1723.0732 -7315.5201 297.3050 -9038.5933 -7276.7691 297.3918 -791.2372 -746.2746 29824.7722 -110.1107 -40.7915
ENERGY: 1200000 3.5779 55.0023 14.7999 0.0000 -10392.1436 1313.4619 0.0000 0.0000 1775.4516 -7229.8500 306.3425 -9005.3016 -7267.9004 299.0190 -797.6011 -691.4948 30363.8857 -185.7600 -119.1338
ENERGY: 1500000 6.0998 60.1953 12.8776 0.0000 -10556.0153 1450.6788 0.0000 0.0000 1751.8490 -7274.3149 302.2700 -9026.1639 -7261.0406 299.8212 366.9611 404.2308 29328.4263 -70.9404 -7.4846
TCL: Exiting due to exit command.
