Info: SIMULATION PARAMETERS:
Info: TIMESTEP               2
Info: NUMBER OF STEPS        0
Info: STEPS PER CYCLE        10
Info: PERIODIC CELL BASIS 1  29.9203 0 0
Info: PERIODIC CELL BASIS 2  0 32.8435 0
Info: PERIODIC CELL BASIS 3  0 0 30.5737
Info: PERIODIC CELL CENTER   0 0 0
Info: WRAPPING WATERS AROUND PERIODIC BOUNDARIES ON OUTPUT.
Info: WRAPPING ALL CLUSTERS AROUND PERIODIC BOUNDARIES ON OUTPUT.
Info: FIRST LDB TIMESTEP     50
Info: LAST LDB TIMESTEP     -1
Info: HOM BACKGROUND SCALING 1
Info: PME BACKGROUND SCALING 1
Info: MIN ATOMS PER PATCH    40
Info: EMPTY PATCH LOAD       40 ATOMS
Info: VELOCITY FILE          mobley_5094777_equil.vel
Info: CENTER OF MASS MOVING INITIALLY? NO
Info: DIELECTRIC             1
Info: EXCLUDE                SCALED ONE-FOUR
Info: 1-4 ELECTROSTATICS SCALED BY 0.833333
Info: MODIFIED 1-4 VDW PARAMETERS WILL BE USED
Info: DCD FILENAME           mobley_5094777_prod.dcd
Info: DCD FREQUENCY          100000
Info: DCD FIRST STEP         100000
Info: DCD FILE WILL CONTAIN UNIT CELL DATA
Info: XST FILENAME           mobley_5094777_prod.xst
Info: XST FREQUENCY          100000
Info: NO VELOCITY DCD OUTPUT
Info: NO FORCE DCD OUTPUT
Info: OUTPUT FILENAME        mobley_5094777_prod
Info: BINARY OUTPUT FILES WILL BE USED
Info: RESTART FILENAME       mobley_5094777_prod.restart
Info: RESTART FREQUENCY      100000
Info: BINARY RESTART FILES WILL BE USED
Info: CUTOFF                 9
Info: PAIRLIST DISTANCE      11
Info: PAIRLIST SHRINK RATE   0.01
Info: PAIRLIST GROW RATE     0.01
Info: PAIRLIST TRIGGER       0.3
Info: PAIRLISTS PER CYCLE    2
Info: PAIRLISTS ENABLED
Info: MARGIN                 2
Info: HYDROGEN GROUP CUTOFF  2.5
Info: PATCH DIMENSION        15.5
Info: ENERGY OUTPUT STEPS    100000
Info: ENERGY EVALUATION STEPS    100000
Info: OUTPUT ENERGY PRECISION 4
Info: CROSSTERM ENERGY INCLUDED IN DIHEDRAL
Info: TIMING OUTPUT STEPS    1000000
Info: PRESSURE OUTPUT STEPS  100000
Info: ALCHEMICAL FEP ON
Info: FEP CURRENT LAMBDA VALUE     0
Info: FEP COMPARISON LAMBDA VALUE  0.05
Info: FEP INTRA-ALCHEMICAL NON-BONDED INTERACTIONS WILL BE RETAINED
Info: FEP INTRA-ALCHEMICAL BONDED INTERACTIONS WILL BE RETAINED
Info: FEP VDW SHIFTING COEFFICIENT 5
Info: FEP ELEC. ACTIVE FOR ANNIHILATED PARTICLES BETWEEN LAMBDA = 0 AND LAMBDA = 0.5
Info: FEP ELEC. ACTIVE FOR EXNIHILATED PARTICLES BETWEEN LAMBDA = 0.5 AND LAMBDA = 1
Info: FEP VDW ACTIVE FOR ANNIHILATED PARTICLES BETWEEN LAMBDA = 0 AND LAMBDA = 1
Info: FEP VDW ACTIVE FOR EXNIHILATED PARTICLES BETWEEN LAMBDA = 0 AND LAMBDA = 1
Info: FEP BOND ACTIVE FOR ANNIHILATED PARTICLES BETWEEN LAMBDA = 1 AND LAMBDA = 1
Info: FEP BOND ACTIVE FOR EXNIHILATED PARTICLES BETWEEN LAMBDA = 0 AND LAMBDA = 0
Info: LANGEVIN DYNAMICS ACTIVE
Info: LANGEVIN TEMPERATURE   300
Info: LANGEVIN USING BBK INTEGRATOR
Info: LANGEVIN DAMPING COEFFICIENT IS 1 INVERSE PS
Info: LANGEVIN DYNAMICS APPLIED TO HYDROGENS
Info: LANGEVIN PISTON PRESSURE CONTROL ACTIVE
Info:        TARGET PRESSURE IS 1.01325 BAR
Info:     OSCILLATION PERIOD IS 50 FS
Info:             DECAY TIME IS 25 FS
Info:     PISTON TEMPERATURE IS 300 K
Info:       PRESSURE CONTROL IS GROUP-BASED
Info:    INITIAL STRAIN RATE IS -0.000360223 -0.000360223 -0.000360223
Info:       CELL FLUCTUATION IS ISOTROPIC
Info: PARTICLE MESH EWALD (PME) ACTIVE
Info: PME TOLERANCE               1e-06
Info: PME EWALD COEFFICIENT       0.348832
Info: PME INTERPOLATION ORDER     4
Info: PME GRID DIMENSIONS         32 36 32
Info: PME MAXIMUM GRID SPACING    1
Info: PME CALCULATION WILL BE PERFORMED ON GPU
Info: FULL ELECTROSTATIC EVALUATION FREQUENCY      2
Info: USING VERLET I (r-RESPA) MTS SCHEME.
Info: C1 SPLITTING OF LONG RANGE ELECTROSTATICS
Info: PLACING ATOMS IN PATCHES BY HYDROGEN GROUPS
Info: RIGID BONDS TO HYDROGEN : ALL
Info:         ERROR TOLERANCE : 1e-08
Info:          MAX ITERATIONS : 100
Info: RIGID WATER USING SETTLE ALGORITHM
Info: RANDOM NUMBER SEED     1743611178
Info: USE HYDROGEN BONDS?    NO
Info: Using AMBER format force field!
Info: AMBER PARM FILE        mobley_5094777.prmtop
Info: COORDINATE PDB         mobley_5094777.pdb
Info: Exclusions will be read from PARM file!
Info: SCNB (VDW SCALING)     2
Info: USING ARITHMETIC MEAN TO COMBINE L-J SIGMA PARAMETERS
Info: BINARY COORDINATES     mobley_5094777_equil.coor
Info: SUMMARY OF PARAMETERS:
Info: 7 BONDS
Info: 8 ANGLES
Info:   8 HARMONIC
Info:   0 COSINE-BASED
Info: 6 DIHEDRAL
Info: 0 IMPROPER
Info: 0 CROSSTERM
Info: 0 VDW
Info: 21 VDW_PAIRS
Info: 0 NBTHOLE_PAIRS
Info: To read alchdata from file: mobley_5094777.pdb
Info: To read alchflag data from column: 5
Info: STRUCTURE SUMMARY:
Info: 2932 ATOMS
Info: 2933 BONDS
Info: 36 ANGLES
Info: 60 DIHEDRALS
Info: 0 IMPROPERS
Info: 0 CROSSTERMS
Info: 3015 EXCLUSIONS
Info: 2923 RIGID BONDS
Info: ALCH: 0 ATOMS TO DISAPPEAR IN FINAL STATE
Info: ALCH: 19 ATOMS TO APPEAR IN FINAL STATE
Info: 5873 DEGREES OF FREEDOM
Info: 980 HYDROGEN GROUPS
Info: 3 ATOMS IN LARGEST HYDROGEN GROUP
Info: 980 MIGRATION GROUPS
Info: 3 ATOMS IN LARGEST MIGRATION GROUP
Info: TOTAL MASS = 17611.7 amu
Info: TOTAL CHARGE = 0.000100002 e
Info: MASS DENSITY = 0.97341 g/cm^3
Info: ATOM DENSITY = 0.0975886 atoms/A^3
Info: ADDED 0 IMPLICIT EXCLUSIONS
Info: NONBONDED TABLE R-SQUARED SPACING: 0.0625
Info: NONBONDED TABLE SIZE: 705 POINTS
Info: REMOVING COM VELOCITY 0.219561 -0.00674893 0.0318561
Info: Use 3D box decompostion in PME FFT.
Info: Updated CUDA force table with 4096 elements.
Info: Updated CUDA LJ table with 6 x 6 elements.
Info: Found 21 unique exclusion lists needing 52 bytes
TCL: Running for 1500000 steps
ETITLE: TS BOND ANGLE DIHED IMPRP ELECT VDW BOUNDARY MISC KINETIC TOTAL TEMP POTENTIAL TOTALAVG TEMPAVG PRESSURE GPRESSURE VOLUME PRESSAVG GPRESSAVG
ENERGY: 0 5.2635 14.4681 7.1432 0.0000 -10652.5932 1472.6840 0.0000 0.0000 1721.0597 -7431.9747 294.9350 -9153.0344 -7431.9747 294.9350 241.6426 326.4007 30044.4900 241.6426 326.4007
ENERGY: 300000 2.0757 14.2950 7.8408 0.0000 -10565.0925 1405.1790 0.0000 0.0000 1811.2634 -7324.4386 310.3930 -9135.7020 -7385.8383 300.1019 -19.7805 50.1492 29592.5214 373.7421 453.7538
ENERGY: 600000 3.4647 11.2889 8.9671 0.0000 -10580.1234 1406.5020 0.0000 0.0000 1745.6130 -7404.2877 299.1427 -9149.9007 -7396.2516 298.4438 -445.2924 -360.2826 29904.3342 174.6081 248.4799
ENERGY: 900000 2.6517 12.6646 7.8688 0.0000 -10703.1423 1518.3216 0.0000 0.0000 1776.9504 -7384.6853 304.5129 -9161.6357 -7390.0178 299.7071 978.3038 1009.7900 29668.6111 247.0758 310.7507
ENERGY: 1200000 3.1398 13.8597 4.3088 0.0000 -10486.9973 1393.1276 0.0000 0.0000 1693.0873 -7379.4740 290.1414 -9072.5613 -7394.0489 299.6564 2.7231 26.2668 29961.6290 290.5327 345.2483
ENERGY: 1500000 2.1837 14.0046 6.9589 0.0000 -10577.3471 1402.1879 0.0000 0.0000 1724.4750 -7427.5371 295.5203 -9152.0120 -7399.7835 299.4763 -455.3581 -376.7461 30538.4988 216.6957 276.7830
TCL: Running FEP window   2: Lambda1 0.05   Lambda2 0.1    [dLambda 0.05  ]
TCL: Setting parameter firsttimestep to 0
TCL: Setting parameter alchLambda to 0.05
Info: NONBONDED TABLE R-SQUARED SPACING: 0.0625
Info: NONBONDED TABLE SIZE: 705 POINTS
TCL: Setting parameter alchLambda2 to 0.1
Info: NONBONDED TABLE R-SQUARED SPACING: 0.0625
Info: NONBONDED TABLE SIZE: 705 POINTS
TCL: Running for 1500000 steps
ETITLE: TS BOND ANGLE DIHED IMPRP ELECT VDW BOUNDARY MISC KINETIC TOTAL TEMP POTENTIAL TOTALAVG TEMPAVG PRESSURE GPRESSURE VOLUME PRESSAVG GPRESSAVG
ENERGY: 0 2.1837 14.0046 6.9589 0.0000 -10577.3479 1406.9303 0.0000 0.0000 1723.6310 -7423.6393 295.3756 -9147.2703 -7423.6393 295.3756 -454.1110 -369.3459 30538.4988 -454.1110 -369.3459
ENERGY: 300000 4.1082 13.8726 8.4821 0.0000 -10628.9473 1369.1599 0.0000 0.0000 1755.2555 -7478.0689 300.7951 -9233.3244 -7418.3002 298.3826 -665.6225 -618.0076 29861.8931 -268.3145 -197.7753
ENERGY: 600000 4.0801 16.3630 6.7992 0.0000 -10639.6427 1424.2923 0.0000 0.0000 1764.7156 -7423.3925 302.4162 -9188.1081 -7422.3117 299.4491 -99.4829 -30.2048 30071.5486 -332.6681 -273.2211
ENERGY: 900000 4.2574 13.0041 7.5278 0.0000 -10770.4985 1586.7801 0.0000 0.0000 1727.1265 -7431.8026 295.9747 -9158.9291 -7421.6106 298.7719 1035.7760 1082.6911 29944.1684 -114.7250 -58.3069
ENERGY: 1200000 1.5223 19.8021 7.7751 0.0000 -10655.9308 1489.0554 0.0000 0.0000 1756.0737 -7381.7022 300.9353 -9137.7759 -7406.1378 299.9392 656.2829 764.1171 29744.5836 -70.3761 -11.4531
ENERGY: 1500000 3.1321 17.3966 4.6255 0.0000 -10537.4284 1347.2868 0.0000 0.0000 1806.4007 -7358.5866 309.5597 -9164.9873 -7403.6889 299.9745 -917.6654 -854.1224 30524.8116 -133.6821 -77.8661
TCL: Running FEP window   3: Lambda1 0.1    Lambda2 0.15000000000000002 [dLambda 0.05000000000000002]
TCL: Setting parameter firsttimestep to 0
TCL: Setting parameter alchLambda to 0.1
Info: NONBONDED TABLE R-SQUARED SPACING: 0.0625
Info: NONBONDED TABLE SIZE: 705 POINTS
TCL: Setting parameter alchLambda2 to 0.15000000000000002
Info: NONBONDED TABLE R-SQUARED SPACING: 0.0625
Info: NONBONDED TABLE SIZE: 705 POINTS
TCL: Running for 1500000 steps
ETITLE: TS BOND ANGLE DIHED IMPRP ELECT VDW BOUNDARY MISC KINETIC TOTAL TEMP POTENTIAL TOTALAVG TEMPAVG PRESSURE GPRESSURE VOLUME PRESSAVG GPRESSAVG
ENERGY: 0 3.1321 17.3966 4.6255 0.0000 -10537.4293 1349.1081 0.0000 0.0000 1805.5506 -7357.6164 309.4141 -9163.1670 -7357.6164 309.4141 -921.4460 -844.2369 30524.8116 -921.4460 -844.2369
ENERGY: 300000 1.9802 12.4348 8.1875 0.0000 -10454.6380 1295.2477 0.0000 0.0000 1763.6580 -7373.1297 302.2350 -9136.7877 -7371.8094 302.4529 -646.5781 -545.7914 29602.1405 -403.6336 -338.7084
ENERGY: 600000 4.4909 19.8912 7.5764 0.0000 -10574.4253 1392.7136 0.0000 0.0000 1709.6843 -7440.0688 292.9856 -9149.7532 -7378.6158 300.0634 -429.2377 -369.4068 29962.1133 -392.1275 -328.5584
ENERGY: 900000 2.5976 18.1217 6.8136 0.0000 -10619.4372 1412.7232 0.0000 0.0000 1666.1784 -7513.0028 285.5301 -9179.1811 -7402.5553 296.9468 -455.1532 -382.4745 30116.1071 -228.3337 -174.8396
ENERGY: 1200000 1.9847 14.7729 5.0025 0.0000 -10706.7939 1489.0938 0.0000 0.0000 1716.8273 -7479.1126 294.2097 -9195.9399 -7399.1435 297.3349 355.5936 458.9918 30138.1058 -119.6002 -61.2770
ENERGY: 1500000 7.4751 15.3860 7.1396 0.0000 -10617.8113 1466.3632 0.0000 0.0000 1750.3305 -7371.1169 299.9511 -9121.4474 -7384.2601 299.2175 275.1255 320.2212 29777.1645 -59.6421 1.5879
TCL: Running FEP window   4: Lambda1 0.15000000000000002 Lambda2 0.2    [dLambda 0.04999999999999999]
TCL: Setting parameter firsttimestep to 0
TCL: Setting parameter alchLambda to 0.15000000000000002
Info: NONBONDED TABLE R-SQUARED SPACING: 0.0625
Info: NONBONDED TABLE SIZE: 705 POINTS
TCL: Setting parameter alchLambda2 to 0.2
Info: NONBONDED TABLE R-SQUARED SPACING: 0.0625
Info: NONBONDED TABLE SIZE: 705 POINTS
TCL: Running for 1500000 steps
ETITLE: TS BOND ANGLE DIHED IMPRP ELECT VDW BOUNDARY MISC KINETIC TOTAL TEMP POTENTIAL TOTALAVG TEMPAVG PRESSURE GPRESSURE VOLUME PRESSAVG GPRESSAVG
ENERGY: 0 7.4751 15.3860 7.1396 0.0000 -10617.8124 1467.7695 0.0000 0.0000 1749.4664 -7370.5758 299.8030 -9120.0422 -7370.5758 299.8030 254.9471 333.8242 29777.1645 254.9471 333.8242
ENERGY: 300000 2.7282 15.8320 5.7331 0.0000 -10609.0806 1382.6098 0.0000 0.0000 1779.0307 -7423.1468 304.8694 -9202.1775 -7416.2125 297.9343 -583.3497 -469.9526 29977.1462 -135.7814 -60.8063
ENERGY: 600000 4.2042 15.5621 6.6976 0.0000 -10505.3889 1350.4174 0.0000 0.0000 1738.9586 -7389.5491 298.0023 -9128.5076 -7413.1658 297.6250 -708.7137 -611.5739 30195.2618 -169.9030 -97.1577
ENERGY: 900000 0.8410 14.5572 7.8171 0.0000 -10743.0186 1524.6011 0.0000 0.0000 1716.0308 -7479.1713 294.0732 -9195.2021 -7414.6540 297.5450 617.6977 660.4267 29780.1711 -29.7742 36.1885
ENERGY: 1200000 2.5140 16.0727 7.2141 0.0000 -10798.3871 1589.1291 0.0000 0.0000 1703.1794 -7480.2779 291.8709 -9183.4573 -7416.0455 297.3854 1209.7562 1305.0286 29791.3985 110.9792 183.3911
ENERGY: 1500000 7.5216 17.2860 5.5272 0.0000 -10741.2659 1475.2378 0.0000 0.0000 1747.0843 -7488.6091 299.3948 -9235.6934 -7423.2681 297.7543 -119.2723 -7.0437 29988.2558 104.2565 178.5172
TCL: Running FEP window   5: Lambda1 0.2    Lambda2 0.25   [dLambda 0.04999999999999999]
TCL: Setting parameter firsttimestep to 0
TCL: Setting parameter alchLambda to 0.2
Info: NONBONDED TABLE R-SQUARED SPACING: 0.0625
Info: NONBONDED TABLE SIZE: 705 POINTS
TCL: Setting parameter alchLambda2 to 0.25
Info: NONBONDED TABLE R-SQUARED SPACING: 0.0625
Info: NONBONDED TABLE SIZE: 705 POINTS
TCL: Running for 1500000 steps
ETITLE: TS BOND ANGLE DIHED IMPRP ELECT VDW BOUNDARY MISC KINETIC TOTAL TEMP POTENTIAL TOTALAVG TEMPAVG PRESSURE GPRESSURE VOLUME PRESSAVG GPRESSAVG
ENERGY: 0 7.5216 17.2859 5.5272 0.0000 -10741.2671 1475.2831 0.0000 0.0000 1746.2375 -7489.4119 299.2497 -9235.6493 -7489.4119 299.2497 -97.3186 -3.9732 29988.2558 -97.3186 -3.9732
ENERGY: 300000 3.4664 17.4825 7.1169 0.0000 -10455.8291 1331.4981 0.0000 0.0000 1724.3762 -7371.8892 295.5033 -9096.2653 -7395.9188 297.7807 -709.2602 -624.8883 30409.9120 -238.7968 -165.9498
ENERGY: 600000 3.6618 18.3665 5.4202 0.0000 -10546.6125 1384.9607 0.0000 0.0000 1705.6034 -7428.5998 292.2863 -9134.2032 -7388.9951 298.3544 -483.1874 -430.4363 30342.0483 -43.8323 53.8544
ENERGY: 900000 6.0200 13.7683 7.4760 0.0000 -10653.1858 1405.7300 0.0000 0.0000 1756.4930 -7463.6984 301.0072 -9220.1915 -7389.8544 299.7350 -547.3582 -498.1838 30253.4323 -211.7034 -133.1650
ENERGY: 1200000 4.4213 18.8772 7.7810 0.0000 -10517.0801 1346.9705 0.0000 0.0000 1790.2994 -7348.7306 306.8005 -9139.0301 -7379.0704 300.3718 -708.6488 -681.7621 30202.9347 -285.3953 -219.2813
ENERGY: 1500000 7.0220 16.6419 8.2997 0.0000 -10461.1785 1328.5577 0.0000 0.0000 1807.3084 -7293.3489 309.7153 -9100.6573 -7371.2144 301.3208 -469.8639 -416.4320 29798.1463 -174.3362 -111.2204
TCL: Running FEP window   6: Lambda1 0.25   Lambda2 0.3    [dLambda 0.04999999999999999]
TCL: Setting parameter firsttimestep to 0
TCL: Setting parameter alchLambda to 0.25
Info: NONBONDED TABLE R-SQUARED SPACING: 0.0625
Info: NONBONDED TABLE SIZE: 705 POINTS
TCL: Setting parameter alchLambda2 to 0.3
Info: NONBONDED TABLE R-SQUARED SPACING: 0.0625
Info: NONBONDED TABLE SIZE: 705 POINTS
TCL: Running for 1500000 steps
ETITLE: TS BOND ANGLE DIHED IMPRP ELECT VDW BOUNDARY MISC KINETIC TOTAL TEMP POTENTIAL TOTALAVG TEMPAVG PRESSURE GPRESSURE VOLUME PRESSAVG GPRESSAVG
ENERGY: 0 7.0219 16.6419 8.2997 0.0000 -10461.1781 1328.2376 0.0000 0.0000 1806.4676 -7294.5095 309.5712 -9100.9770 -7294.5095 309.5712 -496.3107 -415.0004 29798.1463 -496.3107 -415.0004
ENERGY: 300000 4.3524 12.8571 6.2477 0.0000 -10648.3145 1422.6010 0.0000 0.0000 1732.9577 -7469.2985 296.9739 -9202.2562 -7380.4721 301.7653 -263.7755 -266.4285 30091.2958 -153.2981 -101.9736
ENERGY: 600000 4.3715 14.0630 9.5305 0.0000 -10755.4272 1540.2098 0.0000 0.0000 1748.4886 -7438.7638 299.6355 -9187.2524 -7393.9630 300.9371 607.0137 629.6328 30200.2408 89.2860 125.5615
ENERGY: 900000 4.0329 14.9155 7.5223 0.0000 -10712.5429 1487.0661 0.0000 0.0000 1792.9361 -7406.0700 307.2523 -9199.0061 -7404.3174 301.8630 154.2534 204.3577 30080.4187 117.6678 160.2842
ENERGY: 1200000 1.2753 15.9357 6.5084 0.0000 -10596.9617 1397.8446 0.0000 0.0000 1787.8747 -7387.5229 306.3850 -9175.3977 -7400.3587 302.9434 -391.3222 -405.3590 30416.0288 109.3981 155.8028
ENERGY: 1500000 5.8055 18.2089 7.9581 0.0000 -10574.5522 1462.6897 0.0000 0.0000 1753.4451 -7326.4448 300.4848 -9079.8900 -7383.0954 303.4081 390.2532 461.5608 29939.3225 131.4889 179.9500
TCL: Running FEP window   7: Lambda1 0.3    Lambda2 0.35   [dLambda 0.04999999999999999]
TCL: Setting parameter firsttimestep to 0
TCL: Setting parameter alchLambda to 0.3
Info: NONBONDED TABLE R-SQUARED SPACING: 0.0625
Info: NONBONDED TABLE SIZE: 705 POINTS
TCL: Setting parameter alchLambda2 to 0.35
Info: NONBONDED TABLE R-SQUARED SPACING: 0.0625
Info: NONBONDED TABLE SIZE: 705 POINTS
TCL: Running for 1500000 steps
ETITLE: TS BOND ANGLE DIHED IMPRP ELECT VDW BOUNDARY MISC KINETIC TOTAL TEMP POTENTIAL TOTALAVG TEMPAVG PRESSURE GPRESSURE VOLUME PRESSAVG GPRESSAVG
ENERGY: 0 5.8055 18.2089 7.9581 0.0000 -10574.5516 1463.5106 0.0000 0.0000 1752.5668 -7326.5017 300.3343 -9079.0685 -7326.5017 300.3343 385.7465 468.9798 29939.3225 385.7465 468.9798
ENERGY: 300000 2.8354 11.9449 9.9050 0.0000 -10644.3918 1456.3643 0.0000 0.0000 1778.2247 -7385.1176 304.7313 -9163.3423 -7400.0228 299.3321 443.9292 568.2266 29606.7596 338.4177 425.1986
ENERGY: 600000 3.4454 17.4751 8.9187 0.0000 -10499.4744 1399.2587 0.0000 0.0000 1776.6486 -7293.7279 304.4612 -9070.3765 -7414.9139 298.7742 -76.0233 -91.0608 30334.0002 146.2841 210.0494
ENERGY: 900000 2.4411 16.2176 7.5062 0.0000 -10539.6333 1357.0149 0.0000 0.0000 1738.1247 -7418.3286 297.8594 -9156.4534 -7410.6080 299.3954 -786.2938 -739.4280 30478.6642 145.6948 213.6374
ENERGY: 1200000 3.6056 15.9662 4.8577 0.0000 -10697.1173 1488.1480 0.0000 0.0000 1719.1209 -7465.4190 294.6028 -9184.5398 -7420.5502 299.0564 204.8581 232.9796 30136.2002 135.1917 198.6259
ENERGY: 1500000 3.8346 16.9914 6.9760 0.0000 -10676.8433 1445.6313 0.0000 0.0000 1811.5199 -7391.8902 310.4370 -9203.4101 -7412.5657 299.8999 -429.0702 -364.3103 30528.0446 61.3228 127.7268
TCL: Running FEP window   8: Lambda1 0.35   Lambda2 0.39999999999999997 [dLambda 0.04999999999999999]
TCL: Setting parameter firsttimestep to 0
TCL: Setting parameter alchLambda to 0.35
Info: NONBONDED TABLE R-SQUARED SPACING: 0.0625
Info: NONBONDED TABLE SIZE: 705 POINTS
TCL: Setting parameter alchLambda2 to 0.39999999999999997
Info: NONBONDED TABLE R-SQUARED SPACING: 0.0625
Info: NONBONDED TABLE SIZE: 705 POINTS
TCL: Running for 1500000 steps
ETITLE: TS BOND ANGLE DIHED IMPRP ELECT VDW BOUNDARY MISC KINETIC TOTAL TEMP POTENTIAL TOTALAVG TEMPAVG PRESSURE GPRESSURE VOLUME PRESSAVG GPRESSAVG
ENERGY: 0 3.8346 16.9914 6.9760 0.0000 -10676.8423 1445.7045 0.0000 0.0000 1810.6564 -7392.6794 310.2890 -9203.3359 -7392.6794 310.2890 -437.9683 -359.4867 30528.0446 -437.9683 -359.4867
ENERGY: 300000 2.7514 18.3786 5.7389 0.0000 -10618.2741 1378.0207 0.0000 0.0000 1710.5934 -7502.7911 293.1414 -9213.3845 -7448.3583 300.6425 -671.1093 -565.3869 29851.8052 -184.5592 -122.8503
ENERGY: 600000 7.7402 14.6357 7.7986 0.0000 -10600.3253 1391.5834 0.0000 0.0000 1723.6182 -7454.9492 295.3735 -9178.5674 -7415.8622 300.0674 -376.6476 -347.6154 30239.3164 -122.8009 -51.7655
ENERGY: 900000 2.8040 18.3564 6.6364 0.0000 -10578.9243 1385.6282 0.0000 0.0000 1747.6076 -7417.8917 299.4845 -9165.4993 -7405.4392 301.0610 -541.2296 -537.7516 30378.4755 -146.9333 -79.0626
ENERGY: 1200000 2.4712 16.2106 6.8766 0.0000 -10763.4797 1476.2496 0.0000 0.0000 1771.8813 -7489.7904 303.6442 -9261.6717 -7406.7036 301.4675 -77.2634 -20.0548 30425.8665 -140.1024 -71.0858
ENERGY: 1500000 2.5121 17.1194 4.8694 0.0000 -10586.6667 1413.6343 0.0000 0.0000 1728.3359 -7420.1956 296.1819 -9148.5315 -7407.8168 300.6759 -9.1095 66.8978 29987.2600 -139.0556 -67.9142
TCL: Running FEP window   9: Lambda1 0.39999999999999997 Lambda2 0.44999999999999996 [dLambda 0.04999999999999999]
TCL: Setting parameter firsttimestep to 0
TCL: Setting parameter alchLambda to 0.39999999999999997
Info: NONBONDED TABLE R-SQUARED SPACING: 0.0625
Info: NONBONDED TABLE SIZE: 705 POINTS
TCL: Setting parameter alchLambda2 to 0.44999999999999996
Info: NONBONDED TABLE R-SQUARED SPACING: 0.0625
Info: NONBONDED TABLE SIZE: 705 POINTS
TCL: Running for 1500000 steps
ETITLE: TS BOND ANGLE DIHED IMPRP ELECT VDW BOUNDARY MISC KINETIC TOTAL TEMP POTENTIAL TOTALAVG TEMPAVG PRESSURE GPRESSURE VOLUME PRESSAVG GPRESSAVG
ENERGY: 0 2.5121 17.1194 4.8694 0.0000 -10586.6668 1413.4328 0.0000 0.0000 1727.4962 -7421.2369 296.0380 -9148.7331 -7421.2369 296.0380 -17.4932 72.9700 29987.2600 -17.4932 72.9700
ENERGY: 300000 4.2830 15.6667 8.0296 0.0000 -10492.5657 1364.2330 0.0000 0.0000 1800.6224 -7299.7310 308.5695 -9100.3534 -7365.3005 300.2897 -283.2690 -163.5461 30178.9814 -592.5800 -495.7962
ENERGY: 600000 1.3422 11.8089 8.2361 0.0000 -10653.7857 1478.6370 0.0000 0.0000 1759.9395 -7393.8220 301.5978 -9153.7615 -7372.1249 302.3528 129.9349 260.0404 30588.0062 -421.0082 -314.3053
ENERGY: 900000 2.6170 15.3736 6.8362 0.0000 -10671.8543 1485.4587 0.0000 0.0000 1778.8207 -7382.7481 304.8334 -9161.5687 -7372.0035 302.7200 473.5581 554.0244 29971.5193 -210.2016 -118.3399
ENERGY: 1200000 4.1134 18.6974 5.7198 0.0000 -10677.7255 1472.7313 0.0000 0.0000 1767.9689 -7408.4947 302.9737 -9176.4636 -7386.1373 302.9092 375.7379 464.9502 29758.6529 -17.3672 68.2002
ENERGY: 1500000 1.9604 14.8280 7.1754 0.0000 -10503.8970 1418.5785 0.0000 0.0000 1807.9664 -7253.3882 309.8281 -9061.3546 -7382.6424 302.6172 155.7550 244.9498 30292.6694 -41.1263 40.0272
TCL: Running FEP window  10: Lambda1 0.44999999999999996 Lambda2 0.49999999999999994 [dLambda 0.04999999999999999]
TCL: Setting parameter firsttimestep to 0
TCL: Setting parameter alchLambda to 0.44999999999999996
Info: NONBONDED TABLE R-SQUARED SPACING: 0.0625
Info: NONBONDED TABLE SIZE: 705 POINTS
TCL: Setting parameter alchLambda2 to 0.49999999999999994
Info: NONBONDED TABLE R-SQUARED SPACING: 0.0625
Info: NONBONDED TABLE SIZE: 705 POINTS
TCL: Running for 1500000 steps
ETITLE: TS BOND ANGLE DIHED IMPRP ELECT VDW BOUNDARY MISC KINETIC TOTAL TEMP POTENTIAL TOTALAVG TEMPAVG PRESSURE GPRESSURE VOLUME PRESSAVG GPRESSAVG
ENERGY: 0 1.9604 14.8280 7.1754 0.0000 -10503.8957 1418.1112 0.0000 0.0000 1807.1148 -7254.7059 309.6821 -9061.8207 -7254.7059 309.6821 159.3087 246.7048 30292.6694 159.3087 246.7048
ENERGY: 300000 4.2488 17.8043 6.8447 0.0000 -10611.6135 1447.4330 0.0000 0.0000 1765.9175 -7369.3651 302.6222 -9135.2826 -7326.1528 304.3759 418.9147 473.3863 29998.1423 234.0908 277.9019
ENERGY: 600000 4.2843 14.7086 5.8426 0.0000 -10445.1113 1358.2239 0.0000 0.0000 1753.7616 -7308.2902 300.5391 -9062.0518 -7327.6231 302.2660 -376.9364 -307.8789 30329.0806 129.7677 181.6503
ENERGY: 900000 4.1069 12.2110 6.9412 0.0000 -10562.9666 1392.0260 0.0000 0.0000 1815.4487 -7332.2329 311.1103 -9147.6816 -7352.2999 300.8824 -181.4515 -140.7986 30284.6439 85.0891 134.2395
ENERGY: 1200000 7.5295 13.2844 7.4738 0.0000 -10586.9750 1382.6348 0.0000 0.0000 1724.3017 -7451.7508 295.4906 -9176.0524 -7353.0774 301.2215 -226.1576 -154.8469 29654.2102 -15.8099 35.5682
ENERGY: 1500000 5.7590 14.7905 8.1734 0.0000 -10589.9971 1423.2297 0.0000 0.0000 1764.7757 -7373.2688 302.4265 -9138.0445 -7357.1546 301.4364 -30.5721 84.5035 29994.7751 -95.4124 -41.9023
TCL: Running FEP window  11: Lambda1 0.49999999999999994 Lambda2 0.5499999999999999 [dLambda 0.04999999999999999]
TCL: Setting parameter firsttimestep to 0
TCL: Setting parameter alchLambda to 0.49999999999999994
Info: NONBONDED TABLE R-SQUARED SPACING: 0.0625
Info: NONBONDED TABLE SIZE: 705 POINTS
TCL: Setting parameter alchLambda2 to 0.5499999999999999
Info: NONBONDED TABLE R-SQUARED SPACING: 0.0625
Info: NONBONDED TABLE SIZE: 705 POINTS
TCL: Running for 1500000 steps
ETITLE: TS BOND ANGLE DIHED IMPRP ELECT VDW BOUNDARY MISC KINETIC TOTAL TEMP POTENTIAL TOTALAVG TEMPAVG PRESSURE GPRESSURE VOLUME PRESSAVG GPRESSAVG
ENERGY: 0 5.7589 14.7905 8.1734 0.0000 -10589.9985 1422.8433 0.0000 0.0000 1763.9036 -7374.5287 302.2771 -9138.4323 -7374.5287 302.2771 -14.7194 85.2692 29994.7751 -14.7194 85.2692
ENERGY: 300000 2.3154 16.9504 6.4214 0.0000 -10540.8624 1382.3339 0.0000 0.0000 1772.1571 -7360.6841 303.6915 -9132.8412 -7395.7451 299.2364 -198.0694 -168.7515 30153.7142 -106.0866 -37.4894
ENERGY: 600000 3.4227 16.3461 6.6411 0.0000 -10435.8361 1317.6643 0.0000 0.0000 1803.9160 -7287.8459 309.1340 -9091.7619 -7371.3649 301.0681 -610.3136 -575.9478 30138.9547 -185.0262 -128.6209
ENERGY: 900000 4.5218 14.0016 9.6128 0.0000 -10633.5117 1447.8581 0.0000 0.0000 1737.2799 -7420.2374 297.7146 -9157.5174 -7390.2990 301.0328 91.8986 133.9042 30337.3773 -55.0951 -6.5927
ENERGY: 1200000 2.4727 14.4291 5.7322 0.0000 -10504.1224 1327.3149 0.0000 0.0000 1741.4424 -7412.7312 298.4279 -9154.1736 -7413.0113 299.6750 -1016.6273 -935.8669 30291.1235 -234.9997 -182.1792
ENERGY: 1500000 5.2101 15.9357 7.2740 0.0000 -10696.2275 1488.7720 0.0000 0.0000 1787.8766 -7391.1592 306.3853 -9179.0357 -7423.1500 299.9315 375.3447 460.0489 30124.4436 -194.8080 -137.1486
TCL: Running FEP window  12: Lambda1 0.5499999999999999 Lambda2 0.6    [dLambda 0.050000000000000044]
TCL: Setting parameter firsttimestep to 0
TCL: Setting parameter alchLambda to 0.5499999999999999
Info: NONBONDED TABLE R-SQUARED SPACING: 0.0625
Info: NONBONDED TABLE SIZE: 705 POINTS
TCL: Setting parameter alchLambda2 to 0.6
Info: NONBONDED TABLE R-SQUARED SPACING: 0.0625
Info: NONBONDED TABLE SIZE: 705 POINTS
TCL: Running for 1500000 steps
ETITLE: TS BOND ANGLE DIHED IMPRP ELECT VDW BOUNDARY MISC KINETIC TOTAL TEMP POTENTIAL TOTALAVG TEMPAVG PRESSURE GPRESSURE VOLUME PRESSAVG GPRESSAVG
ENERGY: 0 5.2100 15.9357 7.2740 0.0000 -10696.3772 1489.8226 0.0000 0.0000 1787.0257 -7391.1092 306.2395 -9178.1350 -7391.1092 306.2395 378.0663 481.3978 30124.4436 378.0663 481.3978
ENERGY: 300000 3.0878 17.9876 5.1021 0.0000 -10570.8703 1476.3280 0.0000 0.0000 1758.3121 -7310.0527 301.3189 -9068.3647 -7370.9927 301.5339 581.5213 681.0639 30360.7349 120.1102 221.0042
ENERGY: 600000 3.0532 14.1279 5.5235 0.0000 -10708.2833 1459.5336 0.0000 0.0000 1744.9643 -7481.0809 299.0315 -9226.0452 -7405.7794 299.8759 269.7148 385.5429 29589.7408 60.0080 151.5418
ENERGY: 900000 3.9244 11.6999 8.5024 0.0000 -10667.7650 1437.6516 0.0000 0.0000 1700.9696 -7505.0172 291.4922 -9205.9868 -7420.5079 299.2565 -65.6345 38.9347 29866.8657 97.5964 185.4353
ENERGY: 1200000 4.7459 16.8070 6.1134 0.0000 -10546.0089 1323.8583 0.0000 0.0000 1743.4633 -7451.0210 298.7743 -9194.4843 -7417.8242 300.4546 -1195.4884 -1028.5518 30136.4105 37.8788 129.0779
ENERGY: 1500000 1.4124 17.8611 6.1535 0.0000 -10677.3282 1466.6044 0.0000 0.0000 1766.5510 -7418.7458 302.7308 -9185.2969 -7410.7240 300.8325 232.0468 349.5886 29899.7152 104.5952 193.9884
TCL: Running FEP window  13: Lambda1 0.6    Lambda2 0.65   [dLambda 0.050000000000000044]
TCL: Setting parameter firsttimestep to 0
TCL: Setting parameter alchLambda to 0.6
Info: NONBONDED TABLE R-SQUARED SPACING: 0.0625
Info: NONBONDED TABLE SIZE: 705 POINTS
TCL: Setting parameter alchLambda2 to 0.65
Info: NONBONDED TABLE R-SQUARED SPACING: 0.0625
Info: NONBONDED TABLE SIZE: 705 POINTS
TCL: Running for 1500000 steps
ETITLE: TS BOND ANGLE DIHED IMPRP ELECT VDW BOUNDARY MISC KINETIC TOTAL TEMP POTENTIAL TOTALAVG TEMPAVG PRESSURE GPRESSURE VOLUME PRESSAVG GPRESSAVG
ENERGY: 0 1.4124 17.8611 6.1535 0.0000 -10677.3447 1466.3463 0.0000 0.0000 1765.6615 -7419.9100 302.5783 -9185.5715 -7419.9100 302.5783 279.9686 356.4520 29899.7152 279.9686 356.4520
ENERGY: 300000 3.2823 11.0997 9.5725 0.0000 -10658.2674 1407.7137 0.0000 0.0000 1759.1349 -7467.4643 301.4599 -9226.5992 -7427.5472 299.9437 -551.4277 -480.5751 30316.3422 -22.0778 48.4679
ENERGY: 600000 2.7779 15.0545 11.0275 0.0000 -10621.0290 1446.2080 0.0000 0.0000 1778.0254 -7367.9357 304.6971 -9145.9611 -7415.5985 301.1545 4.3321 26.5577 30487.1445 -282.9846 -218.3179
ENERGY: 900000 7.3308 13.5669 7.2218 0.0000 -10554.7891 1413.3828 0.0000 0.0000 1818.8547 -7294.4321 311.6940 -9113.2868 -7405.8978 302.6985 98.5250 140.1127 29854.1228 -194.4537 -139.6098
ENERGY: 1200000 4.2815 15.1033 5.0707 0.0000 -10679.5833 1452.3158 0.0000 0.0000 1787.1368 -7415.6751 306.2585 -9202.8119 -7407.3311 302.2593 437.9001 503.9367 29636.8784 -196.2414 -138.3327
ENERGY: 1500000 2.4570 15.6792 5.9529 0.0000 -10529.7253 1408.7905 0.0000 0.0000 1764.7271 -7332.1187 302.4182 -9096.8458 -7393.1677 302.0694 78.1088 108.3164 30327.1546 -161.7066 -105.2699
TCL: Running FEP window  14: Lambda1 0.65   Lambda2 0.7000000000000001 [dLambda 0.050000000000000044]
TCL: Setting parameter firsttimestep to 0
TCL: Setting parameter alchLambda to 0.65
Info: NONBONDED TABLE R-SQUARED SPACING: 0.0625
Info: NONBONDED TABLE SIZE: 705 POINTS
TCL: Setting parameter alchLambda2 to 0.7000000000000001
Info: NONBONDED TABLE R-SQUARED SPACING: 0.0625
Info: NONBONDED TABLE SIZE: 705 POINTS
TCL: Running for 1500000 steps
ETITLE: TS BOND ANGLE DIHED IMPRP ELECT VDW BOUNDARY MISC KINETIC TOTAL TEMP POTENTIAL TOTALAVG TEMPAVG PRESSURE GPRESSURE VOLUME PRESSAVG GPRESSAVG
ENERGY: 0 2.4570 15.6792 5.9529 0.0000 -10530.1132 1408.9466 0.0000 0.0000 1763.7746 -7333.3030 302.2550 -9097.0776 -7333.3030 302.2550 40.8467 118.2536 30327.1546 40.8467 118.2536
ENERGY: 300000 2.2538 12.6902 7.9634 0.0000 -10518.1794 1324.2498 0.0000 0.0000 1812.3963 -7358.6258 310.5872 -9171.0221 -7376.9513 303.2530 -708.0572 -650.4714 29907.1312 137.3260 214.4772
ENERGY: 600000 1.7635 14.5804 8.7397 0.0000 -10585.0804 1390.3927 0.0000 0.0000 1726.8781 -7442.7260 295.9321 -9169.6041 -7399.7870 299.6853 -294.2980 -205.1200 30219.6007 116.8903 184.8064
ENERGY: 900000 6.6141 14.1702 8.2621 0.0000 -10640.6016 1450.3134 0.0000 0.0000 1749.4683 -7411.7736 299.8033 -9161.2419 -7408.9734 299.2504 -2.1473 20.1711 30148.2151 96.9278 141.7361
ENERGY: 1200000 2.2539 14.1261 5.8081 0.0000 -10539.9849 1372.9308 0.0000 0.0000 1718.5745 -7426.2915 294.5091 -9144.8660 -7396.2559 299.5500 -415.8032 -319.5230 29947.1433 83.1529 126.2147
ENERGY: 1500000 2.6546 15.3116 5.2541 0.0000 -10607.9583 1425.6593 0.0000 0.0000 1683.1778 -7475.9009 288.4433 -9159.0787 -7393.9280 299.4600 49.7466 100.9301 30171.4498 26.1231 78.9054
TCL: Running FEP window  15: Lambda1 0.7000000000000001 Lambda2 0.7500000000000001 [dLambda 0.050000000000000044]
TCL: Setting parameter firsttimestep to 0
TCL: Setting parameter alchLambda to 0.7000000000000001
Info: NONBONDED TABLE R-SQUARED SPACING: 0.0625
Info: NONBONDED TABLE SIZE: 705 POINTS
TCL: Setting parameter alchLambda2 to 0.7500000000000001
Info: NONBONDED TABLE R-SQUARED SPACING: 0.0625
Info: NONBONDED TABLE SIZE: 705 POINTS
TCL: Running for 1500000 steps
ETITLE: TS BOND ANGLE DIHED IMPRP ELECT VDW BOUNDARY MISC KINETIC TOTAL TEMP POTENTIAL TOTALAVG TEMPAVG PRESSURE GPRESSURE VOLUME PRESSAVG GPRESSAVG
ENERGY: 0 2.6546 15.3116 5.2541 0.0000 -10608.0514 1425.5017 0.0000 0.0000 1682.2919 -7477.0375 288.2914 -9159.3294 -7477.0375 288.2914 27.3514 107.1837 30171.4498 27.3514 107.1837
ENERGY: 300000 2.1913 16.7357 5.9186 0.0000 -10459.7722 1354.7029 0.0000 0.0000 1773.1754 -7307.0482 303.8660 -9080.2237 -7420.8712 298.8529 -170.0528 -145.8743 30161.7755 13.3514 106.8935
ENERGY: 600000 2.7951 13.7708 7.2758 0.0000 -10613.9475 1475.2276 0.0000 0.0000 1827.8501 -7287.0282 313.2355 -9114.8783 -7394.4513 300.0318 558.5207 635.6215 30306.1031 -7.6095 77.6164
ENERGY: 900000 0.5860 18.9233 7.3302 0.0000 -10654.7976 1453.6989 0.0000 0.0000 1729.5858 -7444.6733 296.3961 -9174.2591 -7392.7584 299.4740 235.3664 356.4976 29953.8940 89.1771 173.2429
ENERGY: 1200000 2.2427 13.9290 10.1935 0.0000 -10681.8248 1508.8772 0.0000 0.0000 1752.5562 -7394.0263 300.3325 -9146.5824 -7411.6040 297.8126 644.3793 756.0365 30149.5649 109.8357 188.8582
ENERGY: 1500000 1.9711 15.7521 6.6099 0.0000 -10642.5207 1432.1587 0.0000 0.0000 1719.9645 -7466.0643 294.7473 -9186.0288 -7412.5989 298.3585 237.0579 285.8567 29841.5636 143.5329 221.8670
TCL: Running FEP window  16: Lambda1 0.7500000000000001 Lambda2 0.8000000000000002 [dLambda 0.050000000000000044]
TCL: Setting parameter firsttimestep to 0
TCL: Setting parameter alchLambda to 0.7500000000000001
Info: NONBONDED TABLE R-SQUARED SPACING: 0.0625
Info: NONBONDED TABLE SIZE: 705 POINTS
TCL: Setting parameter alchLambda2 to 0.8000000000000002
Info: NONBONDED TABLE R-SQUARED SPACING: 0.0625
Info: NONBONDED TABLE SIZE: 705 POINTS
TCL: Running for 1500000 steps
ETITLE: TS BOND ANGLE DIHED IMPRP ELECT VDW BOUNDARY MISC KINETIC TOTAL TEMP POTENTIAL TOTALAVG TEMPAVG PRESSURE GPRESSURE VOLUME PRESSAVG GPRESSAVG
ENERGY: 0 1.9711 15.7521 6.6099 0.0000 -10643.5934 1433.2240 0.0000 0.0000 1719.0745 -7466.9618 294.5948 -9186.0362 -7466.9618 294.5948 230.1564 305.3042 29841.5636 230.1564 305.3042
ENERGY: 300000 1.8837 16.7562 6.3617 0.0000 -10561.7405 1426.5373 0.0000 0.0000 1772.6829 -7337.5187 303.7816 -9110.2017 -7391.7328 301.7397 435.3122 477.9356 29716.1081 65.8790 114.7395
ENERGY: 600000 3.6753 19.0650 6.9169 0.0000 -10625.2432 1490.1667 0.0000 0.0000 1753.8320 -7351.5871 300.5511 -9105.4191 -7390.6296 300.5768 655.8358 768.8608 29987.0307 232.5792 292.7359
ENERGY: 900000 4.5525 15.1229 7.9096 0.0000 -10688.0221 1433.7586 0.0000 0.0000 1744.2308 -7482.4476 298.9058 -9226.6784 -7396.3481 299.7849 -13.4729 -37.4066 30122.7855 126.1321 172.6875
ENERGY: 1200000 3.4326 11.7013 9.0486 0.0000 -10525.3759 1425.9346 0.0000 0.0000 1763.4802 -7311.7787 302.2045 -9075.2589 -7396.7095 299.5088 120.8610 157.0749 30407.3486 203.6111 253.3739
ENERGY: 1500000 1.9816 21.7586 4.8233 0.0000 -10718.6951 1433.8717 0.0000 0.0000 1757.6606 -7498.5993 301.2072 -9256.2599 -7410.2655 299.5497 -22.2384 34.9496 29838.7515 139.3462 196.0759
TCL: Running FEP window  17: Lambda1 0.8000000000000002 Lambda2 0.8500000000000002 [dLambda 0.050000000000000044]
TCL: Setting parameter firsttimestep to 0
TCL: Setting parameter alchLambda to 0.8000000000000002
Info: NONBONDED TABLE R-SQUARED SPACING: 0.0625
Info: NONBONDED TABLE SIZE: 705 POINTS
TCL: Setting parameter alchLambda2 to 0.8500000000000002
Info: NONBONDED TABLE R-SQUARED SPACING: 0.0625
Info: NONBONDED TABLE SIZE: 705 POINTS
TCL: Running for 1500000 steps
ETITLE: TS BOND ANGLE DIHED IMPRP ELECT VDW BOUNDARY MISC KINETIC TOTAL TEMP POTENTIAL TOTALAVG TEMPAVG PRESSURE GPRESSURE VOLUME PRESSAVG GPRESSAVG
ENERGY: 0 1.9816 21.7586 4.8233 0.0000 -10719.7054 1433.5372 0.0000 0.0000 1756.7876 -7500.8171 301.0576 -9257.6047 -7500.8171 301.0576 -26.3804 40.6726 29838.7515 -26.3804 40.6726
ENERGY: 300000 2.1785 15.1924 5.9473 0.0000 -10725.2341 1507.9326 0.0000 0.0000 1715.8702 -7478.1130 294.0457 -9193.9832 -7460.4733 297.2922 489.5986 536.9189 30246.5594 -27.9908 37.4547
ENERGY: 600000 1.3627 19.0249 3.7447 0.0000 -10581.8404 1384.6416 0.0000 0.0000 1768.6627 -7404.4038 303.0926 -9173.0665 -7436.2695 299.0496 -508.7579 -476.0885 30600.9679 -163.9279 -92.6285
ENERGY: 900000 5.6348 12.5689 8.7087 0.0000 -10542.2997 1403.6127 0.0000 0.0000 1737.9376 -7373.8369 297.8273 -9111.7745 -7407.5965 299.8934 191.6960 242.4744 29918.0608 -9.7575 64.7475
ENERGY: 1200000 2.3504 13.5683 5.8109 0.0000 -10595.3359 1444.8139 0.0000 0.0000 1726.5029 -7402.2896 295.8678 -9128.7925 -7406.7843 299.5987 159.9345 255.8170 30225.0777 -37.4055 41.3955
ENERGY: 1500000 5.2345 16.5103 6.7766 0.0000 -10489.5779 1442.7541 0.0000 0.0000 1791.5895 -7226.7128 307.0216 -9018.3023 -7399.7367 300.3496 602.2731 646.5188 30105.6323 -20.6021 47.0007
TCL: Running FEP window  18: Lambda1 0.8500000000000002 Lambda2 0.9000000000000002 [dLambda 0.050000000000000044]
TCL: Setting parameter firsttimestep to 0
TCL: Setting parameter alchLambda to 0.8500000000000002
Info: NONBONDED TABLE R-SQUARED SPACING: 0.0625
Info: NONBONDED TABLE SIZE: 705 POINTS
TCL: Setting parameter alchLambda2 to 0.9000000000000002
Info: NONBONDED TABLE R-SQUARED SPACING: 0.0625
Info: NONBONDED TABLE SIZE: 705 POINTS
TCL: Running for 1500000 steps
ETITLE: TS BOND ANGLE DIHED IMPRP ELECT VDW BOUNDARY MISC KINETIC TOTAL TEMP POTENTIAL TOTALAVG TEMPAVG PRESSURE GPRESSURE VOLUME PRESSAVG GPRESSAVG
ENERGY: 0 5.2346 16.5103 6.7766 0.0000 -10489.6564 1443.1853 0.0000 0.0000 1790.7170 -7227.2327 306.8721 -9017.9497 -7227.2327 306.8721 585.4407 664.1442 30105.6323 585.4407 664.1442
ENERGY: 300000 0.7258 19.9402 7.6849 0.0000 -10549.1169 1373.3594 0.0000 0.0000 1742.8956 -7404.5110 298.6770 -9147.4066 -7366.4452 298.2825 -472.8924 -366.6465 30054.7436 5.6556 90.7398
ENERGY: 600000 2.2667 14.2875 6.7738 0.0000 -10604.8315 1461.9328 0.0000 0.0000 1764.3244 -7355.2463 302.3492 -9119.5707 -7387.0179 298.8932 235.5043 311.7072 30312.7799 -154.0470 -63.8783
ENERGY: 900000 2.7639 18.0572 4.2617 0.0000 -10504.6659 1338.9258 0.0000 0.0000 1723.9573 -7416.7000 295.4316 -9140.6573 -7402.0447 299.4010 -627.0369 -509.4642 29923.8247 -111.4788 -33.7639
ENERGY: 1200000 5.1398 16.7581 6.5039 0.0000 -10673.7789 1400.7834 0.0000 0.0000 1713.6585 -7530.9351 293.6667 -9244.5936 -7412.7103 299.3031 -442.0065 -415.9091 30469.2926 -154.7171 -72.8251
ENERGY: 1500000 0.8615 17.5905 4.0751 0.0000 -10619.4179 1465.9467 0.0000 0.0000 1754.6749 -7376.2693 300.6956 -9130.9442 -7401.7999 300.1928 377.4780 435.6761 30273.2774 -74.8898 -2.0750
TCL: Running FEP window  19: Lambda1 0.9000000000000002 Lambda2 0.9500000000000003 [dLambda 0.050000000000000044]
TCL: Setting parameter firsttimestep to 0
TCL: Setting parameter alchLambda to 0.9000000000000002
Info: NONBONDED TABLE R-SQUARED SPACING: 0.0625
Info: NONBONDED TABLE SIZE: 705 POINTS
TCL: Setting parameter alchLambda2 to 0.9500000000000003
Info: NONBONDED TABLE R-SQUARED SPACING: 0.0625
Info: NONBONDED TABLE SIZE: 705 POINTS
TCL: Running for 1500000 steps
ETITLE: TS BOND ANGLE DIHED IMPRP ELECT VDW BOUNDARY MISC KINETIC TOTAL TEMP POTENTIAL TOTALAVG TEMPAVG PRESSURE GPRESSURE VOLUME PRESSAVG GPRESSAVG
ENERGY: 0 0.8615 17.5905 4.0751 0.0000 -10619.9919 1465.3140 0.0000 0.0000 1753.7920 -7378.3589 300.5443 -9132.1509 -7378.3589 300.5443 358.9490 437.4216 30273.2774 358.9490 437.4216
ENERGY: 300000 4.8183 14.3004 8.2412 0.0000 -10573.9353 1451.7128 0.0000 0.0000 1758.7064 -7336.1562 301.3865 -9094.8626 -7361.4738 303.6863 331.5815 384.2954 30245.7428 61.9482 114.3270
ENERGY: 600000 2.0196 18.8833 6.2262 0.0000 -10637.9419 1452.2780 0.0000 0.0000 1735.8190 -7422.7159 297.4643 -9158.5349 -7393.1530 300.8002 160.8460 235.2810 30177.1169 111.6405 171.8487
ENERGY: 900000 4.7213 13.3651 7.1313 0.0000 -10724.0111 1465.5150 0.0000 0.0000 1787.7995 -7445.4790 306.3721 -9233.2785 -7396.7128 302.8578 154.7084 263.8188 30006.4952 94.3583 152.7798
ENERGY: 1200000 2.4452 15.5758 7.3223 0.0000 -10472.4681 1279.7010 0.0000 0.0000 1776.8292 -7390.5947 304.4921 -9167.4239 -7387.9921 302.7754 -1482.9114 -1375.6414 30589.1558 21.3444 79.6083
ENERGY: 1500000 3.1085 14.5943 6.2528 0.0000 -10598.2969 1449.9200 0.0000 0.0000 1752.9978 -7371.4236 300.4082 -9124.4214 -7394.7104 301.5449 230.0858 319.5669 30284.2486 97.5539 157.0445
TCL: Running FEP window  20: Lambda1 0.9500000000000003 Lambda2 1.0    [dLambda 0.04999999999999971]
TCL: Setting parameter firsttimestep to 0
TCL: Setting parameter alchLambda to 0.9500000000000003
Info: NONBONDED TABLE R-SQUARED SPACING: 0.0625
Info: NONBONDED TABLE SIZE: 705 POINTS
TCL: Setting parameter alchLambda2 to 1.0
Info: NONBONDED TABLE R-SQUARED SPACING: 0.0625
Info: NONBONDED TABLE SIZE: 705 POINTS
TCL: Running for 1500000 steps
ETITLE: TS BOND ANGLE DIHED IMPRP ELECT VDW BOUNDARY MISC KINETIC TOTAL TEMP POTENTIAL TOTALAVG TEMPAVG PRESSURE GPRESSURE VOLUME PRESSAVG GPRESSAVG
ENERGY: 0 3.1085 14.5943 6.2528 0.0000 -10598.5857 1449.3233 0.0000 0.0000 1752.1419 -7373.1651 300.2615 -9125.3070 -7373.1651 300.2615 228.1714 319.3965 30284.2486 228.1714 319.3965
ENERGY: 300000 2.1820 11.4494 6.3692 0.0000 -10568.2690 1379.0198 0.0000 0.0000 1783.5144 -7385.7342 305.6378 -9169.2486 -7396.8971 300.2966 -358.9469 -305.3895 30041.1303 -359.8768 -293.8520
ENERGY: 600000 1.4371 17.9410 9.6783 0.0000 -10427.8721 1292.1158 0.0000 0.0000 1772.7668 -7333.9331 303.7960 -9106.6999 -7388.0564 302.1633 -836.8959 -766.5939 30485.2264 -425.1124 -362.8376
ENERGY: 900000 1.6838 17.5764 6.3739 0.0000 -10622.6875 1434.7721 0.0000 0.0000 1781.6375 -7380.6438 305.3161 -9162.2813 -7396.3036 302.0717 90.4787 211.4107 30092.6816 -188.9466 -132.9308
ENERGY: 1200000 0.6617 18.0609 8.2311 0.0000 -10479.6777 1316.4487 0.0000 0.0000 1735.4426 -7400.8327 297.3998 -9136.2753 -7395.9107 301.8813 -560.9230 -542.3928 29905.2423 -140.8092 -89.3232
ENERGY: 1500000 3.2670 10.9324 8.2859 0.0000 -10535.4077 1378.7957 0.0000 0.0000 1793.6930 -7340.4338 307.3820 -9134.1268 -7397.5533 301.2825 -124.8826 -75.9292 30177.1844 -140.4999 -94.1483
TCL: Exiting due to exit command.
