Info: SIMULATION PARAMETERS:
Info: TIMESTEP               2
Info: NUMBER OF STEPS        0
Info: STEPS PER CYCLE        10
Info: PERIODIC CELL BASIS 1  31.6277 0 0
Info: PERIODIC CELL BASIS 2  0 31.1059 0
Info: PERIODIC CELL BASIS 3  0 0 31.3105
Info: PERIODIC CELL CENTER   0 0 0
Info: WRAPPING WATERS AROUND PERIODIC BOUNDARIES ON OUTPUT.
Info: WRAPPING ALL CLUSTERS AROUND PERIODIC BOUNDARIES ON OUTPUT.
Info: FIRST LDB TIMESTEP     50
Info: LAST LDB TIMESTEP     -1
Info: HOM BACKGROUND SCALING 1
Info: PME BACKGROUND SCALING 1
Info: MIN ATOMS PER PATCH    40
Info: EMPTY PATCH LOAD       40 ATOMS
Info: VELOCITY FILE          mobley_1952272_equil.vel
Info: CENTER OF MASS MOVING INITIALLY? NO
Info: DIELECTRIC             1
Info: EXCLUDE                SCALED ONE-FOUR
Info: 1-4 ELECTROSTATICS SCALED BY 0.833333
Info: MODIFIED 1-4 VDW PARAMETERS WILL BE USED
Info: DCD FILENAME           mobley_1952272_prod.dcd
Info: DCD FREQUENCY          100000
Info: DCD FIRST STEP         100000
Info: DCD FILE WILL CONTAIN UNIT CELL DATA
Info: XST FILENAME           mobley_1952272_prod.xst
Info: XST FREQUENCY          100000
Info: NO VELOCITY DCD OUTPUT
Info: NO FORCE DCD OUTPUT
Info: OUTPUT FILENAME        mobley_1952272_prod
Info: BINARY OUTPUT FILES WILL BE USED
Info: RESTART FILENAME       mobley_1952272_prod.restart
Info: RESTART FREQUENCY      100000
Info: BINARY RESTART FILES WILL BE USED
Info: CUTOFF                 9
Info: PAIRLIST DISTANCE      11
Info: PAIRLIST SHRINK RATE   0.01
Info: PAIRLIST GROW RATE     0.01
Info: PAIRLIST TRIGGER       0.3
Info: PAIRLISTS PER CYCLE    2
Info: PAIRLISTS ENABLED
Info: MARGIN                 2
Info: HYDROGEN GROUP CUTOFF  2.5
Info: PATCH DIMENSION        15.5
Info: ENERGY OUTPUT STEPS    100000
Info: ENERGY EVALUATION STEPS    100000
Info: OUTPUT ENERGY PRECISION 4
Info: CROSSTERM ENERGY INCLUDED IN DIHEDRAL
Info: TIMING OUTPUT STEPS    1000000
Info: PRESSURE OUTPUT STEPS  100000
Info: ALCHEMICAL FEP ON
Info: FEP CURRENT LAMBDA VALUE     1
Info: FEP COMPARISON LAMBDA VALUE  0.95
Info: FEP INTRA-ALCHEMICAL NON-BONDED INTERACTIONS WILL BE RETAINED
Info: FEP INTRA-ALCHEMICAL BONDED INTERACTIONS WILL BE RETAINED
Info: FEP VDW SHIFTING COEFFICIENT 5
Info: FEP ELEC. ACTIVE FOR ANNIHILATED PARTICLES BETWEEN LAMBDA = 0 AND LAMBDA = 0.5
Info: FEP ELEC. ACTIVE FOR EXNIHILATED PARTICLES BETWEEN LAMBDA = 0.5 AND LAMBDA = 1
Info: FEP VDW ACTIVE FOR ANNIHILATED PARTICLES BETWEEN LAMBDA = 0 AND LAMBDA = 1
Info: FEP VDW ACTIVE FOR EXNIHILATED PARTICLES BETWEEN LAMBDA = 0 AND LAMBDA = 1
Info: FEP BOND ACTIVE FOR ANNIHILATED PARTICLES BETWEEN LAMBDA = 1 AND LAMBDA = 1
Info: FEP BOND ACTIVE FOR EXNIHILATED PARTICLES BETWEEN LAMBDA = 0 AND LAMBDA = 0
Info: LANGEVIN DYNAMICS ACTIVE
Info: LANGEVIN TEMPERATURE   300
Info: LANGEVIN USING BBK INTEGRATOR
Info: LANGEVIN DAMPING COEFFICIENT IS 1 INVERSE PS
Info: LANGEVIN DYNAMICS APPLIED TO HYDROGENS
Info: LANGEVIN PISTON PRESSURE CONTROL ACTIVE
Info:        TARGET PRESSURE IS 1.01325 BAR
Info:     OSCILLATION PERIOD IS 50 FS
Info:             DECAY TIME IS 25 FS
Info:     PISTON TEMPERATURE IS 300 K
Info:       PRESSURE CONTROL IS GROUP-BASED
Info:    INITIAL STRAIN RATE IS -0.000453163 -0.000453163 -0.000453163
Info:       CELL FLUCTUATION IS ISOTROPIC
Info: PARTICLE MESH EWALD (PME) ACTIVE
Info: PME TOLERANCE               1e-06
Info: PME EWALD COEFFICIENT       0.348832
Info: PME INTERPOLATION ORDER     4
Info: PME GRID DIMENSIONS         32 32 32
Info: PME MAXIMUM GRID SPACING    1
Info: PME CALCULATION WILL BE PERFORMED ON GPU
Info: FULL ELECTROSTATIC EVALUATION FREQUENCY      2
Info: USING VERLET I (r-RESPA) MTS SCHEME.
Info: C1 SPLITTING OF LONG RANGE ELECTROSTATICS
Info: PLACING ATOMS IN PATCHES BY HYDROGEN GROUPS
Info: RIGID BONDS TO HYDROGEN : ALL
Info:         ERROR TOLERANCE : 1e-08
Info:          MAX ITERATIONS : 100
Info: RIGID WATER USING SETTLE ALGORITHM
Info: RANDOM NUMBER SEED     1743491312
Info: USE HYDROGEN BONDS?    NO
Info: Using AMBER format force field!
Info: AMBER PARM FILE        mobley_1952272.prmtop
Info: COORDINATE PDB         mobley_1952272.pdb
Info: Exclusions will be read from PARM file!
Info: SCNB (VDW SCALING)     2
Info: USING ARITHMETIC MEAN TO COMBINE L-J SIGMA PARAMETERS
Info: BINARY COORDINATES     mobley_1952272_equil.coor
Info: SUMMARY OF PARAMETERS:
Info: 5 BONDS
Info: 4 ANGLES
Info:   4 HARMONIC
Info:   0 COSINE-BASED
Info: 1 DIHEDRAL
Info: 0 IMPROPER
Info: 0 CROSSTERM
Info: 0 VDW
Info: 21 VDW_PAIRS
Info: 0 NBTHOLE_PAIRS
Info: To read alchdata from file: mobley_1952272.pdb
Info: To read alchflag data from column: 5
Info: STRUCTURE SUMMARY:
Info: 2998 ATOMS
Info: 2997 BONDS
Info: 9 ANGLES
Info: 6 DIHEDRALS
Info: 0 IMPROPERS
Info: 0 CROSSTERMS
Info: 3012 EXCLUSIONS
Info: 2994 RIGID BONDS
Info: ALCH: 0 ATOMS TO DISAPPEAR IN FINAL STATE
Info: ALCH: 7 ATOMS TO APPEAR IN FINAL STATE
Info: 6000 DEGREES OF FREEDOM
Info: 1001 HYDROGEN GROUPS
Info: 4 ATOMS IN LARGEST HYDROGEN GROUP
Info: 1001 MIGRATION GROUPS
Info: 4 ATOMS IN LARGEST MIGRATION GROUP
Info: TOTAL MASS = 18023 amu
Info: TOTAL CHARGE = 9.99793e-05 e
Info: MASS DENSITY = 0.971597 g/cm^3
Info: ATOM DENSITY = 0.0973266 atoms/A^3
Info: ADDED 0 IMPLICIT EXCLUSIONS
Info: NONBONDED TABLE R-SQUARED SPACING: 0.0625
Info: NONBONDED TABLE SIZE: 705 POINTS
Info: REDUCING NUMBER OF PATCHES TO IMPROVE LOAD BALANCE
Info: REMOVING COM VELOCITY 0.0936186 -0.0495566 -0.0919445
Info: Use 3D box decompostion in PME FFT.
Info: Updated CUDA force table with 4096 elements.
Info: Updated CUDA LJ table with 6 x 6 elements.
Info: Found 10 unique exclusion lists needing 12 bytes
TCL: Running for 1500000 steps
ETITLE: TS BOND ANGLE DIHED IMPRP ELECT VDW BOUNDARY MISC KINETIC TOTAL TEMP POTENTIAL TOTALAVG TEMPAVG PRESSURE GPRESSURE VOLUME PRESSAVG GPRESSAVG
ENERGY: 0 0.3539 1.6016 0.0000 0.0000 -10931.5792 1535.3600 0.0000 0.0000 1782.8210 -7611.4427 299.0521 -9394.2638 -7611.4427 299.0521 640.4757 718.2784 30803.4878 640.4757 718.2784
ENERGY: 300000 2.5998 3.5056 0.0000 0.0000 -11014.9902 1514.4878 0.0000 0.0000 1797.1603 -7697.2367 301.4574 -9494.3970 -7650.5452 301.4602 161.0872 270.2048 31045.3008 338.7638 419.4364
ENERGY: 600000 0.6593 3.1421 0.0000 0.0000 -11018.0625 1515.3408 0.0000 0.0000 1785.2877 -7713.6326 299.4659 -9498.9203 -7649.9521 302.2250 457.0488 511.4181 30433.5419 182.0334 258.9388
ENERGY: 900000 1.3789 2.8543 0.0000 0.0000 -10946.4713 1481.6644 0.0000 0.0000 1801.0011 -7659.5725 302.1017 -9460.5737 -7649.2745 301.8504 -89.6002 -53.1650 31097.8547 25.7090 105.7519
ENERGY: 1200000 1.5902 1.7494 0.0000 0.0000 -10967.3476 1527.6402 0.0000 0.0000 1787.4905 -7648.8773 299.8354 -9436.3678 -7647.7131 301.3138 316.6308 387.0517 31091.9482 21.8481 96.4919
ENERGY: 1500000 0.4633 3.2670 0.0000 0.0000 -10894.3246 1404.5104 0.0000 0.0000 1797.6762 -7688.4077 301.5439 -9486.0839 -7659.7821 300.2735 -503.9803 -540.6560 31071.1906 -30.4970 28.3167
TCL: Running FEP window   2: Lambda1 0.95   Lambda2 0.8999999999999999 [dLambda -0.050000000000000044]
TCL: Setting parameter firsttimestep to 0
TCL: Setting parameter alchLambda to 0.95
Info: NONBONDED TABLE R-SQUARED SPACING: 0.0625
Info: NONBONDED TABLE SIZE: 705 POINTS
TCL: Setting parameter alchLambda2 to 0.8999999999999999
Info: NONBONDED TABLE R-SQUARED SPACING: 0.0625
Info: NONBONDED TABLE SIZE: 705 POINTS
TCL: Running for 1500000 steps
ETITLE: TS BOND ANGLE DIHED IMPRP ELECT VDW BOUNDARY MISC KINETIC TOTAL TEMP POTENTIAL TOTALAVG TEMPAVG PRESSURE GPRESSURE VOLUME PRESSAVG GPRESSAVG
ENERGY: 0 0.4633 3.2670 0.0000 0.0000 -10893.7118 1404.1640 0.0000 0.0000 1796.7685 -7689.0491 301.3917 -9485.8176 -7689.0491 301.3917 -625.1546 -553.1638 31071.1906 -625.1546 -553.1638
ENERGY: 300000 0.2769 3.7010 0.0000 0.0000 -10789.8782 1444.1764 0.0000 0.0000 1817.8549 -7523.8690 304.9287 -9341.7240 -7637.9548 298.5499 137.3587 177.3652 31093.5687 33.4674 75.9704
ENERGY: 600000 1.5527 2.3102 0.0000 0.0000 -10849.1912 1390.6437 0.0000 0.0000 1768.4532 -7686.2314 296.6420 -9454.6845 -7644.0738 298.6496 -598.8237 -524.3686 30951.2927 -37.8621 26.5498
ENERGY: 900000 0.4700 1.4534 0.0000 0.0000 -10938.2037 1416.0349 0.0000 0.0000 1732.3112 -7787.9341 290.5796 -9520.2453 -7655.5467 298.7402 -780.5552 -684.0666 30969.0931 -13.2366 45.9213
ENERGY: 1200000 1.1429 4.8554 0.0000 0.0000 -10772.5820 1343.4770 0.0000 0.0000 1805.0014 -7618.1054 302.7727 -9423.1067 -7649.0610 300.2467 -895.4867 -768.0046 31171.7179 -117.0732 -55.3601
ENERGY: 1500000 0.4177 1.9373 0.0000 0.0000 -10855.1820 1437.2016 0.0000 0.0000 1795.1304 -7620.4951 301.1169 -9415.6255 -7646.9065 300.6954 -225.3651 -177.2366 31223.2976 -184.3819 -121.0906
TCL: Running FEP window   3: Lambda1 0.8999999999999999 Lambda2 0.8499999999999999 [dLambda -0.050000000000000044]
TCL: Setting parameter firsttimestep to 0
TCL: Setting parameter alchLambda to 0.8999999999999999
Info: NONBONDED TABLE R-SQUARED SPACING: 0.0625
Info: NONBONDED TABLE SIZE: 705 POINTS
TCL: Setting parameter alchLambda2 to 0.8499999999999999
Info: NONBONDED TABLE R-SQUARED SPACING: 0.0625
Info: NONBONDED TABLE SIZE: 705 POINTS
TCL: Running for 1500000 steps
ETITLE: TS BOND ANGLE DIHED IMPRP ELECT VDW BOUNDARY MISC KINETIC TOTAL TEMP POTENTIAL TOTALAVG TEMPAVG PRESSURE GPRESSURE VOLUME PRESSAVG GPRESSAVG
ENERGY: 0 0.4177 1.9373 0.0000 0.0000 -10854.9387 1437.3115 0.0000 0.0000 1794.1888 -7621.0835 300.9590 -9415.2722 -7621.0835 300.9590 -260.9366 -181.5967 31223.2976 -260.9366 -181.5967
ENERGY: 300000 1.7768 3.7838 0.0000 0.0000 -10890.3660 1385.3372 0.0000 0.0000 1766.1064 -7733.3619 296.2484 -9499.4682 -7671.0183 297.2785 -701.8637 -704.4750 31026.0074 -567.5310 -524.3891
ENERGY: 600000 0.9210 3.8043 0.0000 0.0000 -10938.3592 1459.5558 0.0000 0.0000 1761.2845 -7712.7935 295.4396 -9474.0781 -7682.0227 296.1259 205.0536 241.8242 30330.9308 -340.3212 -300.9465
ENERGY: 900000 0.3634 2.6834 0.0000 0.0000 -10897.2035 1473.0818 0.0000 0.0000 1784.9522 -7636.1227 299.4096 -9421.0749 -7666.6418 297.2269 116.6151 213.7817 30824.1044 -333.1190 -286.7992
ENERGY: 1200000 0.6027 3.6340 0.0000 0.0000 -10938.1790 1452.9000 0.0000 0.0000 1772.9025 -7708.1398 297.3884 -9481.0423 -7661.2510 298.2558 -186.0640 -87.1065 30613.3176 -201.0933 -137.5879
ENERGY: 1500000 1.6314 2.0839 0.0000 0.0000 -10898.6569 1470.5338 0.0000 0.0000 1799.9558 -7624.4519 301.9263 -9424.4078 -7657.3270 299.0026 136.0492 198.3354 31023.3326 -179.7573 -117.5209
TCL: Running FEP window   4: Lambda1 0.8499999999999999 Lambda2 0.7999999999999998 [dLambda -0.050000000000000044]
TCL: Setting parameter firsttimestep to 0
TCL: Setting parameter alchLambda to 0.8499999999999999
Info: NONBONDED TABLE R-SQUARED SPACING: 0.0625
Info: NONBONDED TABLE SIZE: 705 POINTS
TCL: Setting parameter alchLambda2 to 0.7999999999999998
Info: NONBONDED TABLE R-SQUARED SPACING: 0.0625
Info: NONBONDED TABLE SIZE: 705 POINTS
TCL: Running for 1500000 steps
ETITLE: TS BOND ANGLE DIHED IMPRP ELECT VDW BOUNDARY MISC KINETIC TOTAL TEMP POTENTIAL TOTALAVG TEMPAVG PRESSURE GPRESSURE VOLUME PRESSAVG GPRESSAVG
ENERGY: 0 1.6314 2.0839 0.0000 0.0000 -10897.9712 1470.6038 0.0000 0.0000 1799.0293 -7624.6227 301.7709 -9423.6520 -7624.6227 301.7709 109.6122 191.0852 31023.3326 109.6122 191.0852
ENERGY: 300000 0.3837 4.1973 0.0000 0.0000 -10887.1175 1434.2483 0.0000 0.0000 1792.9129 -7655.3752 300.7449 -9448.2881 -7646.1783 299.7727 -71.3757 -12.7291 30560.9706 -140.5109 -75.7942
ENERGY: 600000 1.0529 3.8147 0.0000 0.0000 -10810.9201 1453.4546 0.0000 0.0000 1872.5024 -7480.0955 314.0953 -9352.5979 -7615.7232 302.5223 172.1599 236.2366 31102.9535 -148.7585 -71.8325
ENERGY: 900000 2.3949 3.3122 0.0000 0.0000 -10754.4556 1382.8168 0.0000 0.0000 1739.7843 -7626.1473 291.8331 -9365.9316 -7612.0820 301.1867 -262.5439 -202.3396 30688.2247 -221.3037 -145.6192
ENERGY: 1200000 0.1433 3.4103 0.0000 0.0000 -10884.3941 1464.5956 0.0000 0.0000 1843.6556 -7572.5894 309.2566 -9416.2450 -7609.2251 302.0583 50.6335 117.6340 30948.7287 -237.2569 -164.8645
ENERGY: 1500000 0.3064 2.1369 0.0000 0.0000 -11070.0794 1572.6334 0.0000 0.0000 1791.2082 -7703.7943 300.4590 -9495.0026 -7623.8639 301.7989 985.1199 1047.2797 30385.8571 -40.4781 29.0358
TCL: Running FEP window   5: Lambda1 0.7999999999999998 Lambda2 0.7499999999999998 [dLambda -0.050000000000000044]
TCL: Setting parameter firsttimestep to 0
TCL: Setting parameter alchLambda to 0.7999999999999998
Info: NONBONDED TABLE R-SQUARED SPACING: 0.0625
Info: NONBONDED TABLE SIZE: 705 POINTS
TCL: Setting parameter alchLambda2 to 0.7499999999999998
Info: NONBONDED TABLE R-SQUARED SPACING: 0.0625
Info: NONBONDED TABLE SIZE: 705 POINTS
TCL: Running for 1500000 steps
ETITLE: TS BOND ANGLE DIHED IMPRP ELECT VDW BOUNDARY MISC KINETIC TOTAL TEMP POTENTIAL TOTALAVG TEMPAVG PRESSURE GPRESSURE VOLUME PRESSAVG GPRESSAVG
ENERGY: 0 0.3064 2.1369 0.0000 0.0000 -11069.6465 1572.9672 0.0000 0.0000 1790.3201 -7703.9158 300.3100 -9494.2359 -7703.9158 300.3100 940.5537 1044.3425 30385.8571 940.5537 1044.3425
ENERGY: 300000 1.0254 4.1219 0.0000 0.0000 -10790.5560 1346.6821 0.0000 0.0000 1734.0043 -7704.7223 290.8636 -9438.7266 -7674.4744 296.9615 -949.5109 -884.4045 30984.5026 -15.9160 52.2751
ENERGY: 600000 1.3172 1.3629 0.0000 0.0000 -10867.8050 1391.6785 0.0000 0.0000 1795.3397 -7678.1067 301.1520 -9473.4464 -7664.5687 299.9768 -410.9496 -424.7031 30619.0150 -166.9347 -118.1318
ENERGY: 900000 0.8260 2.4419 0.0000 0.0000 -10789.7177 1422.5371 0.0000 0.0000 1778.4400 -7585.4728 298.3172 -9363.9128 -7653.9821 299.2107 -351.3654 -236.2426 31454.6354 -189.3059 -138.1778
ENERGY: 1200000 1.1071 4.4422 0.0000 0.0000 -10977.8885 1472.3347 0.0000 0.0000 1827.1558 -7672.8487 306.4889 -9500.0045 -7643.5625 300.3664 144.9645 206.6071 30321.6099 -196.7119 -145.5484
ENERGY: 1500000 0.1913 3.2980 0.0000 0.0000 -10992.5699 1505.4784 0.0000 0.0000 1737.6887 -7745.9135 291.4816 -9483.6022 -7656.3836 299.9410 -43.4291 56.9324 31060.5742 -197.7054 -142.3937
TCL: Running FEP window   6: Lambda1 0.7499999999999998 Lambda2 0.6999999999999997 [dLambda -0.050000000000000044]
TCL: Setting parameter firsttimestep to 0
TCL: Setting parameter alchLambda to 0.7499999999999998
Info: NONBONDED TABLE R-SQUARED SPACING: 0.0625
Info: NONBONDED TABLE SIZE: 705 POINTS
TCL: Setting parameter alchLambda2 to 0.6999999999999997
Info: NONBONDED TABLE R-SQUARED SPACING: 0.0625
Info: NONBONDED TABLE SIZE: 705 POINTS
TCL: Running for 1500000 steps
ETITLE: TS BOND ANGLE DIHED IMPRP ELECT VDW BOUNDARY MISC KINETIC TOTAL TEMP POTENTIAL TOTALAVG TEMPAVG PRESSURE GPRESSURE VOLUME PRESSAVG GPRESSAVG
ENERGY: 0 0.1913 3.2980 0.0000 0.0000 -10992.1688 1505.7063 0.0000 0.0000 1736.8066 -7746.1666 291.3336 -9482.9732 -7746.1666 291.3336 -32.8289 53.4142 31060.5742 -32.8289 53.4142
ENERGY: 300000 2.2543 2.1221 0.0000 0.0000 -10861.0221 1406.0560 0.0000 0.0000 1825.0186 -7625.5711 306.1304 -9450.5897 -7678.9140 299.8814 -731.8411 -624.3479 31435.0577 29.5597 98.2152
ENERGY: 600000 0.3813 3.4657 0.0000 0.0000 -10882.8767 1418.7341 0.0000 0.0000 1793.4870 -7666.8086 300.8412 -9460.2957 -7685.8272 298.0955 -307.0142 -252.1162 30790.6695 -96.1245 -46.8087
ENERGY: 900000 0.4615 1.9807 0.0000 0.0000 -11046.9817 1554.6094 0.0000 0.0000 1784.4942 -7705.4360 299.3328 -9489.9302 -7675.3329 297.9865 596.3159 623.3641 30638.5229 -16.2660 25.3869
ENERGY: 1200000 0.2250 2.0709 0.0000 0.0000 -10876.6343 1486.0845 0.0000 0.0000 1856.2516 -7532.0023 311.3694 -9388.2539 -7654.5744 299.3555 128.6091 226.8494 31051.2383 -65.3191 -11.5360
ENERGY: 1500000 2.2388 3.9060 0.0000 0.0000 -10983.9811 1476.0653 0.0000 0.0000 1783.9137 -7717.8572 299.2354 -9501.7710 -7662.2044 298.8944 191.9583 199.9962 30312.9910 -9.6519 40.6567
TCL: Running FEP window   7: Lambda1 0.6999999999999997 Lambda2 0.6499999999999997 [dLambda -0.050000000000000044]
TCL: Setting parameter firsttimestep to 0
TCL: Setting parameter alchLambda to 0.6999999999999997
Info: NONBONDED TABLE R-SQUARED SPACING: 0.0625
Info: NONBONDED TABLE SIZE: 705 POINTS
TCL: Setting parameter alchLambda2 to 0.6499999999999997
Info: NONBONDED TABLE R-SQUARED SPACING: 0.0625
Info: NONBONDED TABLE SIZE: 705 POINTS
TCL: Running for 1500000 steps
ETITLE: TS BOND ANGLE DIHED IMPRP ELECT VDW BOUNDARY MISC KINETIC TOTAL TEMP POTENTIAL TOTALAVG TEMPAVG PRESSURE GPRESSURE VOLUME PRESSAVG GPRESSAVG
ENERGY: 0 2.2388 3.9060 0.0000 0.0000 -10983.9769 1476.4025 0.0000 0.0000 1783.0054 -7718.4242 299.0830 -9501.4296 -7718.4242 299.0830 100.4330 197.9310 30312.9910 100.4330 197.9310
ENERGY: 300000 1.2156 1.6135 0.0000 0.0000 -10991.8927 1539.8185 0.0000 0.0000 1828.8532 -7620.3919 306.7736 -9449.2451 -7629.9370 304.1118 563.9511 599.9969 30622.0471 -12.0183 65.7949
ENERGY: 600000 0.0774 1.7337 0.0000 0.0000 -10957.0517 1492.0578 0.0000 0.0000 1798.8470 -7664.3358 301.7403 -9463.1828 -7655.0381 299.9960 284.4384 395.6458 30520.3715 -74.1981 -1.6369
ENERGY: 900000 2.0855 2.4472 0.0000 0.0000 -10911.3938 1482.4020 0.0000 0.0000 1778.9872 -7645.4718 298.4090 -9424.4590 -7670.1704 298.5030 363.2245 427.2559 30627.8107 -26.5119 35.9920
ENERGY: 1200000 0.8239 2.9762 0.0000 0.0000 -10841.0218 1399.0237 0.0000 0.0000 1830.5616 -7607.6363 307.0602 -9438.1979 -7659.9504 299.7345 -482.8589 -343.5010 30546.1919 -26.1754 41.8099
ENERGY: 1500000 3.2965 2.0544 0.0000 0.0000 -10882.1706 1409.3161 0.0000 0.0000 1804.0939 -7663.4097 302.6204 -9467.5036 -7655.1906 299.8728 -678.1820 -569.7906 30743.9216 -81.9359 -13.0487
TCL: Running FEP window   8: Lambda1 0.6499999999999997 Lambda2 0.5999999999999996 [dLambda -0.050000000000000044]
TCL: Setting parameter firsttimestep to 0
TCL: Setting parameter alchLambda to 0.6499999999999997
Info: NONBONDED TABLE R-SQUARED SPACING: 0.0625
Info: NONBONDED TABLE SIZE: 705 POINTS
TCL: Setting parameter alchLambda2 to 0.5999999999999996
Info: NONBONDED TABLE R-SQUARED SPACING: 0.0625
Info: NONBONDED TABLE SIZE: 705 POINTS
TCL: Running for 1500000 steps
ETITLE: TS BOND ANGLE DIHED IMPRP ELECT VDW BOUNDARY MISC KINETIC TOTAL TEMP POTENTIAL TOTALAVG TEMPAVG PRESSURE GPRESSURE VOLUME PRESSAVG GPRESSAVG
ENERGY: 0 3.2965 2.0544 0.0000 0.0000 -10881.8080 1408.6946 0.0000 0.0000 1803.1779 -7664.5846 302.4668 -9467.7624 -7664.5846 302.4668 -673.3080 -580.1847 30743.9216 -673.3080 -580.1847
ENERGY: 300000 0.5452 2.9939 0.0000 0.0000 -10986.4194 1430.2441 0.0000 0.0000 1818.2017 -7734.4346 304.9869 -9552.6362 -7674.7045 301.4753 -580.9991 -465.8505 30766.8136 -138.9439 -57.7270
ENERGY: 600000 1.0078 6.2623 0.0000 0.0000 -10921.2006 1456.1606 0.0000 0.0000 1791.3225 -7666.4475 300.4782 -9457.7700 -7654.1982 301.6673 3.2141 20.0590 30726.3235 -96.6765 -30.5560
ENERGY: 900000 1.4848 2.7969 0.0000 0.0000 -10940.2316 1483.7163 0.0000 0.0000 1716.3271 -7735.9065 287.8984 -9452.2336 -7656.5969 299.4915 171.4810 238.6575 30576.9788 30.8871 94.1692
ENERGY: 1200000 0.5673 3.7110 0.0000 0.0000 -10944.6867 1470.2339 0.0000 0.0000 1808.0158 -7662.1587 303.2783 -9470.1745 -7638.8641 300.7870 -8.5059 47.9616 30863.9601 -104.6100 -47.5729
ENERGY: 1500000 0.6101 4.8855 0.0000 0.0000 -11002.9581 1450.8022 0.0000 0.0000 1817.4178 -7729.2424 304.8554 -9546.6603 -7642.2682 301.7105 -319.8106 -291.7299 30536.6869 -102.0000 -47.6269
TCL: Running FEP window   9: Lambda1 0.5999999999999996 Lambda2 0.5499999999999996 [dLambda -0.050000000000000044]
TCL: Setting parameter firsttimestep to 0
TCL: Setting parameter alchLambda to 0.5999999999999996
Info: NONBONDED TABLE R-SQUARED SPACING: 0.0625
Info: NONBONDED TABLE SIZE: 705 POINTS
TCL: Setting parameter alchLambda2 to 0.5499999999999996
Info: NONBONDED TABLE R-SQUARED SPACING: 0.0625
Info: NONBONDED TABLE SIZE: 705 POINTS
TCL: Running for 1500000 steps
ETITLE: TS BOND ANGLE DIHED IMPRP ELECT VDW BOUNDARY MISC KINETIC TOTAL TEMP POTENTIAL TOTALAVG TEMPAVG PRESSURE GPRESSURE VOLUME PRESSAVG GPRESSAVG
ENERGY: 0 0.6101 4.8855 0.0000 0.0000 -11002.6261 1450.8307 0.0000 0.0000 1816.5607 -7729.7390 304.7117 -9546.2997 -7729.7390 304.7117 -366.4772 -297.9642 30536.6869 -366.4772 -297.9642
ENERGY: 300000 0.2929 2.4788 0.0000 0.0000 -10950.4667 1531.9608 0.0000 0.0000 1808.4104 -7607.3238 303.3445 -9415.7342 -7636.7808 301.4193 638.5212 701.4883 30633.1730 38.4719 126.5500
ENERGY: 600000 0.3871 1.5048 0.0000 0.0000 -10890.3934 1453.6445 0.0000 0.0000 1785.3121 -7649.5449 299.4700 -9434.8570 -7628.8715 302.0392 -152.2757 4.0608 30762.7399 12.8330 105.8528
ENERGY: 900000 0.0370 2.4374 0.0000 0.0000 -10983.5557 1455.8349 0.0000 0.0000 1794.7921 -7730.4545 301.0602 -9525.2465 -7640.7015 302.2076 -441.5706 -373.5809 31119.1102 -102.1248 -24.8206
ENERGY: 1200000 0.1341 4.1534 0.0000 0.0000 -10888.2911 1435.1944 0.0000 0.0000 1849.3130 -7599.4962 310.2055 -9448.8092 -7629.9509 302.6164 -280.3816 -267.2167 31047.4998 -57.0100 8.9040
ENERGY: 1500000 1.2616 1.7262 0.0000 0.0000 -10713.5074 1368.9044 0.0000 0.0000 1813.6776 -7527.9375 304.2280 -9341.6151 -7630.3890 302.8066 -466.2117 -369.1890 30681.7121 -68.6375 -2.9511
TCL: Running FEP window  10: Lambda1 0.5499999999999996 Lambda2 0.4999999999999996 [dLambda -0.04999999999999999]
TCL: Setting parameter firsttimestep to 0
TCL: Setting parameter alchLambda to 0.5499999999999996
Info: NONBONDED TABLE R-SQUARED SPACING: 0.0625
Info: NONBONDED TABLE SIZE: 705 POINTS
TCL: Setting parameter alchLambda2 to 0.4999999999999996
Info: NONBONDED TABLE R-SQUARED SPACING: 0.0625
Info: NONBONDED TABLE SIZE: 705 POINTS
TCL: Running for 1500000 steps
ETITLE: TS BOND ANGLE DIHED IMPRP ELECT VDW BOUNDARY MISC KINETIC TOTAL TEMP POTENTIAL TOTALAVG TEMPAVG PRESSURE GPRESSURE VOLUME PRESSAVG GPRESSAVG
ENERGY: 0 1.2616 1.7262 0.0000 0.0000 -10712.9816 1368.2750 0.0000 0.0000 1812.7805 -7528.9382 304.0775 -9341.7187 -7528.9382 304.0775 -475.5326 -377.3273 30681.7121 -475.5326 -377.3273
ENERGY: 300000 0.0684 3.1407 0.0000 0.0000 -10838.1599 1443.4013 0.0000 0.0000 1842.7705 -7548.7790 309.1081 -9391.5495 -7583.7689 305.2608 16.5911 50.8208 30692.2979 -290.9043 -237.3208
ENERGY: 600000 0.6849 1.8237 0.0000 0.0000 -10923.0811 1506.9954 0.0000 0.0000 1814.0938 -7599.4833 304.2978 -9413.5771 -7609.3287 303.2989 231.6875 310.8456 30721.5552 -131.3542 -70.0828
ENERGY: 900000 2.1788 4.2239 0.0000 0.0000 -10900.0240 1481.3175 0.0000 0.0000 1736.5221 -7675.7817 291.2859 -9412.3038 -7627.1051 300.9850 -86.5839 24.4119 31103.2731 -32.0278 31.0653
ENERGY: 1200000 0.4617 6.0359 0.0000 0.0000 -10973.4335 1535.0182 0.0000 0.0000 1734.6615 -7697.2562 290.9738 -9431.9177 -7651.5455 298.7328 575.2970 546.1574 30811.4223 -21.7102 33.6986
ENERGY: 1500000 1.4732 2.2221 0.0000 0.0000 -10748.8092 1357.5516 0.0000 0.0000 1791.1171 -7596.4451 300.4437 -9387.5622 -7640.6905 299.6257 -658.3582 -612.5480 31026.1619 -169.0845 -110.4837
TCL: Running FEP window  11: Lambda1 0.4999999999999996 Lambda2 0.4499999999999996 [dLambda -0.04999999999999999]
TCL: Setting parameter firsttimestep to 0
TCL: Setting parameter alchLambda to 0.4999999999999996
Info: NONBONDED TABLE R-SQUARED SPACING: 0.0625
Info: NONBONDED TABLE SIZE: 705 POINTS
TCL: Setting parameter alchLambda2 to 0.4499999999999996
Info: NONBONDED TABLE R-SQUARED SPACING: 0.0625
Info: NONBONDED TABLE SIZE: 705 POINTS
TCL: Running for 1500000 steps
ETITLE: TS BOND ANGLE DIHED IMPRP ELECT VDW BOUNDARY MISC KINETIC TOTAL TEMP POTENTIAL TOTALAVG TEMPAVG PRESSURE GPRESSURE VOLUME PRESSAVG GPRESSAVG
ENERGY: 0 1.4732 2.2221 0.0000 0.0000 -10748.5657 1357.2925 0.0000 0.0000 1790.2375 -7597.3404 300.2962 -9387.5779 -7597.3404 300.2962 -700.4082 -619.2282 31026.1619 -700.4082 -619.2282
ENERGY: 300000 0.0389 1.7520 0.0000 0.0000 -10900.5425 1454.5845 0.0000 0.0000 1816.4784 -7627.6886 304.6978 -9444.1670 -7639.7300 300.1978 -172.6637 -70.7498 30925.2292 -195.4798 -133.0269
ENERGY: 600000 1.9039 2.4503 0.0000 0.0000 -10938.2240 1502.1824 0.0000 0.0000 1830.3579 -7601.3296 307.0260 -9431.6875 -7633.2564 302.0209 251.6259 250.6102 30944.2163 -88.0465 -49.3563
ENERGY: 900000 0.2551 2.2410 0.0000 0.0000 -10869.3124 1490.9030 0.0000 0.0000 1821.3762 -7554.5371 305.5194 -9375.9133 -7625.2909 302.3312 383.3978 368.5282 31059.3518 -55.6827 -10.3759
ENERGY: 1200000 0.3233 3.6583 0.0000 0.0000 -10910.1725 1432.7209 0.0000 0.0000 1839.7508 -7633.7192 308.6016 -9473.4700 -7619.5740 303.6951 -376.1347 -292.4168 30941.1900 -5.0644 39.2892
ENERGY: 1500000 1.5643 1.5166 0.0000 0.0000 -10923.9191 1498.5154 0.0000 0.0000 1783.5251 -7638.7978 299.1702 -9422.3228 -7612.5674 303.3789 463.9572 502.2546 30380.3948 67.3090 109.3535
TCL: Running FEP window  12: Lambda1 0.4499999999999996 Lambda2 0.39999999999999963 [dLambda -0.04999999999999999]
TCL: Setting parameter firsttimestep to 0
TCL: Setting parameter alchLambda to 0.4499999999999996
Info: NONBONDED TABLE R-SQUARED SPACING: 0.0625
Info: NONBONDED TABLE SIZE: 705 POINTS
TCL: Setting parameter alchLambda2 to 0.39999999999999963
Info: NONBONDED TABLE R-SQUARED SPACING: 0.0625
Info: NONBONDED TABLE SIZE: 705 POINTS
TCL: Running for 1500000 steps
ETITLE: TS BOND ANGLE DIHED IMPRP ELECT VDW BOUNDARY MISC KINETIC TOTAL TEMP POTENTIAL TOTALAVG TEMPAVG PRESSURE GPRESSURE VOLUME PRESSAVG GPRESSAVG
ENERGY: 0 1.5643 1.5166 0.0000 0.0000 -10923.9187 1498.4676 0.0000 0.0000 1782.6342 -7639.7360 299.0208 -9422.3702 -7639.7360 299.0208 412.5282 496.4931 30380.3948 412.5282 496.4931
ENERGY: 300000 1.9259 1.3528 0.0000 0.0000 -10853.3626 1365.5506 0.0000 0.0000 1791.4097 -7693.1235 300.4928 -9484.5332 -7671.3563 298.9515 -919.4465 -827.4110 30945.9688 -62.7367 5.0737
ENERGY: 600000 1.4323 1.3960 0.0000 0.0000 -10788.7443 1385.2046 0.0000 0.0000 1765.8449 -7634.8665 296.2045 -9400.7114 -7646.0595 301.8407 -346.5998 -264.4411 30615.4491 -82.8475 -14.1129
ENERGY: 900000 0.1141 2.0025 0.0000 0.0000 -11028.6416 1507.7926 0.0000 0.0000 1838.0874 -7680.6450 308.3226 -9518.7324 -7647.1563 302.0362 272.7423 378.2168 30407.4288 -104.2086 -22.5274
ENERGY: 1200000 0.0609 1.5950 0.0000 0.0000 -10963.3510 1537.8233 0.0000 0.0000 1755.6162 -7668.2557 294.4887 -9423.8718 -7644.8129 302.5386 621.2373 683.3587 30707.8852 -40.6403 37.3578
ENERGY: 1500000 0.5818 1.7944 0.0000 0.0000 -10951.7756 1475.2433 0.0000 0.0000 1732.5592 -7741.5968 290.6212 -9474.1560 -7649.7622 301.7890 -211.2361 -120.7944 31043.4016 -35.5790 43.8654
TCL: Running FEP window  13: Lambda1 0.39999999999999963 Lambda2 0.34999999999999964 [dLambda -0.04999999999999999]
TCL: Setting parameter firsttimestep to 0
TCL: Setting parameter alchLambda to 0.39999999999999963
Info: NONBONDED TABLE R-SQUARED SPACING: 0.0625
Info: NONBONDED TABLE SIZE: 705 POINTS
TCL: Setting parameter alchLambda2 to 0.34999999999999964
Info: NONBONDED TABLE R-SQUARED SPACING: 0.0625
Info: NONBONDED TABLE SIZE: 705 POINTS
TCL: Running for 1500000 steps
ETITLE: TS BOND ANGLE DIHED IMPRP ELECT VDW BOUNDARY MISC KINETIC TOTAL TEMP POTENTIAL TOTALAVG TEMPAVG PRESSURE GPRESSURE VOLUME PRESSAVG GPRESSAVG
ENERGY: 0 0.5819 1.7944 0.0000 0.0000 -10951.7743 1475.5495 0.0000 0.0000 1731.6578 -7742.1907 290.4699 -9473.8485 -7742.1907 290.4699 -208.7893 -122.0554 31043.4016 -208.7893 -122.0554
ENERGY: 300000 0.5448 5.7378 0.0000 0.0000 -10885.6776 1502.9427 0.0000 0.0000 1783.1199 -7593.3324 299.1022 -9376.4523 -7607.6248 299.4922 819.2299 858.6843 30231.3019 143.9211 211.9770
ENERGY: 600000 0.7960 5.9426 0.0000 0.0000 -10880.8285 1415.0427 0.0000 0.0000 1806.1863 -7652.8610 302.9714 -9459.0473 -7621.1375 299.1495 -500.1080 -440.4432 30873.0158 41.1274 94.6720
ENERGY: 900000 1.0337 3.6210 0.0000 0.0000 -11006.0251 1518.4439 0.0000 0.0000 1749.8620 -7733.0646 293.5235 -9482.9266 -7640.3156 299.6097 168.1579 248.8320 30605.1267 181.3361 243.0357
ENERGY: 1200000 0.5986 3.6435 0.0000 0.0000 -10954.0833 1495.6883 0.0000 0.0000 1796.5648 -7657.5880 301.3575 -9454.1528 -7631.3139 299.2928 342.8994 441.6614 30355.3194 103.7994 162.5422
ENERGY: 1500000 1.7930 3.4338 0.0000 0.0000 -10834.1715 1481.1583 0.0000 0.0000 1762.9237 -7584.8627 295.7145 -9347.7864 -7630.7396 298.9724 224.4792 258.2860 31051.9239 131.8331 184.8394
TCL: Running FEP window  14: Lambda1 0.34999999999999964 Lambda2 0.29999999999999966 [dLambda -0.04999999999999999]
TCL: Setting parameter firsttimestep to 0
TCL: Setting parameter alchLambda to 0.34999999999999964
Info: NONBONDED TABLE R-SQUARED SPACING: 0.0625
Info: NONBONDED TABLE SIZE: 705 POINTS
TCL: Setting parameter alchLambda2 to 0.29999999999999966
Info: NONBONDED TABLE R-SQUARED SPACING: 0.0625
Info: NONBONDED TABLE SIZE: 705 POINTS
TCL: Running for 1500000 steps
ETITLE: TS BOND ANGLE DIHED IMPRP ELECT VDW BOUNDARY MISC KINETIC TOTAL TEMP POTENTIAL TOTALAVG TEMPAVG PRESSURE GPRESSURE VOLUME PRESSAVG GPRESSAVG
ENERGY: 0 1.7930 3.4338 0.0000 0.0000 -10834.1714 1481.5261 0.0000 0.0000 1762.0832 -7585.3352 295.5735 -9347.4184 -7585.3352 295.5735 193.2089 258.9427 31051.9239 193.2089 258.9427
ENERGY: 300000 1.4891 2.7086 0.0000 0.0000 -10859.7084 1365.1724 0.0000 0.0000 1819.6881 -7670.6502 305.2362 -9490.3383 -7671.2357 297.7609 -928.9749 -874.7230 30753.3787 -66.2271 -10.9444
ENERGY: 600000 0.2962 2.2077 0.0000 0.0000 -10841.7724 1408.7681 0.0000 0.0000 1765.1239 -7665.3765 296.0836 -9430.5005 -7664.5472 298.2102 -726.2368 -665.9721 31485.6302 -200.9871 -145.8459
ENERGY: 900000 1.0973 1.9825 0.0000 0.0000 -11097.7705 1510.6635 0.0000 0.0000 1844.2498 -7739.7774 309.3562 -9584.0271 -7667.2491 300.4399 84.8178 87.8073 30502.4146 -156.4681 -99.7281
ENERGY: 1200000 1.3354 1.4263 0.0000 0.0000 -10982.9801 1548.5672 0.0000 0.0000 1818.9766 -7612.6747 305.1169 -9431.6513 -7651.7913 301.3449 669.1907 686.4102 30975.6270 -190.9712 -129.9535
ENERGY: 1500000 0.5174 4.0085 0.0000 0.0000 -10829.7258 1386.4486 0.0000 0.0000 1854.5976 -7584.1536 311.0920 -9438.7512 -7646.9525 301.9228 -528.7154 -450.7802 30735.5511 -250.5844 -189.3857
TCL: Running FEP window  15: Lambda1 0.29999999999999966 Lambda2 0.24999999999999967 [dLambda -0.04999999999999999]
TCL: Setting parameter firsttimestep to 0
TCL: Setting parameter alchLambda to 0.29999999999999966
Info: NONBONDED TABLE R-SQUARED SPACING: 0.0625
Info: NONBONDED TABLE SIZE: 705 POINTS
TCL: Setting parameter alchLambda2 to 0.24999999999999967
Info: NONBONDED TABLE R-SQUARED SPACING: 0.0625
Info: NONBONDED TABLE SIZE: 705 POINTS
TCL: Running for 1500000 steps
ETITLE: TS BOND ANGLE DIHED IMPRP ELECT VDW BOUNDARY MISC KINETIC TOTAL TEMP POTENTIAL TOTALAVG TEMPAVG PRESSURE GPRESSURE VOLUME PRESSAVG GPRESSAVG
ENERGY: 0 0.5174 4.0085 0.0000 0.0000 -10829.7255 1386.5576 0.0000 0.0000 1853.7139 -7584.9282 310.9438 -9438.6421 -7584.9282 310.9438 -537.8304 -455.3721 30735.5511 -537.8304 -455.3721
ENERGY: 300000 0.1157 4.2040 0.0000 0.0000 -10908.2668 1452.9359 0.0000 0.0000 1785.8268 -7665.1844 299.5563 -9451.0112 -7656.1897 302.1540 -635.7694 -543.0149 31367.6118 -211.3419 -140.8322
ENERGY: 600000 1.6346 2.7288 0.0000 0.0000 -10988.9236 1533.3107 0.0000 0.0000 1814.5615 -7636.6879 304.3763 -9451.2494 -7634.8330 300.9811 445.9231 498.2416 30727.4527 -10.9551 47.4443
ENERGY: 900000 0.0996 1.4178 0.0000 0.0000 -11005.4654 1512.9152 0.0000 0.0000 1741.0740 -7749.9587 292.0494 -9491.0328 -7618.9565 302.5120 103.8162 186.0795 30747.9470 -38.2606 22.0631
ENERGY: 1200000 1.2820 2.9429 0.0000 0.0000 -10809.5269 1367.0144 0.0000 0.0000 1785.7530 -7652.5346 299.5439 -9438.2876 -7621.9027 301.8019 -776.6947 -735.2152 30942.5516 -146.7009 -82.0959
ENERGY: 1500000 0.6857 2.8511 0.0000 0.0000 -10942.8550 1498.7663 0.0000 0.0000 1864.7115 -7575.8404 312.7885 -9440.5519 -7615.9621 302.8743 153.7129 272.3347 30857.7176 -107.5990 -36.5387
TCL: Running FEP window  16: Lambda1 0.24999999999999967 Lambda2 0.19999999999999968 [dLambda -0.04999999999999999]
TCL: Setting parameter firsttimestep to 0
TCL: Setting parameter alchLambda to 0.24999999999999967
Info: NONBONDED TABLE R-SQUARED SPACING: 0.0625
Info: NONBONDED TABLE SIZE: 705 POINTS
TCL: Setting parameter alchLambda2 to 0.19999999999999968
Info: NONBONDED TABLE R-SQUARED SPACING: 0.0625
Info: NONBONDED TABLE SIZE: 705 POINTS
TCL: Running for 1500000 steps
ETITLE: TS BOND ANGLE DIHED IMPRP ELECT VDW BOUNDARY MISC KINETIC TOTAL TEMP POTENTIAL TOTALAVG TEMPAVG PRESSURE GPRESSURE VOLUME PRESSAVG GPRESSAVG
ENERGY: 0 0.6857 2.8511 0.0000 0.0000 -10942.8563 1497.9819 0.0000 0.0000 1863.8223 -7577.5154 312.6393 -9441.3377 -7577.5154 312.6393 169.5793 262.8565 30857.7176 169.5793 262.8565
ENERGY: 300000 1.1348 3.5939 0.0000 0.0000 -10952.6598 1508.2721 0.0000 0.0000 1824.3291 -7615.3297 306.0147 -9439.6589 -7599.7727 309.0127 288.5202 342.6421 31130.6853 -40.4978 38.4441
ENERGY: 600000 1.9150 2.7010 0.0000 0.0000 -10895.8223 1443.6875 0.0000 0.0000 1806.8912 -7640.6276 303.0897 -9447.5188 -7622.3828 305.9317 -384.9810 -288.5760 31042.1835 -24.1696 56.1099
ENERGY: 900000 2.7298 2.6421 0.0000 0.0000 -10925.7854 1501.1975 0.0000 0.0000 1795.2167 -7623.9994 301.1314 -9419.2161 -7634.5951 303.6454 437.0458 502.3326 30521.2858 95.5235 168.1817
ENERGY: 1200000 0.5451 3.3220 0.0000 0.0000 -10808.4401 1438.5349 0.0000 0.0000 1822.5821 -7543.4561 305.7217 -9366.0381 -7643.0463 302.5437 -128.2430 -28.4991 31159.0591 24.1598 101.3277
ENERGY: 1500000 0.8703 1.9519 0.0000 0.0000 -11042.1526 1525.9707 0.0000 0.0000 1788.9167 -7724.4430 300.0746 -9513.3597 -7651.0215 301.8254 402.8438 411.3924 30283.2366 63.1505 132.1110
TCL: Running FEP window  17: Lambda1 0.19999999999999968 Lambda2 0.1499999999999997 [dLambda -0.04999999999999999]
TCL: Setting parameter firsttimestep to 0
TCL: Setting parameter alchLambda to 0.19999999999999968
Info: NONBONDED TABLE R-SQUARED SPACING: 0.0625
Info: NONBONDED TABLE SIZE: 705 POINTS
TCL: Setting parameter alchLambda2 to 0.1499999999999997
Info: NONBONDED TABLE R-SQUARED SPACING: 0.0625
Info: NONBONDED TABLE SIZE: 705 POINTS
TCL: Running for 1500000 steps
ETITLE: TS BOND ANGLE DIHED IMPRP ELECT VDW BOUNDARY MISC KINETIC TOTAL TEMP POTENTIAL TOTALAVG TEMPAVG PRESSURE GPRESSURE VOLUME PRESSAVG GPRESSAVG
ENERGY: 0 0.8703 1.9519 0.0000 0.0000 -11042.1505 1526.1567 0.0000 0.0000 1788.0085 -7725.1631 299.9223 -9513.1716 -7725.1631 299.9223 332.7503 409.0064 30283.2366 332.7503 409.0064
ENERGY: 300000 1.4285 2.9306 0.0000 0.0000 -10878.6776 1471.0834 0.0000 0.0000 1782.2726 -7620.9624 298.9601 -9403.2350 -7610.8741 303.4962 310.5248 329.6496 30630.9442 149.3906 229.8031
ENERGY: 600000 0.1046 2.0976 0.0000 0.0000 -10865.2607 1411.0298 0.0000 0.0000 1751.4716 -7700.5571 293.7935 -9452.0287 -7631.8112 300.5473 -664.1822 -581.7214 31186.2782 58.5688 122.5567
ENERGY: 900000 0.7431 1.6932 0.0000 0.0000 -10876.9471 1419.2361 0.0000 0.0000 1756.1304 -7699.1441 294.5750 -9455.2746 -7647.5397 299.5024 -311.5925 -254.8088 30582.4276 -111.2922 -44.7255
ENERGY: 1200000 0.8258 4.6200 0.0000 0.0000 -10926.9424 1558.7355 0.0000 0.0000 1745.8059 -7616.9552 292.8432 -9362.7611 -7646.7416 298.5054 902.4131 959.1819 30629.9525 -49.0009 25.4250
ENERGY: 1500000 0.7644 2.9907 0.0000 0.0000 -10974.1449 1497.2561 0.0000 0.0000 1699.2221 -7773.9117 285.0292 -9473.1338 -7651.5750 298.0142 -105.2989 -58.1318 31047.8604 -35.3275 39.4623
TCL: Running FEP window  18: Lambda1 0.1499999999999997 Lambda2 0.09999999999999969 [dLambda -0.05 ]
TCL: Setting parameter firsttimestep to 0
TCL: Setting parameter alchLambda to 0.1499999999999997
Info: NONBONDED TABLE R-SQUARED SPACING: 0.0625
Info: NONBONDED TABLE SIZE: 705 POINTS
TCL: Setting parameter alchLambda2 to 0.09999999999999969
Info: NONBONDED TABLE R-SQUARED SPACING: 0.0625
Info: NONBONDED TABLE SIZE: 705 POINTS
TCL: Running for 1500000 steps
ETITLE: TS BOND ANGLE DIHED IMPRP ELECT VDW BOUNDARY MISC KINETIC TOTAL TEMP POTENTIAL TOTALAVG TEMPAVG PRESSURE GPRESSURE VOLUME PRESSAVG GPRESSAVG
ENERGY: 0 0.7644 2.9907 0.0000 0.0000 -10974.1460 1497.3843 0.0000 0.0000 1698.3086 -7774.6981 284.8759 -9473.0067 -7774.6981 284.8759 -144.4163 -60.6639 31047.8604 -144.4163 -60.6639
ENERGY: 300000 0.9396 3.9165 0.0000 0.0000 -10819.7328 1412.2515 0.0000 0.0000 1788.7612 -7613.8640 300.0485 -9402.6253 -7662.8065 296.5635 -265.8373 -227.9856 30825.9074 207.1317 282.6778
ENERGY: 600000 0.4588 2.4892 0.0000 0.0000 -11089.4592 1598.4410 0.0000 0.0000 1767.0473 -7721.0230 296.4062 -9488.0702 -7658.4553 296.1691 771.9412 871.9012 30661.3967 183.9286 253.5978
ENERGY: 900000 2.1770 2.6215 0.0000 0.0000 -10785.6053 1363.5265 0.0000 0.0000 1843.2161 -7574.0642 309.1828 -9417.2803 -7649.4516 297.9214 -955.6492 -878.7710 31250.2814 19.0373 82.3859
ENERGY: 1200000 0.0999 1.4198 0.0000 0.0000 -10865.0361 1394.1399 0.0000 0.0000 1790.7597 -7678.6168 300.3838 -9469.3765 -7648.7327 298.6823 -736.2640 -646.7634 30814.5019 -47.6005 18.6501
ENERGY: 1500000 0.1306 3.0919 0.0000 0.0000 -10865.7169 1465.2601 0.0000 0.0000 1760.3202 -7636.9141 295.2778 -9397.2344 -7642.8882 298.0489 7.3205 66.1534 31152.5156 -76.8487 -6.9002
TCL: Running FEP window  19: Lambda1 0.09999999999999969 Lambda2 0.049999999999999684 [dLambda -0.05 ]
TCL: Setting parameter firsttimestep to 0
TCL: Setting parameter alchLambda to 0.09999999999999969
Info: NONBONDED TABLE R-SQUARED SPACING: 0.0625
Info: NONBONDED TABLE SIZE: 705 POINTS
TCL: Setting parameter alchLambda2 to 0.049999999999999684
Info: NONBONDED TABLE R-SQUARED SPACING: 0.0625
Info: NONBONDED TABLE SIZE: 705 POINTS
TCL: Running for 1500000 steps
ETITLE: TS BOND ANGLE DIHED IMPRP ELECT VDW BOUNDARY MISC KINETIC TOTAL TEMP POTENTIAL TOTALAVG TEMPAVG PRESSURE GPRESSURE VOLUME PRESSAVG GPRESSAVG
ENERGY: 0 0.1306 3.0919 0.0000 0.0000 -10865.7182 1465.3737 0.0000 0.0000 1759.4540 -7637.6680 295.1325 -9397.1220 -7637.6680 295.1325 -1.1119 64.3508 31152.5156 -1.1119 64.3508
ENERGY: 300000 0.2308 1.9178 0.0000 0.0000 -10782.7060 1395.3774 0.0000 0.0000 1808.1592 -7577.0208 303.3024 -9385.1800 -7643.4001 298.9398 -805.4313 -755.7748 31482.2903 -86.9358 -36.5680
ENERGY: 600000 0.4967 2.1409 0.0000 0.0000 -10812.5327 1369.3311 0.0000 0.0000 1765.0891 -7675.4749 296.0777 -9440.5640 -7652.7824 298.7309 -851.9456 -795.1764 30953.4354 -78.8026 -32.7791
ENERGY: 900000 0.5723 5.6245 0.0000 0.0000 -10808.7304 1390.6547 0.0000 0.0000 1845.2031 -7566.6759 309.5161 -9411.8790 -7639.1238 299.7001 -459.6710 -445.7740 30864.5374 -173.8520 -123.5588
ENERGY: 1200000 1.5187 2.9488 0.0000 0.0000 -10975.1959 1534.4003 0.0000 0.0000 1813.1907 -7623.1373 304.1464 -9436.3280 -7633.7119 301.2542 334.9036 351.2499 30951.6033 -28.3826 19.7599
ENERGY: 1500000 1.1260 1.3548 0.0000 0.0000 -10853.5633 1446.5392 0.0000 0.0000 1801.4415 -7603.1018 302.1755 -9404.5432 -7633.1488 301.3077 23.1052 42.3177 30502.5085 -73.1596 -27.6457
TCL: Running FEP window  20: Lambda1 0.049999999999999684 Lambda2 0.0    [dLambda -0.049999999999999684]
TCL: Setting parameter firsttimestep to 0
TCL: Setting parameter alchLambda to 0.049999999999999684
Info: NONBONDED TABLE R-SQUARED SPACING: 0.0625
Info: NONBONDED TABLE SIZE: 705 POINTS
TCL: Setting parameter alchLambda2 to 0.0
Info: NONBONDED TABLE R-SQUARED SPACING: 0.0625
Info: NONBONDED TABLE SIZE: 705 POINTS
TCL: Running for 1500000 steps
ETITLE: TS BOND ANGLE DIHED IMPRP ELECT VDW BOUNDARY MISC KINETIC TOTAL TEMP POTENTIAL TOTALAVG TEMPAVG PRESSURE GPRESSURE VOLUME PRESSAVG GPRESSAVG
ENERGY: 0 1.1260 1.3548 0.0000 0.0000 -10853.5621 1445.9431 0.0000 0.0000 1800.5246 -7604.6136 302.0217 -9405.1381 -7604.6136 302.0217 -44.0698 41.6346 30502.5085 -44.0698 41.6346
ENERGY: 300000 0.2307 3.4857 0.0000 0.0000 -10926.1685 1498.2553 0.0000 0.0000 1740.9099 -7683.2868 292.0219 -9424.1967 -7622.7980 298.0183 369.5405 444.6080 30384.9481 337.0171 386.0964
ENERGY: 600000 0.4400 3.4964 0.0000 0.0000 -10887.7640 1472.9093 0.0000 0.0000 1813.6020 -7597.3163 304.2153 -9410.9183 -7638.3282 299.6620 94.6625 193.5030 30643.2510 21.5958 82.6895
ENERGY: 900000 0.4396 3.3509 0.0000 0.0000 -10975.8993 1524.4274 0.0000 0.0000 1812.7819 -7634.8995 304.0778 -9447.6814 -7638.0131 299.5050 370.4290 479.8622 30741.2541 10.9952 80.3190
ENERGY: 1200000 0.6354 2.8384 0.0000 0.0000 -10827.2069 1413.3272 0.0000 0.0000 1788.4518 -7621.9541 299.9966 -9410.4059 -7641.9958 298.7618 -415.3836 -331.8801 30845.2502 7.2471 77.3169
ENERGY: 1500000 1.5867 1.9950 0.0000 0.0000 -10825.2735 1394.7398 0.0000 0.0000 1778.3404 -7648.6116 298.3005 -9426.9520 -7637.5706 299.0371 -635.3882 -610.7446 30896.7734 -56.9163 4.4683
TCL: Exiting due to exit command.
