Info: SIMULATION PARAMETERS:
Info: TIMESTEP               2
Info: NUMBER OF STEPS        0
Info: STEPS PER CYCLE        10
Info: PERIODIC CELL BASIS 1  32.5231 0 0
Info: PERIODIC CELL BASIS 2  0 30.4504 0
Info: PERIODIC CELL BASIS 3  0 0 31.0486
Info: PERIODIC CELL CENTER   0 0 0
Info: WRAPPING WATERS AROUND PERIODIC BOUNDARIES ON OUTPUT.
Info: WRAPPING ALL CLUSTERS AROUND PERIODIC BOUNDARIES ON OUTPUT.
Info: FIRST LDB TIMESTEP     50
Info: LAST LDB TIMESTEP     -1
Info: HOM BACKGROUND SCALING 1
Info: PME BACKGROUND SCALING 1
Info: MIN ATOMS PER PATCH    40
Info: EMPTY PATCH LOAD       40 ATOMS
Info: VELOCITY FILE          mobley_2198613_equil.vel
Info: CENTER OF MASS MOVING INITIALLY? NO
Info: DIELECTRIC             1
Info: EXCLUDE                SCALED ONE-FOUR
Info: 1-4 ELECTROSTATICS SCALED BY 0.833333
Info: MODIFIED 1-4 VDW PARAMETERS WILL BE USED
Info: DCD FILENAME           mobley_2198613_prod.dcd
Info: DCD FREQUENCY          100000
Info: DCD FIRST STEP         100000
Info: DCD FILE WILL CONTAIN UNIT CELL DATA
Info: XST FILENAME           mobley_2198613_prod.xst
Info: XST FREQUENCY          100000
Info: NO VELOCITY DCD OUTPUT
Info: NO FORCE DCD OUTPUT
Info: OUTPUT FILENAME        mobley_2198613_prod
Info: BINARY OUTPUT FILES WILL BE USED
Info: RESTART FILENAME       mobley_2198613_prod.restart
Info: RESTART FREQUENCY      100000
Info: BINARY RESTART FILES WILL BE USED
Info: CUTOFF                 9
Info: PAIRLIST DISTANCE      11
Info: PAIRLIST SHRINK RATE   0.01
Info: PAIRLIST GROW RATE     0.01
Info: PAIRLIST TRIGGER       0.3
Info: PAIRLISTS PER CYCLE    2
Info: PAIRLISTS ENABLED
Info: MARGIN                 2
Info: HYDROGEN GROUP CUTOFF  2.5
Info: PATCH DIMENSION        15.5
Info: ENERGY OUTPUT STEPS    100000
Info: ENERGY EVALUATION STEPS    100000
Info: OUTPUT ENERGY PRECISION 4
Info: CROSSTERM ENERGY INCLUDED IN DIHEDRAL
Info: TIMING OUTPUT STEPS    1000000
Info: PRESSURE OUTPUT STEPS  100000
Info: ALCHEMICAL FEP ON
Info: FEP CURRENT LAMBDA VALUE     0
Info: FEP COMPARISON LAMBDA VALUE  0.05
Info: FEP INTRA-ALCHEMICAL NON-BONDED INTERACTIONS WILL BE RETAINED
Info: FEP INTRA-ALCHEMICAL BONDED INTERACTIONS WILL BE RETAINED
Info: FEP VDW SHIFTING COEFFICIENT 5
Info: FEP ELEC. ACTIVE FOR ANNIHILATED PARTICLES BETWEEN LAMBDA = 0 AND LAMBDA = 0.5
Info: FEP ELEC. ACTIVE FOR EXNIHILATED PARTICLES BETWEEN LAMBDA = 0.5 AND LAMBDA = 1
Info: FEP VDW ACTIVE FOR ANNIHILATED PARTICLES BETWEEN LAMBDA = 0 AND LAMBDA = 1
Info: FEP VDW ACTIVE FOR EXNIHILATED PARTICLES BETWEEN LAMBDA = 0 AND LAMBDA = 1
Info: FEP BOND ACTIVE FOR ANNIHILATED PARTICLES BETWEEN LAMBDA = 1 AND LAMBDA = 1
Info: FEP BOND ACTIVE FOR EXNIHILATED PARTICLES BETWEEN LAMBDA = 0 AND LAMBDA = 0
Info: LANGEVIN DYNAMICS ACTIVE
Info: LANGEVIN TEMPERATURE   300
Info: LANGEVIN USING BBK INTEGRATOR
Info: LANGEVIN DAMPING COEFFICIENT IS 1 INVERSE PS
Info: LANGEVIN DYNAMICS APPLIED TO HYDROGENS
Info: LANGEVIN PISTON PRESSURE CONTROL ACTIVE
Info:        TARGET PRESSURE IS 1.01325 BAR
Info:     OSCILLATION PERIOD IS 50 FS
Info:             DECAY TIME IS 25 FS
Info:     PISTON TEMPERATURE IS 300 K
Info:       PRESSURE CONTROL IS GROUP-BASED
Info:    INITIAL STRAIN RATE IS -0.000427554 -0.000427554 -0.000427554
Info:       CELL FLUCTUATION IS ISOTROPIC
Info: PARTICLE MESH EWALD (PME) ACTIVE
Info: PME TOLERANCE               1e-06
Info: PME EWALD COEFFICIENT       0.348832
Info: PME INTERPOLATION ORDER     4
Info: PME GRID DIMENSIONS         36 32 32
Info: PME MAXIMUM GRID SPACING    1
Info: PME CALCULATION WILL BE PERFORMED ON GPU
Info: FULL ELECTROSTATIC EVALUATION FREQUENCY      2
Info: USING VERLET I (r-RESPA) MTS SCHEME.
Info: C1 SPLITTING OF LONG RANGE ELECTROSTATICS
Info: PLACING ATOMS IN PATCHES BY HYDROGEN GROUPS
Info: RIGID BONDS TO HYDROGEN : ALL
Info:         ERROR TOLERANCE : 1e-08
Info:          MAX ITERATIONS : 100
Info: RIGID WATER USING SETTLE ALGORITHM
Info: RANDOM NUMBER SEED     1743484248
Info: USE HYDROGEN BONDS?    NO
Info: Using AMBER format force field!
Info: AMBER PARM FILE        mobley_2198613.prmtop
Info: COORDINATE PDB         mobley_2198613.pdb
Info: Exclusions will be read from PARM file!
Info: SCNB (VDW SCALING)     2
Info: USING ARITHMETIC MEAN TO COMBINE L-J SIGMA PARAMETERS
Info: BINARY COORDINATES     mobley_2198613_equil.coor
Info: SUMMARY OF PARAMETERS:
Info: 6 BONDS
Info: 6 ANGLES
Info:   6 HARMONIC
Info:   0 COSINE-BASED
Info: 3 DIHEDRAL
Info: 0 IMPROPER
Info: 0 CROSSTERM
Info: 0 VDW
Info: 21 VDW_PAIRS
Info: 0 NBTHOLE_PAIRS
Info: To read alchdata from file: mobley_2198613.pdb
Info: To read alchflag data from column: 5
Info: STRUCTURE SUMMARY:
Info: 2939 ATOMS
Info: 2938 BONDS
Info: 12 ANGLES
Info: 12 DIHEDRALS
Info: 0 IMPROPERS
Info: 0 CROSSTERMS
Info: 2959 EXCLUSIONS
Info: 2936 RIGID BONDS
Info: ALCH: 0 ATOMS TO DISAPPEAR IN FINAL STATE
Info: ALCH: 8 ATOMS TO APPEAR IN FINAL STATE
Info: 5881 DEGREES OF FREEDOM
Info: 980 HYDROGEN GROUPS
Info: 4 ATOMS IN LARGEST HYDROGEN GROUP
Info: 980 MIGRATION GROUPS
Info: 4 ATOMS IN LARGEST MIGRATION GROUP
Info: TOTAL MASS = 17666.1 amu
Info: TOTAL CHARGE = 0 e
Info: MASS DENSITY = 0.954059 g/cm^3
Info: ATOM DENSITY = 0.0955815 atoms/A^3
Info: ADDED 0 IMPLICIT EXCLUSIONS
Info: NONBONDED TABLE R-SQUARED SPACING: 0.0625
Info: NONBONDED TABLE SIZE: 705 POINTS
Info: REMOVING COM VELOCITY 0.133995 -0.152954 0.175279
Info: Use 3D box decompostion in PME FFT.
Info: Updated CUDA force table with 4096 elements.
Info: Updated CUDA LJ table with 6 x 6 elements.
Info: Found 11 unique exclusion lists needing 16 bytes
TCL: Running for 1500000 steps
ETITLE: TS BOND ANGLE DIHED IMPRP ELECT VDW BOUNDARY MISC KINETIC TOTAL TEMP POTENTIAL TOTALAVG TEMPAVG PRESSURE GPRESSURE VOLUME PRESSAVG GPRESSAVG
ENERGY: 0 0.0045 2.9453 0.7950 0.0000 -10568.2196 1392.6491 0.0000 0.0000 1761.2262 -7410.5994 301.4077 -9171.8256 -7410.5994 301.4077 -359.7985 -283.2818 30748.6288 -359.7985 -283.2818
ENERGY: 300000 1.4105 2.7207 0.9423 0.0000 -10701.8171 1452.5964 0.0000 0.0000 1741.8067 -7502.3404 298.0843 -9244.1472 -7422.9431 301.0042 558.5061 609.3534 29462.6808 -209.5785 -145.5090
ENERGY: 600000 0.2206 3.7151 0.8388 0.0000 -10787.9184 1521.2318 0.0000 0.0000 1791.5378 -7470.3744 306.5951 -9261.9122 -7441.4762 302.0988 572.7896 616.6295 30022.0172 -142.5815 -78.2785
ENERGY: 900000 2.5746 4.3035 0.9233 0.0000 -10638.5945 1396.6065 0.0000 0.0000 1710.0689 -7524.1177 292.6529 -9234.1866 -7463.5422 300.9041 -462.2388 -410.5805 30148.5213 -150.7191 -94.3232
ENERGY: 1200000 0.3261 3.3956 2.0125 0.0000 -10711.9669 1498.5948 0.0000 0.0000 1761.2576 -7446.3803 301.4131 -9207.6379 -7459.6509 301.1959 552.8786 614.1085 30096.6800 -51.2445 9.3356
ENERGY: 1500000 0.0109 2.9223 1.2155 0.0000 -10615.0463 1418.7091 0.0000 0.0000 1758.6061 -7433.5825 300.9593 -9192.1886 -7465.5284 300.5926 96.4925 97.9095 30032.5242 -96.2299 -38.8551
TCL: Running FEP window   2: Lambda1 0.05   Lambda2 0.1    [dLambda 0.05  ]
TCL: Setting parameter firsttimestep to 0
TCL: Setting parameter alchLambda to 0.05
Info: NONBONDED TABLE R-SQUARED SPACING: 0.0625
Info: NONBONDED TABLE SIZE: 705 POINTS
TCL: Setting parameter alchLambda2 to 0.1
Info: NONBONDED TABLE R-SQUARED SPACING: 0.0625
Info: NONBONDED TABLE SIZE: 705 POINTS
TCL: Running for 1500000 steps
ETITLE: TS BOND ANGLE DIHED IMPRP ELECT VDW BOUNDARY MISC KINETIC TOTAL TEMP POTENTIAL TOTALAVG TEMPAVG PRESSURE GPRESSURE VOLUME PRESSAVG GPRESSAVG
ENERGY: 0 0.0109 2.9223 1.2155 0.0000 -10615.0457 1419.8367 0.0000 0.0000 1757.7112 -7433.3492 300.8062 -9191.0604 -7433.3492 300.8062 21.3261 102.5230 30032.5242 21.3261 102.5230
ENERGY: 300000 1.4419 5.4647 2.3841 0.0000 -10729.8159 1530.0597 0.0000 0.0000 1763.3528 -7427.1127 301.7716 -9190.4654 -7479.2669 302.0949 884.8780 951.6874 29982.1834 265.8563 355.2570
ENERGY: 600000 0.2606 3.0049 1.2584 0.0000 -10511.5455 1329.0959 0.0000 0.0000 1766.6060 -7411.3197 302.3284 -9177.9258 -7464.1201 301.7958 -764.1393 -774.0918 30320.9121 212.8517 273.4838
ENERGY: 900000 0.1298 1.5059 1.0795 0.0000 -10603.2094 1381.3174 0.0000 0.0000 1745.4623 -7473.7146 298.7099 -9219.1768 -7456.0691 301.1875 -499.5932 -449.9922 30219.9595 49.3238 113.2925
ENERGY: 1200000 0.3947 4.4055 0.7914 0.0000 -10702.9460 1448.2946 0.0000 0.0000 1725.2364 -7523.8235 295.2486 -9249.0599 -7473.9268 299.0860 10.6674 63.8906 30101.2702 83.9207 141.8971
ENERGY: 1500000 0.5576 2.1610 1.7152 0.0000 -10624.9866 1388.9131 0.0000 0.0000 1741.5781 -7490.0614 298.0452 -9231.6395 -7480.3760 298.4309 -484.7021 -393.2846 30262.0690 39.2900 98.0542
TCL: Running FEP window   3: Lambda1 0.1    Lambda2 0.15000000000000002 [dLambda 0.05000000000000002]
TCL: Setting parameter firsttimestep to 0
TCL: Setting parameter alchLambda to 0.1
Info: NONBONDED TABLE R-SQUARED SPACING: 0.0625
Info: NONBONDED TABLE SIZE: 705 POINTS
TCL: Setting parameter alchLambda2 to 0.15000000000000002
Info: NONBONDED TABLE R-SQUARED SPACING: 0.0625
Info: NONBONDED TABLE SIZE: 705 POINTS
TCL: Running for 1500000 steps
ETITLE: TS BOND ANGLE DIHED IMPRP ELECT VDW BOUNDARY MISC KINETIC TOTAL TEMP POTENTIAL TOTALAVG TEMPAVG PRESSURE GPRESSURE VOLUME PRESSAVG GPRESSAVG
ENERGY: 0 0.5576 2.1610 1.7152 0.0000 -10624.9865 1390.1399 0.0000 0.0000 1740.7249 -7489.6878 297.8992 -9230.4127 -7489.6878 297.8992 -487.4719 -389.4585 30262.0690 -487.4719 -389.4585
ENERGY: 300000 0.7713 1.4982 0.7352 0.0000 -10753.8140 1574.0926 0.0000 0.0000 1732.5569 -7444.1598 296.5014 -9176.7167 -7454.7803 299.1713 1293.7988 1296.9510 29894.1753 1.1941 79.7982
ENERGY: 600000 0.2602 2.5965 0.7451 0.0000 -10697.9990 1428.0278 0.0000 0.0000 1728.2244 -7538.1450 295.7599 -9266.3694 -7466.4055 300.5933 -179.3180 -97.8108 29910.8242 -107.3780 -31.3299
ENERGY: 900000 0.1474 2.6787 1.0299 0.0000 -10674.6775 1441.7943 0.0000 0.0000 1768.9056 -7460.1216 302.7219 -9229.0272 -7460.3217 300.9083 12.1750 84.2450 30327.4297 32.6250 98.7581
ENERGY: 1200000 1.1252 2.3348 0.7472 0.0000 -10771.9502 1513.1503 0.0000 0.0000 1729.1344 -7525.4582 295.9157 -9254.5926 -7484.4337 299.5557 -38.3983 66.8528 30674.7526 -13.4204 59.4464
ENERGY: 1500000 0.1633 2.2605 0.9967 0.0000 -10604.8929 1347.0853 0.0000 0.0000 1752.8437 -7501.5433 299.9732 -9254.3870 -7481.8124 298.8712 -857.9551 -761.9896 30348.7911 -115.5433 -42.8528
TCL: Running FEP window   4: Lambda1 0.15000000000000002 Lambda2 0.2    [dLambda 0.04999999999999999]
TCL: Setting parameter firsttimestep to 0
TCL: Setting parameter alchLambda to 0.15000000000000002
Info: NONBONDED TABLE R-SQUARED SPACING: 0.0625
Info: NONBONDED TABLE SIZE: 705 POINTS
TCL: Setting parameter alchLambda2 to 0.2
Info: NONBONDED TABLE R-SQUARED SPACING: 0.0625
Info: NONBONDED TABLE SIZE: 705 POINTS
TCL: Running for 1500000 steps
ETITLE: TS BOND ANGLE DIHED IMPRP ELECT VDW BOUNDARY MISC KINETIC TOTAL TEMP POTENTIAL TOTALAVG TEMPAVG PRESSURE GPRESSURE VOLUME PRESSAVG GPRESSAVG
ENERGY: 0 0.1633 2.2605 0.9967 0.0000 -10604.8917 1348.8789 0.0000 0.0000 1751.9642 -7500.6281 299.8226 -9252.5923 -7500.6281 299.8226 -851.6231 -755.1332 30348.7911 -851.6231 -755.1332
ENERGY: 300000 0.0512 2.2734 0.7862 0.0000 -10852.2529 1564.1477 0.0000 0.0000 1727.1181 -7557.8763 295.5706 -9284.9945 -7490.0149 302.3208 1080.1351 1127.4598 29642.1334 -98.7601 -25.3800
ENERGY: 600000 0.0773 3.7122 0.8049 0.0000 -10698.3154 1432.7384 0.0000 0.0000 1721.7267 -7539.2559 294.6479 -9260.9826 -7518.1044 300.5693 -130.0229 -50.4728 30010.9419 -60.7831 2.2716
ENERGY: 900000 0.5132 3.3129 0.8800 0.0000 -10545.4998 1371.7951 0.0000 0.0000 1807.8635 -7361.1351 309.3890 -9168.9986 -7508.3734 300.6218 -322.4125 -276.6063 30171.8167 -48.7772 3.8762
ENERGY: 1200000 0.2693 1.8535 0.8475 0.0000 -10608.1559 1489.5364 0.0000 0.0000 1775.1315 -7340.5179 303.7874 -9115.6493 -7478.4722 300.9236 814.6140 820.2131 30091.4595 52.2598 99.1955
ENERGY: 1500000 0.4643 2.9979 0.9354 0.0000 -10676.7448 1448.6581 0.0000 0.0000 1733.7793 -7489.9098 296.7106 -9223.6891 -7474.9969 301.0291 37.0027 128.1358 30104.2119 65.2437 115.4624
TCL: Running FEP window   5: Lambda1 0.2    Lambda2 0.25   [dLambda 0.04999999999999999]
TCL: Setting parameter firsttimestep to 0
TCL: Setting parameter alchLambda to 0.2
Info: NONBONDED TABLE R-SQUARED SPACING: 0.0625
Info: NONBONDED TABLE SIZE: 705 POINTS
TCL: Setting parameter alchLambda2 to 0.25
Info: NONBONDED TABLE R-SQUARED SPACING: 0.0625
Info: NONBONDED TABLE SIZE: 705 POINTS
TCL: Running for 1500000 steps
ETITLE: TS BOND ANGLE DIHED IMPRP ELECT VDW BOUNDARY MISC KINETIC TOTAL TEMP POTENTIAL TOTALAVG TEMPAVG PRESSURE GPRESSURE VOLUME PRESSAVG GPRESSAVG
ENERGY: 0 0.4643 2.9979 0.9354 0.0000 -10676.7445 1449.5105 0.0000 0.0000 1732.8839 -7489.9525 296.5573 -9222.8364 -7489.9525 296.5573 56.1323 130.0743 30104.2119 56.1323 130.0743
ENERGY: 300000 0.3030 2.8094 0.7669 0.0000 -10617.8482 1424.1367 0.0000 0.0000 1763.9143 -7425.9179 301.8677 -9189.8322 -7483.6418 297.8975 120.3285 185.5835 30094.2569 62.8955 106.8392
ENERGY: 600000 0.0537 3.1849 0.8215 0.0000 -10567.0331 1337.4981 0.0000 0.0000 1732.5121 -7492.9629 296.4937 -9225.4749 -7470.6692 298.7679 -777.1227 -729.0139 30341.8848 -141.6601 -94.4565
ENERGY: 900000 1.5458 2.7248 1.2460 0.0000 -10629.5348 1375.6973 0.0000 0.0000 1743.3980 -7504.9228 298.3567 -9248.3209 -7459.3983 300.2699 -955.5884 -885.1612 30606.2940 -203.1428 -156.2475
ENERGY: 1200000 1.9430 2.6094 0.9878 0.0000 -10676.9227 1466.6289 0.0000 0.0000 1760.3845 -7444.3691 301.2637 -9204.7536 -7461.2252 300.3788 205.3384 202.8997 30229.5703 -256.3272 -209.9082
ENERGY: 1500000 0.2341 2.1312 0.8611 0.0000 -10878.7060 1586.4630 0.0000 0.0000 1723.2263 -7565.7902 294.9046 -9289.0166 -7471.7006 299.5036 1086.8230 1129.9558 29998.3572 -139.1587 -89.9641
TCL: Running FEP window   6: Lambda1 0.25   Lambda2 0.3    [dLambda 0.04999999999999999]
TCL: Setting parameter firsttimestep to 0
TCL: Setting parameter alchLambda to 0.25
Info: NONBONDED TABLE R-SQUARED SPACING: 0.0625
Info: NONBONDED TABLE SIZE: 705 POINTS
TCL: Setting parameter alchLambda2 to 0.3
Info: NONBONDED TABLE R-SQUARED SPACING: 0.0625
Info: NONBONDED TABLE SIZE: 705 POINTS
TCL: Running for 1500000 steps
ETITLE: TS BOND ANGLE DIHED IMPRP ELECT VDW BOUNDARY MISC KINETIC TOTAL TEMP POTENTIAL TOTALAVG TEMPAVG PRESSURE GPRESSURE VOLUME PRESSAVG GPRESSAVG
ENERGY: 0 0.2341 2.1312 0.8611 0.0000 -10878.7054 1586.7910 0.0000 0.0000 1722.3631 -7566.3249 294.7569 -9288.6880 -7566.3249 294.7569 1049.2080 1134.1477 29998.3572 1049.2080 1134.1477
ENERGY: 300000 0.1633 2.2919 0.8173 0.0000 -10640.2696 1443.1232 0.0000 0.0000 1732.6875 -7461.1863 296.5237 -9193.8739 -7517.0398 295.9550 176.4464 265.8204 30156.1825 614.0551 694.0385
ENERGY: 600000 1.0449 5.5254 1.1538 0.0000 -10620.4886 1321.1349 0.0000 0.0000 1769.2612 -7522.3685 302.7828 -9291.6297 -7484.7029 300.1906 -779.6776 -707.1890 29293.5873 141.7369 232.4945
ENERGY: 900000 1.1780 4.1410 0.8756 0.0000 -10497.8665 1301.7762 0.0000 0.0000 1730.1009 -7459.7946 296.0811 -9189.8956 -7471.7802 300.4925 -1255.9622 -1128.4139 30324.5860 -41.9546 43.4469
ENERGY: 1200000 3.4676 2.2447 1.0370 0.0000 -10667.0246 1492.2010 0.0000 0.0000 1754.8007 -7413.2735 300.3081 -9168.0742 -7470.1524 301.0048 741.2347 819.4756 30006.4048 29.8521 104.9220
ENERGY: 1500000 0.4449 1.7925 1.1384 0.0000 -10627.7998 1331.6362 0.0000 0.0000 1725.9180 -7566.8698 295.3652 -9292.7878 -7471.5328 301.6044 -937.9447 -914.8726 29996.5881 -76.7437 -9.6881
TCL: Running FEP window   7: Lambda1 0.3    Lambda2 0.35   [dLambda 0.04999999999999999]
TCL: Setting parameter firsttimestep to 0
TCL: Setting parameter alchLambda to 0.3
Info: NONBONDED TABLE R-SQUARED SPACING: 0.0625
Info: NONBONDED TABLE SIZE: 705 POINTS
TCL: Setting parameter alchLambda2 to 0.35
Info: NONBONDED TABLE R-SQUARED SPACING: 0.0625
Info: NONBONDED TABLE SIZE: 705 POINTS
TCL: Running for 1500000 steps
ETITLE: TS BOND ANGLE DIHED IMPRP ELECT VDW BOUNDARY MISC KINETIC TOTAL TEMP POTENTIAL TOTALAVG TEMPAVG PRESSURE GPRESSURE VOLUME PRESSAVG GPRESSAVG
ENERGY: 0 0.4449 1.7925 1.1384 0.0000 -10627.7990 1331.7625 0.0000 0.0000 1725.0393 -7567.6213 295.2149 -9292.6606 -7567.6213 295.2149 -977.2710 -910.7316 29996.5881 -977.2710 -910.7316
ENERGY: 300000 0.4596 4.1060 0.8675 0.0000 -10811.2046 1509.3445 0.0000 0.0000 1783.6761 -7512.7509 305.2497 -9296.4271 -7486.9516 299.8171 334.7403 386.2777 30145.9184 -249.6068 -202.0608
ENERGY: 600000 0.0693 2.0232 0.8024 0.0000 -10706.2033 1488.7185 0.0000 0.0000 1776.0445 -7438.5454 303.9436 -9214.5899 -7489.8896 300.0337 448.2604 501.3880 30218.5379 -176.5028 -123.9753
ENERGY: 900000 0.1273 6.0202 0.7450 0.0000 -10727.9964 1466.6242 0.0000 0.0000 1774.1655 -7480.3142 303.6221 -9254.4797 -7494.1482 301.1656 39.3056 100.1560 30296.9521 -170.2698 -114.1823
ENERGY: 1200000 1.3006 4.3453 0.9715 0.0000 -10744.2585 1512.7348 0.0000 0.0000 1790.4334 -7434.4728 306.4061 -9224.9062 -7481.2211 302.6393 521.9003 564.9973 30236.0589 -58.3670 -5.7058
ENERGY: 1500000 1.2702 4.2354 0.8485 0.0000 -10733.5153 1504.3383 0.0000 0.0000 1837.9811 -7384.8419 314.5432 -9222.8229 -7474.9311 302.4150 430.7271 530.8222 30473.1184 -15.4723 45.1484
TCL: Running FEP window   8: Lambda1 0.35   Lambda2 0.39999999999999997 [dLambda 0.04999999999999999]
TCL: Setting parameter firsttimestep to 0
TCL: Setting parameter alchLambda to 0.35
Info: NONBONDED TABLE R-SQUARED SPACING: 0.0625
Info: NONBONDED TABLE SIZE: 705 POINTS
TCL: Setting parameter alchLambda2 to 0.39999999999999997
Info: NONBONDED TABLE R-SQUARED SPACING: 0.0625
Info: NONBONDED TABLE SIZE: 705 POINTS
TCL: Running for 1500000 steps
ETITLE: TS BOND ANGLE DIHED IMPRP ELECT VDW BOUNDARY MISC KINETIC TOTAL TEMP POTENTIAL TOTALAVG TEMPAVG PRESSURE GPRESSURE VOLUME PRESSAVG GPRESSAVG
ENERGY: 0 1.2702 4.2354 0.8485 0.0000 -10733.5148 1504.2785 0.0000 0.0000 1837.1150 -7385.7673 314.3949 -9222.8823 -7385.7673 314.3949 452.4413 533.8117 30473.1184 452.4413 533.8117
ENERGY: 300000 0.5136 4.6164 1.9157 0.0000 -10819.3886 1510.8630 0.0000 0.0000 1763.2421 -7538.2376 301.7527 -9301.4798 -7464.5341 306.8893 159.5374 281.5673 30376.3336 -24.4607 55.0293
ENERGY: 600000 0.2534 2.0113 2.3124 0.0000 -10586.4503 1306.4714 0.0000 0.0000 1785.9221 -7489.4797 305.6340 -9275.4017 -7469.9175 304.1904 -1195.1367 -1157.3495 30663.2694 -196.0728 -121.9316
ENERGY: 900000 0.3496 4.3035 0.9168 0.0000 -10693.7957 1423.6845 0.0000 0.0000 1772.6252 -7491.9161 303.3585 -9264.5413 -7492.7141 302.1024 -345.3336 -264.6999 30452.2505 -168.8524 -90.1712
ENERGY: 1200000 0.4686 2.1434 0.8616 0.0000 -10661.0571 1426.5812 0.0000 0.0000 1734.3165 -7496.6857 296.8025 -9231.0022 -7491.6684 301.0961 -221.4152 -154.1780 30447.9544 -180.6512 -101.4640
ENERGY: 1500000 0.1127 3.0752 0.9863 0.0000 -10672.1639 1419.6162 0.0000 0.0000 1765.8828 -7482.4907 302.2046 -9248.3735 -7483.5253 301.0157 -326.5344 -269.1407 30427.3915 -214.9836 -140.5891
TCL: Running FEP window   9: Lambda1 0.39999999999999997 Lambda2 0.44999999999999996 [dLambda 0.04999999999999999]
TCL: Setting parameter firsttimestep to 0
TCL: Setting parameter alchLambda to 0.39999999999999997
Info: NONBONDED TABLE R-SQUARED SPACING: 0.0625
Info: NONBONDED TABLE SIZE: 705 POINTS
TCL: Setting parameter alchLambda2 to 0.44999999999999996
Info: NONBONDED TABLE R-SQUARED SPACING: 0.0625
Info: NONBONDED TABLE SIZE: 705 POINTS
TCL: Running for 1500000 steps
ETITLE: TS BOND ANGLE DIHED IMPRP ELECT VDW BOUNDARY MISC KINETIC TOTAL TEMP POTENTIAL TOTALAVG TEMPAVG PRESSURE GPRESSURE VOLUME PRESSAVG GPRESSAVG
ENERGY: 0 0.1127 3.0752 0.9863 0.0000 -10672.1629 1419.5938 0.0000 0.0000 1765.0242 -7483.3708 302.0577 -9248.3950 -7483.3708 302.0577 -351.6907 -265.0160 30427.3915 -351.6907 -265.0160
ENERGY: 300000 0.1192 1.3607 2.4299 0.0000 -10596.0422 1410.2668 0.0000 0.0000 1765.4313 -7416.4343 302.1273 -9181.8656 -7504.7289 296.6142 4.5565 79.1833 30023.3412 -201.6179 -149.2394
ENERGY: 600000 0.0713 2.0568 1.2366 0.0000 -10609.8724 1414.5177 0.0000 0.0000 1711.7939 -7480.1961 292.9481 -9191.9900 -7499.8731 298.0253 73.4401 130.0137 29850.3345 31.3718 82.8953
ENERGY: 900000 0.1739 4.3378 0.8173 0.0000 -10739.7825 1440.3929 0.0000 0.0000 1736.0777 -7557.9828 297.1039 -9294.0605 -7509.0679 298.6659 -23.3837 36.0113 29545.9708 47.1163 98.2074
ENERGY: 1200000 0.6914 4.8021 0.7486 0.0000 -10921.1990 1616.5207 0.0000 0.0000 1760.5240 -7537.9123 301.2875 -9298.4363 -7517.3562 298.9456 1296.8866 1303.5497 30177.5031 -10.1434 33.6815
ENERGY: 1500000 0.1219 2.8088 0.8155 0.0000 -10570.6913 1383.6088 0.0000 0.0000 1760.9706 -7422.3657 301.3640 -9183.3363 -7505.0927 300.0292 -290.6905 -226.5587 30309.8248 -71.1472 -21.5694
TCL: Running FEP window  10: Lambda1 0.44999999999999996 Lambda2 0.49999999999999994 [dLambda 0.04999999999999999]
TCL: Setting parameter firsttimestep to 0
TCL: Setting parameter alchLambda to 0.44999999999999996
Info: NONBONDED TABLE R-SQUARED SPACING: 0.0625
Info: NONBONDED TABLE SIZE: 705 POINTS
TCL: Setting parameter alchLambda2 to 0.49999999999999994
Info: NONBONDED TABLE R-SQUARED SPACING: 0.0625
Info: NONBONDED TABLE SIZE: 705 POINTS
TCL: Running for 1500000 steps
ETITLE: TS BOND ANGLE DIHED IMPRP ELECT VDW BOUNDARY MISC KINETIC TOTAL TEMP POTENTIAL TOTALAVG TEMPAVG PRESSURE GPRESSURE VOLUME PRESSAVG GPRESSAVG
ENERGY: 0 0.1219 2.8088 0.8155 0.0000 -10570.6909 1383.7440 0.0000 0.0000 1760.1314 -7423.0694 301.2203 -9183.2007 -7423.0694 301.2203 -310.1685 -221.9580 30309.8248 -310.1685 -221.9580
ENERGY: 300000 1.0273 4.7751 0.9988 0.0000 -10678.6527 1449.0865 0.0000 0.0000 1718.9232 -7503.8417 294.1682 -9222.7648 -7499.2891 300.0292 211.2990 273.7717 29897.1444 73.1375 129.9314
ENERGY: 600000 0.2457 5.2138 0.7778 0.0000 -10598.1588 1381.9404 0.0000 0.0000 1781.5091 -7428.4720 304.8788 -9209.9811 -7499.7727 299.1773 -461.4124 -375.9453 30308.0348 52.4280 123.8950
ENERGY: 900000 0.2585 1.1907 0.8167 0.0000 -10752.8844 1451.3299 0.0000 0.0000 1753.1928 -7546.0958 300.0329 -9299.2886 -7488.6072 299.1970 -341.9760 -248.1081 30584.6445 -125.7772 -54.6835
ENERGY: 1200000 0.3207 1.6598 0.9226 0.0000 -10672.1995 1418.9400 0.0000 0.0000 1791.4385 -7458.9178 306.5781 -9250.3563 -7476.5422 300.6617 275.1769 318.8921 29564.4031 -77.4291 -11.8339
ENERGY: 1500000 0.3509 1.9980 0.7860 0.0000 -10676.7335 1405.4388 0.0000 0.0000 1724.1179 -7544.0419 295.0572 -9268.1598 -7476.5538 300.7078 -444.9488 -359.4896 30282.4998 -50.7012 15.3872
TCL: Running FEP window  11: Lambda1 0.49999999999999994 Lambda2 0.5499999999999999 [dLambda 0.04999999999999999]
TCL: Setting parameter firsttimestep to 0
TCL: Setting parameter alchLambda to 0.49999999999999994
Info: NONBONDED TABLE R-SQUARED SPACING: 0.0625
Info: NONBONDED TABLE SIZE: 705 POINTS
TCL: Setting parameter alchLambda2 to 0.5499999999999999
Info: NONBONDED TABLE R-SQUARED SPACING: 0.0625
Info: NONBONDED TABLE SIZE: 705 POINTS
TCL: Running for 1500000 steps
ETITLE: TS BOND ANGLE DIHED IMPRP ELECT VDW BOUNDARY MISC KINETIC TOTAL TEMP POTENTIAL TOTALAVG TEMPAVG PRESSURE GPRESSURE VOLUME PRESSAVG GPRESSAVG
ENERGY: 0 0.3509 1.9980 0.7860 0.0000 -10676.7345 1405.4415 0.0000 0.0000 1723.2509 -7544.9072 294.9088 -9268.1581 -7544.9072 294.9088 -454.8102 -354.0143 30282.4998 -454.8102 -354.0143
ENERGY: 300000 0.0712 4.1655 0.8990 0.0000 -10759.4381 1462.0759 0.0000 0.0000 1689.7057 -7602.5206 289.1680 -9292.2264 -7546.8071 296.4408 -114.7865 -84.0506 30379.1221 -37.1453 40.4607
ENERGY: 600000 0.6753 3.1569 1.1307 0.0000 -10780.0811 1467.5344 0.0000 0.0000 1722.8954 -7584.6885 294.8480 -9307.5839 -7527.7150 297.9436 270.3670 297.5628 29551.9930 82.6538 140.7804
ENERGY: 900000 0.1200 3.2175 2.4164 0.0000 -10722.1945 1412.6486 0.0000 0.0000 1778.0770 -7525.7149 304.2915 -9303.7920 -7515.8705 298.9829 -315.5135 -231.4388 29963.4154 -10.5071 54.8943
ENERGY: 1200000 0.0661 3.2534 0.7840 0.0000 -10609.2174 1398.1741 0.0000 0.0000 1764.3425 -7442.5972 301.9410 -9206.9398 -7500.1338 298.8482 -179.8789 -147.2862 30157.5350 -49.2430 16.4944
ENERGY: 1500000 0.5478 2.0974 1.2531 0.0000 -10551.9567 1298.9606 0.0000 0.0000 1738.2548 -7510.8431 297.4765 -9249.0979 -7492.2933 299.0154 -1233.9419 -1119.5345 30200.1167 -123.7315 -52.7340
TCL: Running FEP window  12: Lambda1 0.5499999999999999 Lambda2 0.6    [dLambda 0.050000000000000044]
TCL: Setting parameter firsttimestep to 0
TCL: Setting parameter alchLambda to 0.5499999999999999
Info: NONBONDED TABLE R-SQUARED SPACING: 0.0625
Info: NONBONDED TABLE SIZE: 705 POINTS
TCL: Setting parameter alchLambda2 to 0.6
Info: NONBONDED TABLE R-SQUARED SPACING: 0.0625
Info: NONBONDED TABLE SIZE: 705 POINTS
TCL: Running for 1500000 steps
ETITLE: TS BOND ANGLE DIHED IMPRP ELECT VDW BOUNDARY MISC KINETIC TOTAL TEMP POTENTIAL TOTALAVG TEMPAVG PRESSURE GPRESSURE VOLUME PRESSAVG GPRESSAVG
ENERGY: 0 0.5478 2.0974 1.2531 0.0000 -10551.7346 1298.8656 0.0000 0.0000 1737.3802 -7511.5906 297.3268 -9248.9707 -7511.5906 297.3268 -1207.7410 -1115.4442 30200.1167 -1207.7410 -1115.4442
ENERGY: 300000 0.1547 2.8788 2.4727 0.0000 -10736.6535 1470.9567 0.0000 0.0000 1739.0063 -7521.1843 297.6051 -9260.1907 -7516.1974 298.7803 127.5429 173.8322 30089.5645 -255.6241 -192.4310
ENERGY: 600000 0.6905 1.7461 0.7454 0.0000 -10718.1613 1454.6057 0.0000 0.0000 1704.4100 -7555.9634 291.6845 -9260.3735 -7517.5848 297.8202 17.6194 59.7942 30272.7375 -251.7167 -179.9681
ENERGY: 900000 0.0447 1.2818 0.7758 0.0000 -10753.4801 1498.6225 0.0000 0.0000 1718.9732 -7533.7820 294.1767 -9252.7553 -7523.4846 297.6443 642.3217 753.2121 29551.4642 -96.9596 -18.6356
ENERGY: 1200000 1.7202 1.8399 1.4965 0.0000 -10661.6638 1417.3040 0.0000 0.0000 1725.6586 -7513.6446 295.3208 -9239.3032 -7514.2835 297.8154 -345.5877 -286.1022 30333.9515 -111.7884 -34.2843
ENERGY: 1500000 0.2577 7.4518 0.7994 0.0000 -10698.0356 1413.0791 0.0000 0.0000 1822.0227 -7454.4249 311.8121 -9276.4476 -7500.8119 299.3689 -255.3272 -208.6877 30325.9184 -187.6099 -109.9649
TCL: Running FEP window  13: Lambda1 0.6    Lambda2 0.65   [dLambda 0.050000000000000044]
TCL: Setting parameter firsttimestep to 0
TCL: Setting parameter alchLambda to 0.6
Info: NONBONDED TABLE R-SQUARED SPACING: 0.0625
Info: NONBONDED TABLE SIZE: 705 POINTS
TCL: Setting parameter alchLambda2 to 0.65
Info: NONBONDED TABLE R-SQUARED SPACING: 0.0625
Info: NONBONDED TABLE SIZE: 705 POINTS
TCL: Running for 1500000 steps
ETITLE: TS BOND ANGLE DIHED IMPRP ELECT VDW BOUNDARY MISC KINETIC TOTAL TEMP POTENTIAL TOTALAVG TEMPAVG PRESSURE GPRESSURE VOLUME PRESSAVG GPRESSAVG
ENERGY: 0 0.2577 7.4518 0.7994 0.0000 -10698.1548 1413.3360 0.0000 0.0000 1821.1196 -7455.1903 311.6576 -9276.3098 -7455.1903 311.6576 -279.1602 -200.2877 30325.9184 -279.1602 -200.2877
ENERGY: 300000 0.3861 5.6042 1.3407 0.0000 -10583.5320 1389.1263 0.0000 0.0000 1714.5367 -7472.5380 293.4175 -9187.0746 -7494.8961 299.8793 -549.5774 -521.6801 30859.1455 -58.8430 -13.2234
ENERGY: 600000 0.1641 4.9705 0.8840 0.0000 -10694.8338 1502.2992 0.0000 0.0000 1754.8097 -7431.7063 300.3096 -9186.5160 -7482.7208 297.1472 565.2134 625.3972 30323.5945 100.0374 157.2245
ENERGY: 900000 0.0897 2.2713 0.9504 0.0000 -10696.9694 1421.9882 0.0000 0.0000 1749.1124 -7522.5573 299.3346 -9271.6697 -7471.0028 298.7364 -313.0636 -254.7834 30325.0847 59.4204 116.7747
ENERGY: 1200000 0.2159 1.5870 0.7877 0.0000 -10744.9894 1513.8926 0.0000 0.0000 1749.3250 -7479.1812 299.3710 -9228.5062 -7466.9378 299.1211 265.5931 353.7075 30769.5300 60.6374 111.9760
ENERGY: 1500000 1.0600 2.0460 1.1307 0.0000 -10719.2224 1443.8582 0.0000 0.0000 1729.9219 -7541.2056 296.0504 -9271.1275 -7471.9495 298.8391 -40.0179 9.2192 30034.5021 25.4414 77.1263
TCL: Running FEP window  14: Lambda1 0.65   Lambda2 0.7000000000000001 [dLambda 0.050000000000000044]
TCL: Setting parameter firsttimestep to 0
TCL: Setting parameter alchLambda to 0.65
Info: NONBONDED TABLE R-SQUARED SPACING: 0.0625
Info: NONBONDED TABLE SIZE: 705 POINTS
TCL: Setting parameter alchLambda2 to 0.7000000000000001
Info: NONBONDED TABLE R-SQUARED SPACING: 0.0625
Info: NONBONDED TABLE SIZE: 705 POINTS
TCL: Running for 1500000 steps
ETITLE: TS BOND ANGLE DIHED IMPRP ELECT VDW BOUNDARY MISC KINETIC TOTAL TEMP POTENTIAL TOTALAVG TEMPAVG PRESSURE GPRESSURE VOLUME PRESSAVG GPRESSAVG
ENERGY: 0 1.0600 2.0460 1.1307 0.0000 -10719.3934 1443.6096 0.0000 0.0000 1729.0513 -7542.4958 295.9015 -9271.5471 -7542.4958 295.9015 -63.1246 11.1246 30034.5021 -63.1246 11.1246
ENERGY: 300000 0.2762 1.9340 1.0906 0.0000 -10653.8242 1345.9119 0.0000 0.0000 1748.4914 -7556.1201 299.2283 -9304.6115 -7476.3342 299.7024 -728.4703 -632.2685 29844.7622 -221.1287 -143.2490
ENERGY: 600000 1.2928 2.2079 0.7458 0.0000 -10552.9925 1348.9882 0.0000 0.0000 1762.0568 -7437.7010 301.5498 -9199.7578 -7452.0787 298.8931 -638.4076 -638.5380 30609.5980 -37.4960 11.0146
ENERGY: 900000 0.3410 4.5913 2.1964 0.0000 -10724.0011 1461.4078 0.0000 0.0000 1776.0261 -7479.4384 303.9405 -9255.4645 -7476.2617 298.3918 236.2029 308.9058 30016.0005 -62.4509 -16.9226
ENERGY: 1200000 0.7207 0.6662 0.7662 0.0000 -10658.5950 1473.4033 0.0000 0.0000 1792.7062 -7390.3323 306.7950 -9183.0384 -7477.1376 298.4230 479.8433 538.4193 30284.5845 -23.6850 19.5263
ENERGY: 1500000 0.1571 4.4275 1.2542 0.0000 -10737.7008 1413.1045 0.0000 0.0000 1804.6219 -7514.1357 308.8342 -9318.7576 -7486.0270 298.4962 -600.2028 -530.3376 30504.9811 -72.7307 -23.5486
TCL: Running FEP window  15: Lambda1 0.7000000000000001 Lambda2 0.7500000000000001 [dLambda 0.050000000000000044]
TCL: Setting parameter firsttimestep to 0
TCL: Setting parameter alchLambda to 0.7000000000000001
Info: NONBONDED TABLE R-SQUARED SPACING: 0.0625
Info: NONBONDED TABLE SIZE: 705 POINTS
TCL: Setting parameter alchLambda2 to 0.7500000000000001
Info: NONBONDED TABLE R-SQUARED SPACING: 0.0625
Info: NONBONDED TABLE SIZE: 705 POINTS
TCL: Running for 1500000 steps
ETITLE: TS BOND ANGLE DIHED IMPRP ELECT VDW BOUNDARY MISC KINETIC TOTAL TEMP POTENTIAL TOTALAVG TEMPAVG PRESSURE GPRESSURE VOLUME PRESSAVG GPRESSAVG
ENERGY: 0 0.1570 4.4275 1.2542 0.0000 -10738.3119 1414.4500 0.0000 0.0000 1803.7820 -7514.2412 308.6905 -9318.0232 -7514.2412 308.6905 -607.2283 -512.9550 30504.9811 -607.2283 -512.9550
ENERGY: 300000 0.3021 3.2447 1.1414 0.0000 -10760.8823 1459.4108 0.0000 0.0000 1783.6016 -7513.1817 305.2369 -9296.7832 -7471.3034 305.3855 -25.1347 37.1040 30407.5277 -94.6163 -25.9347
ENERGY: 600000 0.4785 3.1775 1.0735 0.0000 -10849.9763 1511.8882 0.0000 0.0000 1761.7066 -7571.6520 301.4899 -9333.3586 -7493.0948 302.5153 434.2506 464.1395 30017.0595 -154.0014 -72.6445
ENERGY: 900000 0.2736 5.2280 0.9548 0.0000 -10728.4758 1470.6719 0.0000 0.0000 1802.5992 -7448.7483 308.4881 -9251.3474 -7496.4971 303.1332 352.5390 416.9776 30089.0409 -57.2214 12.8162
ENERGY: 1200000 0.1287 8.0152 0.8234 0.0000 -10703.6528 1403.9308 0.0000 0.0000 1746.0266 -7544.7281 298.8065 -9290.7547 -7490.2459 303.6230 -530.7072 -428.9237 30328.3928 -81.0312 -12.6269
ENERGY: 1500000 0.9762 3.3614 0.7604 0.0000 -10712.3745 1526.2363 0.0000 0.0000 1783.7352 -7397.3050 305.2598 -9181.0401 -7482.5619 303.1173 626.9202 704.4783 30751.9374 8.2913 79.2455
TCL: Running FEP window  16: Lambda1 0.7500000000000001 Lambda2 0.8000000000000002 [dLambda 0.050000000000000044]
TCL: Setting parameter firsttimestep to 0
TCL: Setting parameter alchLambda to 0.7500000000000001
Info: NONBONDED TABLE R-SQUARED SPACING: 0.0625
Info: NONBONDED TABLE SIZE: 705 POINTS
TCL: Setting parameter alchLambda2 to 0.8000000000000002
Info: NONBONDED TABLE R-SQUARED SPACING: 0.0625
Info: NONBONDED TABLE SIZE: 705 POINTS
TCL: Running for 1500000 steps
ETITLE: TS BOND ANGLE DIHED IMPRP ELECT VDW BOUNDARY MISC KINETIC TOTAL TEMP POTENTIAL TOTALAVG TEMPAVG PRESSURE GPRESSURE VOLUME PRESSAVG GPRESSAVG
ENERGY: 0 0.9762 3.3614 0.7604 0.0000 -10712.7973 1526.6331 0.0000 0.0000 1782.8801 -7398.1861 305.1134 -9181.0662 -7398.1861 305.1134 636.3154 713.8045 30751.9374 636.3154 713.8045
ENERGY: 300000 0.2241 2.6696 1.0331 0.0000 -10597.3431 1426.0611 0.0000 0.0000 1729.9626 -7437.3925 296.0574 -9167.3551 -7430.0093 302.5992 111.6835 205.8630 30427.7871 77.7779 141.1009
ENERGY: 600000 0.4508 2.4351 0.7825 0.0000 -10716.0078 1386.3206 0.0000 0.0000 1729.8444 -7596.1745 296.0372 -9326.0189 -7462.1105 300.5447 -689.5312 -538.2152 30042.0834 -43.9068 49.8881
ENERGY: 900000 0.1319 4.6683 0.8220 0.0000 -10653.1027 1399.2743 0.0000 0.0000 1726.4752 -7521.7311 295.4606 -9248.2063 -7474.0566 300.1708 -500.3238 -432.8936 30306.4173 -37.4823 51.4534
ENERGY: 1200000 0.3139 3.3374 1.0555 0.0000 -10672.5628 1438.5676 0.0000 0.0000 1772.1895 -7457.0990 303.2839 -9229.2884 -7471.3903 300.2325 176.4531 200.5294 29972.7494 -154.4116 -78.4182
ENERGY: 1500000 0.9900 5.1504 0.9041 0.0000 -10694.0775 1454.0147 0.0000 0.0000 1743.4780 -7489.5403 298.3704 -9233.0183 -7473.6980 299.6000 135.8956 202.4442 30247.8234 -195.9511 -130.3966
TCL: Running FEP window  17: Lambda1 0.8000000000000002 Lambda2 0.8500000000000002 [dLambda 0.050000000000000044]
TCL: Setting parameter firsttimestep to 0
TCL: Setting parameter alchLambda to 0.8000000000000002
Info: NONBONDED TABLE R-SQUARED SPACING: 0.0625
Info: NONBONDED TABLE SIZE: 705 POINTS
TCL: Setting parameter alchLambda2 to 0.8500000000000002
Info: NONBONDED TABLE R-SQUARED SPACING: 0.0625
Info: NONBONDED TABLE SIZE: 705 POINTS
TCL: Running for 1500000 steps
ETITLE: TS BOND ANGLE DIHED IMPRP ELECT VDW BOUNDARY MISC KINETIC TOTAL TEMP POTENTIAL TOTALAVG TEMPAVG PRESSURE GPRESSURE VOLUME PRESSAVG GPRESSAVG
ENERGY: 0 0.9900 5.1504 0.9041 0.0000 -10694.3214 1454.1455 0.0000 0.0000 1742.6057 -7490.5257 298.2211 -9233.1314 -7490.5257 298.2211 125.9883 209.7171 30247.8234 125.9883 209.7171
ENERGY: 300000 0.7965 3.2451 1.5803 0.0000 -10579.3222 1355.9119 0.0000 0.0000 1761.1031 -7456.6853 301.3866 -9217.7884 -7454.1823 302.5292 -907.4576 -809.8683 30720.3829 -258.7180 -171.0991
ENERGY: 600000 0.2487 3.7179 1.8267 0.0000 -10633.5148 1406.9111 0.0000 0.0000 1688.6983 -7532.1121 288.9956 -9220.8104 -7446.1403 301.2812 -66.0095 -6.1142 30237.0010 22.6619 94.6388
ENERGY: 900000 0.0300 1.3477 0.8019 0.0000 -10575.6557 1385.0290 0.0000 0.0000 1770.9890 -7417.4581 303.0785 -9188.4471 -7456.2839 301.0810 -429.1673 -356.9223 30599.8726 21.1665 86.2551
ENERGY: 1200000 1.5023 3.0395 0.7622 0.0000 -10675.3456 1427.1015 0.0000 0.0000 1723.5208 -7519.4193 294.9550 -9242.9402 -7476.3378 299.3693 -28.1608 15.5484 30375.8345 -4.4531 58.4082
ENERGY: 1500000 0.2861 1.2204 0.8120 0.0000 -10640.8181 1418.9647 0.0000 0.0000 1739.0767 -7480.4581 297.6171 -9219.5348 -7483.6371 299.0900 -210.6079 -153.0549 30667.6458 35.5383 98.2227
TCL: Running FEP window  18: Lambda1 0.8500000000000002 Lambda2 0.9000000000000002 [dLambda 0.050000000000000044]
TCL: Setting parameter firsttimestep to 0
TCL: Setting parameter alchLambda to 0.8500000000000002
Info: NONBONDED TABLE R-SQUARED SPACING: 0.0625
Info: NONBONDED TABLE SIZE: 705 POINTS
TCL: Setting parameter alchLambda2 to 0.9000000000000002
Info: NONBONDED TABLE R-SQUARED SPACING: 0.0625
Info: NONBONDED TABLE SIZE: 705 POINTS
TCL: Running for 1500000 steps
ETITLE: TS BOND ANGLE DIHED IMPRP ELECT VDW BOUNDARY MISC KINETIC TOTAL TEMP POTENTIAL TOTALAVG TEMPAVG PRESSURE GPRESSURE VOLUME PRESSAVG GPRESSAVG
ENERGY: 0 0.2861 1.2204 0.8120 0.0000 -10640.9613 1419.0420 0.0000 0.0000 1738.2054 -7481.3953 297.4680 -9219.6008 -7481.3953 297.4680 -218.2765 -148.2742 30667.6458 -218.2765 -148.2742
ENERGY: 300000 0.5111 3.1506 1.4861 0.0000 -10675.9332 1415.0283 0.0000 0.0000 1702.9865 -7552.7706 291.4408 -9255.7571 -7503.5157 297.7745 -242.4398 -123.2183 30026.2425 -389.4205 -314.3816
ENERGY: 600000 0.5361 3.1368 0.7729 0.0000 -10509.6799 1355.7248 0.0000 0.0000 1786.6665 -7362.8428 305.7614 -9149.5093 -7480.5778 298.9879 -318.3906 -324.7629 30553.3461 -362.8507 -293.2434
ENERGY: 900000 0.0086 2.9016 1.2713 0.0000 -10605.5276 1352.8399 0.0000 0.0000 1719.5221 -7528.9840 294.2707 -9248.5062 -7486.5522 299.0260 -869.4071 -777.2824 30518.3345 -365.9608 -306.0643
ENERGY: 1200000 0.2376 3.0284 1.2272 0.0000 -10772.8121 1495.1784 0.0000 0.0000 1783.9489 -7489.1917 305.2963 -9273.1406 -7474.7815 301.6693 504.7534 585.2368 30070.6555 -277.9231 -218.1374
ENERGY: 1500000 0.7575 1.8357 1.0166 0.0000 -10773.6089 1485.3358 0.0000 0.0000 1752.1007 -7532.5627 299.8460 -9284.6633 -7479.6662 301.6667 362.7856 397.7151 30012.7760 -209.7435 -154.2328
TCL: Running FEP window  19: Lambda1 0.9000000000000002 Lambda2 0.9500000000000003 [dLambda 0.050000000000000044]
TCL: Setting parameter firsttimestep to 0
TCL: Setting parameter alchLambda to 0.9000000000000002
Info: NONBONDED TABLE R-SQUARED SPACING: 0.0625
Info: NONBONDED TABLE SIZE: 705 POINTS
TCL: Setting parameter alchLambda2 to 0.9500000000000003
Info: NONBONDED TABLE R-SQUARED SPACING: 0.0625
Info: NONBONDED TABLE SIZE: 705 POINTS
TCL: Running for 1500000 steps
ETITLE: TS BOND ANGLE DIHED IMPRP ELECT VDW BOUNDARY MISC KINETIC TOTAL TEMP POTENTIAL TOTALAVG TEMPAVG PRESSURE GPRESSURE VOLUME PRESSAVG GPRESSAVG
ENERGY: 0 0.7575 1.8357 1.0166 0.0000 -10773.7543 1484.9781 0.0000 0.0000 1751.2383 -7533.9282 299.6984 -9285.1665 -7533.9282 299.6984 334.7443 396.7789 30012.7760 334.7443 396.7789
ENERGY: 300000 0.4938 5.7131 1.0407 0.0000 -10487.3926 1321.2620 0.0000 0.0000 1740.9125 -7417.9705 297.9313 -9158.8830 -7495.5673 297.0614 -749.7685 -592.5887 30177.5128 -284.5040 -224.0347
ENERGY: 600000 0.0205 3.2041 1.3741 0.0000 -10565.6516 1334.8867 0.0000 0.0000 1829.1355 -7397.0307 313.0294 -9226.1662 -7479.7982 300.2903 -591.0396 -557.7342 30136.7625 -131.0765 -79.3751
ENERGY: 900000 0.1472 5.3176 0.9238 0.0000 -10864.4153 1519.9479 0.0000 0.0000 1748.1346 -7589.9442 299.1673 -9338.0788 -7489.6694 299.6200 440.2017 530.6393 29989.9725 -0.8083 49.1954
ENERGY: 1200000 0.3606 7.2348 0.8463 0.0000 -10654.5082 1425.7144 0.0000 0.0000 1738.9552 -7481.3969 297.5963 -9220.3521 -7481.9814 299.8351 66.8149 120.2542 30160.3595 55.9548 106.9724
ENERGY: 1500000 0.2721 3.8008 0.7588 0.0000 -10521.1181 1343.6075 0.0000 0.0000 1772.0748 -7400.6041 303.2643 -9172.6789 -7474.3584 300.2028 -564.8644 -443.1714 30298.8998 -12.2222 49.1070
TCL: Running FEP window  20: Lambda1 0.9500000000000003 Lambda2 1.0    [dLambda 0.04999999999999971]
TCL: Setting parameter firsttimestep to 0
TCL: Setting parameter alchLambda to 0.9500000000000003
Info: NONBONDED TABLE R-SQUARED SPACING: 0.0625
Info: NONBONDED TABLE SIZE: 705 POINTS
TCL: Setting parameter alchLambda2 to 1.0
Info: NONBONDED TABLE R-SQUARED SPACING: 0.0625
Info: NONBONDED TABLE SIZE: 705 POINTS
TCL: Running for 1500000 steps
ETITLE: TS BOND ANGLE DIHED IMPRP ELECT VDW BOUNDARY MISC KINETIC TOTAL TEMP POTENTIAL TOTALAVG TEMPAVG PRESSURE GPRESSURE VOLUME PRESSAVG GPRESSAVG
ENERGY: 0 0.2721 3.8008 0.7588 0.0000 -10521.2586 1343.1584 0.0000 0.0000 1771.2072 -7402.0614 303.1158 -9173.2685 -7402.0614 303.1158 -519.7152 -441.0608 30298.8998 -519.7152 -441.0608
ENERGY: 300000 1.0126 3.4989 0.9396 0.0000 -10801.0689 1499.3570 0.0000 0.0000 1781.6342 -7514.6265 304.9002 -9296.2607 -7443.1026 304.6281 476.4973 490.3109 30031.1140 -104.4173 -71.3536
ENERGY: 600000 0.7111 5.3463 0.8599 0.0000 -10735.4748 1463.6573 0.0000 0.0000 1755.8120 -7509.0881 300.4811 -9264.9001 -7465.5955 302.6856 189.3483 191.4064 30181.9403 22.5675 52.2176
ENERGY: 900000 0.0226 1.7688 0.7931 0.0000 -10598.4697 1370.3754 0.0000 0.0000 1761.5690 -7463.9408 301.4664 -9225.5098 -7462.3631 303.0106 -650.5912 -630.1329 30820.1672 -184.4982 -145.0994
ENERGY: 1200000 0.1610 1.3037 0.7956 0.0000 -10555.1806 1391.8599 0.0000 0.0000 1752.4535 -7408.6069 299.9064 -9161.0604 -7464.9425 302.0119 -114.7591 -69.5525 30452.4084 -240.9802 -191.1992
ENERGY: 1500000 0.9181 4.8110 1.8639 0.0000 -10577.5664 1436.2545 0.0000 0.0000 1752.0703 -7381.6487 299.8408 -9133.7190 -7460.0731 301.6915 66.2276 98.5523 30551.6013 -233.0108 -183.3016
TCL: Exiting due to exit command.
