Info: SIMULATION PARAMETERS:
Info: TIMESTEP               2
Info: NUMBER OF STEPS        0
Info: STEPS PER CYCLE        10
Info: PERIODIC CELL BASIS 1  30.8003 0 0
Info: PERIODIC CELL BASIS 2  0 30.0203 0
Info: PERIODIC CELL BASIS 3  0 0 32.3065
Info: PERIODIC CELL CENTER   0 0 0
Info: WRAPPING WATERS AROUND PERIODIC BOUNDARIES ON OUTPUT.
Info: WRAPPING ALL CLUSTERS AROUND PERIODIC BOUNDARIES ON OUTPUT.
Info: FIRST LDB TIMESTEP     50
Info: LAST LDB TIMESTEP     -1
Info: HOM BACKGROUND SCALING 1
Info: PME BACKGROUND SCALING 1
Info: MIN ATOMS PER PATCH    40
Info: EMPTY PATCH LOAD       40 ATOMS
Info: VELOCITY FILE          mobley_8764620_equil.vel
Info: CENTER OF MASS MOVING INITIALLY? NO
Info: DIELECTRIC             1
Info: EXCLUDE                SCALED ONE-FOUR
Info: 1-4 ELECTROSTATICS SCALED BY 0.833333
Info: MODIFIED 1-4 VDW PARAMETERS WILL BE USED
Info: DCD FILENAME           mobley_8764620_prod.dcd
Info: DCD FREQUENCY          100000
Info: DCD FIRST STEP         100000
Info: DCD FILE WILL CONTAIN UNIT CELL DATA
Info: XST FILENAME           mobley_8764620_prod.xst
Info: XST FREQUENCY          100000
Info: NO VELOCITY DCD OUTPUT
Info: NO FORCE DCD OUTPUT
Info: OUTPUT FILENAME        mobley_8764620_prod
Info: BINARY OUTPUT FILES WILL BE USED
Info: RESTART FILENAME       mobley_8764620_prod.restart
Info: RESTART FREQUENCY      100000
Info: BINARY RESTART FILES WILL BE USED
Info: CUTOFF                 9
Info: PAIRLIST DISTANCE      11
Info: PAIRLIST SHRINK RATE   0.01
Info: PAIRLIST GROW RATE     0.01
Info: PAIRLIST TRIGGER       0.3
Info: PAIRLISTS PER CYCLE    2
Info: PAIRLISTS ENABLED
Info: MARGIN                 2
Info: HYDROGEN GROUP CUTOFF  2.5
Info: PATCH DIMENSION        15.5
Info: ENERGY OUTPUT STEPS    100000
Info: ENERGY EVALUATION STEPS    100000
Info: OUTPUT ENERGY PRECISION 4
Info: CROSSTERM ENERGY INCLUDED IN DIHEDRAL
Info: TIMING OUTPUT STEPS    1000000
Info: PRESSURE OUTPUT STEPS  100000
Info: ALCHEMICAL FEP ON
Info: FEP CURRENT LAMBDA VALUE     0
Info: FEP COMPARISON LAMBDA VALUE  0.05
Info: FEP INTRA-ALCHEMICAL NON-BONDED INTERACTIONS WILL BE RETAINED
Info: FEP INTRA-ALCHEMICAL BONDED INTERACTIONS WILL BE RETAINED
Info: FEP VDW SHIFTING COEFFICIENT 5
Info: FEP ELEC. ACTIVE FOR ANNIHILATED PARTICLES BETWEEN LAMBDA = 0 AND LAMBDA = 0.5
Info: FEP ELEC. ACTIVE FOR EXNIHILATED PARTICLES BETWEEN LAMBDA = 0.5 AND LAMBDA = 1
Info: FEP VDW ACTIVE FOR ANNIHILATED PARTICLES BETWEEN LAMBDA = 0 AND LAMBDA = 1
Info: FEP VDW ACTIVE FOR EXNIHILATED PARTICLES BETWEEN LAMBDA = 0 AND LAMBDA = 1
Info: FEP BOND ACTIVE FOR ANNIHILATED PARTICLES BETWEEN LAMBDA = 1 AND LAMBDA = 1
Info: FEP BOND ACTIVE FOR EXNIHILATED PARTICLES BETWEEN LAMBDA = 0 AND LAMBDA = 0
Info: LANGEVIN DYNAMICS ACTIVE
Info: LANGEVIN TEMPERATURE   300
Info: LANGEVIN USING BBK INTEGRATOR
Info: LANGEVIN DAMPING COEFFICIENT IS 1 INVERSE PS
Info: LANGEVIN DYNAMICS APPLIED TO HYDROGENS
Info: LANGEVIN PISTON PRESSURE CONTROL ACTIVE
Info:        TARGET PRESSURE IS 1.01325 BAR
Info:     OSCILLATION PERIOD IS 50 FS
Info:             DECAY TIME IS 25 FS
Info:     PISTON TEMPERATURE IS 300 K
Info:       PRESSURE CONTROL IS GROUP-BASED
Info:    INITIAL STRAIN RATE IS -0.000421018 -0.000421018 -0.000421018
Info:       CELL FLUCTUATION IS ISOTROPIC
Info: PARTICLE MESH EWALD (PME) ACTIVE
Info: PME TOLERANCE               1e-06
Info: PME EWALD COEFFICIENT       0.348832
Info: PME INTERPOLATION ORDER     4
Info: PME GRID DIMENSIONS         32 32 36
Info: PME MAXIMUM GRID SPACING    1
Info: PME CALCULATION WILL BE PERFORMED ON GPU
Info: FULL ELECTROSTATIC EVALUATION FREQUENCY      2
Info: USING VERLET I (r-RESPA) MTS SCHEME.
Info: C1 SPLITTING OF LONG RANGE ELECTROSTATICS
Info: PLACING ATOMS IN PATCHES BY HYDROGEN GROUPS
Info: RIGID BONDS TO HYDROGEN : ALL
Info:         ERROR TOLERANCE : 1e-08
Info:          MAX ITERATIONS : 100
Info: RIGID WATER USING SETTLE ALGORITHM
Info: RANDOM NUMBER SEED     1743541700
Info: USE HYDROGEN BONDS?    NO
Info: Using AMBER format force field!
Info: AMBER PARM FILE        mobley_8764620.prmtop
Info: COORDINATE PDB         mobley_8764620.pdb
Info: Exclusions will be read from PARM file!
Info: SCNB (VDW SCALING)     2
Info: USING ARITHMETIC MEAN TO COMBINE L-J SIGMA PARAMETERS
Info: BINARY COORDINATES     mobley_8764620_equil.coor
Info: SUMMARY OF PARAMETERS:
Info: 8 BONDS
Info: 8 ANGLES
Info:   8 HARMONIC
Info:   0 COSINE-BASED
Info: 4 DIHEDRAL
Info: 0 IMPROPER
Info: 0 CROSSTERM
Info: 0 VDW
Info: 28 VDW_PAIRS
Info: 0 NBTHOLE_PAIRS
Info: To read alchdata from file: mobley_8764620.pdb
Info: To read alchflag data from column: 5
Info: STRUCTURE SUMMARY:
Info: 2931 ATOMS
Info: 2931 BONDS
Info: 17 ANGLES
Info: 27 DIHEDRALS
Info: 0 IMPROPERS
Info: 0 CROSSTERMS
Info: 2967 EXCLUSIONS
Info: 2923 RIGID BONDS
Info: ALCH: 0 ATOMS TO DISAPPEAR IN FINAL STATE
Info: ALCH: 12 ATOMS TO APPEAR IN FINAL STATE
Info: 5870 DEGREES OF FREEDOM
Info: 981 HYDROGEN GROUPS
Info: 3 ATOMS IN LARGEST HYDROGEN GROUP
Info: 981 MIGRATION GROUPS
Info: 3 ATOMS IN LARGEST MIGRATION GROUP
Info: TOTAL MASS = 17633.7 amu
Info: TOTAL CHARGE = 9.99831e-05 e
Info: MASS DENSITY = 0.980264 g/cm^3
Info: ATOM DENSITY = 0.0981198 atoms/A^3
Info: ADDED 0 IMPLICIT EXCLUSIONS
Info: NONBONDED TABLE R-SQUARED SPACING: 0.0625
Info: NONBONDED TABLE SIZE: 705 POINTS
Info: REMOVING COM VELOCITY -0.0334059 0.0204662 0.11488
Info: Use 3D box decompostion in PME FFT.
Info: Updated CUDA force table with 4096 elements.
Info: Updated CUDA LJ table with 7 x 7 elements.
Info: Found 15 unique exclusion lists needing 28 bytes
TCL: Running for 1500000 steps
ETITLE: TS BOND ANGLE DIHED IMPRP ELECT VDW BOUNDARY MISC KINETIC TOTAL TEMP POTENTIAL TOTALAVG TEMPAVG PRESSURE GPRESSURE VOLUME PRESSAVG GPRESSAVG
ENERGY: 0 5.0636 5.8816 2.3112 0.0000 -10749.9742 1539.3037 0.0000 0.0000 1749.1084 -7448.3056 299.8949 -9197.4140 -7448.3056 299.8949 1054.5632 1137.8394 29871.6432 1054.5632 1137.8394
ENERGY: 300000 1.2784 4.5077 2.7553 0.0000 -10500.8332 1410.4668 0.0000 0.0000 1741.3097 -7340.5153 298.5577 -9081.8251 -7389.1596 301.7998 82.1493 127.6996 30157.2291 418.0156 475.4803
ENERGY: 600000 6.2667 2.5972 1.3157 0.0000 -10629.1172 1415.4202 0.0000 0.0000 1715.4498 -7488.0676 294.1239 -9203.5174 -7419.0578 300.0361 -447.1525 -384.1084 30527.3674 159.9831 217.8214
ENERGY: 900000 2.0094 2.4037 2.4346 0.0000 -10666.1745 1428.3054 0.0000 0.0000 1765.0717 -7465.9497 302.6318 -9231.0213 -7443.3261 299.8493 -152.3608 -101.9403 30060.7266 153.3648 210.6399
ENERGY: 1200000 4.9619 1.8614 3.2960 0.0000 -10605.8108 1409.2432 0.0000 0.0000 1666.9385 -7519.5099 285.8063 -9186.4484 -7442.8549 298.9721 -644.4178 -632.4410 30574.0118 -49.2027 -0.1247
ENERGY: 1500000 6.5154 6.3745 3.3696 0.0000 -10615.7145 1391.0735 0.0000 0.0000 1766.5301 -7441.8514 302.8819 -9208.3815 -7446.2444 299.3216 -513.0111 -410.9537 30093.8695 -135.2194 -77.2598
TCL: Running FEP window   2: Lambda1 0.05   Lambda2 0.1    [dLambda 0.05  ]
TCL: Setting parameter firsttimestep to 0
TCL: Setting parameter alchLambda to 0.05
Info: NONBONDED TABLE R-SQUARED SPACING: 0.0625
Info: NONBONDED TABLE SIZE: 705 POINTS
TCL: Setting parameter alchLambda2 to 0.1
Info: NONBONDED TABLE R-SQUARED SPACING: 0.0625
Info: NONBONDED TABLE SIZE: 705 POINTS
TCL: Running for 1500000 steps
ETITLE: TS BOND ANGLE DIHED IMPRP ELECT VDW BOUNDARY MISC KINETIC TOTAL TEMP POTENTIAL TOTALAVG TEMPAVG PRESSURE GPRESSURE VOLUME PRESSAVG GPRESSAVG
ENERGY: 0 6.5155 6.3745 3.3696 0.0000 -10615.7144 1395.0152 0.0000 0.0000 1765.6682 -7438.7715 302.7341 -9204.4396 -7438.7715 302.7341 -495.2289 -402.1379 30093.8695 -495.2289 -402.1379
ENERGY: 300000 1.7588 4.5810 1.1844 0.0000 -10703.2451 1454.5911 0.0000 0.0000 1733.3048 -7507.8249 297.1852 -9241.1297 -7478.6100 299.2216 -33.4523 18.0256 30079.8563 -64.2183 -10.9861
ENERGY: 600000 1.8509 3.1639 4.7213 0.0000 -10646.3828 1365.5343 0.0000 0.0000 1739.1192 -7531.9933 298.1821 -9271.1125 -7489.9310 299.2772 -917.6944 -867.6846 30055.5348 -249.1934 -193.2643
ENERGY: 900000 2.4459 8.0869 1.4877 0.0000 -10681.6135 1390.5216 0.0000 0.0000 1780.2792 -7498.7922 305.2393 -9279.0714 -7475.7136 300.2365 -591.6354 -530.6143 30465.0354 -194.9548 -134.2245
ENERGY: 1200000 2.1713 2.5083 4.3533 0.0000 -10639.4197 1447.9071 0.0000 0.0000 1722.6296 -7459.8501 295.3549 -9182.4797 -7471.3026 299.7239 -148.8166 -109.6989 30652.3242 -110.4874 -54.1237
ENERGY: 1500000 3.9658 3.3242 2.5781 0.0000 -10799.5898 1560.6641 0.0000 0.0000 1788.9087 -7440.1490 306.7188 -9229.0577 -7461.7086 300.6834 1015.4478 1009.6208 29869.8289 -23.2503 29.2950
TCL: Running FEP window   3: Lambda1 0.1    Lambda2 0.15000000000000002 [dLambda 0.05000000000000002]
TCL: Setting parameter firsttimestep to 0
TCL: Setting parameter alchLambda to 0.1
Info: NONBONDED TABLE R-SQUARED SPACING: 0.0625
Info: NONBONDED TABLE SIZE: 705 POINTS
TCL: Setting parameter alchLambda2 to 0.15000000000000002
Info: NONBONDED TABLE R-SQUARED SPACING: 0.0625
Info: NONBONDED TABLE SIZE: 705 POINTS
TCL: Running for 1500000 steps
ETITLE: TS BOND ANGLE DIHED IMPRP ELECT VDW BOUNDARY MISC KINETIC TOTAL TEMP POTENTIAL TOTALAVG TEMPAVG PRESSURE GPRESSURE VOLUME PRESSAVG GPRESSAVG
ENERGY: 0 3.9658 3.3242 2.5781 0.0000 -10799.5915 1564.0060 0.0000 0.0000 1788.0375 -7437.6798 306.5695 -9225.7174 -7437.6798 306.5695 936.4692 1020.3730 29869.8289 936.4692 1020.3730
ENERGY: 300000 1.7480 6.2538 3.2417 0.0000 -10716.1827 1449.0226 0.0000 0.0000 1824.3363 -7431.5802 312.7931 -9255.9165 -7428.3484 307.1335 29.3433 129.7898 30064.7207 221.0855 318.5321
ENERGY: 600000 3.7056 5.5111 2.2897 0.0000 -10690.5489 1461.8476 0.0000 0.0000 1683.7888 -7533.4061 288.6954 -9217.1949 -7460.4273 301.9110 -214.0267 -155.5003 30707.9780 31.9221 106.6850
ENERGY: 900000 1.1141 3.4945 2.5690 0.0000 -10635.8588 1434.9154 0.0000 0.0000 1749.8995 -7443.8662 300.0305 -9193.7658 -7465.1645 300.5507 71.8070 94.2975 30048.3753 -133.5387 -64.4266
ENERGY: 1200000 5.2514 1.9047 1.4769 0.0000 -10581.7977 1345.4039 0.0000 0.0000 1715.0338 -7512.7269 294.0526 -9227.7607 -7453.5232 300.4306 -853.8991 -844.1007 29987.9255 -257.7264 -190.0758
ENERGY: 1500000 1.4907 3.7038 6.4771 0.0000 -10559.3567 1424.7334 0.0000 0.0000 1760.1494 -7362.8022 301.7879 -9122.9516 -7441.1017 300.6908 25.1377 27.4470 30491.9297 -257.8834 -193.4585
TCL: Running FEP window   4: Lambda1 0.15000000000000002 Lambda2 0.2    [dLambda 0.04999999999999999]
TCL: Setting parameter firsttimestep to 0
TCL: Setting parameter alchLambda to 0.15000000000000002
Info: NONBONDED TABLE R-SQUARED SPACING: 0.0625
Info: NONBONDED TABLE SIZE: 705 POINTS
TCL: Setting parameter alchLambda2 to 0.2
Info: NONBONDED TABLE R-SQUARED SPACING: 0.0625
Info: NONBONDED TABLE SIZE: 705 POINTS
TCL: Running for 1500000 steps
ETITLE: TS BOND ANGLE DIHED IMPRP ELECT VDW BOUNDARY MISC KINETIC TOTAL TEMP POTENTIAL TOTALAVG TEMPAVG PRESSURE GPRESSURE VOLUME PRESSAVG GPRESSAVG
ENERGY: 0 1.4907 3.7038 6.4771 0.0000 -10559.3560 1425.6365 0.0000 0.0000 1759.2790 -7362.7690 301.6387 -9122.0479 -7362.7690 301.6387 -56.5040 30.5974 30491.9297 -56.5040 30.5974
ENERGY: 300000 5.1068 1.8644 3.3527 0.0000 -10631.8126 1421.7368 0.0000 0.0000 1731.5101 -7468.2419 296.8775 -9199.7520 -7440.6705 299.8119 -450.7551 -322.5526 30028.1866 110.9220 194.9865
ENERGY: 600000 1.3271 3.4523 4.7053 0.0000 -10698.7936 1410.9105 0.0000 0.0000 1711.7820 -7566.6164 293.4950 -9278.3984 -7469.8405 299.3329 -361.1379 -268.9052 29691.8935 50.4723 123.7549
ENERGY: 900000 0.6947 3.3211 3.9845 0.0000 -10633.3056 1418.9131 0.0000 0.0000 1729.2679 -7477.1242 296.4931 -9206.3922 -7446.9224 301.2503 -189.5590 -94.4840 29957.6114 54.4650 126.5653
ENERGY: 1200000 2.5130 4.3882 1.9186 0.0000 -10707.5962 1448.6908 0.0000 0.0000 1795.9593 -7454.1264 307.9277 -9250.0857 -7452.5650 301.3949 51.6853 99.6934 29783.6919 62.9028 129.2114
ENERGY: 1500000 1.4152 2.2929 3.6014 0.0000 -10682.3838 1497.5934 0.0000 0.0000 1735.3751 -7442.1058 297.5402 -9177.4810 -7452.5562 300.9897 739.1148 749.7810 29704.7161 99.3578 159.5393
TCL: Running FEP window   5: Lambda1 0.2    Lambda2 0.25   [dLambda 0.04999999999999999]
TCL: Setting parameter firsttimestep to 0
TCL: Setting parameter alchLambda to 0.2
Info: NONBONDED TABLE R-SQUARED SPACING: 0.0625
Info: NONBONDED TABLE SIZE: 705 POINTS
TCL: Setting parameter alchLambda2 to 0.25
Info: NONBONDED TABLE R-SQUARED SPACING: 0.0625
Info: NONBONDED TABLE SIZE: 705 POINTS
TCL: Running for 1500000 steps
ETITLE: TS BOND ANGLE DIHED IMPRP ELECT VDW BOUNDARY MISC KINETIC TOTAL TEMP POTENTIAL TOTALAVG TEMPAVG PRESSURE GPRESSURE VOLUME PRESSAVG GPRESSAVG
ENERGY: 0 1.4152 2.2929 3.6014 0.0000 -10682.3854 1499.6513 0.0000 0.0000 1734.5021 -7440.9225 297.3905 -9175.4246 -7440.9225 297.3905 674.2176 761.7854 29704.7161 674.2176 761.7854
ENERGY: 300000 2.3914 1.7093 4.5688 0.0000 -10644.3423 1502.9818 0.0000 0.0000 1773.8948 -7358.7962 304.1446 -9132.6910 -7426.6874 300.8750 555.5210 698.8923 30289.7941 145.6851 245.5107
ENERGY: 600000 1.7207 1.5846 2.1995 0.0000 -10659.2089 1470.8125 0.0000 0.0000 1757.2693 -7425.6223 301.2941 -9182.8916 -7436.4427 300.1786 321.1789 387.3535 30249.4085 126.3542 210.2360
ENERGY: 900000 3.2643 4.7088 3.3453 0.0000 -10663.0877 1432.5183 0.0000 0.0000 1728.4822 -7490.7688 296.3584 -9219.2510 -7442.5594 299.9061 -474.3260 -393.7908 30645.0355 -43.0596 40.6673
ENERGY: 1200000 3.2102 3.0997 2.0476 0.0000 -10596.9077 1344.9297 0.0000 0.0000 1770.2984 -7473.3222 303.5280 -9243.6206 -7438.5095 300.6628 -885.1084 -855.1610 30441.2374 -127.6239 -48.2291
ENERGY: 1500000 3.4984 2.9669 3.6894 0.0000 -10625.3554 1438.3616 0.0000 0.0000 1719.5051 -7457.3339 294.8192 -9176.8390 -7436.7203 300.4607 81.1992 150.2241 29875.0668 -108.5914 -29.1777
TCL: Running FEP window   6: Lambda1 0.25   Lambda2 0.3    [dLambda 0.04999999999999999]
TCL: Setting parameter firsttimestep to 0
TCL: Setting parameter alchLambda to 0.25
Info: NONBONDED TABLE R-SQUARED SPACING: 0.0625
Info: NONBONDED TABLE SIZE: 705 POINTS
TCL: Setting parameter alchLambda2 to 0.3
Info: NONBONDED TABLE R-SQUARED SPACING: 0.0625
Info: NONBONDED TABLE SIZE: 705 POINTS
TCL: Running for 1500000 steps
ETITLE: TS BOND ANGLE DIHED IMPRP ELECT VDW BOUNDARY MISC KINETIC TOTAL TEMP POTENTIAL TOTALAVG TEMPAVG PRESSURE GPRESSURE VOLUME PRESSAVG GPRESSAVG
ENERGY: 0 3.4984 2.9669 3.6894 0.0000 -10625.3550 1439.3054 0.0000 0.0000 1718.6329 -7457.2620 294.6697 -9175.8949 -7457.2620 294.6697 76.4352 158.7104 29875.0668 76.4352 158.7104
ENERGY: 300000 4.4699 5.9464 1.3161 0.0000 -10522.7187 1346.4840 0.0000 0.0000 1779.5387 -7384.9636 305.1123 -9164.5023 -7475.8791 299.0206 -725.3019 -738.1739 30787.8910 66.5015 97.4820
ENERGY: 600000 3.3083 4.9156 2.0904 0.0000 -10626.0255 1396.1026 0.0000 0.0000 1754.2763 -7465.3321 300.7809 -9219.6085 -7469.6072 298.0366 -186.8543 -122.3117 29720.7810 -64.7154 -8.3100
ENERGY: 900000 1.4266 5.4664 1.4598 0.0000 -10765.0475 1464.4887 0.0000 0.0000 1747.9363 -7544.2698 299.6939 -9292.2061 -7478.4968 298.5648 77.5534 107.5285 29822.3595 5.2520 51.0022
ENERGY: 1200000 4.5052 2.2766 1.6780 0.0000 -10510.5127 1404.8050 0.0000 0.0000 1760.8568 -7336.3909 301.9092 -9097.2478 -7460.8094 299.2940 216.5410 252.5349 30091.0876 50.9847 95.9601
ENERGY: 1500000 2.5951 2.5249 1.7219 0.0000 -10700.3951 1501.2834 0.0000 0.0000 1783.7418 -7408.5279 305.8329 -9192.2697 -7460.7531 299.9986 779.8027 821.8825 29852.6616 151.1002 196.4952
TCL: Running FEP window   7: Lambda1 0.3    Lambda2 0.35   [dLambda 0.04999999999999999]
TCL: Setting parameter firsttimestep to 0
TCL: Setting parameter alchLambda to 0.3
Info: NONBONDED TABLE R-SQUARED SPACING: 0.0625
Info: NONBONDED TABLE SIZE: 705 POINTS
TCL: Setting parameter alchLambda2 to 0.35
Info: NONBONDED TABLE R-SQUARED SPACING: 0.0625
Info: NONBONDED TABLE SIZE: 705 POINTS
TCL: Running for 1500000 steps
ETITLE: TS BOND ANGLE DIHED IMPRP ELECT VDW BOUNDARY MISC KINETIC TOTAL TEMP POTENTIAL TOTALAVG TEMPAVG PRESSURE GPRESSURE VOLUME PRESSAVG GPRESSAVG
ENERGY: 0 2.5951 2.5249 1.7219 0.0000 -10700.3949 1500.9156 0.0000 0.0000 1782.8841 -7409.7532 305.6859 -9192.6373 -7409.7532 305.6859 749.5020 822.0304 29852.6616 749.5020 822.0304
ENERGY: 300000 1.5294 0.6599 3.3704 0.0000 -10644.6144 1427.9049 0.0000 0.0000 1781.8559 -7429.2939 305.5096 -9211.1498 -7432.1882 302.8951 54.5289 112.4253 30216.8998 223.8526 297.7000
ENERGY: 600000 1.2568 1.7193 2.7404 0.0000 -10788.3211 1529.2622 0.0000 0.0000 1751.2424 -7502.1000 300.2607 -9253.3424 -7433.3939 303.9355 572.3618 694.3907 29940.2594 207.7361 285.6627
ENERGY: 900000 2.2017 6.2791 1.2544 0.0000 -10503.7311 1339.4329 0.0000 0.0000 1754.4370 -7400.1260 300.8085 -9154.5630 -7437.2894 303.3743 -594.6746 -538.3441 30073.7411 128.9395 195.0256
ENERGY: 1200000 3.6514 0.8685 2.3498 0.0000 -10720.6746 1422.2310 0.0000 0.0000 1737.0408 -7554.5331 297.8258 -9291.5739 -7448.4166 303.1080 -289.9151 -214.6249 29766.7377 116.5771 179.3406
ENERGY: 1500000 2.9783 1.8029 1.1192 0.0000 -10763.9029 1453.2723 0.0000 0.0000 1747.7196 -7557.0106 299.6567 -9304.7303 -7448.3723 303.1920 160.8749 234.1061 29856.6207 14.2850 84.6480
TCL: Running FEP window   8: Lambda1 0.35   Lambda2 0.39999999999999997 [dLambda 0.04999999999999999]
TCL: Setting parameter firsttimestep to 0
TCL: Setting parameter alchLambda to 0.35
Info: NONBONDED TABLE R-SQUARED SPACING: 0.0625
Info: NONBONDED TABLE SIZE: 705 POINTS
TCL: Setting parameter alchLambda2 to 0.39999999999999997
Info: NONBONDED TABLE R-SQUARED SPACING: 0.0625
Info: NONBONDED TABLE SIZE: 705 POINTS
TCL: Running for 1500000 steps
ETITLE: TS BOND ANGLE DIHED IMPRP ELECT VDW BOUNDARY MISC KINETIC TOTAL TEMP POTENTIAL TOTALAVG TEMPAVG PRESSURE GPRESSURE VOLUME PRESSAVG GPRESSAVG
ENERGY: 0 2.9783 1.8029 1.1192 0.0000 -10763.9011 1454.0793 0.0000 0.0000 1746.8330 -7557.0885 299.5047 -9303.9215 -7557.0885 299.5047 155.9982 245.9220 29856.6207 155.9982 245.9220
ENERGY: 300000 4.9200 3.9322 3.1477 0.0000 -10727.8666 1475.2851 0.0000 0.0000 1736.1746 -7504.4070 297.6773 -9240.5816 -7504.6467 298.1445 36.9059 98.8594 29895.9924 -30.0423 42.1148
ENERGY: 600000 2.3785 3.3211 2.5851 0.0000 -10573.7967 1415.4690 0.0000 0.0000 1760.3009 -7389.7421 301.8139 -9150.0430 -7488.4828 297.2867 -59.1959 -19.5546 30003.2909 22.7172 95.2419
ENERGY: 900000 1.7839 2.6478 2.0477 0.0000 -10740.0753 1476.7923 0.0000 0.0000 1757.9394 -7498.8641 301.4090 -9256.8035 -7489.3401 298.0185 356.3764 387.1912 30015.8980 20.8507 87.3833
ENERGY: 1200000 2.2670 2.7316 2.9097 0.0000 -10780.0220 1538.2224 0.0000 0.0000 1737.0652 -7496.8262 297.8300 -9233.8914 -7490.0907 297.2681 729.2597 798.1217 30103.3824 99.1331 163.3988
ENERGY: 1500000 6.0860 1.5908 1.1277 0.0000 -10693.4895 1520.7020 0.0000 0.0000 1784.1107 -7379.8723 305.8962 -9163.9831 -7477.9803 297.8507 806.0510 872.2034 30238.4724 102.2031 167.6674
TCL: Running FEP window   9: Lambda1 0.39999999999999997 Lambda2 0.44999999999999996 [dLambda 0.04999999999999999]
TCL: Setting parameter firsttimestep to 0
TCL: Setting parameter alchLambda to 0.39999999999999997
Info: NONBONDED TABLE R-SQUARED SPACING: 0.0625
Info: NONBONDED TABLE SIZE: 705 POINTS
TCL: Setting parameter alchLambda2 to 0.44999999999999996
Info: NONBONDED TABLE R-SQUARED SPACING: 0.0625
Info: NONBONDED TABLE SIZE: 705 POINTS
TCL: Running for 1500000 steps
ETITLE: TS BOND ANGLE DIHED IMPRP ELECT VDW BOUNDARY MISC KINETIC TOTAL TEMP POTENTIAL TOTALAVG TEMPAVG PRESSURE GPRESSURE VOLUME PRESSAVG GPRESSAVG
ENERGY: 0 6.0860 1.5908 1.1277 0.0000 -10693.4905 1520.5344 0.0000 0.0000 1783.2191 -7380.9325 305.7433 -9164.1516 -7380.9325 305.7433 810.0515 877.4563 30238.4724 810.0515 877.4563
ENERGY: 300000 5.3098 3.5033 2.6926 0.0000 -10638.3542 1403.2218 0.0000 0.0000 1740.0288 -7483.5979 298.3381 -9223.6267 -7437.6809 301.4841 -179.0455 -138.9755 30213.6188 305.0658 360.1633
ENERGY: 600000 3.0077 3.0848 0.4323 0.0000 -10670.1171 1467.2826 0.0000 0.0000 1793.7762 -7402.5335 307.5534 -9196.3097 -7437.9275 301.9709 249.4237 341.4240 29956.5992 114.2161 173.7032
ENERGY: 900000 3.1804 4.0926 4.7618 0.0000 -10559.5965 1361.0812 0.0000 0.0000 1716.4892 -7469.9914 294.3021 -9186.4806 -7437.8828 301.1296 -616.3263 -595.3777 30182.3227 46.1083 99.5245
ENERGY: 1200000 1.1748 3.1041 3.7625 0.0000 -10604.5441 1424.8226 0.0000 0.0000 1812.3894 -7359.2907 310.7447 -9171.6801 -7434.7754 301.3907 -209.0736 -130.4978 30598.7177 4.2205 63.3042
ENERGY: 1500000 3.1802 0.9368 1.2982 0.0000 -10692.3513 1463.5411 0.0000 0.0000 1756.9367 -7466.4582 301.2371 -9223.3949 -7441.1355 300.2411 61.0935 155.1637 30441.8989 17.0475 78.8040
TCL: Running FEP window  10: Lambda1 0.44999999999999996 Lambda2 0.49999999999999994 [dLambda 0.04999999999999999]
TCL: Setting parameter firsttimestep to 0
TCL: Setting parameter alchLambda to 0.44999999999999996
Info: NONBONDED TABLE R-SQUARED SPACING: 0.0625
Info: NONBONDED TABLE SIZE: 705 POINTS
TCL: Setting parameter alchLambda2 to 0.49999999999999994
Info: NONBONDED TABLE R-SQUARED SPACING: 0.0625
Info: NONBONDED TABLE SIZE: 705 POINTS
TCL: Running for 1500000 steps
ETITLE: TS BOND ANGLE DIHED IMPRP ELECT VDW BOUNDARY MISC KINETIC TOTAL TEMP POTENTIAL TOTALAVG TEMPAVG PRESSURE GPRESSURE VOLUME PRESSAVG GPRESSAVG
ENERGY: 0 3.1802 0.9368 1.2982 0.0000 -10692.3507 1463.2960 0.0000 0.0000 1756.0902 -7467.5493 301.0919 -9223.6395 -7467.5493 301.0919 93.6375 160.8819 30441.8989 93.6375 160.8819
ENERGY: 300000 4.8819 6.4984 0.8412 0.0000 -10652.1851 1445.1412 0.0000 0.0000 1733.7220 -7461.1003 297.2568 -9194.8223 -7415.5173 303.2938 -208.5954 -207.6391 30763.9007 -83.5798 -41.4327
ENERGY: 600000 0.4781 3.5365 2.2335 0.0000 -10523.0779 1342.0206 0.0000 0.0000 1738.1661 -7436.6430 298.0187 -9174.8091 -7430.7919 301.4546 -723.1260 -640.9207 30328.2410 -121.4968 -77.7060
ENERGY: 900000 0.4532 1.7939 1.2614 0.0000 -10691.4035 1466.6287 0.0000 0.0000 1674.5110 -7546.7554 287.1047 -9221.2663 -7446.0152 299.6727 180.5104 329.3501 29776.4241 -157.2326 -96.7224
ENERGY: 1200000 3.1557 3.5537 1.1327 0.0000 -10715.7030 1446.6501 0.0000 0.0000 1679.3910 -7581.8198 287.9414 -9261.2108 -7458.6096 298.4420 -359.9208 -208.4077 30240.0958 -202.1434 -139.6726
ENERGY: 1500000 6.1846 3.0197 2.4825 0.0000 -10701.3989 1516.5162 0.0000 0.0000 1735.3616 -7437.8342 297.5379 -9173.1958 -7458.2699 298.2191 890.9815 923.9980 29708.2867 -69.0727 -11.0144
TCL: Running FEP window  11: Lambda1 0.49999999999999994 Lambda2 0.5499999999999999 [dLambda 0.04999999999999999]
TCL: Setting parameter firsttimestep to 0
TCL: Setting parameter alchLambda to 0.49999999999999994
Info: NONBONDED TABLE R-SQUARED SPACING: 0.0625
Info: NONBONDED TABLE SIZE: 705 POINTS
TCL: Setting parameter alchLambda2 to 0.5499999999999999
Info: NONBONDED TABLE R-SQUARED SPACING: 0.0625
Info: NONBONDED TABLE SIZE: 705 POINTS
TCL: Running for 1500000 steps
ETITLE: TS BOND ANGLE DIHED IMPRP ELECT VDW BOUNDARY MISC KINETIC TOTAL TEMP POTENTIAL TOTALAVG TEMPAVG PRESSURE GPRESSURE VOLUME PRESSAVG GPRESSAVG
ENERGY: 0 6.1846 3.0197 2.4825 0.0000 -10701.3988 1516.5453 0.0000 0.0000 1734.5280 -7438.6386 297.3950 -9173.1666 -7438.6386 297.3950 839.8168 929.8368 29708.2867 839.8168 929.8368
ENERGY: 300000 1.5008 1.7296 3.2186 0.0000 -10581.6998 1429.5897 0.0000 0.0000 1743.4001 -7402.2609 298.9161 -9145.6610 -7429.6197 299.1382 142.7017 173.6125 30145.5241 88.5494 153.0154
ENERGY: 600000 0.6848 2.3982 0.9682 0.0000 -10671.5807 1412.4807 0.0000 0.0000 1790.2596 -7464.7891 306.9505 -9255.0486 -7442.8478 301.6468 -114.5629 -93.9603 30107.3948 106.0322 157.6533
ENERGY: 900000 3.7176 4.7085 1.4600 0.0000 -10546.9570 1414.7540 0.0000 0.0000 1738.6403 -7383.6766 298.1000 -9122.3170 -7434.4228 301.0860 -194.6048 -175.1921 30875.8238 162.0385 214.0586
ENERGY: 1200000 4.8766 3.9586 3.5367 0.0000 -10724.4520 1527.9275 0.0000 0.0000 1778.0369 -7406.1156 304.8548 -9184.1526 -7440.7252 301.0716 671.2552 740.7378 30155.3840 106.2960 165.7791
ENERGY: 1500000 3.6137 3.5599 1.1288 0.0000 -10638.6616 1442.8221 0.0000 0.0000 1746.8162 -7440.7209 299.5018 -9187.5371 -7427.0160 302.1466 17.1608 43.5198 30362.8796 98.2827 161.3492
TCL: Running FEP window  12: Lambda1 0.5499999999999999 Lambda2 0.6    [dLambda 0.050000000000000044]
TCL: Setting parameter firsttimestep to 0
TCL: Setting parameter alchLambda to 0.5499999999999999
Info: NONBONDED TABLE R-SQUARED SPACING: 0.0625
Info: NONBONDED TABLE SIZE: 705 POINTS
TCL: Setting parameter alchLambda2 to 0.6
Info: NONBONDED TABLE R-SQUARED SPACING: 0.0625
Info: NONBONDED TABLE SIZE: 705 POINTS
TCL: Running for 1500000 steps
ETITLE: TS BOND ANGLE DIHED IMPRP ELECT VDW BOUNDARY MISC KINETIC TOTAL TEMP POTENTIAL TOTALAVG TEMPAVG PRESSURE GPRESSURE VOLUME PRESSAVG GPRESSAVG
ENERGY: 0 3.6137 3.5599 1.1288 0.0000 -10638.9800 1443.0152 0.0000 0.0000 1745.9667 -7441.6957 299.3562 -9187.6624 -7441.6957 299.3562 -19.6818 51.6185 30362.8796 -19.6818 51.6185
ENERGY: 300000 4.2403 1.5930 1.7644 0.0000 -10710.1596 1449.8706 0.0000 0.0000 1733.6322 -7519.0592 297.2414 -9252.6914 -7445.7060 301.5281 -255.7757 -265.5381 30489.2117 -325.1894 -272.4835
ENERGY: 600000 4.0360 1.5673 1.4083 0.0000 -10603.7277 1376.0337 0.0000 0.0000 1795.8984 -7424.7840 307.9173 -9220.6824 -7454.9929 301.2771 -488.7955 -336.4217 30124.9679 -191.1529 -128.5249
ENERGY: 900000 4.8995 3.6504 3.0005 0.0000 -10548.5033 1355.1107 0.0000 0.0000 1733.0568 -7448.7853 297.1427 -9181.8421 -7465.0396 299.3956 -785.5205 -725.7707 30651.4054 -120.9504 -60.6812
ENERGY: 1200000 2.6573 1.6546 2.7558 0.0000 -10825.5501 1474.5604 0.0000 0.0000 1777.5207 -7566.4013 304.7663 -9343.9220 -7459.4788 300.6224 -191.5831 -186.9681 30432.3364 -140.1487 -80.1502
ENERGY: 1500000 2.5087 2.2455 1.0493 0.0000 -10730.6638 1572.5683 0.0000 0.0000 1734.5206 -7417.7714 297.3937 -9152.2920 -7463.5153 299.3661 1378.2968 1422.3653 29994.2331 -24.5038 37.5211
TCL: Running FEP window  13: Lambda1 0.6    Lambda2 0.65   [dLambda 0.050000000000000044]
TCL: Setting parameter firsttimestep to 0
TCL: Setting parameter alchLambda to 0.6
Info: NONBONDED TABLE R-SQUARED SPACING: 0.0625
Info: NONBONDED TABLE SIZE: 705 POINTS
TCL: Setting parameter alchLambda2 to 0.65
Info: NONBONDED TABLE R-SQUARED SPACING: 0.0625
Info: NONBONDED TABLE SIZE: 705 POINTS
TCL: Running for 1500000 steps
ETITLE: TS BOND ANGLE DIHED IMPRP ELECT VDW BOUNDARY MISC KINETIC TOTAL TEMP POTENTIAL TOTALAVG TEMPAVG PRESSURE GPRESSURE VOLUME PRESSAVG GPRESSAVG
ENERGY: 0 2.5087 2.2455 1.0493 0.0000 -10731.0131 1572.3377 0.0000 0.0000 1733.6396 -7419.2323 297.2426 -9152.8719 -7419.2323 297.2426 1347.2138 1427.7000 29994.2331 1347.2138 1427.7000
ENERGY: 300000 4.2086 1.4278 0.8061 0.0000 -10703.8430 1468.7294 0.0000 0.0000 1727.9165 -7500.7547 296.2614 -9228.6711 -7478.4321 298.6500 162.6978 272.3710 30161.8319 456.1837 535.4024
ENERGY: 600000 1.4276 3.0818 0.8665 0.0000 -10567.6125 1402.3173 0.0000 0.0000 1677.2147 -7482.7047 287.5683 -9159.9194 -7476.1148 297.6871 -278.8778 -209.1829 30568.0737 82.0608 155.2589
ENERGY: 900000 4.5717 2.3397 3.4306 0.0000 -10648.8102 1413.2386 0.0000 0.0000 1752.3716 -7472.8580 300.4543 -9225.2296 -7467.2992 298.2058 -136.3782 -103.7971 30165.9757 -137.4697 -75.6721
ENERGY: 1200000 2.9148 5.7560 1.9402 0.0000 -10515.4902 1317.9092 0.0000 0.0000 1767.3009 -7419.6691 303.0141 -9186.9701 -7460.7383 298.6215 -833.7043 -817.0911 30177.6349 -122.5271 -71.2229
ENERGY: 1500000 1.7687 3.6539 2.5417 0.0000 -10697.0004 1483.9691 0.0000 0.0000 1710.9294 -7494.1376 293.3488 -9205.0670 -7466.1413 298.0732 325.0593 406.1207 30171.6272 -14.9911 36.0240
TCL: Running FEP window  14: Lambda1 0.65   Lambda2 0.7000000000000001 [dLambda 0.050000000000000044]
TCL: Setting parameter firsttimestep to 0
TCL: Setting parameter alchLambda to 0.65
Info: NONBONDED TABLE R-SQUARED SPACING: 0.0625
Info: NONBONDED TABLE SIZE: 705 POINTS
TCL: Setting parameter alchLambda2 to 0.7000000000000001
Info: NONBONDED TABLE R-SQUARED SPACING: 0.0625
Info: NONBONDED TABLE SIZE: 705 POINTS
TCL: Running for 1500000 steps
ETITLE: TS BOND ANGLE DIHED IMPRP ELECT VDW BOUNDARY MISC KINETIC TOTAL TEMP POTENTIAL TOTALAVG TEMPAVG PRESSURE GPRESSURE VOLUME PRESSAVG GPRESSAVG
ENERGY: 0 1.7687 3.6539 2.5417 0.0000 -10697.7187 1484.0224 0.0000 0.0000 1710.0944 -7495.6377 293.2057 -9205.7321 -7495.6377 293.2057 335.2095 413.4599 30171.6272 335.2095 413.4599
ENERGY: 300000 4.6220 3.5947 5.0361 0.0000 -10636.1422 1469.7937 0.0000 0.0000 1735.9667 -7417.1290 297.6416 -9153.0957 -7456.0020 298.1945 -17.5334 67.8617 30858.6798 152.9475 248.9661
ENERGY: 600000 2.5837 1.6466 1.3061 0.0000 -10693.4044 1409.8214 0.0000 0.0000 1739.3108 -7538.7358 298.2150 -9278.0466 -7456.6961 299.9129 -641.4344 -597.8177 30615.9282 -1.7486 77.3805
ENERGY: 900000 4.3104 5.5812 2.2203 0.0000 -10656.3046 1451.6643 0.0000 0.0000 1746.7234 -7445.8050 299.4859 -9192.5284 -7470.2807 300.5879 373.5202 381.4600 30011.9756 85.9918 153.9079
ENERGY: 1200000 4.5545 1.9286 1.2911 0.0000 -10636.6956 1421.4860 0.0000 0.0000 1743.7570 -7463.6784 298.9773 -9207.4354 -7469.9284 300.1858 -571.6929 -519.5583 30814.0084 -56.4347 13.5980
ENERGY: 1500000 3.6511 2.0510 2.9006 0.0000 -10812.2547 1513.4090 0.0000 0.0000 1753.6439 -7536.5990 300.6725 -9290.2429 -7471.3219 300.9169 321.6513 400.8460 30081.3200 -9.7033 59.7400
TCL: Running FEP window  15: Lambda1 0.7000000000000001 Lambda2 0.7500000000000001 [dLambda 0.050000000000000044]
TCL: Setting parameter firsttimestep to 0
TCL: Setting parameter alchLambda to 0.7000000000000001
Info: NONBONDED TABLE R-SQUARED SPACING: 0.0625
Info: NONBONDED TABLE SIZE: 705 POINTS
TCL: Setting parameter alchLambda2 to 0.7500000000000001
Info: NONBONDED TABLE R-SQUARED SPACING: 0.0625
Info: NONBONDED TABLE SIZE: 705 POINTS
TCL: Running for 1500000 steps
ETITLE: TS BOND ANGLE DIHED IMPRP ELECT VDW BOUNDARY MISC KINETIC TOTAL TEMP POTENTIAL TOTALAVG TEMPAVG PRESSURE GPRESSURE VOLUME PRESSAVG GPRESSAVG
ENERGY: 0 3.6511 2.0510 2.9006 0.0000 -10813.0921 1513.0324 0.0000 0.0000 1752.7944 -7538.6625 300.5268 -9291.4569 -7538.6625 300.5268 310.2077 399.6265 30081.3200 310.2077 399.6265
ENERGY: 300000 2.4416 2.6905 1.8296 0.0000 -10588.6120 1358.3671 0.0000 0.0000 1786.6181 -7436.6650 306.3261 -9223.2831 -7445.8133 304.6851 -535.1640 -455.8210 29684.0398 -5.9222 45.2630
ENERGY: 600000 1.9568 3.4740 2.9942 0.0000 -10517.1258 1323.8018 0.0000 0.0000 1766.2415 -7418.6576 302.8324 -9184.8990 -7442.9849 302.9364 -637.3479 -629.0606 30237.5297 -212.5189 -154.4506
ENERGY: 900000 1.8184 4.1268 2.7159 0.0000 -10747.0128 1451.9181 0.0000 0.0000 1790.0039 -7496.4297 306.9066 -9286.4336 -7455.3709 302.1949 -108.2755 -114.5554 30361.5174 -310.9105 -256.5967
ENERGY: 1200000 3.0568 0.9450 0.5490 0.0000 -10772.7483 1505.3926 0.0000 0.0000 1784.8732 -7477.9316 306.0269 -9262.8049 -7463.0766 301.5555 385.7277 437.7467 30150.5793 -136.4521 -83.7642
ENERGY: 1500000 2.9341 2.9032 1.9375 0.0000 -10698.3487 1447.0269 0.0000 0.0000 1784.4878 -7459.0591 305.9609 -9243.5469 -7458.9082 301.7413 -15.9794 25.5530 30465.7991 -62.9766 0.5311
TCL: Running FEP window  16: Lambda1 0.7500000000000001 Lambda2 0.8000000000000002 [dLambda 0.050000000000000044]
TCL: Setting parameter firsttimestep to 0
TCL: Setting parameter alchLambda to 0.7500000000000001
Info: NONBONDED TABLE R-SQUARED SPACING: 0.0625
Info: NONBONDED TABLE SIZE: 705 POINTS
TCL: Setting parameter alchLambda2 to 0.8000000000000002
Info: NONBONDED TABLE R-SQUARED SPACING: 0.0625
Info: NONBONDED TABLE SIZE: 705 POINTS
TCL: Running for 1500000 steps
ETITLE: TS BOND ANGLE DIHED IMPRP ELECT VDW BOUNDARY MISC KINETIC TOTAL TEMP POTENTIAL TOTALAVG TEMPAVG PRESSURE GPRESSURE VOLUME PRESSAVG GPRESSAVG
ENERGY: 0 2.9341 2.9032 1.9375 0.0000 -10698.6204 1447.7736 0.0000 0.0000 1783.6388 -7459.4331 305.8153 -9243.0719 -7459.4331 305.8153 -32.6427 42.5025 30465.7991 -32.6427 42.5025
ENERGY: 300000 1.4093 5.5391 0.9103 0.0000 -10729.0308 1452.6310 0.0000 0.0000 1770.5930 -7497.9481 303.5785 -9268.5412 -7458.5390 302.4990 126.1211 214.4623 30093.8747 -109.0834 -44.6371
ENERGY: 600000 2.9813 3.4524 1.5027 0.0000 -10606.0836 1451.4489 0.0000 0.0000 1669.5936 -7477.1047 286.2616 -9146.6983 -7470.6501 298.6638 221.6856 275.9056 30274.1327 -247.1813 -169.7146
ENERGY: 900000 4.0148 2.2751 2.2260 0.0000 -10546.7080 1336.9351 0.0000 0.0000 1758.9647 -7442.2922 301.5848 -9201.2569 -7465.9067 298.9960 -818.8075 -730.9877 30518.8600 -183.8600 -106.0275
ENERGY: 1200000 2.2657 3.8498 2.1898 0.0000 -10607.2708 1406.3827 0.0000 0.0000 1739.1049 -7453.4778 298.1797 -9192.5827 -7474.9180 298.0988 -157.9042 -138.6039 30453.9873 -220.1757 -157.8495
ENERGY: 1500000 3.1302 2.3398 2.3244 0.0000 -10563.2769 1319.8315 0.0000 0.0000 1754.4704 -7481.1807 300.8142 -9235.6510 -7471.4252 298.4289 -794.4528 -694.5434 30198.5633 -201.5249 -136.2413
TCL: Running FEP window  17: Lambda1 0.8000000000000002 Lambda2 0.8500000000000002 [dLambda 0.050000000000000044]
TCL: Setting parameter firsttimestep to 0
TCL: Setting parameter alchLambda to 0.8000000000000002
Info: NONBONDED TABLE R-SQUARED SPACING: 0.0625
Info: NONBONDED TABLE SIZE: 705 POINTS
TCL: Setting parameter alchLambda2 to 0.8500000000000002
Info: NONBONDED TABLE R-SQUARED SPACING: 0.0625
Info: NONBONDED TABLE SIZE: 705 POINTS
TCL: Running for 1500000 steps
ETITLE: TS BOND ANGLE DIHED IMPRP ELECT VDW BOUNDARY MISC KINETIC TOTAL TEMP POTENTIAL TOTALAVG TEMPAVG PRESSURE GPRESSURE VOLUME PRESSAVG GPRESSAVG
ENERGY: 0 3.1302 2.3397 2.3244 0.0000 -10564.9823 1319.8104 0.0000 0.0000 1753.6261 -7483.7515 300.6694 -9237.3776 -7483.7515 300.6694 -771.9612 -688.1711 30198.5633 -771.9612 -688.1711
ENERGY: 300000 3.4364 3.1815 3.5913 0.0000 -10679.6676 1444.2150 0.0000 0.0000 1796.6280 -7428.6153 308.0424 -9225.2434 -7465.4704 302.9495 8.0765 121.5692 30279.5668 -110.3892 -61.5263
ENERGY: 600000 1.8474 0.7440 2.5934 0.0000 -10695.8919 1473.3179 0.0000 0.0000 1727.1816 -7490.2076 296.1354 -9217.3892 -7467.1698 301.5144 523.8310 492.1478 29848.0123 148.3616 191.5627
ENERGY: 900000 1.5158 2.7666 2.6597 0.0000 -10730.5929 1492.8346 0.0000 0.0000 1737.6000 -7493.2162 297.9217 -9230.8162 -7465.6283 301.3013 397.0260 435.8131 30076.6642 47.7770 101.7648
ENERGY: 1200000 1.2284 2.8714 2.9875 0.0000 -10586.6359 1370.6875 0.0000 0.0000 1759.5297 -7449.3314 301.6816 -9208.8610 -7470.9536 300.8604 -567.2905 -535.3443 30538.3406 -0.9548 57.9231
ENERGY: 1500000 1.9167 2.3482 2.4397 0.0000 -10557.4046 1355.9643 0.0000 0.0000 1727.1624 -7467.5732 296.1321 -9194.7356 -7473.4804 300.4442 -788.9813 -683.2230 30404.8865 4.6203 69.7640
TCL: Running FEP window  18: Lambda1 0.8500000000000002 Lambda2 0.9000000000000002 [dLambda 0.050000000000000044]
TCL: Setting parameter firsttimestep to 0
TCL: Setting parameter alchLambda to 0.8500000000000002
Info: NONBONDED TABLE R-SQUARED SPACING: 0.0625
Info: NONBONDED TABLE SIZE: 705 POINTS
TCL: Setting parameter alchLambda2 to 0.9000000000000002
Info: NONBONDED TABLE R-SQUARED SPACING: 0.0625
Info: NONBONDED TABLE SIZE: 705 POINTS
TCL: Running for 1500000 steps
ETITLE: TS BOND ANGLE DIHED IMPRP ELECT VDW BOUNDARY MISC KINETIC TOTAL TEMP POTENTIAL TOTALAVG TEMPAVG PRESSURE GPRESSURE VOLUME PRESSAVG GPRESSAVG
ENERGY: 0 1.9167 2.3482 2.4397 0.0000 -10558.6955 1355.9607 0.0000 0.0000 1726.2989 -7469.7312 295.9840 -9196.0301 -7469.7312 295.9840 -763.0464 -678.3482 30404.8865 -763.0464 -678.3482
ENERGY: 300000 1.2582 2.9861 1.6539 0.0000 -10533.0059 1358.3948 0.0000 0.0000 1772.1653 -7396.5476 303.8481 -9168.7130 -7431.5910 301.4858 -505.2299 -405.1642 30466.5876 -517.9430 -424.8454
ENERGY: 600000 2.6025 4.3492 4.4140 0.0000 -10579.3972 1338.2237 0.0000 0.0000 1740.9915 -7488.8163 298.5032 -9229.8079 -7457.2273 301.0472 -771.4086 -732.5055 30412.5424 -533.9398 -458.0367
ENERGY: 900000 1.8517 1.8950 2.9953 0.0000 -10695.3313 1444.7554 0.0000 0.0000 1748.9020 -7494.9320 299.8595 -9243.8339 -7450.1554 301.3176 -24.5923 41.0799 30147.1369 -415.8034 -344.1495
ENERGY: 1200000 1.0979 3.8544 2.0768 0.0000 -10714.8264 1412.7761 0.0000 0.0000 1740.7413 -7554.2799 298.4603 -9295.0212 -7460.2923 301.3001 -160.1067 -136.6038 29793.5239 -308.7875 -243.8282
ENERGY: 1500000 4.2550 4.7113 3.0564 0.0000 -10681.8225 1460.5076 0.0000 0.0000 1806.0683 -7403.2238 309.6610 -9209.2922 -7457.7419 301.2634 211.7060 243.0276 30297.5205 -185.4860 -127.2384
TCL: Running FEP window  19: Lambda1 0.9000000000000002 Lambda2 0.9500000000000003 [dLambda 0.050000000000000044]
TCL: Setting parameter firsttimestep to 0
TCL: Setting parameter alchLambda to 0.9000000000000002
Info: NONBONDED TABLE R-SQUARED SPACING: 0.0625
Info: NONBONDED TABLE SIZE: 705 POINTS
TCL: Setting parameter alchLambda2 to 0.9500000000000003
Info: NONBONDED TABLE R-SQUARED SPACING: 0.0625
Info: NONBONDED TABLE SIZE: 705 POINTS
TCL: Running for 1500000 steps
ETITLE: TS BOND ANGLE DIHED IMPRP ELECT VDW BOUNDARY MISC KINETIC TOTAL TEMP POTENTIAL TOTALAVG TEMPAVG PRESSURE GPRESSURE VOLUME PRESSAVG GPRESSAVG
ENERGY: 0 4.2550 4.7113 3.0564 0.0000 -10682.8686 1460.1932 0.0000 0.0000 1805.2137 -7405.4390 309.5144 -9210.6527 -7405.4390 309.5144 161.6497 245.8917 30297.5205 161.6497 245.8917
ENERGY: 300000 2.3219 4.7133 0.9866 0.0000 -10665.3899 1429.6246 0.0000 0.0000 1762.4478 -7465.2956 302.1820 -9227.7434 -7423.2059 303.7887 127.4591 213.7954 29932.8766 -100.3091 -52.4725
ENERGY: 600000 5.4120 2.5822 2.5557 0.0000 -10632.8740 1427.3624 0.0000 0.0000 1790.8229 -7404.1388 307.0471 -9194.9617 -7445.6839 301.9491 -121.2750 -19.3712 30746.6152 -153.9466 -90.8595
ENERGY: 900000 5.4004 2.7836 2.3021 0.0000 -10632.0091 1411.3773 0.0000 0.0000 1711.7074 -7498.4384 293.4822 -9210.1457 -7448.5150 301.1074 -182.1240 -84.2718 30117.5994 -138.8565 -71.7836
ENERGY: 1200000 2.3819 3.5496 2.1575 0.0000 -10714.0104 1435.5758 0.0000 0.0000 1798.8213 -7471.5242 308.4184 -9270.3455 -7452.5268 302.4064 -37.5189 63.4844 29867.9087 -40.4136 30.9712
ENERGY: 1500000 1.8050 2.3885 2.7369 0.0000 -10818.0103 1456.0184 0.0000 0.0000 1741.9739 -7613.0876 298.6716 -9355.0615 -7470.7740 302.2458 5.0747 73.8258 29674.1837 -13.8080 59.4415
TCL: Running FEP window  20: Lambda1 0.9500000000000003 Lambda2 1.0    [dLambda 0.04999999999999971]
TCL: Setting parameter firsttimestep to 0
TCL: Setting parameter alchLambda to 0.9500000000000003
Info: NONBONDED TABLE R-SQUARED SPACING: 0.0625
Info: NONBONDED TABLE SIZE: 705 POINTS
TCL: Setting parameter alchLambda2 to 1.0
Info: NONBONDED TABLE R-SQUARED SPACING: 0.0625
Info: NONBONDED TABLE SIZE: 705 POINTS
TCL: Running for 1500000 steps
ETITLE: TS BOND ANGLE DIHED IMPRP ELECT VDW BOUNDARY MISC KINETIC TOTAL TEMP POTENTIAL TOTALAVG TEMPAVG PRESSURE GPRESSURE VOLUME PRESSAVG GPRESSAVG
ENERGY: 0 1.8050 2.3885 2.7369 0.0000 -10819.1507 1457.0322 0.0000 0.0000 1741.1171 -7614.0710 298.5247 -9355.1881 -7614.0710 298.5247 21.5152 97.8253 29674.1837 21.5152 97.8253
ENERGY: 300000 1.6532 4.3066 1.4617 0.0000 -10620.5308 1433.8839 0.0000 0.0000 1709.5731 -7469.6523 293.1163 -9179.2254 -7529.8193 297.9557 244.8168 286.7192 30170.0523 334.2180 384.0009
ENERGY: 600000 2.5037 2.4842 1.4840 0.0000 -10645.1962 1454.0505 0.0000 0.0000 1805.3357 -7379.3380 309.5353 -9184.6737 -7488.7251 300.0174 534.0907 644.6901 29928.8856 195.8981 259.0811
ENERGY: 900000 4.9522 1.4958 1.3398 0.0000 -10658.6645 1453.3897 0.0000 0.0000 1721.1622 -7476.3249 295.1033 -9197.4871 -7482.9441 298.5256 3.1948 87.7401 30551.5775 194.2498 255.9325
ENERGY: 1200000 5.3645 1.2053 1.6392 0.0000 -10687.9329 1424.7375 0.0000 0.0000 1760.7498 -7494.2367 301.8908 -9254.9864 -7478.0541 298.5531 -506.7324 -437.4913 30579.9301 108.2286 168.3053
ENERGY: 1500000 5.9016 4.0604 2.0375 0.0000 -10689.7870 1399.7275 0.0000 0.0000 1736.3008 -7541.7592 297.6989 -9278.0600 -7485.7519 298.5536 -500.0451 -377.1159 30221.9958 86.5771 153.0186
TCL: Exiting due to exit command.
