Info: SIMULATION PARAMETERS:
Info: TIMESTEP               2
Info: NUMBER OF STEPS        0
Info: STEPS PER CYCLE        10
Info: PERIODIC CELL BASIS 1  30.9533 0 0
Info: PERIODIC CELL BASIS 2  0 29.474 0
Info: PERIODIC CELL BASIS 3  0 0 33.2996
Info: PERIODIC CELL CENTER   0 0 0
Info: WRAPPING WATERS AROUND PERIODIC BOUNDARIES ON OUTPUT.
Info: WRAPPING ALL CLUSTERS AROUND PERIODIC BOUNDARIES ON OUTPUT.
Info: FIRST LDB TIMESTEP     50
Info: LAST LDB TIMESTEP     -1
Info: HOM BACKGROUND SCALING 1
Info: PME BACKGROUND SCALING 1
Info: MIN ATOMS PER PATCH    40
Info: EMPTY PATCH LOAD       40 ATOMS
Info: VELOCITY FILE          mobley_3234716_equil.vel
Info: CENTER OF MASS MOVING INITIALLY? NO
Info: DIELECTRIC             1
Info: EXCLUDE                SCALED ONE-FOUR
Info: 1-4 ELECTROSTATICS SCALED BY 0.833333
Info: MODIFIED 1-4 VDW PARAMETERS WILL BE USED
Info: DCD FILENAME           mobley_3234716_prod.dcd
Info: DCD FREQUENCY          100000
Info: DCD FIRST STEP         100000
Info: DCD FILE WILL CONTAIN UNIT CELL DATA
Info: XST FILENAME           mobley_3234716_prod.xst
Info: XST FREQUENCY          100000
Info: NO VELOCITY DCD OUTPUT
Info: NO FORCE DCD OUTPUT
Info: OUTPUT FILENAME        mobley_3234716_prod
Info: BINARY OUTPUT FILES WILL BE USED
Info: RESTART FILENAME       mobley_3234716_prod.restart
Info: RESTART FREQUENCY      100000
Info: BINARY RESTART FILES WILL BE USED
Info: CUTOFF                 9
Info: PAIRLIST DISTANCE      11
Info: PAIRLIST SHRINK RATE   0.01
Info: PAIRLIST GROW RATE     0.01
Info: PAIRLIST TRIGGER       0.3
Info: PAIRLISTS PER CYCLE    2
Info: PAIRLISTS ENABLED
Info: MARGIN                 2
Info: HYDROGEN GROUP CUTOFF  2.5
Info: PATCH DIMENSION        15.5
Info: ENERGY OUTPUT STEPS    100000
Info: ENERGY EVALUATION STEPS    100000
Info: OUTPUT ENERGY PRECISION 4
Info: CROSSTERM ENERGY INCLUDED IN DIHEDRAL
Info: TIMING OUTPUT STEPS    1000000
Info: PRESSURE OUTPUT STEPS  100000
Info: ALCHEMICAL FEP ON
Info: FEP CURRENT LAMBDA VALUE     1
Info: FEP COMPARISON LAMBDA VALUE  0.95
Info: FEP INTRA-ALCHEMICAL NON-BONDED INTERACTIONS WILL BE RETAINED
Info: FEP INTRA-ALCHEMICAL BONDED INTERACTIONS WILL BE RETAINED
Info: FEP VDW SHIFTING COEFFICIENT 5
Info: FEP ELEC. ACTIVE FOR ANNIHILATED PARTICLES BETWEEN LAMBDA = 0 AND LAMBDA = 0.5
Info: FEP ELEC. ACTIVE FOR EXNIHILATED PARTICLES BETWEEN LAMBDA = 0.5 AND LAMBDA = 1
Info: FEP VDW ACTIVE FOR ANNIHILATED PARTICLES BETWEEN LAMBDA = 0 AND LAMBDA = 1
Info: FEP VDW ACTIVE FOR EXNIHILATED PARTICLES BETWEEN LAMBDA = 0 AND LAMBDA = 1
Info: FEP BOND ACTIVE FOR ANNIHILATED PARTICLES BETWEEN LAMBDA = 1 AND LAMBDA = 1
Info: FEP BOND ACTIVE FOR EXNIHILATED PARTICLES BETWEEN LAMBDA = 0 AND LAMBDA = 0
Info: LANGEVIN DYNAMICS ACTIVE
Info: LANGEVIN TEMPERATURE   300
Info: LANGEVIN USING BBK INTEGRATOR
Info: LANGEVIN DAMPING COEFFICIENT IS 1 INVERSE PS
Info: LANGEVIN DYNAMICS APPLIED TO HYDROGENS
Info: LANGEVIN PISTON PRESSURE CONTROL ACTIVE
Info:        TARGET PRESSURE IS 1.01325 BAR
Info:     OSCILLATION PERIOD IS 50 FS
Info:             DECAY TIME IS 25 FS
Info:     PISTON TEMPERATURE IS 300 K
Info:       PRESSURE CONTROL IS GROUP-BASED
Info:    INITIAL STRAIN RATE IS -0.000159675 -0.000159675 -0.000159675
Info:       CELL FLUCTUATION IS ISOTROPIC
Info: PARTICLE MESH EWALD (PME) ACTIVE
Info: PME TOLERANCE               1e-06
Info: PME EWALD COEFFICIENT       0.348832
Info: PME INTERPOLATION ORDER     4
Info: PME GRID DIMENSIONS         32 32 36
Info: PME MAXIMUM GRID SPACING    1
Info: PME CALCULATION WILL BE PERFORMED ON GPU
Info: FULL ELECTROSTATIC EVALUATION FREQUENCY      2
Info: USING VERLET I (r-RESPA) MTS SCHEME.
Info: C1 SPLITTING OF LONG RANGE ELECTROSTATICS
Info: PLACING ATOMS IN PATCHES BY HYDROGEN GROUPS
Info: RIGID BONDS TO HYDROGEN : ALL
Info:         ERROR TOLERANCE : 1e-08
Info:          MAX ITERATIONS : 100
Info: RIGID WATER USING SETTLE ALGORITHM
Info: RANDOM NUMBER SEED     1743613421
Info: USE HYDROGEN BONDS?    NO
Info: Using AMBER format force field!
Info: AMBER PARM FILE        mobley_3234716.prmtop
Info: COORDINATE PDB         mobley_3234716.pdb
Info: Exclusions will be read from PARM file!
Info: SCNB (VDW SCALING)     2
Info: USING ARITHMETIC MEAN TO COMBINE L-J SIGMA PARAMETERS
Info: BINARY COORDINATES     mobley_3234716_equil.coor
Info: SUMMARY OF PARAMETERS:
Info: 6 BONDS
Info: 5 ANGLES
Info:   5 HARMONIC
Info:   0 COSINE-BASED
Info: 3 DIHEDRAL
Info: 0 IMPROPER
Info: 0 CROSSTERM
Info: 0 VDW
Info: 21 VDW_PAIRS
Info: 0 NBTHOLE_PAIRS
Info: To read alchdata from file: mobley_3234716.pdb
Info: To read alchflag data from column: 5
Info: STRUCTURE SUMMARY:
Info: 2928 ATOMS
Info: 2928 BONDS
Info: 30 ANGLES
Info: 42 DIHEDRALS
Info: 0 IMPROPERS
Info: 0 CROSSTERMS
Info: 2991 EXCLUSIONS
Info: 2920 RIGID BONDS
Info: ALCH: 0 ATOMS TO DISAPPEAR IN FINAL STATE
Info: ALCH: 18 ATOMS TO APPEAR IN FINAL STATE
Info: 5864 DEGREES OF FREEDOM
Info: 978 HYDROGEN GROUPS
Info: 4 ATOMS IN LARGEST HYDROGEN GROUP
Info: 978 MIGRATION GROUPS
Info: 4 ATOMS IN LARGEST MIGRATION GROUP
Info: TOTAL MASS = 17581.7 amu
Info: TOTAL CHARGE = 0.000100061 e
Info: MASS DENSITY = 0.961026 g/cm^3
Info: ATOM DENSITY = 0.0963799 atoms/A^3
Info: ADDED 0 IMPLICIT EXCLUSIONS
Info: NONBONDED TABLE R-SQUARED SPACING: 0.0625
Info: NONBONDED TABLE SIZE: 705 POINTS
Info: REMOVING COM VELOCITY -0.0270666 -0.0859098 0.26443
Info: Use 3D box decompostion in PME FFT.
Info: Updated CUDA force table with 4096 elements.
Info: Updated CUDA LJ table with 6 x 6 elements.
Info: Found 20 unique exclusion lists needing 48 bytes
TCL: Running for 1500000 steps
ETITLE: TS BOND ANGLE DIHED IMPRP ELECT VDW BOUNDARY MISC KINETIC TOTAL TEMP POTENTIAL TOTALAVG TEMPAVG PRESSURE GPRESSURE VOLUME PRESSAVG GPRESSAVG
ENERGY: 0 1.6051 6.8009 5.5037 0.0000 -10573.8810 1397.3760 0.0000 0.0000 1722.3129 -7440.2823 295.6028 -9162.5953 -7440.2823 295.6028 -508.8563 -438.3153 30379.7731 -508.8563 -438.3153
ENERGY: 300000 2.3847 6.0894 2.3305 0.0000 -10518.4251 1438.7243 0.0000 0.0000 1711.2349 -7357.6613 293.7014 -9068.8962 -7386.8105 297.4024 246.4916 261.4889 30242.7482 -101.7374 -72.2620
ENERGY: 600000 2.0665 6.7164 1.4028 0.0000 -10353.2112 1299.7774 0.0000 0.0000 1713.0044 -7330.2437 294.0051 -9043.2480 -7400.6262 297.5834 -902.4429 -813.9411 30485.1177 -313.4372 -252.0419
ENERGY: 900000 2.1734 4.1729 2.7750 0.0000 -10598.7480 1417.7459 0.0000 0.0000 1731.5202 -7440.3606 297.1830 -9171.8808 -7406.8465 297.8322 -346.8334 -265.8204 30713.6906 -173.6745 -108.8391
ENERGY: 1200000 1.1986 4.0201 3.9458 0.0000 -10701.5010 1454.0972 0.0000 0.0000 1767.3238 -7470.9154 303.3280 -9238.2392 -7401.7021 298.9808 104.0011 143.0892 30112.6303 -99.8320 -33.5780
ENERGY: 1500000 1.9152 5.2235 3.2745 0.0000 -10557.6909 1395.5059 0.0000 0.0000 1722.4958 -7429.2760 295.6341 -9151.7717 -7403.9974 298.4072 14.3820 81.3838 29864.5656 -109.0712 -39.7463
TCL: Running FEP window   2: Lambda1 0.95   Lambda2 0.8999999999999999 [dLambda -0.050000000000000044]
TCL: Setting parameter firsttimestep to 0
TCL: Setting parameter alchLambda to 0.95
Info: NONBONDED TABLE R-SQUARED SPACING: 0.0625
Info: NONBONDED TABLE SIZE: 705 POINTS
TCL: Setting parameter alchLambda2 to 0.8999999999999999
Info: NONBONDED TABLE R-SQUARED SPACING: 0.0625
Info: NONBONDED TABLE SIZE: 705 POINTS
TCL: Running for 1500000 steps
ETITLE: TS BOND ANGLE DIHED IMPRP ELECT VDW BOUNDARY MISC KINETIC TOTAL TEMP POTENTIAL TOTALAVG TEMPAVG PRESSURE GPRESSURE VOLUME PRESSAVG GPRESSAVG
ENERGY: 0 1.9152 5.2235 3.2745 0.0000 -10556.9970 1395.0919 0.0000 0.0000 1721.6039 -7429.8880 295.4811 -9151.4919 -7429.8880 295.4811 -26.7855 63.1762 29864.5656 -26.7855 63.1762
ENERGY: 300000 1.7003 7.0867 3.6692 0.0000 -10605.6734 1378.9646 0.0000 0.0000 1711.4122 -7502.8404 293.7319 -9214.2526 -7427.2421 300.4453 -412.7924 -355.0484 30004.8494 -90.5040 -7.4182
ENERGY: 600000 1.9499 7.5156 2.6791 0.0000 -10556.8979 1389.2019 0.0000 0.0000 1791.7611 -7363.7903 307.5222 -9155.5514 -7428.8865 300.6594 -31.6826 57.4657 30113.2798 -114.2661 -33.1837
ENERGY: 900000 2.0409 3.1068 2.1121 0.0000 -10604.7628 1373.5397 0.0000 0.0000 1786.1774 -7437.7858 306.5639 -9223.9632 -7424.1985 302.1480 -438.9409 -372.9319 30065.0700 -142.6416 -62.5487
ENERGY: 1200000 1.8183 7.3659 1.8524 0.0000 -10717.4233 1465.9166 0.0000 0.0000 1761.1311 -7479.3389 302.2652 -9240.4700 -7421.8164 302.3638 73.1148 71.3821 30371.2986 -190.2727 -119.2372
ENERGY: 1500000 4.0303 3.3081 1.3708 0.0000 -10623.6674 1423.9239 0.0000 0.0000 1735.7703 -7455.2640 297.9125 -9191.0343 -7423.8617 302.4771 -70.4908 68.9510 29801.3042 -227.3693 -148.6960
TCL: Running FEP window   3: Lambda1 0.8999999999999999 Lambda2 0.8499999999999999 [dLambda -0.050000000000000044]
TCL: Setting parameter firsttimestep to 0
TCL: Setting parameter alchLambda to 0.8999999999999999
Info: NONBONDED TABLE R-SQUARED SPACING: 0.0625
Info: NONBONDED TABLE SIZE: 705 POINTS
TCL: Setting parameter alchLambda2 to 0.8499999999999999
Info: NONBONDED TABLE R-SQUARED SPACING: 0.0625
Info: NONBONDED TABLE SIZE: 705 POINTS
TCL: Running for 1500000 steps
ETITLE: TS BOND ANGLE DIHED IMPRP ELECT VDW BOUNDARY MISC KINETIC TOTAL TEMP POTENTIAL TOTALAVG TEMPAVG PRESSURE GPRESSURE VOLUME PRESSAVG GPRESSAVG
ENERGY: 0 4.0303 3.3081 1.3708 0.0000 -10623.2063 1424.0489 0.0000 0.0000 1734.8964 -7455.5518 297.7625 -9190.4482 -7455.5518 297.7625 -43.1660 61.3287 29801.3042 -43.1660 61.3287
ENERGY: 300000 1.5274 4.8793 1.4584 0.0000 -10763.2023 1571.1275 0.0000 0.0000 1772.7024 -7411.5073 304.2512 -9184.2097 -7419.1055 304.7937 1210.3940 1292.4248 29800.7120 315.1233 404.8805
ENERGY: 600000 1.8646 10.1021 2.4958 0.0000 -10503.3365 1396.6639 0.0000 0.0000 1754.2060 -7338.0042 301.0766 -9092.2102 -7413.0572 304.1399 -254.6433 -180.5184 30690.5211 247.3360 321.9314
ENERGY: 900000 4.2442 4.6229 1.3930 0.0000 -10493.0165 1369.2178 0.0000 0.0000 1780.1948 -7333.3438 305.5371 -9113.5386 -7399.2101 305.2999 -398.9562 -371.3994 30301.0282 72.3627 145.9838
ENERGY: 1200000 1.1526 5.1990 3.2933 0.0000 -10481.6620 1398.9105 0.0000 0.0000 1772.0641 -7301.0425 304.1416 -9073.1066 -7385.4146 303.9707 -96.7602 -29.5892 30491.4746 83.0692 152.2642
ENERGY: 1500000 2.3005 7.5972 0.5888 0.0000 -10713.1457 1465.6722 0.0000 0.0000 1750.9313 -7486.0557 300.5146 -9236.9871 -7395.5262 303.1199 326.5693 395.7673 29958.0754 85.9939 156.2247
TCL: Running FEP window   4: Lambda1 0.8499999999999999 Lambda2 0.7999999999999998 [dLambda -0.050000000000000044]
TCL: Setting parameter firsttimestep to 0
TCL: Setting parameter alchLambda to 0.8499999999999999
Info: NONBONDED TABLE R-SQUARED SPACING: 0.0625
Info: NONBONDED TABLE SIZE: 705 POINTS
TCL: Setting parameter alchLambda2 to 0.7999999999999998
Info: NONBONDED TABLE R-SQUARED SPACING: 0.0625
Info: NONBONDED TABLE SIZE: 705 POINTS
TCL: Running for 1500000 steps
ETITLE: TS BOND ANGLE DIHED IMPRP ELECT VDW BOUNDARY MISC KINETIC TOTAL TEMP POTENTIAL TOTALAVG TEMPAVG PRESSURE GPRESSURE VOLUME PRESSAVG GPRESSAVG
ENERGY: 0 2.3005 7.5972 0.5888 0.0000 -10712.5002 1465.2792 0.0000 0.0000 1750.0525 -7486.6821 300.3637 -9236.7346 -7486.6821 300.3637 304.7172 377.4853 29958.0754 304.7172 377.4853
ENERGY: 300000 7.3439 5.8806 1.8946 0.0000 -10694.2039 1460.0633 0.0000 0.0000 1743.9573 -7475.0643 299.3176 -9219.0216 -7462.7449 300.5690 -26.5960 37.8418 30423.6551 -215.9960 -147.4319
ENERGY: 600000 1.9060 5.1004 2.8618 0.0000 -10673.9651 1452.9163 0.0000 0.0000 1711.7406 -7499.4399 293.7882 -9211.1805 -7452.3816 299.3135 -46.7333 -34.6108 30423.9839 -355.0664 -292.9692
ENERGY: 900000 4.2321 3.9590 1.4716 0.0000 -10650.1204 1471.3473 0.0000 0.0000 1794.1361 -7374.9743 307.9299 -9169.1104 -7438.8289 300.1776 206.7643 228.8208 30402.6943 -149.5830 -91.1655
ENERGY: 1200000 2.2567 10.6597 5.0027 0.0000 -10588.8905 1356.3873 0.0000 0.0000 1716.2397 -7498.3445 294.5604 -9214.5842 -7433.9036 299.8349 -520.1164 -418.4213 29782.2614 -298.2179 -230.6498
ENERGY: 1500000 3.2540 7.0503 1.6304 0.0000 -10603.7344 1391.1713 0.0000 0.0000 1747.9958 -7452.6327 300.0107 -9200.6285 -7431.5209 300.8542 -267.6469 -261.0858 29715.6920 -150.2678 -90.2077
TCL: Running FEP window   5: Lambda1 0.7999999999999998 Lambda2 0.7499999999999998 [dLambda -0.050000000000000044]
TCL: Setting parameter firsttimestep to 0
TCL: Setting parameter alchLambda to 0.7999999999999998
Info: NONBONDED TABLE R-SQUARED SPACING: 0.0625
Info: NONBONDED TABLE SIZE: 705 POINTS
TCL: Setting parameter alchLambda2 to 0.7499999999999998
Info: NONBONDED TABLE R-SQUARED SPACING: 0.0625
Info: NONBONDED TABLE SIZE: 705 POINTS
TCL: Running for 1500000 steps
ETITLE: TS BOND ANGLE DIHED IMPRP ELECT VDW BOUNDARY MISC KINETIC TOTAL TEMP POTENTIAL TOTALAVG TEMPAVG PRESSURE GPRESSURE VOLUME PRESSAVG GPRESSAVG
ENERGY: 0 3.2540 7.0503 1.6304 0.0000 -10603.3563 1391.7592 0.0000 0.0000 1747.1153 -7452.5471 299.8596 -9199.6624 -7452.5471 299.8596 -343.0564 -262.4802 29715.6920 -343.0564 -262.4802
ENERGY: 300000 2.2552 3.6016 2.8993 0.0000 -10585.5652 1402.1736 0.0000 0.0000 1759.6965 -7414.9390 302.0189 -9174.6355 -7420.9429 303.3618 -228.8494 -159.2179 30031.0466 -42.7830 21.3847
ENERGY: 600000 2.6558 4.1392 5.9766 0.0000 -10508.5237 1401.6237 0.0000 0.0000 1778.8356 -7315.2928 305.3038 -9094.1284 -7397.4235 302.4570 -81.8480 -62.9213 30259.8933 -239.1135 -184.3375
ENERGY: 900000 1.6180 5.3532 4.4365 0.0000 -10557.8903 1359.2142 0.0000 0.0000 1722.9440 -7464.3245 295.7111 -9187.2684 -7399.9184 300.6719 -707.1559 -671.7227 30470.7549 -283.1984 -231.7897
ENERGY: 1200000 1.3657 4.8465 3.5295 0.0000 -10442.6278 1265.4853 0.0000 0.0000 1765.3101 -7402.0907 302.9824 -9167.4008 -7398.0940 300.4520 -1402.8687 -1307.8152 30509.3639 -334.5371 -264.8443
ENERGY: 1500000 2.0382 5.1253 1.7549 0.0000 -10654.4624 1407.3369 0.0000 0.0000 1671.0867 -7567.1204 286.8107 -9238.2071 -7412.9210 299.6703 -331.2272 -294.5791 30009.8577 -338.5880 -273.1435
TCL: Running FEP window   6: Lambda1 0.7499999999999998 Lambda2 0.6999999999999997 [dLambda -0.050000000000000044]
TCL: Setting parameter firsttimestep to 0
TCL: Setting parameter alchLambda to 0.7499999999999998
Info: NONBONDED TABLE R-SQUARED SPACING: 0.0625
Info: NONBONDED TABLE SIZE: 705 POINTS
TCL: Setting parameter alchLambda2 to 0.6999999999999997
Info: NONBONDED TABLE R-SQUARED SPACING: 0.0625
Info: NONBONDED TABLE SIZE: 705 POINTS
TCL: Running for 1500000 steps
ETITLE: TS BOND ANGLE DIHED IMPRP ELECT VDW BOUNDARY MISC KINETIC TOTAL TEMP POTENTIAL TOTALAVG TEMPAVG PRESSURE GPRESSURE VOLUME PRESSAVG GPRESSAVG
ENERGY: 0 2.0382 5.1253 1.7549 0.0000 -10653.8477 1407.7965 0.0000 0.0000 1670.2176 -7566.9152 286.6616 -9237.1328 -7566.9152 286.6616 -374.1484 -297.7330 30009.8577 -374.1484 -297.7330
ENERGY: 300000 1.2433 6.7027 1.3518 0.0000 -10558.4975 1416.9799 0.0000 0.0000 1780.2637 -7351.9561 305.5489 -9132.2198 -7470.1657 296.8673 153.2580 216.9865 29946.3193 -156.2201 -90.0256
ENERGY: 600000 2.0695 3.9351 0.6563 0.0000 -10525.9129 1372.2205 0.0000 0.0000 1709.4905 -7437.5411 293.4020 -9147.0316 -7452.9581 297.5796 -766.5209 -694.1135 30956.6098 -153.9926 -96.2098
ENERGY: 900000 9.3398 8.3587 0.7967 0.0000 -10563.2811 1385.2795 0.0000 0.0000 1745.2027 -7414.3037 299.5314 -9159.5064 -7432.7288 299.0140 -327.6891 -353.2791 29796.6676 -232.7560 -180.8009
ENERGY: 1200000 1.9241 9.7444 3.1757 0.0000 -10617.0431 1458.7440 0.0000 0.0000 1735.6110 -7407.8439 297.8851 -9143.4549 -7425.3326 298.9099 286.0827 390.3805 30055.5488 -164.0659 -109.2628
ENERGY: 1500000 2.0781 7.3090 0.5673 0.0000 -10479.0651 1377.6262 0.0000 0.0000 1701.5230 -7389.9614 292.0346 -9091.4845 -7426.6910 298.8705 -83.5969 -13.2970 29985.4396 -66.0806 -9.1829
TCL: Running FEP window   7: Lambda1 0.6999999999999997 Lambda2 0.6499999999999997 [dLambda -0.050000000000000044]
TCL: Setting parameter firsttimestep to 0
TCL: Setting parameter alchLambda to 0.6999999999999997
Info: NONBONDED TABLE R-SQUARED SPACING: 0.0625
Info: NONBONDED TABLE SIZE: 705 POINTS
TCL: Setting parameter alchLambda2 to 0.6499999999999997
Info: NONBONDED TABLE R-SQUARED SPACING: 0.0625
Info: NONBONDED TABLE SIZE: 705 POINTS
TCL: Running for 1500000 steps
ETITLE: TS BOND ANGLE DIHED IMPRP ELECT VDW BOUNDARY MISC KINETIC TOTAL TEMP POTENTIAL TOTALAVG TEMPAVG PRESSURE GPRESSURE VOLUME PRESSAVG GPRESSAVG
ENERGY: 0 2.0781 7.3090 0.5673 0.0000 -10478.5020 1377.6482 0.0000 0.0000 1700.6720 -7390.2273 291.8885 -9090.8993 -7390.2273 291.8885 -97.6566 -20.6719 29985.4396 -97.6566 -20.6719
ENERGY: 300000 4.5477 8.3081 3.1044 0.0000 -10631.0091 1398.5390 0.0000 0.0000 1763.3192 -7453.1907 302.6407 -9216.5099 -7441.1045 296.0460 -462.4626 -361.5527 29946.7487 -210.6656 -130.4308
ENERGY: 600000 2.3199 4.8458 5.6127 0.0000 -10628.8492 1458.5154 0.0000 0.0000 1764.6515 -7392.9038 302.8694 -9157.5553 -7418.6015 299.5103 207.7706 250.8462 30181.5932 -65.9271 -8.3651
ENERGY: 900000 1.1007 6.3153 4.3234 0.0000 -10652.5064 1414.0640 0.0000 0.0000 1733.9408 -7492.7623 297.5985 -9226.7031 -7422.8805 300.0757 -263.9365 -192.2227 29954.2727 -124.8894 -70.2631
ENERGY: 1200000 1.5709 4.1449 3.7043 0.0000 -10590.3233 1416.1190 0.0000 0.0000 1761.9501 -7402.8341 302.4057 -9164.7843 -7421.9975 299.4191 67.6381 137.5933 29971.7566 -116.4350 -54.5804
ENERGY: 1500000 3.1782 4.2739 4.8652 0.0000 -10640.5076 1412.7496 0.0000 0.0000 1703.4144 -7512.0263 292.3592 -9215.4407 -7432.8962 298.7834 -311.7718 -305.4468 30350.0982 -120.3313 -64.9929
TCL: Running FEP window   8: Lambda1 0.6499999999999997 Lambda2 0.5999999999999996 [dLambda -0.050000000000000044]
TCL: Setting parameter firsttimestep to 0
TCL: Setting parameter alchLambda to 0.6499999999999997
Info: NONBONDED TABLE R-SQUARED SPACING: 0.0625
Info: NONBONDED TABLE SIZE: 705 POINTS
TCL: Setting parameter alchLambda2 to 0.5999999999999996
Info: NONBONDED TABLE R-SQUARED SPACING: 0.0625
Info: NONBONDED TABLE SIZE: 705 POINTS
TCL: Running for 1500000 steps
ETITLE: TS BOND ANGLE DIHED IMPRP ELECT VDW BOUNDARY MISC KINETIC TOTAL TEMP POTENTIAL TOTALAVG TEMPAVG PRESSURE GPRESSURE VOLUME PRESSAVG GPRESSAVG
ENERGY: 0 3.1782 4.2739 4.8652 0.0000 -10640.0881 1413.1034 0.0000 0.0000 1702.5444 -7512.1231 292.2099 -9214.6674 -7512.1231 292.2099 -403.8180 -304.5590 30350.0982 -403.8180 -304.5590
ENERGY: 300000 0.8978 9.9085 0.8554 0.0000 -10589.2063 1347.9289 0.0000 0.0000 1791.4632 -7438.1526 307.4711 -9229.6157 -7500.4855 296.9355 -651.4825 -592.6050 30060.9503 -487.6684 -409.0682
ENERGY: 600000 4.7832 4.4492 2.7962 0.0000 -10835.7546 1546.9475 0.0000 0.0000 1754.4282 -7522.3503 301.1147 -9276.7785 -7510.0397 296.3782 451.4953 477.4409 30090.0251 -344.0474 -264.1041
ENERGY: 900000 3.0980 11.4311 2.3877 0.0000 -10667.9755 1450.0883 0.0000 0.0000 1770.8880 -7430.0824 303.9398 -9200.9704 -7471.7845 297.9902 -122.6138 -9.9892 30177.2827 -275.5838 -197.4289
ENERGY: 1200000 3.2779 4.2746 5.0576 0.0000 -10500.9352 1447.0501 0.0000 0.0000 1759.3676 -7281.9074 301.9625 -9041.2750 -7449.4786 298.5246 68.0906 152.3053 30951.2629 -131.6973 -57.4703
ENERGY: 1500000 1.6275 6.0257 1.5570 0.0000 -10630.0444 1510.7102 0.0000 0.0000 1783.3849 -7326.7390 306.0846 -9110.1240 -7432.4652 299.1672 882.6929 900.7860 30037.9370 -68.8587 -3.2939
TCL: Running FEP window   9: Lambda1 0.5999999999999996 Lambda2 0.5499999999999996 [dLambda -0.050000000000000044]
TCL: Setting parameter firsttimestep to 0
TCL: Setting parameter alchLambda to 0.5999999999999996
Info: NONBONDED TABLE R-SQUARED SPACING: 0.0625
Info: NONBONDED TABLE SIZE: 705 POINTS
TCL: Setting parameter alchLambda2 to 0.5499999999999996
Info: NONBONDED TABLE R-SQUARED SPACING: 0.0625
Info: NONBONDED TABLE SIZE: 705 POINTS
TCL: Running for 1500000 steps
ETITLE: TS BOND ANGLE DIHED IMPRP ELECT VDW BOUNDARY MISC KINETIC TOTAL TEMP POTENTIAL TOTALAVG TEMPAVG PRESSURE GPRESSURE VOLUME PRESSAVG GPRESSAVG
ENERGY: 0 1.6275 6.0257 1.5570 0.0000 -10629.6493 1510.8996 0.0000 0.0000 1782.5143 -7327.0252 305.9352 -9109.5395 -7327.0252 305.9352 811.3430 895.4608 30037.9370 811.3430 895.4608
ENERGY: 300000 4.6294 7.8937 4.0845 0.0000 -10455.7162 1326.3538 0.0000 0.0000 1686.4827 -7426.2722 289.4532 -9112.7549 -7419.2366 295.7835 -704.3626 -656.9994 30308.7813 -252.4900 -182.4695
ENERGY: 600000 5.7015 5.6016 1.4914 0.0000 -10682.5656 1429.8774 0.0000 0.0000 1745.5296 -7494.3642 299.5875 -9239.8938 -7425.4450 299.3036 -128.4006 -24.9188 29697.7707 -119.2331 -41.3054
ENERGY: 900000 2.8834 6.7304 3.8806 0.0000 -10535.4502 1401.3956 0.0000 0.0000 1706.8528 -7413.7075 292.9493 -9120.5602 -7432.0747 297.3944 -74.3762 -57.6262 30012.2785 -126.4678 -64.4126
ENERGY: 1200000 3.3441 7.9297 1.2143 0.0000 -10578.7378 1437.2665 0.0000 0.0000 1703.8827 -7425.1005 292.4395 -9128.9832 -7418.4458 298.4528 59.2817 136.4504 30168.5313 -8.8844 50.6205
ENERGY: 1500000 1.9354 4.7763 1.3536 0.0000 -10612.2115 1448.9161 0.0000 0.0000 1725.6371 -7429.5931 296.1733 -9155.2302 -7423.4065 298.6825 83.6557 192.6999 29964.6628 47.1990 110.1827
TCL: Running FEP window  10: Lambda1 0.5499999999999996 Lambda2 0.4999999999999996 [dLambda -0.04999999999999999]
TCL: Setting parameter firsttimestep to 0
TCL: Setting parameter alchLambda to 0.5499999999999996
Info: NONBONDED TABLE R-SQUARED SPACING: 0.0625
Info: NONBONDED TABLE SIZE: 705 POINTS
TCL: Setting parameter alchLambda2 to 0.4999999999999996
Info: NONBONDED TABLE R-SQUARED SPACING: 0.0625
Info: NONBONDED TABLE SIZE: 705 POINTS
TCL: Running for 1500000 steps
ETITLE: TS BOND ANGLE DIHED IMPRP ELECT VDW BOUNDARY MISC KINETIC TOTAL TEMP POTENTIAL TOTALAVG TEMPAVG PRESSURE GPRESSURE VOLUME PRESSAVG GPRESSAVG
ENERGY: 0 1.9354 4.7763 1.3536 0.0000 -10612.0140 1449.0215 0.0000 0.0000 1724.7493 -7430.1779 296.0209 -9154.9273 -7430.1779 296.0209 105.3218 184.4384 29964.6628 105.3218 184.4384
ENERGY: 300000 1.3297 7.2615 3.0630 0.0000 -10607.6387 1387.2714 0.0000 0.0000 1745.1732 -7463.5399 299.5263 -9208.7131 -7420.5874 298.8046 -200.7299 -148.1508 29668.8597 48.4033 118.0435
ENERGY: 600000 1.3319 2.3636 3.0284 0.0000 -10623.8431 1416.7194 0.0000 0.0000 1669.6629 -7530.7369 286.5664 -9200.3998 -7431.1506 296.8071 -262.9953 -153.3645 29812.5763 -115.8724 -55.1493
ENERGY: 900000 2.5623 6.9204 2.6946 0.0000 -10556.7091 1407.6833 0.0000 0.0000 1790.9080 -7345.9404 307.3758 -9136.8484 -7423.4110 297.7492 -32.7821 -4.5700 30207.3827 8.2919 59.9682
ENERGY: 1200000 1.9986 6.4623 7.5836 0.0000 -10605.9394 1475.0193 0.0000 0.0000 1771.1147 -7343.7608 303.9787 -9114.8755 -7425.2394 297.8060 402.1264 435.0971 30532.7420 -46.9989 1.5066
ENERGY: 1500000 2.6758 7.8982 1.7663 0.0000 -10717.6662 1548.9095 0.0000 0.0000 1753.8140 -7402.6024 301.0093 -9156.4164 -7428.5953 297.8679 951.7525 1003.0586 30014.7917 -11.0814 41.0007
TCL: Running FEP window  11: Lambda1 0.4999999999999996 Lambda2 0.4499999999999996 [dLambda -0.04999999999999999]
TCL: Setting parameter firsttimestep to 0
TCL: Setting parameter alchLambda to 0.4999999999999996
Info: NONBONDED TABLE R-SQUARED SPACING: 0.0625
Info: NONBONDED TABLE SIZE: 705 POINTS
TCL: Setting parameter alchLambda2 to 0.4499999999999996
Info: NONBONDED TABLE R-SQUARED SPACING: 0.0625
Info: NONBONDED TABLE SIZE: 705 POINTS
TCL: Running for 1500000 steps
ETITLE: TS BOND ANGLE DIHED IMPRP ELECT VDW BOUNDARY MISC KINETIC TOTAL TEMP POTENTIAL TOTALAVG TEMPAVG PRESSURE GPRESSURE VOLUME PRESSAVG GPRESSAVG
ENERGY: 0 2.6758 7.8982 1.7663 0.0000 -10717.7438 1548.8522 0.0000 0.0000 1752.9463 -7403.6049 300.8604 -9156.5512 -7403.6049 300.8604 917.9950 992.2831 30014.7917 917.9950 992.2831
ENERGY: 300000 3.9056 5.1330 1.4901 0.0000 -10515.1123 1433.2440 0.0000 0.0000 1768.7186 -7302.6209 303.5674 -9071.3396 -7390.0197 299.1301 -0.4092 40.0418 30563.7199 327.5337 400.5366
ENERGY: 600000 4.1342 7.5677 1.5157 0.0000 -10550.3456 1390.5430 0.0000 0.0000 1772.4493 -7374.1356 304.2077 -9146.5850 -7395.8296 300.0789 -299.1028 -246.8012 29870.6282 207.5319 277.5450
ENERGY: 900000 4.9525 5.5545 2.4142 0.0000 -10479.9614 1373.2519 0.0000 0.0000 1787.2541 -7306.5342 306.7487 -9093.7883 -7388.4603 300.4616 -471.6882 -321.7879 30122.1549 176.2478 252.6113
ENERGY: 1200000 2.6611 5.4714 1.8266 0.0000 -10720.9061 1510.1857 0.0000 0.0000 1754.1752 -7446.5862 301.0713 -9200.7614 -7387.3563 301.0853 638.4658 754.5552 29802.5813 238.5796 310.1427
ENERGY: 1500000 3.7865 3.4718 0.6306 0.0000 -10686.7869 1341.5506 0.0000 0.0000 1746.2166 -7591.1307 299.7054 -9337.3473 -7399.4665 300.7306 -1075.7336 -962.8037 29619.3069 114.5998 177.9637
TCL: Running FEP window  12: Lambda1 0.4499999999999996 Lambda2 0.39999999999999963 [dLambda -0.04999999999999999]
TCL: Setting parameter firsttimestep to 0
TCL: Setting parameter alchLambda to 0.4499999999999996
Info: NONBONDED TABLE R-SQUARED SPACING: 0.0625
Info: NONBONDED TABLE SIZE: 705 POINTS
TCL: Setting parameter alchLambda2 to 0.39999999999999963
Info: NONBONDED TABLE R-SQUARED SPACING: 0.0625
Info: NONBONDED TABLE SIZE: 705 POINTS
TCL: Running for 1500000 steps
ETITLE: TS BOND ANGLE DIHED IMPRP ELECT VDW BOUNDARY MISC KINETIC TOTAL TEMP POTENTIAL TOTALAVG TEMPAVG PRESSURE GPRESSURE VOLUME PRESSAVG GPRESSAVG
ENERGY: 0 3.7865 3.4718 0.6306 0.0000 -10686.7846 1341.3621 0.0000 0.0000 1745.3298 -7592.2038 299.5532 -9337.5336 -7592.2038 299.5532 -1052.7608 -971.5163 29619.3069 -1052.7608 -971.5163
ENERGY: 300000 2.8814 8.7197 3.4375 0.0000 -10600.3644 1443.7987 0.0000 0.0000 1745.0287 -7396.4984 299.5015 -9141.5271 -7448.9268 296.8988 -198.5498 -158.1187 30812.9000 -704.9157 -641.0946
ENERGY: 600000 3.9751 6.7579 3.4331 0.0000 -10456.4252 1319.8302 0.0000 0.0000 1709.9932 -7412.4358 293.4883 -9122.4290 -7439.0919 295.5555 -719.8188 -671.4778 30345.8437 -534.1011 -463.7219
ENERGY: 900000 1.0201 7.2075 2.1619 0.0000 -10666.7624 1448.8621 0.0000 0.0000 1702.0449 -7505.4658 292.1241 -9207.5107 -7439.3961 296.6392 244.2172 274.1536 29724.0830 -370.4724 -302.3565
ENERGY: 1200000 1.9157 8.5114 3.1836 0.0000 -10619.4655 1472.3225 0.0000 0.0000 1800.4000 -7333.1323 309.0049 -9133.5323 -7432.6035 298.0213 335.9191 316.4984 30314.9503 -341.6926 -287.4359
ENERGY: 1500000 3.0349 4.6155 3.3166 0.0000 -10507.2019 1324.9956 0.0000 0.0000 1803.2038 -7368.0355 309.4862 -9171.2393 -7426.8935 298.5311 -655.9582 -585.8871 30232.6928 -358.5886 -301.2143
TCL: Running FEP window  13: Lambda1 0.39999999999999963 Lambda2 0.34999999999999964 [dLambda -0.04999999999999999]
TCL: Setting parameter firsttimestep to 0
TCL: Setting parameter alchLambda to 0.39999999999999963
Info: NONBONDED TABLE R-SQUARED SPACING: 0.0625
Info: NONBONDED TABLE SIZE: 705 POINTS
TCL: Setting parameter alchLambda2 to 0.34999999999999964
Info: NONBONDED TABLE R-SQUARED SPACING: 0.0625
Info: NONBONDED TABLE SIZE: 705 POINTS
TCL: Running for 1500000 steps
ETITLE: TS BOND ANGLE DIHED IMPRP ELECT VDW BOUNDARY MISC KINETIC TOTAL TEMP POTENTIAL TOTALAVG TEMPAVG PRESSURE GPRESSURE VOLUME PRESSAVG GPRESSAVG
ENERGY: 0 3.0349 4.6155 3.3166 0.0000 -10507.2007 1325.4737 0.0000 0.0000 1802.3238 -7368.4362 309.3351 -9170.7600 -7368.4362 309.3351 -664.1489 -589.2083 30232.6928 -664.1489 -589.2083
ENERGY: 300000 1.4039 3.7550 3.1986 0.0000 -10637.5860 1412.8903 0.0000 0.0000 1747.3962 -7468.9420 299.9078 -9216.3382 -7372.4920 304.2453 -547.3099 -396.8906 30233.5488 -177.1285 -74.0904
ENERGY: 600000 3.5987 5.2175 2.9938 0.0000 -10517.0664 1346.6691 0.0000 0.0000 1759.6694 -7398.9178 302.0143 -9158.5872 -7401.6613 301.0990 -641.8649 -595.0357 30087.2388 -244.6944 -155.8812
ENERGY: 900000 1.1704 3.4806 4.9845 0.0000 -10445.1044 1313.9979 0.0000 0.0000 1730.3481 -7391.1230 296.9818 -9121.4710 -7395.7506 300.0157 -335.8013 -280.8876 29559.7106 -355.8251 -277.6061
ENERGY: 1200000 0.8445 8.7642 1.3528 0.0000 -10576.0769 1438.7757 0.0000 0.0000 1727.2805 -7399.0592 296.4553 -9126.3397 -7400.8438 298.8844 71.9969 127.8097 30286.2166 -281.4660 -211.5059
ENERGY: 1500000 2.0062 6.5006 3.0112 0.0000 -10558.6539 1399.8603 0.0000 0.0000 1790.6500 -7356.6257 307.3315 -9147.2756 -7406.7601 298.6687 -82.1785 -70.6990 30218.0069 -260.7594 -187.7930
TCL: Running FEP window  14: Lambda1 0.34999999999999964 Lambda2 0.29999999999999966 [dLambda -0.04999999999999999]
TCL: Setting parameter firsttimestep to 0
TCL: Setting parameter alchLambda to 0.34999999999999964
Info: NONBONDED TABLE R-SQUARED SPACING: 0.0625
Info: NONBONDED TABLE SIZE: 705 POINTS
TCL: Setting parameter alchLambda2 to 0.29999999999999966
Info: NONBONDED TABLE R-SQUARED SPACING: 0.0625
Info: NONBONDED TABLE SIZE: 705 POINTS
TCL: Running for 1500000 steps
ETITLE: TS BOND ANGLE DIHED IMPRP ELECT VDW BOUNDARY MISC KINETIC TOTAL TEMP POTENTIAL TOTALAVG TEMPAVG PRESSURE GPRESSURE VOLUME PRESSAVG GPRESSAVG
ENERGY: 0 2.0062 6.5006 3.0112 0.0000 -10558.6540 1400.1028 0.0000 0.0000 1789.7893 -7357.2439 307.1838 -9147.0332 -7357.2439 307.1838 -155.5470 -74.6713 30218.0069 -155.5470 -74.6713
ENERGY: 300000 1.2416 4.1819 4.5855 0.0000 -10726.2085 1462.3874 0.0000 0.0000 1772.6179 -7481.1943 304.2367 -9253.8121 -7405.4355 301.2683 13.1684 84.8780 29656.9335 -218.4882 -130.6334
ENERGY: 600000 4.4140 3.9903 3.4984 0.0000 -10594.5915 1401.0559 0.0000 0.0000 1774.0108 -7407.6221 304.4757 -9181.6329 -7404.1378 302.0926 -171.1318 -80.0645 29334.6385 2.2069 80.1054
ENERGY: 900000 2.3938 3.8690 1.5607 0.0000 -10475.6798 1325.2979 0.0000 0.0000 1789.6363 -7352.9220 307.1576 -9142.5583 -7406.7388 301.8931 -673.5869 -591.9564 30017.3405 -46.8274 20.9407
ENERGY: 1200000 2.4178 10.8826 1.4188 0.0000 -10501.7070 1369.2769 0.0000 0.0000 1680.9341 -7436.7768 288.5009 -9117.7109 -7409.3341 300.9605 -611.9616 -485.5344 30488.9358 -83.0520 -14.7296
ENERGY: 1500000 2.4972 5.9098 2.4454 0.0000 -10514.6666 1402.7880 0.0000 0.0000 1719.4522 -7381.5739 295.1118 -9101.0261 -7410.5686 300.6781 -192.3138 -125.6502 30221.2773 -120.8039 -56.5464
TCL: Running FEP window  15: Lambda1 0.29999999999999966 Lambda2 0.24999999999999967 [dLambda -0.04999999999999999]
TCL: Setting parameter firsttimestep to 0
TCL: Setting parameter alchLambda to 0.29999999999999966
Info: NONBONDED TABLE R-SQUARED SPACING: 0.0625
Info: NONBONDED TABLE SIZE: 705 POINTS
TCL: Setting parameter alchLambda2 to 0.24999999999999967
Info: NONBONDED TABLE R-SQUARED SPACING: 0.0625
Info: NONBONDED TABLE SIZE: 705 POINTS
TCL: Running for 1500000 steps
ETITLE: TS BOND ANGLE DIHED IMPRP ELECT VDW BOUNDARY MISC KINETIC TOTAL TEMP POTENTIAL TOTALAVG TEMPAVG PRESSURE GPRESSURE VOLUME PRESSAVG GPRESSAVG
ENERGY: 0 2.4972 5.9098 2.4454 0.0000 -10514.6664 1402.1814 0.0000 0.0000 1718.5992 -7383.0333 294.9654 -9101.6326 -7383.0333 294.9654 -210.7403 -131.7229 30221.2773 -210.7403 -131.7229
ENERGY: 300000 5.4143 6.3443 1.2854 0.0000 -10400.2959 1329.0171 0.0000 0.0000 1751.7702 -7306.4644 300.6586 -9058.2346 -7414.1818 297.7603 -866.1771 -824.3213 30638.3433 -302.7115 -264.3388
ENERGY: 600000 2.1164 3.0662 3.5833 0.0000 -10596.4612 1454.4455 0.0000 0.0000 1745.4719 -7387.7780 299.5776 -9133.2499 -7389.4827 299.7400 504.8645 503.7191 29665.7057 -37.9328 0.5543
ENERGY: 900000 2.4846 3.3722 2.5806 0.0000 -10542.4480 1380.1051 0.0000 0.0000 1780.8694 -7373.0362 305.6529 -9153.9056 -7387.1844 301.0331 -232.9343 -170.1271 29672.4314 -6.6734 36.3830
ENERGY: 1200000 2.6370 4.9768 1.5682 0.0000 -10523.6676 1402.8550 0.0000 0.0000 1774.3601 -7337.2704 304.5357 -9111.6306 -7399.2591 300.2685 -149.4652 -106.1531 30098.7217 -45.1621 -2.6999
ENERGY: 1500000 6.0964 5.9756 3.9334 0.0000 -10689.7451 1530.2204 0.0000 0.0000 1684.4963 -7459.0231 289.1122 -9143.5194 -7406.1614 299.0604 662.8149 712.7243 29872.7024 -22.5386 23.2896
TCL: Running FEP window  16: Lambda1 0.24999999999999967 Lambda2 0.19999999999999968 [dLambda -0.04999999999999999]
TCL: Setting parameter firsttimestep to 0
TCL: Setting parameter alchLambda to 0.24999999999999967
Info: NONBONDED TABLE R-SQUARED SPACING: 0.0625
Info: NONBONDED TABLE SIZE: 705 POINTS
TCL: Setting parameter alchLambda2 to 0.19999999999999968
Info: NONBONDED TABLE R-SQUARED SPACING: 0.0625
Info: NONBONDED TABLE SIZE: 705 POINTS
TCL: Running for 1500000 steps
ETITLE: TS BOND ANGLE DIHED IMPRP ELECT VDW BOUNDARY MISC KINETIC TOTAL TEMP POTENTIAL TOTALAVG TEMPAVG PRESSURE GPRESSURE VOLUME PRESSAVG GPRESSAVG
ENERGY: 0 6.0964 5.9756 3.9334 0.0000 -10689.7461 1530.0934 0.0000 0.0000 1683.5975 -7460.0499 288.9580 -9143.6474 -7460.0499 288.9580 608.5261 705.4533 29872.7024 608.5261 705.4533
ENERGY: 300000 2.4509 6.5757 3.6132 0.0000 -10642.1600 1485.1789 0.0000 0.0000 1792.4948 -7351.8464 307.6482 -9144.3413 -7423.3759 300.1592 616.2345 698.2016 30000.8245 225.8428 297.4903
ENERGY: 600000 0.6639 4.7229 2.1032 0.0000 -10608.2854 1408.1472 0.0000 0.0000 1774.5418 -7418.1063 304.5669 -9192.6481 -7435.6419 299.6158 -388.7946 -244.4135 30259.6254 -49.7029 10.1903
ENERGY: 900000 1.9157 2.6921 2.5470 0.0000 -10660.9794 1394.6301 0.0000 0.0000 1715.4124 -7543.7822 294.4184 -9259.1946 -7431.7086 299.6576 -317.0172 -287.9308 29816.9574 -49.8447 7.8602
ENERGY: 1200000 3.6492 7.8287 0.9728 0.0000 -10616.9654 1435.0504 0.0000 0.0000 1752.8091 -7416.6551 300.8368 -9169.4642 -7430.9472 299.7478 -163.6182 -139.7901 30479.4301 -39.4718 18.0050
ENERGY: 1500000 2.3229 4.7038 2.0774 0.0000 -10653.2238 1436.1801 0.0000 0.0000 1756.4989 -7451.4406 301.4701 -9207.9395 -7427.3235 300.2771 -114.1771 -13.6392 29913.8779 -39.4672 19.3852
TCL: Running FEP window  17: Lambda1 0.19999999999999968 Lambda2 0.1499999999999997 [dLambda -0.04999999999999999]
TCL: Setting parameter firsttimestep to 0
TCL: Setting parameter alchLambda to 0.19999999999999968
Info: NONBONDED TABLE R-SQUARED SPACING: 0.0625
Info: NONBONDED TABLE SIZE: 705 POINTS
TCL: Setting parameter alchLambda2 to 0.1499999999999997
Info: NONBONDED TABLE R-SQUARED SPACING: 0.0625
Info: NONBONDED TABLE SIZE: 705 POINTS
TCL: Running for 1500000 steps
ETITLE: TS BOND ANGLE DIHED IMPRP ELECT VDW BOUNDARY MISC KINETIC TOTAL TEMP POTENTIAL TOTALAVG TEMPAVG PRESSURE GPRESSURE VOLUME PRESSAVG GPRESSAVG
ENERGY: 0 2.3229 4.7038 2.0774 0.0000 -10653.2248 1436.2512 0.0000 0.0000 1755.6344 -7452.2349 301.3218 -9207.8694 -7452.2349 301.3218 -105.3208 -15.7134 29913.8779 -105.3208 -15.7134
ENERGY: 300000 1.6029 7.9149 2.3689 0.0000 -10648.9353 1440.0644 0.0000 0.0000 1806.6487 -7390.3355 310.0774 -9196.9842 -7430.7274 299.3401 143.5869 179.2061 29917.0762 -49.9370 15.7870
ENERGY: 600000 1.8897 5.0373 6.0326 0.0000 -10531.4380 1359.2949 0.0000 0.0000 1744.0927 -7415.0908 299.3409 -9159.1835 -7440.3365 299.3127 -383.1232 -270.2295 29653.1054 -16.3296 65.3448
ENERGY: 900000 1.3640 2.6057 2.3131 0.0000 -10576.1902 1407.4211 0.0000 0.0000 1730.6895 -7431.7969 297.0404 -9162.4864 -7428.2708 299.8163 -86.6271 -99.5190 29882.7408 2.0312 77.6710
ENERGY: 1200000 2.2651 6.8482 4.6843 0.0000 -10697.3092 1439.5025 0.0000 0.0000 1731.3517 -7512.6574 297.1541 -9244.0091 -7426.2010 299.5049 -130.4963 -95.9923 29859.0292 -0.1327 66.0429
ENERGY: 1500000 4.8267 3.0808 1.3999 0.0000 -10692.0506 1531.1558 0.0000 0.0000 1736.7447 -7414.8427 298.0797 -9151.5874 -7422.4512 299.9596 301.9876 404.8344 30530.0961 -15.6815 52.3941
TCL: Running FEP window  18: Lambda1 0.1499999999999997 Lambda2 0.09999999999999969 [dLambda -0.05 ]
TCL: Setting parameter firsttimestep to 0
TCL: Setting parameter alchLambda to 0.1499999999999997
Info: NONBONDED TABLE R-SQUARED SPACING: 0.0625
Info: NONBONDED TABLE SIZE: 705 POINTS
TCL: Setting parameter alchLambda2 to 0.09999999999999969
Info: NONBONDED TABLE R-SQUARED SPACING: 0.0625
Info: NONBONDED TABLE SIZE: 705 POINTS
TCL: Running for 1500000 steps
ETITLE: TS BOND ANGLE DIHED IMPRP ELECT VDW BOUNDARY MISC KINETIC TOTAL TEMP POTENTIAL TOTALAVG TEMPAVG PRESSURE GPRESSURE VOLUME PRESSAVG GPRESSAVG
ENERGY: 0 4.8267 3.0808 1.3999 0.0000 -10692.0513 1531.0317 0.0000 0.0000 1735.8743 -7415.8377 297.9303 -9151.7120 -7415.8377 297.9303 327.3903 400.9030 30530.0961 327.3903 400.9030
ENERGY: 300000 4.9817 2.8084 1.7611 0.0000 -10508.5813 1329.3676 0.0000 0.0000 1733.4342 -7436.2284 297.5115 -9169.6626 -7447.6968 298.7355 -972.9800 -916.8972 30135.0261 -90.5179 -63.4502
ENERGY: 600000 2.9163 6.3427 1.7392 0.0000 -10701.6290 1531.3530 0.0000 0.0000 1745.0440 -7414.2339 299.5041 -9159.2779 -7438.8968 300.3551 809.0519 783.7948 29995.2947 249.4185 269.1127
ENERGY: 900000 4.9659 6.0078 1.9597 0.0000 -10750.9244 1560.6034 0.0000 0.0000 1783.2896 -7394.0981 306.0683 -9177.3877 -7418.0583 300.9959 1066.6766 1123.1512 30019.5340 193.1892 223.7754
ENERGY: 1200000 2.6947 4.3231 2.4706 0.0000 -10674.7660 1481.2375 0.0000 0.0000 1767.8886 -7416.1515 303.4250 -9184.0401 -7417.3633 300.4962 450.5020 442.5769 29847.2660 238.8690 270.8964
ENERGY: 1500000 2.8936 8.5686 1.2424 0.0000 -10607.2395 1438.0535 0.0000 0.0000 1745.5664 -7410.9149 299.5938 -9156.4813 -7411.0818 301.1232 82.8231 145.8338 29798.0785 124.0819 161.4970
TCL: Running FEP window  19: Lambda1 0.09999999999999969 Lambda2 0.049999999999999684 [dLambda -0.05 ]
TCL: Setting parameter firsttimestep to 0
TCL: Setting parameter alchLambda to 0.09999999999999969
Info: NONBONDED TABLE R-SQUARED SPACING: 0.0625
Info: NONBONDED TABLE SIZE: 705 POINTS
TCL: Setting parameter alchLambda2 to 0.049999999999999684
Info: NONBONDED TABLE R-SQUARED SPACING: 0.0625
Info: NONBONDED TABLE SIZE: 705 POINTS
TCL: Running for 1500000 steps
ETITLE: TS BOND ANGLE DIHED IMPRP ELECT VDW BOUNDARY MISC KINETIC TOTAL TEMP POTENTIAL TOTALAVG TEMPAVG PRESSURE GPRESSURE VOLUME PRESSAVG GPRESSAVG
ENERGY: 0 2.8936 8.5686 1.2424 0.0000 -10607.2402 1437.2742 0.0000 0.0000 1744.7087 -7412.5527 299.4466 -9157.2614 -7412.5527 299.4466 69.0485 137.8811 29798.0785 69.0485 137.8811
ENERGY: 300000 4.7918 4.3709 3.5806 0.0000 -10518.5139 1370.0496 0.0000 0.0000 1783.7739 -7351.9472 306.1514 -9135.7211 -7414.0837 301.4367 -537.0550 -451.8334 30252.2034 -399.1012 -326.3094
ENERGY: 600000 5.0551 5.3670 1.3767 0.0000 -10507.7833 1408.3856 0.0000 0.0000 1834.4067 -7253.1922 314.8416 -9087.5990 -7427.3035 300.2621 -57.5055 58.7152 30238.1301 -323.7248 -240.9161
ENERGY: 900000 1.3178 6.6922 1.9064 0.0000 -10685.0250 1385.5990 0.0000 0.0000 1720.3204 -7569.1891 295.2608 -9289.5095 -7448.7324 299.7424 -794.4557 -738.9202 29824.7941 -293.6491 -215.7235
ENERGY: 1200000 1.8075 4.5827 4.5115 0.0000 -10480.2845 1386.9496 0.0000 0.0000 1756.8158 -7325.6174 301.5245 -9082.4332 -7435.9439 300.8372 -524.6561 -503.7216 31042.1467 -349.3776 -277.4125
ENERGY: 1500000 1.1068 4.1657 2.3495 0.0000 -10543.1322 1359.1528 0.0000 0.0000 1761.1723 -7415.1851 302.2722 -9176.3574 -7429.7532 301.2456 -828.6821 -774.6729 30275.8751 -350.5611 -277.9428
TCL: Running FEP window  20: Lambda1 0.049999999999999684 Lambda2 0.0    [dLambda -0.049999999999999684]
TCL: Setting parameter firsttimestep to 0
TCL: Setting parameter alchLambda to 0.049999999999999684
Info: NONBONDED TABLE R-SQUARED SPACING: 0.0625
Info: NONBONDED TABLE SIZE: 705 POINTS
TCL: Setting parameter alchLambda2 to 0.0
Info: NONBONDED TABLE R-SQUARED SPACING: 0.0625
Info: NONBONDED TABLE SIZE: 705 POINTS
TCL: Running for 1500000 steps
ETITLE: TS BOND ANGLE DIHED IMPRP ELECT VDW BOUNDARY MISC KINETIC TOTAL TEMP POTENTIAL TOTALAVG TEMPAVG PRESSURE GPRESSURE VOLUME PRESSAVG GPRESSAVG
ENERGY: 0 1.1068 4.1657 2.3495 0.0000 -10543.1336 1358.9184 0.0000 0.0000 1760.2751 -7416.3182 302.1183 -9176.5933 -7416.3182 302.1183 -853.1638 -779.8974 30275.8751 -853.1638 -779.8974
ENERGY: 300000 2.1112 7.1027 1.1524 0.0000 -10566.2120 1429.3459 0.0000 0.0000 1710.4348 -7416.0650 293.5641 -9126.4998 -7431.1986 300.4326 -12.3901 35.5240 30245.9396 -224.2483 -168.1948
ENERGY: 600000 5.3639 5.3333 1.6165 0.0000 -10549.9506 1414.5484 0.0000 0.0000 1776.5007 -7346.5879 304.9031 -9123.0886 -7406.2271 302.2373 -76.1314 29.3265 29775.7358 -173.3353 -104.3128
ENERGY: 900000 3.0765 3.1774 0.7926 0.0000 -10644.5638 1487.8434 0.0000 0.0000 1745.2495 -7404.4244 299.5394 -9149.6739 -7399.1861 301.7831 346.2453 402.9894 29871.1791 -17.1260 40.4794
ENERGY: 1200000 2.2452 6.7561 3.8174 0.0000 -10508.8934 1382.2256 0.0000 0.0000 1635.5325 -7478.3166 280.7085 -9113.8491 -7410.6270 299.3696 -595.7726 -504.9454 30439.5096 -100.3022 -36.0549
ENERGY: 1500000 1.8892 3.6908 4.4669 0.0000 -10649.4144 1453.1812 0.0000 0.0000 1740.2383 -7445.9480 298.6793 -9186.1864 -7408.9612 299.0976 394.0217 422.9042 29750.4771 -20.8877 43.1731
TCL: Exiting due to exit command.
