Info: SIMULATION PARAMETERS:
Info: TIMESTEP               2
Info: NUMBER OF STEPS        0
Info: STEPS PER CYCLE        10
Info: PERIODIC CELL BASIS 1  31.6192 0 0
Info: PERIODIC CELL BASIS 2  0 29.9462 0
Info: PERIODIC CELL BASIS 3  0 0 32.0434
Info: PERIODIC CELL CENTER   0 0 0
Info: WRAPPING WATERS AROUND PERIODIC BOUNDARIES ON OUTPUT.
Info: WRAPPING ALL CLUSTERS AROUND PERIODIC BOUNDARIES ON OUTPUT.
Info: FIRST LDB TIMESTEP     50
Info: LAST LDB TIMESTEP     -1
Info: HOM BACKGROUND SCALING 1
Info: PME BACKGROUND SCALING 1
Info: MIN ATOMS PER PATCH    40
Info: EMPTY PATCH LOAD       40 ATOMS
Info: VELOCITY FILE          mobley_3452749_equil.vel
Info: CENTER OF MASS MOVING INITIALLY? NO
Info: DIELECTRIC             1
Info: EXCLUDE                SCALED ONE-FOUR
Info: 1-4 ELECTROSTATICS SCALED BY 0.833333
Info: MODIFIED 1-4 VDW PARAMETERS WILL BE USED
Info: DCD FILENAME           mobley_3452749_prod.dcd
Info: DCD FREQUENCY          100000
Info: DCD FIRST STEP         100000
Info: DCD FILE WILL CONTAIN UNIT CELL DATA
Info: XST FILENAME           mobley_3452749_prod.xst
Info: XST FREQUENCY          100000
Info: NO VELOCITY DCD OUTPUT
Info: NO FORCE DCD OUTPUT
Info: OUTPUT FILENAME        mobley_3452749_prod
Info: BINARY OUTPUT FILES WILL BE USED
Info: RESTART FILENAME       mobley_3452749_prod.restart
Info: RESTART FREQUENCY      100000
Info: BINARY RESTART FILES WILL BE USED
Info: CUTOFF                 9
Info: PAIRLIST DISTANCE      11
Info: PAIRLIST SHRINK RATE   0.01
Info: PAIRLIST GROW RATE     0.01
Info: PAIRLIST TRIGGER       0.3
Info: PAIRLISTS PER CYCLE    2
Info: PAIRLISTS ENABLED
Info: MARGIN                 2
Info: HYDROGEN GROUP CUTOFF  2.5
Info: PATCH DIMENSION        15.5
Info: ENERGY OUTPUT STEPS    100000
Info: ENERGY EVALUATION STEPS    100000
Info: OUTPUT ENERGY PRECISION 4
Info: CROSSTERM ENERGY INCLUDED IN DIHEDRAL
Info: TIMING OUTPUT STEPS    1000000
Info: PRESSURE OUTPUT STEPS  100000
Info: ALCHEMICAL FEP ON
Info: FEP CURRENT LAMBDA VALUE     0
Info: FEP COMPARISON LAMBDA VALUE  0.05
Info: FEP INTRA-ALCHEMICAL NON-BONDED INTERACTIONS WILL BE RETAINED
Info: FEP INTRA-ALCHEMICAL BONDED INTERACTIONS WILL BE RETAINED
Info: FEP VDW SHIFTING COEFFICIENT 5
Info: FEP ELEC. ACTIVE FOR ANNIHILATED PARTICLES BETWEEN LAMBDA = 0 AND LAMBDA = 0.5
Info: FEP ELEC. ACTIVE FOR EXNIHILATED PARTICLES BETWEEN LAMBDA = 0.5 AND LAMBDA = 1
Info: FEP VDW ACTIVE FOR ANNIHILATED PARTICLES BETWEEN LAMBDA = 0 AND LAMBDA = 1
Info: FEP VDW ACTIVE FOR EXNIHILATED PARTICLES BETWEEN LAMBDA = 0 AND LAMBDA = 1
Info: FEP BOND ACTIVE FOR ANNIHILATED PARTICLES BETWEEN LAMBDA = 1 AND LAMBDA = 1
Info: FEP BOND ACTIVE FOR EXNIHILATED PARTICLES BETWEEN LAMBDA = 0 AND LAMBDA = 0
Info: LANGEVIN DYNAMICS ACTIVE
Info: LANGEVIN TEMPERATURE   300
Info: LANGEVIN USING BBK INTEGRATOR
Info: LANGEVIN DAMPING COEFFICIENT IS 1 INVERSE PS
Info: LANGEVIN DYNAMICS APPLIED TO HYDROGENS
Info: LANGEVIN PISTON PRESSURE CONTROL ACTIVE
Info:        TARGET PRESSURE IS 1.01325 BAR
Info:     OSCILLATION PERIOD IS 50 FS
Info:             DECAY TIME IS 25 FS
Info:     PISTON TEMPERATURE IS 300 K
Info:       PRESSURE CONTROL IS GROUP-BASED
Info:    INITIAL STRAIN RATE IS -9.54408e-05 -9.54408e-05 -9.54408e-05
Info:       CELL FLUCTUATION IS ISOTROPIC
Info: PARTICLE MESH EWALD (PME) ACTIVE
Info: PME TOLERANCE               1e-06
Info: PME EWALD COEFFICIENT       0.348832
Info: PME INTERPOLATION ORDER     4
Info: PME GRID DIMENSIONS         32 32 36
Info: PME MAXIMUM GRID SPACING    1
Info: PME CALCULATION WILL BE PERFORMED ON GPU
Info: FULL ELECTROSTATIC EVALUATION FREQUENCY      2
Info: USING VERLET I (r-RESPA) MTS SCHEME.
Info: C1 SPLITTING OF LONG RANGE ELECTROSTATICS
Info: PLACING ATOMS IN PATCHES BY HYDROGEN GROUPS
Info: RIGID BONDS TO HYDROGEN : ALL
Info:         ERROR TOLERANCE : 1e-08
Info:          MAX ITERATIONS : 100
Info: RIGID WATER USING SETTLE ALGORITHM
Info: RANDOM NUMBER SEED     1743623608
Info: USE HYDROGEN BONDS?    NO
Info: Using AMBER format force field!
Info: AMBER PARM FILE        mobley_3452749.prmtop
Info: COORDINATE PDB         mobley_3452749.pdb
Info: Exclusions will be read from PARM file!
Info: SCNB (VDW SCALING)     2
Info: USING ARITHMETIC MEAN TO COMBINE L-J SIGMA PARAMETERS
Info: BINARY COORDINATES     mobley_3452749_equil.coor
Info: SUMMARY OF PARAMETERS:
Info: 6 BONDS
Info: 5 ANGLES
Info:   5 HARMONIC
Info:   0 COSINE-BASED
Info: 3 DIHEDRAL
Info: 0 IMPROPER
Info: 0 CROSSTERM
Info: 0 VDW
Info: 21 VDW_PAIRS
Info: 0 NBTHOLE_PAIRS
Info: To read alchdata from file: mobley_3452749.pdb
Info: To read alchflag data from column: 5
Info: STRUCTURE SUMMARY:
Info: 2985 ATOMS
Info: 2985 BONDS
Info: 36 ANGLES
Info: 48 DIHEDRALS
Info: 0 IMPROPERS
Info: 0 CROSSTERMS
Info: 3060 EXCLUSIONS
Info: 2976 RIGID BONDS
Info: ALCH: 0 ATOMS TO DISAPPEAR IN FINAL STATE
Info: ALCH: 21 ATOMS TO APPEAR IN FINAL STATE
Info: 5979 DEGREES OF FREEDOM
Info: 997 HYDROGEN GROUPS
Info: 4 ATOMS IN LARGEST HYDROGEN GROUP
Info: 997 MIGRATION GROUPS
Info: 4 ATOMS IN LARGEST MIGRATION GROUP
Info: TOTAL MASS = 17920 amu
Info: TOTAL CHARGE = 0.00010002 e
Info: MASS DENSITY = 0.980768 g/cm^3
Info: ATOM DENSITY = 0.0983815 atoms/A^3
Info: ADDED 0 IMPLICIT EXCLUSIONS
Info: NONBONDED TABLE R-SQUARED SPACING: 0.0625
Info: NONBONDED TABLE SIZE: 705 POINTS
Info: REMOVING COM VELOCITY -0.0294365 -0.175043 0.0990838
Info: Use 3D box decompostion in PME FFT.
Info: Updated CUDA force table with 4096 elements.
Info: Updated CUDA LJ table with 6 x 6 elements.
Info: Found 19 unique exclusion lists needing 52 bytes
TCL: Running for 1500000 steps
ETITLE: TS BOND ANGLE DIHED IMPRP ELECT VDW BOUNDARY MISC KINETIC TOTAL TEMP POTENTIAL TOTALAVG TEMPAVG PRESSURE GPRESSURE VOLUME PRESSAVG GPRESSAVG
ENERGY: 0 2.3934 12.5150 1.8405 0.0000 -10832.1188 1468.4434 0.0000 0.0000 1769.8893 -7577.0372 297.9257 -9346.9264 -7577.0372 297.9257 29.5278 117.3827 30341.0678 29.5278 117.3827
ENERGY: 300000 3.1152 6.7005 2.2012 0.0000 -10756.0126 1371.5494 0.0000 0.0000 1812.8205 -7559.6259 305.1523 -9372.4464 -7527.6193 301.1532 -764.9282 -665.5978 30452.5498 -118.5345 -28.2386
ENERGY: 600000 2.6027 9.2247 2.8938 0.0000 -10904.4939 1480.5334 0.0000 0.0000 1780.8145 -7628.4249 299.7647 -9409.2394 -7558.3691 300.6935 79.6606 173.1326 30139.1693 -21.5487 72.3209
ENERGY: 900000 3.2724 8.7879 2.7766 0.0000 -10888.1907 1571.4637 0.0000 0.0000 1708.8474 -7593.0427 287.6505 -9301.8900 -7551.0987 298.9206 544.5912 678.5058 30720.3770 -40.8278 42.0205
ENERGY: 1200000 7.1457 8.6827 2.8743 0.0000 -10761.5234 1473.1663 0.0000 0.0000 1822.8477 -7446.8068 306.8402 -9269.6544 -7530.1297 300.0173 252.0201 266.2869 30321.9180 -101.2888 -27.8193
ENERGY: 1500000 2.6258 6.7295 1.1204 0.0000 -10897.4319 1469.3660 0.0000 0.0000 1784.8958 -7632.6944 300.4517 -9417.5902 -7537.4595 300.2518 -139.5016 -152.4297 30507.7003 -40.8505 17.4056
TCL: Running FEP window   2: Lambda1 0.05   Lambda2 0.1    [dLambda 0.05  ]
TCL: Setting parameter firsttimestep to 0
TCL: Setting parameter alchLambda to 0.05
Info: NONBONDED TABLE R-SQUARED SPACING: 0.0625
Info: NONBONDED TABLE SIZE: 705 POINTS
TCL: Setting parameter alchLambda2 to 0.1
Info: NONBONDED TABLE R-SQUARED SPACING: 0.0625
Info: NONBONDED TABLE SIZE: 705 POINTS
TCL: Running for 1500000 steps
ETITLE: TS BOND ANGLE DIHED IMPRP ELECT VDW BOUNDARY MISC KINETIC TOTAL TEMP POTENTIAL TOTALAVG TEMPAVG PRESSURE GPRESSURE VOLUME PRESSAVG GPRESSAVG
ENERGY: 0 2.6258 6.7295 1.1204 0.0000 -10897.4329 1473.3410 0.0000 0.0000 1784.0296 -7629.5867 300.3059 -9413.6163 -7629.5867 300.3059 -229.7087 -145.3125 30507.7003 -229.7087 -145.3125
ENERGY: 300000 2.7874 6.1197 1.3770 0.0000 -10744.9188 1466.7830 0.0000 0.0000 1703.4562 -7564.3955 286.7430 -9267.8517 -7566.8852 297.5683 -74.4453 -26.1938 31182.5326 114.1306 152.9325
ENERGY: 600000 2.2902 7.7003 1.5510 0.0000 -10913.6327 1538.9431 0.0000 0.0000 1796.2107 -7566.9374 302.3564 -9363.1481 -7559.4998 300.1086 400.2692 434.4639 30977.0857 -45.9013 4.7243
ENERGY: 900000 3.3146 7.1094 2.8853 0.0000 -10880.3860 1492.1992 0.0000 0.0000 1768.3065 -7606.5710 297.6592 -9374.8776 -7567.8540 299.8400 173.4460 220.9933 30393.1632 -95.7888 -37.9098
ENERGY: 1200000 6.0120 7.1862 4.5112 0.0000 -10715.4370 1398.9349 0.0000 0.0000 1766.0202 -7532.7725 297.2744 -9298.7928 -7562.6042 298.9002 -795.9914 -695.4036 30745.2473 -148.6711 -83.7969
ENERGY: 1500000 1.6751 6.2446 5.3715 0.0000 -10758.2867 1452.5637 0.0000 0.0000 1830.2130 -7462.2190 308.0800 -9292.4319 -7554.7236 298.5391 145.2336 198.9429 30373.0540 -145.0962 -81.2456
TCL: Running FEP window   3: Lambda1 0.1    Lambda2 0.15000000000000002 [dLambda 0.05000000000000002]
TCL: Setting parameter firsttimestep to 0
TCL: Setting parameter alchLambda to 0.1
Info: NONBONDED TABLE R-SQUARED SPACING: 0.0625
Info: NONBONDED TABLE SIZE: 705 POINTS
TCL: Setting parameter alchLambda2 to 0.15000000000000002
Info: NONBONDED TABLE R-SQUARED SPACING: 0.0625
Info: NONBONDED TABLE SIZE: 705 POINTS
TCL: Running for 1500000 steps
ETITLE: TS BOND ANGLE DIHED IMPRP ELECT VDW BOUNDARY MISC KINETIC TOTAL TEMP POTENTIAL TOTALAVG TEMPAVG PRESSURE GPRESSURE VOLUME PRESSAVG GPRESSAVG
ENERGY: 0 1.6751 6.2446 5.3715 0.0000 -10758.2885 1454.4941 0.0000 0.0000 1829.3302 -7461.1730 307.9314 -9290.5032 -7461.1730 307.9314 131.0987 206.9344 30373.0540 131.0987 206.9344
ENERGY: 300000 3.0731 9.3708 2.2686 0.0000 -10861.7467 1466.4280 0.0000 0.0000 1770.3812 -7610.2249 298.0085 -9380.6061 -7489.8857 302.5473 111.3416 215.1401 30039.7228 31.3387 125.4965
ENERGY: 600000 2.6860 6.0175 2.8975 0.0000 -10699.8196 1443.8644 0.0000 0.0000 1832.6915 -7411.6629 308.4972 -9244.3543 -7480.5020 302.8009 204.3632 250.8718 30390.9281 -23.5581 50.8279
ENERGY: 900000 2.9174 9.3945 4.5128 0.0000 -10767.6853 1428.0831 0.0000 0.0000 1792.1792 -7530.5982 301.6777 -9322.7774 -7500.3751 302.6866 -408.0296 -366.0348 30940.7786 -78.7942 -3.2469
ENERGY: 1200000 4.7951 5.2474 2.5557 0.0000 -10635.9931 1312.6248 0.0000 0.0000 1742.5657 -7568.2045 293.3263 -9310.7702 -7501.6364 301.8085 -996.5333 -962.0839 30554.8537 -113.4827 -46.2376
ENERGY: 1500000 2.3017 7.7128 1.5077 0.0000 -10708.9739 1427.1671 0.0000 0.0000 1708.7526 -7561.5321 287.6345 -9270.2847 -7509.1554 300.9744 -277.1291 -223.0487 30826.0489 -98.0212 -30.6057
TCL: Running FEP window   4: Lambda1 0.15000000000000002 Lambda2 0.2    [dLambda 0.04999999999999999]
TCL: Setting parameter firsttimestep to 0
TCL: Setting parameter alchLambda to 0.15000000000000002
Info: NONBONDED TABLE R-SQUARED SPACING: 0.0625
Info: NONBONDED TABLE SIZE: 705 POINTS
TCL: Setting parameter alchLambda2 to 0.2
Info: NONBONDED TABLE R-SQUARED SPACING: 0.0625
Info: NONBONDED TABLE SIZE: 705 POINTS
TCL: Running for 1500000 steps
ETITLE: TS BOND ANGLE DIHED IMPRP ELECT VDW BOUNDARY MISC KINETIC TOTAL TEMP POTENTIAL TOTALAVG TEMPAVG PRESSURE GPRESSURE VOLUME PRESSAVG GPRESSAVG
ENERGY: 0 2.3017 7.7128 1.5077 0.0000 -10708.9747 1430.1112 0.0000 0.0000 1707.8742 -7559.4672 287.4867 -9267.3413 -7559.4672 287.4867 -283.5372 -208.1511 30826.0489 -283.5372 -208.1511
ENERGY: 300000 2.8597 6.2764 2.6962 0.0000 -10697.6130 1413.3623 0.0000 0.0000 1805.3847 -7467.0337 303.9006 -9272.4184 -7529.1295 293.9821 -210.7131 -101.1338 30414.0031 -86.4817 -30.8201
ENERGY: 600000 1.7763 5.0484 2.5106 0.0000 -10830.4724 1510.8396 0.0000 0.0000 1818.6593 -7491.6383 306.1351 -9310.2976 -7537.0305 296.6770 515.1729 560.2014 30524.6924 206.2556 264.7309
ENERGY: 900000 2.5154 5.7899 4.1521 0.0000 -10779.0568 1459.2805 0.0000 0.0000 1750.6203 -7556.6986 294.6821 -9307.3189 -7527.9737 297.7621 -188.0122 -84.0798 30830.2409 82.2653 135.9228
ENERGY: 1200000 6.3149 9.3243 1.2433 0.0000 -10727.1727 1440.9484 0.0000 0.0000 1763.9915 -7505.3504 296.9329 -9269.3419 -7530.5869 298.0029 250.5038 277.7852 30357.0223 69.9880 124.8246
ENERGY: 1500000 2.8599 8.2634 1.2294 0.0000 -10851.4399 1452.9250 0.0000 0.0000 1811.6772 -7574.4851 304.9598 -9386.1622 -7538.9089 298.2801 11.4639 100.9448 30102.9058 124.1389 186.6165
TCL: Running FEP window   5: Lambda1 0.2    Lambda2 0.25   [dLambda 0.04999999999999999]
TCL: Setting parameter firsttimestep to 0
TCL: Setting parameter alchLambda to 0.2
Info: NONBONDED TABLE R-SQUARED SPACING: 0.0625
Info: NONBONDED TABLE SIZE: 705 POINTS
TCL: Setting parameter alchLambda2 to 0.25
Info: NONBONDED TABLE R-SQUARED SPACING: 0.0625
Info: NONBONDED TABLE SIZE: 705 POINTS
TCL: Running for 1500000 steps
ETITLE: TS BOND ANGLE DIHED IMPRP ELECT VDW BOUNDARY MISC KINETIC TOTAL TEMP POTENTIAL TOTALAVG TEMPAVG PRESSURE GPRESSURE VOLUME PRESSAVG GPRESSAVG
ENERGY: 0 2.8599 8.2634 1.2294 0.0000 -10851.4384 1452.5355 0.0000 0.0000 1810.7694 -7575.7809 304.8070 -9386.5503 -7575.7809 304.8070 23.6888 102.4166 30102.9058 23.6888 102.4166
ENERGY: 300000 4.0123 6.9365 1.8817 0.0000 -10808.8954 1426.5862 0.0000 0.0000 1772.9533 -7596.5254 298.4414 -9369.4787 -7514.2565 306.0959 -617.9163 -515.6081 30684.6463 -74.0235 -10.7560
ENERGY: 600000 2.9867 9.2889 3.3784 0.0000 -10821.8284 1488.4049 0.0000 0.0000 1766.8290 -7550.9406 297.4105 -9317.7696 -7507.8715 303.5713 217.4745 292.5498 30544.8597 -114.8511 -67.6416
ENERGY: 900000 5.0517 5.7506 3.3534 0.0000 -10663.4196 1343.3847 0.0000 0.0000 1809.0348 -7496.8444 304.5150 -9305.8791 -7511.6825 304.9123 -647.2184 -573.4612 30187.0642 -152.3144 -101.1284
ENERGY: 1200000 2.1989 7.9972 1.6171 0.0000 -10907.6481 1547.6113 0.0000 0.0000 1748.8456 -7599.3779 294.3834 -9348.2235 -7520.0937 304.0902 499.4466 604.5077 30579.9565 -60.9009 -1.3686
ENERGY: 1500000 4.0088 7.7574 2.5696 0.0000 -10870.3564 1506.2818 0.0000 0.0000 1821.9642 -7527.7746 306.6915 -9349.7388 -7516.5079 304.0842 397.0593 429.1774 30558.6881 1.1748 64.0456
TCL: Running FEP window   6: Lambda1 0.25   Lambda2 0.3    [dLambda 0.04999999999999999]
TCL: Setting parameter firsttimestep to 0
TCL: Setting parameter alchLambda to 0.25
Info: NONBONDED TABLE R-SQUARED SPACING: 0.0625
Info: NONBONDED TABLE SIZE: 705 POINTS
TCL: Setting parameter alchLambda2 to 0.3
Info: NONBONDED TABLE R-SQUARED SPACING: 0.0625
Info: NONBONDED TABLE SIZE: 705 POINTS
TCL: Running for 1500000 steps
ETITLE: TS BOND ANGLE DIHED IMPRP ELECT VDW BOUNDARY MISC KINETIC TOTAL TEMP POTENTIAL TOTALAVG TEMPAVG PRESSURE GPRESSURE VOLUME PRESSAVG GPRESSAVG
ENERGY: 0 4.0088 7.7574 2.5696 0.0000 -10870.3564 1505.8429 0.0000 0.0000 1821.0874 -7529.0903 306.5439 -9350.1777 -7529.0903 306.5439 343.5659 429.8620 30558.6881 343.5659 429.8620
ENERGY: 300000 1.9399 9.5488 3.0143 0.0000 -10632.4728 1400.9136 0.0000 0.0000 1783.7481 -7433.3081 300.2585 -9217.0562 -7520.4662 301.6618 -87.0205 -68.2951 30702.2073 135.9189 200.0277
ENERGY: 600000 4.2629 12.0491 2.1793 0.0000 -10664.8101 1331.1060 0.0000 0.0000 1807.6352 -7507.5775 304.2794 -9315.2127 -7528.2271 302.3336 -1318.7817 -1169.5424 30933.6972 -172.8312 -86.6395
ENERGY: 900000 2.6242 6.0907 4.5922 0.0000 -10836.2942 1544.3001 0.0000 0.0000 1816.9160 -7461.7711 305.8417 -9278.6871 -7531.4796 301.9053 820.4985 841.1547 30570.5633 -75.3582 -5.9488
ENERGY: 1200000 1.5034 8.9348 6.0605 0.0000 -10729.2684 1432.5003 0.0000 0.0000 1825.0449 -7455.2245 307.2100 -9280.2694 -7529.7741 301.2513 -99.9245 -64.0320 30487.6114 -144.4768 -76.4572
ENERGY: 1500000 2.8596 7.4351 1.3178 0.0000 -10724.1888 1429.6202 0.0000 0.0000 1680.4682 -7602.4880 282.8734 -9282.9562 -7537.4329 299.6859 -278.6514 -172.1182 30436.1540 -114.3605 -46.2812
TCL: Running FEP window   7: Lambda1 0.3    Lambda2 0.35   [dLambda 0.04999999999999999]
TCL: Setting parameter firsttimestep to 0
TCL: Setting parameter alchLambda to 0.3
Info: NONBONDED TABLE R-SQUARED SPACING: 0.0625
Info: NONBONDED TABLE SIZE: 705 POINTS
TCL: Setting parameter alchLambda2 to 0.35
Info: NONBONDED TABLE R-SQUARED SPACING: 0.0625
Info: NONBONDED TABLE SIZE: 705 POINTS
TCL: Running for 1500000 steps
ETITLE: TS BOND ANGLE DIHED IMPRP ELECT VDW BOUNDARY MISC KINETIC TOTAL TEMP POTENTIAL TOTALAVG TEMPAVG PRESSURE GPRESSURE VOLUME PRESSAVG GPRESSAVG
ENERGY: 0 2.8596 7.4351 1.3178 0.0000 -10724.1887 1430.5455 0.0000 0.0000 1679.6245 -7602.4063 282.7314 -9282.0307 -7602.4063 282.7314 -236.5340 -160.7664 30436.1540 -236.5340 -160.7664
ENERGY: 300000 1.4375 8.3243 2.3239 0.0000 -10764.9582 1448.6412 0.0000 0.0000 1750.5443 -7553.6870 294.6693 -9304.2313 -7570.4690 293.6624 -23.8438 52.6865 30745.2977 21.6845 84.3608
ENERGY: 600000 3.5655 6.9176 1.5106 0.0000 -10679.5247 1416.9833 0.0000 0.0000 1781.8376 -7468.7100 299.9369 -9250.5476 -7561.8583 297.9155 -154.7627 -72.2511 30817.1798 -187.6429 -118.3395
ENERGY: 900000 3.1817 7.9329 3.4398 0.0000 -10703.5209 1407.4329 0.0000 0.0000 1724.7866 -7556.7471 290.3335 -9281.5337 -7553.6979 298.2766 -477.2636 -482.7054 30948.7978 -193.8186 -123.5114
ENERGY: 1200000 2.9819 9.1968 3.2819 0.0000 -10716.3002 1415.6063 0.0000 0.0000 1775.7627 -7509.4706 298.9143 -9285.2333 -7554.1176 298.0330 -262.2057 -255.7280 30850.5335 -183.3258 -116.2594
ENERGY: 1500000 3.5280 13.4969 2.6119 0.0000 -10752.0277 1461.2145 0.0000 0.0000 1813.3180 -7457.8583 305.2360 -9271.1763 -7544.3003 298.5422 489.9235 547.6327 30171.5853 -149.8339 -80.4680
TCL: Running FEP window   8: Lambda1 0.35   Lambda2 0.39999999999999997 [dLambda 0.04999999999999999]
TCL: Setting parameter firsttimestep to 0
TCL: Setting parameter alchLambda to 0.35
Info: NONBONDED TABLE R-SQUARED SPACING: 0.0625
Info: NONBONDED TABLE SIZE: 705 POINTS
TCL: Setting parameter alchLambda2 to 0.39999999999999997
Info: NONBONDED TABLE R-SQUARED SPACING: 0.0625
Info: NONBONDED TABLE SIZE: 705 POINTS
TCL: Running for 1500000 steps
ETITLE: TS BOND ANGLE DIHED IMPRP ELECT VDW BOUNDARY MISC KINETIC TOTAL TEMP POTENTIAL TOTALAVG TEMPAVG PRESSURE GPRESSURE VOLUME PRESSAVG GPRESSAVG
ENERGY: 0 3.5280 13.4969 2.6119 0.0000 -10752.0275 1460.9974 0.0000 0.0000 1812.3976 -7458.9956 305.0811 -9271.3932 -7458.9956 305.0811 470.1236 552.2215 30171.5853 470.1236 552.2215
ENERGY: 300000 6.4396 7.2805 2.6333 0.0000 -10753.0274 1406.1509 0.0000 0.0000 1741.4232 -7589.0997 293.1340 -9330.5229 -7477.9129 301.2003 -331.6067 -251.6565 30646.4185 -210.7421 -133.2128
ENERGY: 600000 7.9331 4.1994 5.9459 0.0000 -10784.8746 1405.8853 0.0000 0.0000 1757.3616 -7603.5494 295.8169 -9360.9109 -7512.4236 301.4348 -352.2104 -252.9038 30134.8312 -59.2292 17.4958
ENERGY: 900000 2.8746 5.9207 3.2795 0.0000 -10567.6167 1302.2367 0.0000 0.0000 1762.1786 -7491.1266 296.6277 -9253.3051 -7532.4808 300.9224 -1280.4627 -1226.5594 31202.1211 -160.4612 -80.2291
ENERGY: 1200000 2.1949 5.5291 2.9485 0.0000 -10835.8205 1476.1118 0.0000 0.0000 1759.3271 -7589.7092 296.1477 -9349.0363 -7539.5982 299.8723 361.3007 372.0655 30149.7097 -57.3395 17.8778
ENERGY: 1500000 0.9781 8.2778 4.1518 0.0000 -10604.7698 1388.2244 0.0000 0.0000 1750.5522 -7452.5855 294.6707 -9203.1377 -7530.1654 299.8984 -240.5364 -242.1298 31064.2347 -0.8274 70.9844
TCL: Running FEP window   9: Lambda1 0.39999999999999997 Lambda2 0.44999999999999996 [dLambda 0.04999999999999999]
TCL: Setting parameter firsttimestep to 0
TCL: Setting parameter alchLambda to 0.39999999999999997
Info: NONBONDED TABLE R-SQUARED SPACING: 0.0625
Info: NONBONDED TABLE SIZE: 705 POINTS
TCL: Setting parameter alchLambda2 to 0.44999999999999996
Info: NONBONDED TABLE R-SQUARED SPACING: 0.0625
Info: NONBONDED TABLE SIZE: 705 POINTS
TCL: Running for 1500000 steps
ETITLE: TS BOND ANGLE DIHED IMPRP ELECT VDW BOUNDARY MISC KINETIC TOTAL TEMP POTENTIAL TOTALAVG TEMPAVG PRESSURE GPRESSURE VOLUME PRESSAVG GPRESSAVG
ENERGY: 0 0.9781 8.2778 4.1518 0.0000 -10604.7692 1388.0878 0.0000 0.0000 1749.6456 -7453.6280 294.5181 -9203.2736 -7453.6280 294.5181 -304.7341 -235.0212 31064.2347 -304.7341 -235.0212
ENERGY: 300000 1.1456 11.1804 1.9555 0.0000 -10765.4987 1488.5061 0.0000 0.0000 1785.6837 -7477.0275 300.5844 -9262.7112 -7487.6942 299.7616 510.8282 578.3709 30699.0582 220.6220 282.9382
ENERGY: 600000 2.2070 8.5415 2.5630 0.0000 -10915.9305 1519.1056 0.0000 0.0000 1773.3870 -7610.1264 298.5145 -9383.5135 -7515.7594 301.3553 412.3966 467.2445 30272.7519 145.5449 198.7427
ENERGY: 900000 3.3295 7.0273 3.8334 0.0000 -10842.8245 1474.1693 0.0000 0.0000 1871.7642 -7482.7008 315.0743 -9354.4650 -7512.3734 303.3077 579.2092 601.1513 29793.6951 143.5904 190.5856
ENERGY: 1200000 3.9205 7.9646 2.2378 0.0000 -10778.3388 1438.1417 0.0000 0.0000 1757.5011 -7568.5730 295.8404 -9326.0741 -7523.9290 301.4905 -188.8471 -173.8087 30854.0450 139.5575 181.2457
ENERGY: 1500000 0.9407 6.7095 1.8637 0.0000 -10855.3513 1510.0904 0.0000 0.0000 1783.4234 -7552.3237 300.2039 -9335.7470 -7534.0151 301.2321 367.2284 401.1435 30822.3867 153.1740 197.7003
TCL: Running FEP window  10: Lambda1 0.44999999999999996 Lambda2 0.49999999999999994 [dLambda 0.04999999999999999]
TCL: Setting parameter firsttimestep to 0
TCL: Setting parameter alchLambda to 0.44999999999999996
Info: NONBONDED TABLE R-SQUARED SPACING: 0.0625
Info: NONBONDED TABLE SIZE: 705 POINTS
TCL: Setting parameter alchLambda2 to 0.49999999999999994
Info: NONBONDED TABLE R-SQUARED SPACING: 0.0625
Info: NONBONDED TABLE SIZE: 705 POINTS
TCL: Running for 1500000 steps
ETITLE: TS BOND ANGLE DIHED IMPRP ELECT VDW BOUNDARY MISC KINETIC TOTAL TEMP POTENTIAL TOTALAVG TEMPAVG PRESSURE GPRESSURE VOLUME PRESSAVG GPRESSAVG
ENERGY: 0 0.9407 6.7095 1.8637 0.0000 -10855.3516 1510.1366 0.0000 0.0000 1782.5504 -7553.1507 300.0569 -9335.7011 -7553.1507 300.0569 334.1610 408.1036 30822.3867 334.1610 408.1036
ENERGY: 300000 4.3052 7.0563 1.1540 0.0000 -10698.8196 1388.1800 0.0000 0.0000 1759.5511 -7538.5731 296.1854 -9298.1242 -7559.9110 298.6830 -597.7824 -561.7744 30989.6926 -47.4176 37.2668
ENERGY: 600000 4.7651 5.9699 2.5155 0.0000 -10896.0015 1508.3894 0.0000 0.0000 1851.4380 -7522.9236 311.6528 -9374.3616 -7548.7708 300.9011 243.3482 241.2571 30604.5227 13.5532 90.3006
ENERGY: 900000 3.8455 8.2496 1.5475 0.0000 -10778.3263 1439.5091 0.0000 0.0000 1778.1021 -7547.0725 299.3081 -9325.1746 -7552.8005 299.8500 -359.3802 -283.5342 30663.0214 -81.0181 -9.7663
ENERGY: 1200000 0.7168 10.3504 0.7663 0.0000 -10738.8481 1431.6335 0.0000 0.0000 1761.0363 -7534.3448 296.4355 -9295.3811 -7550.7810 299.4169 -94.7111 -81.4113 30848.4905 -75.2769 -10.2919
ENERGY: 1500000 3.2081 8.3524 1.6418 0.0000 -10802.7594 1477.3196 0.0000 0.0000 1784.1280 -7528.1094 300.3225 -9312.2374 -7550.3463 298.9901 236.0759 306.2689 30758.9946 -70.6245 -10.2768
TCL: Running FEP window  11: Lambda1 0.49999999999999994 Lambda2 0.5499999999999999 [dLambda 0.04999999999999999]
TCL: Setting parameter firsttimestep to 0
TCL: Setting parameter alchLambda to 0.49999999999999994
Info: NONBONDED TABLE R-SQUARED SPACING: 0.0625
Info: NONBONDED TABLE SIZE: 705 POINTS
TCL: Setting parameter alchLambda2 to 0.5499999999999999
Info: NONBONDED TABLE R-SQUARED SPACING: 0.0625
Info: NONBONDED TABLE SIZE: 705 POINTS
TCL: Running for 1500000 steps
ETITLE: TS BOND ANGLE DIHED IMPRP ELECT VDW BOUNDARY MISC KINETIC TOTAL TEMP POTENTIAL TOTALAVG TEMPAVG PRESSURE GPRESSURE VOLUME PRESSAVG GPRESSAVG
ENERGY: 0 3.2081 8.3524 1.6418 0.0000 -10802.7600 1477.2869 0.0000 0.0000 1783.2283 -7529.0424 300.1710 -9312.2707 -7529.0424 300.1710 231.3425 310.2252 30758.9946 231.3425 310.2252
ENERGY: 300000 2.4859 6.5681 5.5840 0.0000 -10799.5766 1496.0705 0.0000 0.0000 1730.1975 -7558.6705 291.2444 -9288.8680 -7546.6411 296.5911 68.0268 164.2231 30942.3383 -360.2274 -291.4191
ENERGY: 600000 5.7698 8.7002 1.5853 0.0000 -10749.3647 1467.4440 0.0000 0.0000 1755.6032 -7510.2623 295.5209 -9265.8655 -7515.9600 296.2101 -55.5163 44.5493 31023.8445 -285.3142 -225.4344
ENERGY: 900000 1.7207 4.3198 3.6455 0.0000 -10833.1973 1504.8647 0.0000 0.0000 1750.4305 -7568.2161 294.6502 -9318.6466 -7526.4820 296.4256 541.3792 584.2483 30819.5030 -259.3099 -204.8836
ENERGY: 1200000 3.2705 13.7305 1.9888 0.0000 -10749.6424 1419.3665 0.0000 0.0000 1777.1829 -7534.1031 299.1534 -9311.2861 -7522.8557 297.1026 -145.4940 1.5200 30346.6595 -236.0416 -173.0808
ENERGY: 1500000 4.7704 6.4556 3.0110 0.0000 -10799.6051 1455.5450 0.0000 0.0000 1713.2853 -7616.5377 288.3975 -9329.8230 -7522.3834 297.8732 -152.4190 -123.3939 30760.8556 -180.9002 -123.5093
TCL: Running FEP window  12: Lambda1 0.5499999999999999 Lambda2 0.6    [dLambda 0.050000000000000044]
TCL: Setting parameter firsttimestep to 0
TCL: Setting parameter alchLambda to 0.5499999999999999
Info: NONBONDED TABLE R-SQUARED SPACING: 0.0625
Info: NONBONDED TABLE SIZE: 705 POINTS
TCL: Setting parameter alchLambda2 to 0.6
Info: NONBONDED TABLE R-SQUARED SPACING: 0.0625
Info: NONBONDED TABLE SIZE: 705 POINTS
TCL: Running for 1500000 steps
ETITLE: TS BOND ANGLE DIHED IMPRP ELECT VDW BOUNDARY MISC KINETIC TOTAL TEMP POTENTIAL TOTALAVG TEMPAVG PRESSURE GPRESSURE VOLUME PRESSAVG GPRESSAVG
ENERGY: 0 4.7704 6.4556 3.0110 0.0000 -10799.2881 1454.8021 0.0000 0.0000 1712.4191 -7617.8299 288.2517 -9330.2490 -7617.8299 288.2517 -216.2527 -122.2386 30760.8556 -216.2527 -122.2386
ENERGY: 300000 5.2290 7.0743 1.6167 0.0000 -10789.9944 1430.2357 0.0000 0.0000 1770.4462 -7575.3926 298.0194 -9345.8388 -7586.4514 294.7896 -309.8742 -215.0894 30816.7436 -387.8992 -318.6536
ENERGY: 600000 6.7486 9.5871 4.4894 0.0000 -10795.6246 1462.3314 0.0000 0.0000 1776.1556 -7536.3125 298.9805 -9312.4680 -7568.9236 299.0948 -47.9308 45.9218 30987.1735 -283.5756 -211.1098
ENERGY: 900000 2.7303 6.1951 0.6925 0.0000 -10710.1953 1341.5904 0.0000 0.0000 1750.0563 -7608.9308 294.5872 -9358.9870 -7564.2552 299.8489 -750.0034 -723.1224 30100.0287 -315.9784 -254.6647
ENERGY: 1200000 3.2103 9.1900 1.8008 0.0000 -10816.9457 1513.0995 0.0000 0.0000 1764.7550 -7524.8901 297.0614 -9289.6451 -7562.5610 299.9474 410.3364 428.6522 30915.0984 -228.3618 -166.7685
ENERGY: 1500000 4.3651 5.6128 4.7519 0.0000 -10789.5603 1404.8883 0.0000 0.0000 1776.3327 -7593.6095 299.0103 -9369.9422 -7561.4230 299.7955 -600.8422 -511.2872 30798.3672 -249.5200 -185.0139
TCL: Running FEP window  13: Lambda1 0.6    Lambda2 0.65   [dLambda 0.050000000000000044]
TCL: Setting parameter firsttimestep to 0
TCL: Setting parameter alchLambda to 0.6
Info: NONBONDED TABLE R-SQUARED SPACING: 0.0625
Info: NONBONDED TABLE SIZE: 705 POINTS
TCL: Setting parameter alchLambda2 to 0.65
Info: NONBONDED TABLE R-SQUARED SPACING: 0.0625
Info: NONBONDED TABLE SIZE: 705 POINTS
TCL: Running for 1500000 steps
ETITLE: TS BOND ANGLE DIHED IMPRP ELECT VDW BOUNDARY MISC KINETIC TOTAL TEMP POTENTIAL TOTALAVG TEMPAVG PRESSURE GPRESSURE VOLUME PRESSAVG GPRESSAVG
ENERGY: 0 4.3651 5.6128 4.7519 0.0000 -10789.4369 1405.6430 0.0000 0.0000 1775.4599 -7593.6042 298.8634 -9369.0641 -7593.6042 298.8634 -585.0676 -493.6848 30798.3672 -585.0676 -493.6848
ENERGY: 300000 3.0547 6.7601 2.1447 0.0000 -10787.2433 1503.6378 0.0000 0.0000 1769.9415 -7501.7045 297.9345 -9271.6460 -7550.2476 302.5277 713.4765 719.7366 30393.4090 -437.1364 -379.3137
ENERGY: 600000 5.0757 8.4015 2.3159 0.0000 -10745.3050 1451.2151 0.0000 0.0000 1770.6001 -7507.6966 298.0453 -9278.2967 -7540.3711 301.4292 -161.1506 -74.2351 30742.2619 -331.0214 -270.8824
ENERGY: 900000 5.8802 6.4106 2.4740 0.0000 -10613.2687 1335.7816 0.0000 0.0000 1753.2977 -7509.4246 295.1328 -9262.7223 -7543.7679 301.2571 -895.8534 -796.4625 31043.8904 -302.8817 -237.5492
ENERGY: 1200000 2.2350 8.8598 2.5539 0.0000 -10643.5923 1366.2834 0.0000 0.0000 1710.7663 -7552.8939 287.9735 -9263.6602 -7538.9046 300.5641 -599.6950 -543.9604 30689.7366 -307.6778 -239.4502
ENERGY: 1500000 2.9732 6.9367 1.2417 0.0000 -10611.6882 1300.1810 0.0000 0.0000 1815.0428 -7485.3127 305.5264 -9300.3556 -7530.5130 301.9052 -1352.3855 -1320.2928 31596.9616 -362.0280 -293.4994
TCL: Running FEP window  14: Lambda1 0.65   Lambda2 0.7000000000000001 [dLambda 0.050000000000000044]
TCL: Setting parameter firsttimestep to 0
TCL: Setting parameter alchLambda to 0.65
Info: NONBONDED TABLE R-SQUARED SPACING: 0.0625
Info: NONBONDED TABLE SIZE: 705 POINTS
TCL: Setting parameter alchLambda2 to 0.7000000000000001
Info: NONBONDED TABLE R-SQUARED SPACING: 0.0625
Info: NONBONDED TABLE SIZE: 705 POINTS
TCL: Running for 1500000 steps
ETITLE: TS BOND ANGLE DIHED IMPRP ELECT VDW BOUNDARY MISC KINETIC TOTAL TEMP POTENTIAL TOTALAVG TEMPAVG PRESSURE GPRESSURE VOLUME PRESSAVG GPRESSAVG
ENERGY: 0 2.9732 6.9367 1.2417 0.0000 -10611.5029 1299.9851 0.0000 0.0000 1814.1811 -7486.1850 305.3813 -9300.3661 -7486.1850 305.3813 -1396.8827 -1314.0311 31596.9616 -1396.8827 -1314.0311
ENERGY: 300000 2.4008 12.2258 4.6028 0.0000 -10940.9330 1554.2419 0.0000 0.0000 1821.1235 -7546.3382 306.5499 -9367.4617 -7543.9236 302.1245 527.8834 549.4739 30976.7550 -109.1253 -57.9876
ENERGY: 600000 4.1688 10.1966 3.0417 0.0000 -10822.3882 1483.8666 0.0000 0.0000 1767.5051 -7553.6094 297.5243 -9321.1145 -7544.8683 301.0039 74.8286 99.4912 31087.0831 0.0246 37.9544
ENERGY: 900000 3.2884 5.2377 0.5521 0.0000 -10823.5985 1475.5489 0.0000 0.0000 1788.6370 -7550.3344 301.0815 -9338.9714 -7541.2766 300.5127 33.1588 58.8739 31011.9595 -74.2352 -26.4059
ENERGY: 1200000 0.8658 7.5053 3.4764 0.0000 -10900.0486 1513.0447 0.0000 0.0000 1776.2357 -7598.9207 298.9940 -9375.1564 -7548.4113 299.3079 155.5059 195.3760 30968.2750 -27.5350 25.8605
ENERGY: 1500000 1.4635 4.3169 3.9338 0.0000 -10887.6765 1462.4692 0.0000 0.0000 1790.4564 -7625.0367 301.3877 -9415.4931 -7553.8937 299.2576 115.2178 146.0198 30415.2173 -5.2193 41.7887
TCL: Running FEP window  15: Lambda1 0.7000000000000001 Lambda2 0.7500000000000001 [dLambda 0.050000000000000044]
TCL: Setting parameter firsttimestep to 0
TCL: Setting parameter alchLambda to 0.7000000000000001
Info: NONBONDED TABLE R-SQUARED SPACING: 0.0625
Info: NONBONDED TABLE SIZE: 705 POINTS
TCL: Setting parameter alchLambda2 to 0.7500000000000001
Info: NONBONDED TABLE R-SQUARED SPACING: 0.0625
Info: NONBONDED TABLE SIZE: 705 POINTS
TCL: Running for 1500000 steps
ETITLE: TS BOND ANGLE DIHED IMPRP ELECT VDW BOUNDARY MISC KINETIC TOTAL TEMP POTENTIAL TOTALAVG TEMPAVG PRESSURE GPRESSURE VOLUME PRESSAVG GPRESSAVG
ENERGY: 0 1.4635 4.3169 3.9338 0.0000 -10887.5368 1461.9295 0.0000 0.0000 1789.5338 -7626.3593 301.2324 -9415.8931 -7626.3593 301.2324 65.7984 151.4136 30415.2173 65.7984 151.4136
ENERGY: 300000 1.5778 7.4262 2.6982 0.0000 -10726.9225 1465.7982 0.0000 0.0000 1793.9813 -7455.4407 301.9811 -9249.4220 -7543.6883 296.1881 287.5064 292.0961 30800.7179 -117.6846 -63.4697
ENERGY: 600000 5.8840 9.8639 4.2905 0.0000 -10708.8083 1417.9939 0.0000 0.0000 1718.9058 -7551.8701 289.3436 -9270.7760 -7549.7576 297.6896 -328.8358 -320.2425 31140.9595 -140.3342 -87.7522
ENERGY: 900000 4.5194 6.3164 1.3856 0.0000 -10912.8804 1525.1755 0.0000 0.0000 1801.9450 -7573.5384 303.3216 -9375.4834 -7555.7929 297.9874 643.0666 724.1727 30183.3151 -74.4923 -15.7373
ENERGY: 1200000 3.0526 7.4653 0.9706 0.0000 -10923.1651 1517.6959 0.0000 0.0000 1754.0253 -7639.9554 295.2553 -9393.9807 -7563.4840 298.5755 147.0267 155.3699 30892.0336 28.6442 81.4173
ENERGY: 1500000 2.5742 7.3313 2.0914 0.0000 -10609.2304 1307.5311 0.0000 0.0000 1773.1728 -7516.5297 298.4784 -9289.7025 -7559.1382 298.3480 -1303.8374 -1275.5000 31291.6308 -68.1903 -9.7292
TCL: Running FEP window  16: Lambda1 0.7500000000000001 Lambda2 0.8000000000000002 [dLambda 0.050000000000000044]
TCL: Setting parameter firsttimestep to 0
TCL: Setting parameter alchLambda to 0.7500000000000001
Info: NONBONDED TABLE R-SQUARED SPACING: 0.0625
Info: NONBONDED TABLE SIZE: 705 POINTS
TCL: Setting parameter alchLambda2 to 0.8000000000000002
Info: NONBONDED TABLE R-SQUARED SPACING: 0.0625
Info: NONBONDED TABLE SIZE: 705 POINTS
TCL: Running for 1500000 steps
ETITLE: TS BOND ANGLE DIHED IMPRP ELECT VDW BOUNDARY MISC KINETIC TOTAL TEMP POTENTIAL TOTALAVG TEMPAVG PRESSURE GPRESSURE VOLUME PRESSAVG GPRESSAVG
ENERGY: 0 2.5742 7.3313 2.0914 0.0000 -10609.5460 1308.0451 0.0000 0.0000 1772.2504 -7517.2537 298.3231 -9289.5041 -7517.2537 298.3231 -1332.4129 -1257.8842 31291.6308 -1332.4129 -1257.8842
ENERGY: 300000 1.9196 6.9128 4.0061 0.0000 -10730.4810 1388.3767 0.0000 0.0000 1794.8786 -7534.3872 302.1321 -9329.2658 -7544.6891 299.5017 -510.3305 -408.3767 30687.3595 -471.8300 -404.8193
ENERGY: 600000 1.8779 8.2966 2.5675 0.0000 -10747.7862 1487.1481 0.0000 0.0000 1777.2198 -7470.6763 299.1596 -9247.8961 -7537.9692 301.2616 261.0011 280.6184 31052.8613 -171.9411 -98.4667
ENERGY: 900000 1.7902 8.6341 2.7277 0.0000 -10860.1190 1505.1750 0.0000 0.0000 1748.5635 -7593.2285 294.3359 -9341.7919 -7539.5283 300.3931 247.1135 292.6169 30962.0084 -102.9193 -33.6644
ENERGY: 1200000 2.1289 6.6983 5.3815 0.0000 -10600.0210 1321.2835 0.0000 0.0000 1811.8091 -7452.7197 304.9820 -9264.5289 -7516.6120 301.3498 -1060.4927 -994.6116 31648.6126 -251.5999 -179.5463
ENERGY: 1500000 4.2132 9.8926 1.2159 0.0000 -10791.8764 1452.8782 0.0000 0.0000 1771.1054 -7552.5710 298.1304 -9323.6764 -7523.1795 301.0266 -127.5192 -31.4969 30698.5066 -118.5427 -44.3637
TCL: Running FEP window  17: Lambda1 0.8000000000000002 Lambda2 0.8500000000000002 [dLambda 0.050000000000000044]
TCL: Setting parameter firsttimestep to 0
TCL: Setting parameter alchLambda to 0.8000000000000002
Info: NONBONDED TABLE R-SQUARED SPACING: 0.0625
Info: NONBONDED TABLE SIZE: 705 POINTS
TCL: Setting parameter alchLambda2 to 0.8500000000000002
Info: NONBONDED TABLE R-SQUARED SPACING: 0.0625
Info: NONBONDED TABLE SIZE: 705 POINTS
TCL: Running for 1500000 steps
ETITLE: TS BOND ANGLE DIHED IMPRP ELECT VDW BOUNDARY MISC KINETIC TOTAL TEMP POTENTIAL TOTALAVG TEMPAVG PRESSURE GPRESSURE VOLUME PRESSAVG GPRESSAVG
ENERGY: 0 4.2132 9.8926 1.2159 0.0000 -10792.1081 1453.1451 0.0000 0.0000 1770.2075 -7553.4337 297.9792 -9323.6413 -7553.4337 297.9792 -110.9884 -14.5498 30698.5066 -110.9884 -14.5498
ENERGY: 300000 2.5618 9.3628 2.2300 0.0000 -10766.8038 1432.3231 0.0000 0.0000 1787.2750 -7533.0511 300.8522 -9320.3261 -7512.5564 301.7583 -222.0715 -223.0671 30952.2402 -240.7143 -178.8255
ENERGY: 600000 1.1859 6.8925 4.2938 0.0000 -10740.1153 1406.4971 0.0000 0.0000 1808.5315 -7512.7146 304.4303 -9321.2460 -7532.8410 299.2006 -135.2504 -89.4753 30358.8200 -250.9658 -197.3251
ENERGY: 900000 2.1514 7.4714 4.2945 0.0000 -10792.1013 1416.1909 0.0000 0.0000 1743.9148 -7618.0784 293.5534 -9361.9932 -7542.6116 299.4495 -450.9476 -400.4422 31078.1253 -190.0441 -137.8815
ENERGY: 1200000 3.6888 8.0490 2.5413 0.0000 -10839.6125 1457.7859 0.0000 0.0000 1752.3405 -7615.2069 294.9717 -9367.5475 -7557.9967 298.4484 69.0535 68.9188 30323.0691 -153.9870 -110.4143
ENERGY: 1500000 3.6810 4.5719 1.7390 0.0000 -10695.0508 1435.1142 0.0000 0.0000 1804.3971 -7445.5475 303.7344 -9249.9446 -7543.8543 299.2090 127.9887 213.5916 30886.7600 -94.7253 -49.8050
TCL: Running FEP window  18: Lambda1 0.8500000000000002 Lambda2 0.9000000000000002 [dLambda 0.050000000000000044]
TCL: Setting parameter firsttimestep to 0
TCL: Setting parameter alchLambda to 0.8500000000000002
Info: NONBONDED TABLE R-SQUARED SPACING: 0.0625
Info: NONBONDED TABLE SIZE: 705 POINTS
TCL: Setting parameter alchLambda2 to 0.9000000000000002
Info: NONBONDED TABLE R-SQUARED SPACING: 0.0625
Info: NONBONDED TABLE SIZE: 705 POINTS
TCL: Running for 1500000 steps
ETITLE: TS BOND ANGLE DIHED IMPRP ELECT VDW BOUNDARY MISC KINETIC TOTAL TEMP POTENTIAL TOTALAVG TEMPAVG PRESSURE GPRESSURE VOLUME PRESSAVG GPRESSAVG
ENERGY: 0 3.6810 4.5719 1.7390 0.0000 -10695.8542 1435.5064 0.0000 0.0000 1803.5604 -7446.7954 303.5935 -9250.3558 -7446.7954 303.5935 141.2367 231.0499 30886.7600 141.2367 231.0499
ENERGY: 300000 3.0050 7.9969 1.9300 0.0000 -10777.5592 1484.7185 0.0000 0.0000 1802.8175 -7477.0913 303.4685 -9279.9088 -7470.7018 299.4703 387.8613 499.4584 30688.3634 240.8516 322.5024
ENERGY: 600000 2.8747 8.2891 2.2221 0.0000 -10877.9996 1518.1647 0.0000 0.0000 1787.6947 -7558.7543 300.9229 -9346.4489 -7492.4127 299.7587 582.5680 643.1117 30353.2481 68.6039 136.6960
ENERGY: 900000 2.2675 7.0229 1.1350 0.0000 -10770.8060 1445.6238 0.0000 0.0000 1711.1240 -7603.6327 288.0337 -9314.7568 -7505.8420 299.5764 77.3902 173.4051 30476.5331 199.3415 268.3484
ENERGY: 1200000 0.9954 8.7756 3.6832 0.0000 -10898.5276 1490.5804 0.0000 0.0000 1805.0181 -7589.4749 303.8389 -9394.4930 -7507.3717 300.6048 257.9330 269.0060 30590.1498 214.8961 282.4464
ENERGY: 1500000 4.7584 4.8457 2.9910 0.0000 -10875.7630 1516.2065 0.0000 0.0000 1760.7912 -7586.1701 296.3942 -9346.9614 -7518.6238 299.7338 600.6893 616.0624 30542.3365 157.5388 220.4322
TCL: Running FEP window  19: Lambda1 0.9000000000000002 Lambda2 0.9500000000000003 [dLambda 0.050000000000000044]
TCL: Setting parameter firsttimestep to 0
TCL: Setting parameter alchLambda to 0.9000000000000002
Info: NONBONDED TABLE R-SQUARED SPACING: 0.0625
Info: NONBONDED TABLE SIZE: 705 POINTS
TCL: Setting parameter alchLambda2 to 0.9500000000000003
Info: NONBONDED TABLE R-SQUARED SPACING: 0.0625
Info: NONBONDED TABLE SIZE: 705 POINTS
TCL: Running for 1500000 steps
ETITLE: TS BOND ANGLE DIHED IMPRP ELECT VDW BOUNDARY MISC KINETIC TOTAL TEMP POTENTIAL TOTALAVG TEMPAVG PRESSURE GPRESSURE VOLUME PRESSAVG GPRESSAVG
ENERGY: 0 4.7584 4.8457 2.9910 0.0000 -10876.5058 1516.3963 0.0000 0.0000 1759.9179 -7587.5965 296.2472 -9347.5144 -7587.5965 296.2472 533.5159 632.4459 30542.3365 533.5159 632.4459
ENERGY: 300000 2.7384 7.6264 2.9121 0.0000 -10777.4906 1419.6972 0.0000 0.0000 1816.7534 -7527.7631 305.8143 -9344.5165 -7544.7994 303.3644 -93.9787 -32.3689 30285.6524 -269.1342 -188.4610
ENERGY: 600000 1.7055 5.4475 2.0850 0.0000 -10800.6737 1470.4348 0.0000 0.0000 1813.2880 -7507.7129 305.2310 -9321.0009 -7534.8967 305.1206 292.5206 331.5854 30678.2503 -71.1440 -5.3144
ENERGY: 900000 3.2226 5.8352 4.7252 0.0000 -10832.6964 1539.2423 0.0000 0.0000 1819.5672 -7460.1039 306.2880 -9279.6711 -7521.1283 304.4484 658.5497 772.2573 30877.9937 81.1851 146.2449
ENERGY: 1200000 6.5453 9.9445 2.5640 0.0000 -10785.0963 1379.9422 0.0000 0.0000 1753.6896 -7632.4106 295.1988 -9386.1003 -7533.8077 302.7204 -884.2052 -759.2437 30790.1139 -23.1004 39.0140
ENERGY: 1500000 5.5782 6.0450 2.2386 0.0000 -10793.6299 1416.1665 0.0000 0.0000 1742.9266 -7620.6750 293.3870 -9363.6016 -7534.3840 301.5170 -529.9014 -438.0847 30783.8883 -21.5895 38.4314
TCL: Running FEP window  20: Lambda1 0.9500000000000003 Lambda2 1.0    [dLambda 0.04999999999999971]
TCL: Setting parameter firsttimestep to 0
TCL: Setting parameter alchLambda to 0.9500000000000003
Info: NONBONDED TABLE R-SQUARED SPACING: 0.0625
Info: NONBONDED TABLE SIZE: 705 POINTS
TCL: Setting parameter alchLambda2 to 1.0
Info: NONBONDED TABLE R-SQUARED SPACING: 0.0625
Info: NONBONDED TABLE SIZE: 705 POINTS
TCL: Running for 1500000 steps
ETITLE: TS BOND ANGLE DIHED IMPRP ELECT VDW BOUNDARY MISC KINETIC TOTAL TEMP POTENTIAL TOTALAVG TEMPAVG PRESSURE GPRESSURE VOLUME PRESSAVG GPRESSAVG
ENERGY: 0 5.5782 6.0450 2.2386 0.0000 -10793.5563 1415.2596 0.0000 0.0000 1742.0316 -7622.4033 293.2364 -9364.4349 -7622.4033 293.2364 -535.3512 -436.6117 30783.8883 -535.3512 -436.6117
ENERGY: 300000 4.8636 4.8270 3.4738 0.0000 -10852.6637 1479.9676 0.0000 0.0000 1804.8637 -7554.6680 303.8129 -9359.5317 -7565.9490 299.1953 162.5435 156.6152 30708.6206 -129.9104 -118.4518
ENERGY: 600000 7.6183 6.9618 2.7226 0.0000 -10891.3186 1512.7136 0.0000 0.0000 1801.0891 -7560.2134 303.1775 -9361.3024 -7568.9565 298.5244 601.2006 713.1206 30061.0060 -11.5086 32.4573
ENERGY: 900000 1.6478 6.1873 5.3151 0.0000 -10919.1838 1524.6345 0.0000 0.0000 1765.1144 -7616.2847 297.1219 -9381.3991 -7580.9986 299.1607 461.5231 476.6557 30559.0553 11.3051 48.6193
ENERGY: 1200000 2.1967 12.6831 2.8127 0.0000 -10831.3667 1484.5769 0.0000 0.0000 1784.6057 -7544.4916 300.4029 -9329.0973 -7574.9125 299.3128 57.8610 48.9351 31040.0494 -11.3033 24.0278
ENERGY: 1500000 2.9170 8.3717 2.2568 0.0000 -10809.4090 1480.9163 0.0000 0.0000 1788.8681 -7526.0791 301.1204 -9314.9472 -7564.7718 298.6855 367.0821 399.6726 30701.4479 -23.1361 13.6030
TCL: Exiting due to exit command.
