Info: SIMULATION PARAMETERS:
Info: TIMESTEP               2
Info: NUMBER OF STEPS        0
Info: STEPS PER CYCLE        10
Info: PERIODIC CELL BASIS 1  32.9734 0 0
Info: PERIODIC CELL BASIS 2  0 30.0801 0
Info: PERIODIC CELL BASIS 3  0 0 30.5917
Info: PERIODIC CELL CENTER   0 0 0
Info: WRAPPING WATERS AROUND PERIODIC BOUNDARIES ON OUTPUT.
Info: WRAPPING ALL CLUSTERS AROUND PERIODIC BOUNDARIES ON OUTPUT.
Info: FIRST LDB TIMESTEP     50
Info: LAST LDB TIMESTEP     -1
Info: HOM BACKGROUND SCALING 1
Info: PME BACKGROUND SCALING 1
Info: MIN ATOMS PER PATCH    40
Info: EMPTY PATCH LOAD       40 ATOMS
Info: VELOCITY FILE          mobley_5003962_equil.vel
Info: CENTER OF MASS MOVING INITIALLY? NO
Info: DIELECTRIC             1
Info: EXCLUDE                SCALED ONE-FOUR
Info: 1-4 ELECTROSTATICS SCALED BY 0.833333
Info: MODIFIED 1-4 VDW PARAMETERS WILL BE USED
Info: DCD FILENAME           mobley_5003962_prod.dcd
Info: DCD FREQUENCY          100000
Info: DCD FIRST STEP         100000
Info: DCD FILE WILL CONTAIN UNIT CELL DATA
Info: XST FILENAME           mobley_5003962_prod.xst
Info: XST FREQUENCY          100000
Info: NO VELOCITY DCD OUTPUT
Info: NO FORCE DCD OUTPUT
Info: OUTPUT FILENAME        mobley_5003962_prod
Info: BINARY OUTPUT FILES WILL BE USED
Info: RESTART FILENAME       mobley_5003962_prod.restart
Info: RESTART FREQUENCY      100000
Info: BINARY RESTART FILES WILL BE USED
Info: CUTOFF                 9
Info: PAIRLIST DISTANCE      11
Info: PAIRLIST SHRINK RATE   0.01
Info: PAIRLIST GROW RATE     0.01
Info: PAIRLIST TRIGGER       0.3
Info: PAIRLISTS PER CYCLE    2
Info: PAIRLISTS ENABLED
Info: MARGIN                 2
Info: HYDROGEN GROUP CUTOFF  2.5
Info: PATCH DIMENSION        15.5
Info: ENERGY OUTPUT STEPS    100000
Info: ENERGY EVALUATION STEPS    100000
Info: OUTPUT ENERGY PRECISION 4
Info: CROSSTERM ENERGY INCLUDED IN DIHEDRAL
Info: TIMING OUTPUT STEPS    1000000
Info: PRESSURE OUTPUT STEPS  100000
Info: ALCHEMICAL FEP ON
Info: FEP CURRENT LAMBDA VALUE     1
Info: FEP COMPARISON LAMBDA VALUE  0.95
Info: FEP INTRA-ALCHEMICAL NON-BONDED INTERACTIONS WILL BE RETAINED
Info: FEP INTRA-ALCHEMICAL BONDED INTERACTIONS WILL BE RETAINED
Info: FEP VDW SHIFTING COEFFICIENT 5
Info: FEP ELEC. ACTIVE FOR ANNIHILATED PARTICLES BETWEEN LAMBDA = 0 AND LAMBDA = 0.5
Info: FEP ELEC. ACTIVE FOR EXNIHILATED PARTICLES BETWEEN LAMBDA = 0.5 AND LAMBDA = 1
Info: FEP VDW ACTIVE FOR ANNIHILATED PARTICLES BETWEEN LAMBDA = 0 AND LAMBDA = 1
Info: FEP VDW ACTIVE FOR EXNIHILATED PARTICLES BETWEEN LAMBDA = 0 AND LAMBDA = 1
Info: FEP BOND ACTIVE FOR ANNIHILATED PARTICLES BETWEEN LAMBDA = 1 AND LAMBDA = 1
Info: FEP BOND ACTIVE FOR EXNIHILATED PARTICLES BETWEEN LAMBDA = 0 AND LAMBDA = 0
Info: LANGEVIN DYNAMICS ACTIVE
Info: LANGEVIN TEMPERATURE   300
Info: LANGEVIN USING BBK INTEGRATOR
Info: LANGEVIN DAMPING COEFFICIENT IS 1 INVERSE PS
Info: LANGEVIN DYNAMICS APPLIED TO HYDROGENS
Info: LANGEVIN PISTON PRESSURE CONTROL ACTIVE
Info:        TARGET PRESSURE IS 1.01325 BAR
Info:     OSCILLATION PERIOD IS 50 FS
Info:             DECAY TIME IS 25 FS
Info:     PISTON TEMPERATURE IS 300 K
Info:       PRESSURE CONTROL IS GROUP-BASED
Info:    INITIAL STRAIN RATE IS 0.00010557 0.00010557 0.00010557
Info:       CELL FLUCTUATION IS ISOTROPIC
Info: PARTICLE MESH EWALD (PME) ACTIVE
Info: PME TOLERANCE               1e-06
Info: PME EWALD COEFFICIENT       0.348832
Info: PME INTERPOLATION ORDER     4
Info: PME GRID DIMENSIONS         36 32 32
Info: PME MAXIMUM GRID SPACING    1
Info: PME CALCULATION WILL BE PERFORMED ON GPU
Info: FULL ELECTROSTATIC EVALUATION FREQUENCY      2
Info: USING VERLET I (r-RESPA) MTS SCHEME.
Info: C1 SPLITTING OF LONG RANGE ELECTROSTATICS
Info: PLACING ATOMS IN PATCHES BY HYDROGEN GROUPS
Info: RIGID BONDS TO HYDROGEN : ALL
Info:         ERROR TOLERANCE : 1e-08
Info:          MAX ITERATIONS : 100
Info: RIGID WATER USING SETTLE ALGORITHM
Info: RANDOM NUMBER SEED     1743662997
Info: USE HYDROGEN BONDS?    NO
Info: Using AMBER format force field!
Info: AMBER PARM FILE        mobley_5003962.prmtop
Info: COORDINATE PDB         mobley_5003962.pdb
Info: Exclusions will be read from PARM file!
Info: SCNB (VDW SCALING)     2
Info: USING ARITHMETIC MEAN TO COMBINE L-J SIGMA PARAMETERS
Info: BINARY COORDINATES     mobley_5003962_equil.coor
Info: SUMMARY OF PARAMETERS:
Info: 8 BONDS
Info: 8 ANGLES
Info:   8 HARMONIC
Info:   0 COSINE-BASED
Info: 5 DIHEDRAL
Info: 0 IMPROPER
Info: 0 CROSSTERM
Info: 0 VDW
Info: 28 VDW_PAIRS
Info: 0 NBTHOLE_PAIRS
Info: To read alchdata from file: mobley_5003962.pdb
Info: To read alchflag data from column: 5
Info: STRUCTURE SUMMARY:
Info: 2930 ATOMS
Info: 2932 BONDS
Info: 45 ANGLES
Info: 83 DIHEDRALS
Info: 0 IMPROPERS
Info: 0 CROSSTERMS
Info: 3036 EXCLUSIONS
Info: 2913 RIGID BONDS
Info: ALCH: 0 ATOMS TO DISAPPEAR IN FINAL STATE
Info: ALCH: 26 ATOMS TO APPEAR IN FINAL STATE
Info: 5877 DEGREES OF FREEDOM
Info: 985 HYDROGEN GROUPS
Info: 3 ATOMS IN LARGEST HYDROGEN GROUP
Info: 985 MIGRATION GROUPS
Info: 3 ATOMS IN LARGEST MIGRATION GROUP
Info: TOTAL MASS = 17662.7 amu
Info: TOTAL CHARGE = 0.000100043 e
Info: MASS DENSITY = 0.966654 g/cm^3
Info: ATOM DENSITY = 0.0965655 atoms/A^3
Info: ADDED 0 IMPLICIT EXCLUSIONS
Info: NONBONDED TABLE R-SQUARED SPACING: 0.0625
Info: NONBONDED TABLE SIZE: 705 POINTS
Info: REMOVING COM VELOCITY -0.0669011 0.0469252 -0.113714
Info: Use 3D box decompostion in PME FFT.
Info: Updated CUDA force table with 4096 elements.
Info: Updated CUDA LJ table with 7 x 7 elements.
Info: Found 27 unique exclusion lists needing 88 bytes
TCL: Running for 1500000 steps
ETITLE: TS BOND ANGLE DIHED IMPRP ELECT VDW BOUNDARY MISC KINETIC TOTAL TEMP POTENTIAL TOTALAVG TEMPAVG PRESSURE GPRESSURE VOLUME PRESSAVG GPRESSAVG
ENERGY: 0 7.8931 8.1861 7.6709 0.0000 -10486.8990 1435.2449 0.0000 0.0000 1750.1173 -7277.7868 299.7104 -9027.9041 -7277.7868 299.7104 539.5175 610.7889 30342.0975 539.5175 610.7889
ENERGY: 300000 12.1098 8.5418 4.9584 0.0000 -10684.1945 1536.6242 0.0000 0.0000 1753.9010 -7368.0594 300.3584 -9121.9603 -7348.1477 300.1980 581.5175 624.4112 30552.8002 -42.7800 19.5749
ENERGY: 600000 7.8902 8.3559 5.0426 0.0000 -10572.4438 1418.3723 0.0000 0.0000 1790.2492 -7342.5336 306.5831 -9132.7828 -7363.8561 299.0375 18.4802 116.9953 30290.3213 26.1907 89.6955
ENERGY: 900000 11.4409 8.6983 6.3852 0.0000 -10773.7227 1565.4116 0.0000 0.0000 1763.2429 -7418.5437 301.9582 -9181.7866 -7372.0326 300.6618 1069.1285 1044.6661 29926.9504 111.6259 165.5016
ENERGY: 1200000 8.5566 10.0958 7.1088 0.0000 -10578.1248 1450.5125 0.0000 0.0000 1757.9975 -7343.8536 301.0599 -9101.8511 -7368.9895 300.5860 173.8794 213.0206 30338.5460 57.2660 104.9948
ENERGY: 1500000 5.0834 4.9429 8.6369 0.0000 -10627.9816 1444.5938 0.0000 0.0000 1782.0284 -7382.6963 305.1752 -9164.7247 -7368.1658 300.2231 -4.1644 89.4329 30362.6329 11.2307 55.2943
TCL: Running FEP window   2: Lambda1 0.95   Lambda2 0.8999999999999999 [dLambda -0.050000000000000044]
TCL: Setting parameter firsttimestep to 0
TCL: Setting parameter alchLambda to 0.95
Info: NONBONDED TABLE R-SQUARED SPACING: 0.0625
Info: NONBONDED TABLE SIZE: 705 POINTS
TCL: Setting parameter alchLambda2 to 0.8999999999999999
Info: NONBONDED TABLE R-SQUARED SPACING: 0.0625
Info: NONBONDED TABLE SIZE: 705 POINTS
TCL: Running for 1500000 steps
ETITLE: TS BOND ANGLE DIHED IMPRP ELECT VDW BOUNDARY MISC KINETIC TOTAL TEMP POTENTIAL TOTALAVG TEMPAVG PRESSURE GPRESSURE VOLUME PRESSAVG GPRESSAVG
ENERGY: 0 5.0834 4.9429 8.6369 0.0000 -10624.6233 1443.6150 0.0000 0.0000 1781.1509 -7381.1943 305.0250 -9162.3452 -7381.1943 305.0250 -17.1772 66.4894 30362.6329 -17.1772 66.4894
ENERGY: 300000 5.8406 4.4767 5.1224 0.0000 -10573.3016 1395.8263 0.0000 0.0000 1713.7578 -7448.2779 293.4838 -9162.0357 -7414.0449 299.6345 -148.4708 -61.8830 30201.0614 -470.1124 -389.0079
ENERGY: 600000 9.4810 6.0127 10.8462 0.0000 -10615.8107 1444.6263 0.0000 0.0000 1731.6838 -7413.1608 296.5537 -9144.8446 -7398.9291 300.8990 112.7112 194.2768 30124.1512 -414.8331 -341.0875
ENERGY: 900000 3.0057 7.1729 8.6799 0.0000 -10606.3626 1410.6871 0.0000 0.0000 1728.9948 -7447.8221 296.0932 -9176.8169 -7394.5062 300.7274 -107.1243 -83.2925 30243.8065 -342.0535 -273.6343
ENERGY: 1200000 8.0667 6.5796 6.9682 0.0000 -10609.7687 1454.7007 0.0000 0.0000 1713.1721 -7420.2814 293.3835 -9133.4535 -7397.9152 299.6288 227.1939 268.2675 30132.4846 -150.0880 -85.5216
ENERGY: 1500000 7.5973 8.6956 8.1709 0.0000 -10446.7073 1330.1362 0.0000 0.0000 1749.2239 -7342.8835 299.5574 -9092.1073 -7398.2481 299.6177 -716.3083 -649.2454 30682.5226 -211.0706 -149.0603
TCL: Running FEP window   3: Lambda1 0.8999999999999999 Lambda2 0.8499999999999999 [dLambda -0.050000000000000044]
TCL: Setting parameter firsttimestep to 0
TCL: Setting parameter alchLambda to 0.8999999999999999
Info: NONBONDED TABLE R-SQUARED SPACING: 0.0625
Info: NONBONDED TABLE SIZE: 705 POINTS
TCL: Setting parameter alchLambda2 to 0.8499999999999999
Info: NONBONDED TABLE R-SQUARED SPACING: 0.0625
Info: NONBONDED TABLE SIZE: 705 POINTS
TCL: Running for 1500000 steps
ETITLE: TS BOND ANGLE DIHED IMPRP ELECT VDW BOUNDARY MISC KINETIC TOTAL TEMP POTENTIAL TOTALAVG TEMPAVG PRESSURE GPRESSURE VOLUME PRESSAVG GPRESSAVG
ENERGY: 0 7.5973 8.6956 8.1709 0.0000 -10442.7630 1328.4313 0.0000 0.0000 1748.3558 -7341.5122 299.4088 -9089.8679 -7341.5122 299.4088 -768.6327 -681.6295 30682.5226 -768.6327 -681.6295
ENERGY: 300000 8.1696 5.9012 7.8357 0.0000 -10540.5147 1407.7411 0.0000 0.0000 1791.1597 -7319.7074 306.7390 -9110.8671 -7364.4618 299.6983 -324.4428 -227.1541 30508.9909 -10.9784 46.8576
ENERGY: 600000 8.8478 6.4786 7.6870 0.0000 -10567.4335 1461.8115 0.0000 0.0000 1753.6329 -7328.9757 300.3125 -9082.6086 -7360.8032 299.0501 -46.3521 35.4736 30595.8068 54.5563 118.5014
ENERGY: 900000 5.3368 9.3029 5.7891 0.0000 -10710.5215 1483.8042 0.0000 0.0000 1765.0595 -7441.2292 302.2693 -9206.2887 -7383.3143 299.6340 281.7297 420.6538 29871.9756 165.3716 237.9641
ENERGY: 1200000 4.4731 6.2676 8.0840 0.0000 -10392.1416 1302.7742 0.0000 0.0000 1816.8583 -7253.6844 311.1399 -9070.5427 -7379.4679 300.9003 -617.9323 -616.4011 30735.5487 18.9514 87.4400
ENERGY: 1500000 6.1564 9.0021 8.2059 0.0000 -10619.0938 1446.2530 0.0000 0.0000 1755.8264 -7393.6499 300.6881 -9149.4763 -7373.8417 301.0090 64.7028 126.6542 30016.9222 41.3591 106.9454
TCL: Running FEP window   4: Lambda1 0.8499999999999999 Lambda2 0.7999999999999998 [dLambda -0.050000000000000044]
TCL: Setting parameter firsttimestep to 0
TCL: Setting parameter alchLambda to 0.8499999999999999
Info: NONBONDED TABLE R-SQUARED SPACING: 0.0625
Info: NONBONDED TABLE SIZE: 705 POINTS
TCL: Setting parameter alchLambda2 to 0.7999999999999998
Info: NONBONDED TABLE R-SQUARED SPACING: 0.0625
Info: NONBONDED TABLE SIZE: 705 POINTS
TCL: Running for 1500000 steps
ETITLE: TS BOND ANGLE DIHED IMPRP ELECT VDW BOUNDARY MISC KINETIC TOTAL TEMP POTENTIAL TOTALAVG TEMPAVG PRESSURE GPRESSURE VOLUME PRESSAVG GPRESSAVG
ENERGY: 0 6.1565 9.0021 8.2059 0.0000 -10615.8964 1446.0690 0.0000 0.0000 1754.9371 -7391.5258 300.5358 -9146.4629 -7391.5258 300.5358 23.9418 112.5680 30016.9222 23.9418 112.5680
ENERGY: 300000 9.7987 8.0795 9.7912 0.0000 -10612.1410 1416.3468 0.0000 0.0000 1801.9236 -7366.2011 308.5823 -9168.1247 -7398.5374 302.4756 -221.9724 -171.5674 29928.8481 -260.3172 -205.4550
ENERGY: 600000 8.1060 4.9917 5.2320 0.0000 -10730.3224 1508.7757 0.0000 0.0000 1728.5893 -7474.6276 296.0237 -9203.2170 -7402.2785 301.2109 802.9307 840.9301 29429.0823 -39.5980 25.6198
ENERGY: 900000 7.9181 9.1594 7.7450 0.0000 -10525.3822 1411.0995 0.0000 0.0000 1780.4126 -7309.0475 304.8986 -9089.4602 -7385.7905 302.1621 5.9775 36.1312 29839.3106 -148.9142 -84.7156
ENERGY: 1200000 4.6948 6.7138 11.2834 0.0000 -10656.3017 1461.1372 0.0000 0.0000 1762.7871 -7409.6854 301.8801 -9172.4725 -7382.0700 302.7555 270.3939 348.7518 30124.1930 -6.9598 55.5430
ENERGY: 1500000 7.8603 9.7235 8.4047 0.0000 -10632.2047 1460.9391 0.0000 0.0000 1802.8583 -7342.4188 308.7424 -9145.2771 -7380.2190 302.5704 287.9105 385.6450 30014.2483 -59.1364 8.1038
TCL: Running FEP window   5: Lambda1 0.7999999999999998 Lambda2 0.7499999999999998 [dLambda -0.050000000000000044]
TCL: Setting parameter firsttimestep to 0
TCL: Setting parameter alchLambda to 0.7999999999999998
Info: NONBONDED TABLE R-SQUARED SPACING: 0.0625
Info: NONBONDED TABLE SIZE: 705 POINTS
TCL: Setting parameter alchLambda2 to 0.7499999999999998
Info: NONBONDED TABLE R-SQUARED SPACING: 0.0625
Info: NONBONDED TABLE SIZE: 705 POINTS
TCL: Running for 1500000 steps
ETITLE: TS BOND ANGLE DIHED IMPRP ELECT VDW BOUNDARY MISC KINETIC TOTAL TEMP POTENTIAL TOTALAVG TEMPAVG PRESSURE GPRESSURE VOLUME PRESSAVG GPRESSAVG
ENERGY: 0 7.8603 9.7235 8.4047 0.0000 -10628.7977 1460.5251 0.0000 0.0000 1801.9832 -7340.3009 308.5925 -9142.2841 -7340.3009 308.5925 308.6469 374.4991 30014.2483 308.6469 374.4991
ENERGY: 300000 6.6759 6.8794 7.0725 0.0000 -10591.8370 1432.0890 0.0000 0.0000 1736.4801 -7402.6400 297.3750 -9139.1202 -7353.8702 302.9593 -77.8829 -23.2788 30464.6700 246.3794 312.1466
ENERGY: 600000 5.9419 9.6258 7.4663 0.0000 -10538.6770 1428.4124 0.0000 0.0000 1690.5476 -7396.6831 289.5090 -9087.2307 -7349.5333 303.0039 -59.2463 23.1652 30593.4847 302.1038 376.5232
ENERGY: 900000 4.6406 6.2591 8.5170 0.0000 -10614.8788 1457.9692 0.0000 0.0000 1752.7974 -7384.6955 300.1694 -9137.4928 -7349.1318 302.5322 581.5656 646.4138 29888.3146 305.0722 376.4346
ENERGY: 1200000 3.9145 5.6218 4.9288 0.0000 -10718.3743 1547.2634 0.0000 0.0000 1728.6756 -7427.9702 296.0385 -9156.6458 -7363.5273 300.3116 1130.1132 1167.4528 29764.1605 296.0956 361.4455
ENERGY: 1500000 4.2548 4.8075 8.7747 0.0000 -10680.6209 1517.2242 0.0000 0.0000 1765.7054 -7379.8542 302.3799 -9145.5596 -7362.2865 300.7631 772.9288 911.2223 29794.9957 301.2168 373.1300
TCL: Running FEP window   6: Lambda1 0.7499999999999998 Lambda2 0.6999999999999997 [dLambda -0.050000000000000044]
TCL: Setting parameter firsttimestep to 0
TCL: Setting parameter alchLambda to 0.7499999999999998
Info: NONBONDED TABLE R-SQUARED SPACING: 0.0625
Info: NONBONDED TABLE SIZE: 705 POINTS
TCL: Setting parameter alchLambda2 to 0.6999999999999997
Info: NONBONDED TABLE R-SQUARED SPACING: 0.0625
Info: NONBONDED TABLE SIZE: 705 POINTS
TCL: Running for 1500000 steps
ETITLE: TS BOND ANGLE DIHED IMPRP ELECT VDW BOUNDARY MISC KINETIC TOTAL TEMP POTENTIAL TOTALAVG TEMPAVG PRESSURE GPRESSURE VOLUME PRESSAVG GPRESSAVG
ENERGY: 0 4.2548 4.8075 8.7747 0.0000 -10677.5594 1517.2310 0.0000 0.0000 1764.8551 -7377.6362 302.2343 -9142.4913 -7377.6362 302.2343 814.3628 901.0707 29794.9957 814.3628 901.0707
ENERGY: 300000 7.1369 6.0084 10.7585 0.0000 -10560.9423 1393.6777 0.0000 0.0000 1727.4128 -7415.9480 295.8222 -9143.3607 -7396.5346 298.8830 -268.6959 -258.4307 30325.9466 136.9413 178.5430
ENERGY: 600000 8.1481 7.7498 4.8343 0.0000 -10595.2726 1456.3021 0.0000 0.0000 1755.1228 -7363.1156 300.5676 -9118.2383 -7398.3343 296.8546 280.0003 325.2687 29749.3218 233.5645 271.6934
ENERGY: 900000 5.8796 8.6536 6.5110 0.0000 -10407.8236 1320.1667 0.0000 0.0000 1760.9689 -7305.6438 301.5688 -9066.6126 -7376.6466 297.9109 -717.8837 -603.6968 30618.5870 -32.0283 14.9984
ENERGY: 1200000 6.7747 8.5974 5.8307 0.0000 -10512.5684 1358.3920 0.0000 0.0000 1761.3626 -7371.6109 301.6362 -9132.9735 -7377.6977 297.3166 -555.5745 -574.4489 30400.1120 -0.5737 42.6051
ENERGY: 1500000 5.8281 7.9467 6.9759 0.0000 -10596.1470 1443.7707 0.0000 0.0000 1778.3794 -7353.2461 304.5504 -9131.6255 -7376.8125 297.7923 333.3711 426.8628 29871.2121 82.0012 122.1883
TCL: Running FEP window   7: Lambda1 0.6999999999999997 Lambda2 0.6499999999999997 [dLambda -0.050000000000000044]
TCL: Setting parameter firsttimestep to 0
TCL: Setting parameter alchLambda to 0.6999999999999997
Info: NONBONDED TABLE R-SQUARED SPACING: 0.0625
Info: NONBONDED TABLE SIZE: 705 POINTS
TCL: Setting parameter alchLambda2 to 0.6499999999999997
Info: NONBONDED TABLE R-SQUARED SPACING: 0.0625
Info: NONBONDED TABLE SIZE: 705 POINTS
TCL: Running for 1500000 steps
ETITLE: TS BOND ANGLE DIHED IMPRP ELECT VDW BOUNDARY MISC KINETIC TOTAL TEMP POTENTIAL TOTALAVG TEMPAVG PRESSURE GPRESSURE VOLUME PRESSAVG GPRESSAVG
ENERGY: 0 5.8281 7.9467 6.9759 0.0000 -10594.5737 1444.0299 0.0000 0.0000 1777.5294 -7352.2638 304.4048 -9129.7932 -7352.2638 304.4048 334.6494 417.7766 29871.2121 334.6494 417.7766
ENERGY: 300000 9.0202 7.5613 7.0758 0.0000 -10545.0434 1462.0169 0.0000 0.0000 1772.8943 -7286.4750 303.6110 -9059.3693 -7336.7896 303.9342 412.2882 464.2386 30287.3824 -147.6305 -90.7096
ENERGY: 600000 10.9454 5.7675 5.6942 0.0000 -10557.4001 1379.8336 0.0000 0.0000 1767.6368 -7387.5226 302.7107 -9155.1595 -7357.4867 302.9377 -462.5822 -471.6857 30187.5284 -116.0335 -66.1278
ENERGY: 900000 8.0686 4.7309 11.2734 0.0000 -10490.8033 1368.6868 0.0000 0.0000 1784.0413 -7314.0022 305.5200 -9098.0435 -7356.8827 302.6926 -586.3016 -491.0032 30490.7998 -121.0468 -72.1620
ENERGY: 1200000 6.0945 7.6886 7.1593 0.0000 -10668.4133 1503.9869 0.0000 0.0000 1765.1489 -7378.3351 302.2846 -9143.4840 -7367.0198 301.8511 773.6781 843.3296 30211.3982 -132.7465 -73.2967
ENERGY: 1500000 8.9515 5.9478 7.6659 0.0000 -10643.1465 1511.0979 0.0000 0.0000 1724.6772 -7384.8062 295.3538 -9109.4834 -7371.4023 301.3474 644.1758 746.9280 29829.9982 -40.0387 23.6152
TCL: Running FEP window   8: Lambda1 0.6499999999999997 Lambda2 0.5999999999999996 [dLambda -0.050000000000000044]
TCL: Setting parameter firsttimestep to 0
TCL: Setting parameter alchLambda to 0.6499999999999997
Info: NONBONDED TABLE R-SQUARED SPACING: 0.0625
Info: NONBONDED TABLE SIZE: 705 POINTS
TCL: Setting parameter alchLambda2 to 0.5999999999999996
Info: NONBONDED TABLE R-SQUARED SPACING: 0.0625
Info: NONBONDED TABLE SIZE: 705 POINTS
TCL: Running for 1500000 steps
ETITLE: TS BOND ANGLE DIHED IMPRP ELECT VDW BOUNDARY MISC KINETIC TOTAL TEMP POTENTIAL TOTALAVG TEMPAVG PRESSURE GPRESSURE VOLUME PRESSAVG GPRESSAVG
ENERGY: 0 8.9515 5.9478 7.6659 0.0000 -10640.7823 1511.5983 0.0000 0.0000 1723.7911 -7382.8276 295.2020 -9106.6187 -7382.8276 295.2020 652.4482 740.4799 29829.9982 652.4482 740.4799
ENERGY: 300000 5.0566 7.4109 6.4403 0.0000 -10407.9927 1333.5775 0.0000 0.0000 1739.1325 -7316.3749 297.8293 -9055.5075 -7334.2599 298.4913 -559.9197 -472.4095 30162.6617 -343.4006 -277.4582
ENERGY: 600000 5.0110 5.8081 9.9869 0.0000 -10652.3182 1426.9717 0.0000 0.0000 1789.4791 -7415.0614 306.4512 -9204.5405 -7341.8386 299.8262 -204.7822 -177.4552 30338.5078 -212.9722 -160.8141
ENERGY: 900000 6.0527 8.5495 12.3246 0.0000 -10383.9570 1360.0484 0.0000 0.0000 1802.3568 -7194.6250 308.6565 -8996.9817 -7323.0608 302.5494 -116.1699 -0.8156 30210.5333 -216.6403 -152.3487
ENERGY: 1200000 8.7469 6.0303 8.3946 0.0000 -10496.9777 1363.3668 0.0000 0.0000 1749.4610 -7360.9780 299.5980 -9110.4390 -7335.4071 301.3609 -635.4445 -527.9712 30708.7371 -276.2112 -209.4397
ENERGY: 1500000 7.4971 9.4980 6.6907 0.0000 -10361.8472 1289.5630 0.0000 0.0000 1774.6831 -7273.9154 303.9174 -9048.5985 -7340.6886 300.5121 -1016.3694 -999.5313 30590.2210 -265.9357 -198.8478
TCL: Running FEP window   9: Lambda1 0.5999999999999996 Lambda2 0.5499999999999996 [dLambda -0.050000000000000044]
TCL: Setting parameter firsttimestep to 0
TCL: Setting parameter alchLambda to 0.5999999999999996
Info: NONBONDED TABLE R-SQUARED SPACING: 0.0625
Info: NONBONDED TABLE SIZE: 705 POINTS
TCL: Setting parameter alchLambda2 to 0.5499999999999996
Info: NONBONDED TABLE R-SQUARED SPACING: 0.0625
Info: NONBONDED TABLE SIZE: 705 POINTS
TCL: Running for 1500000 steps
ETITLE: TS BOND ANGLE DIHED IMPRP ELECT VDW BOUNDARY MISC KINETIC TOTAL TEMP POTENTIAL TOTALAVG TEMPAVG PRESSURE GPRESSURE VOLUME PRESSAVG GPRESSAVG
ENERGY: 0 7.4971 9.4980 6.6907 0.0000 -10361.0218 1290.3936 0.0000 0.0000 1773.8297 -7273.1127 303.7712 -9046.9424 -7273.1127 303.7712 -1094.5807 -1004.3828 30590.2210 -1094.5807 -1004.3828
ENERGY: 300000 13.5576 5.5798 12.0200 0.0000 -10505.8857 1373.2283 0.0000 0.0000 1780.5988 -7320.9011 304.9304 -9101.4999 -7341.6273 300.0140 -564.4300 -434.0915 30363.9306 -415.0006 -337.3264
ENERGY: 600000 7.4027 8.4395 6.5738 0.0000 -10410.9487 1350.0846 0.0000 0.0000 1741.1339 -7297.3141 298.1720 -9038.4480 -7358.2375 298.7245 -303.5782 -212.1729 30285.9424 -282.1844 -202.9563
ENERGY: 900000 6.2281 9.6210 9.9507 0.0000 -10766.2803 1555.8532 0.0000 0.0000 1753.7344 -7430.8929 300.3299 -9184.6273 -7359.8982 299.7815 645.6697 774.0456 30353.3187 -108.2481 -20.1215
ENERGY: 1200000 5.2283 5.5886 5.2914 0.0000 -10549.0073 1432.1519 0.0000 0.0000 1765.4955 -7335.2517 302.3440 -9100.7471 -7357.6038 299.8967 9.0272 65.6644 30529.9675 -144.0131 -57.5645
ENERGY: 1500000 5.5178 4.6773 8.8064 0.0000 -10522.0767 1375.2732 0.0000 0.0000 1777.0326 -7350.7695 304.3197 -9127.8020 -7347.3929 301.5396 -938.1942 -900.1033 31105.8262 -232.4686 -155.3492
TCL: Running FEP window  10: Lambda1 0.5499999999999996 Lambda2 0.4999999999999996 [dLambda -0.04999999999999999]
TCL: Setting parameter firsttimestep to 0
TCL: Setting parameter alchLambda to 0.5499999999999996
Info: NONBONDED TABLE R-SQUARED SPACING: 0.0625
Info: NONBONDED TABLE SIZE: 705 POINTS
TCL: Setting parameter alchLambda2 to 0.4999999999999996
Info: NONBONDED TABLE R-SQUARED SPACING: 0.0625
Info: NONBONDED TABLE SIZE: 705 POINTS
TCL: Running for 1500000 steps
ETITLE: TS BOND ANGLE DIHED IMPRP ELECT VDW BOUNDARY MISC KINETIC TOTAL TEMP POTENTIAL TOTALAVG TEMPAVG PRESSURE GPRESSURE VOLUME PRESSAVG GPRESSAVG
ENERGY: 0 5.5178 4.6773 8.8064 0.0000 -10521.2784 1375.5767 0.0000 0.0000 1776.1363 -7350.5639 304.1662 -9126.7001 -7350.5639 304.1662 -989.4931 -907.2343 31105.8262 -989.4931 -907.2343
ENERGY: 300000 6.3121 14.4643 8.9281 0.0000 -10591.1259 1553.3272 0.0000 0.0000 1741.8713 -7266.2229 298.2983 -9008.0942 -7356.8664 301.6984 1316.9159 1385.9634 29862.9172 223.4327 280.5074
ENERGY: 600000 8.1623 8.6924 7.4130 0.0000 -10519.2254 1341.9131 0.0000 0.0000 1792.1498 -7360.8949 306.9086 -9153.0447 -7372.2905 302.6909 -899.6461 -910.7986 30343.7948 -71.4394 -24.8686
ENERGY: 900000 5.5938 9.5338 8.5933 0.0000 -10582.3667 1424.0041 0.0000 0.0000 1721.2222 -7413.4196 294.7621 -9134.6418 -7377.2505 300.6307 -372.3826 -358.3135 30811.8866 -230.6075 -179.3173
ENERGY: 1200000 9.2207 9.2532 9.2335 0.0000 -10599.5723 1477.5908 0.0000 0.0000 1793.3796 -7300.8944 307.1192 -9094.2740 -7370.1384 300.7547 535.8363 630.2473 29934.2910 -62.1166 -4.8287
ENERGY: 1500000 8.9646 4.5846 5.5307 0.0000 -10780.9651 1597.9750 0.0000 0.0000 1736.5037 -7427.4065 297.3791 -9163.9102 -7379.7979 300.0627 1213.5552 1314.8703 30038.6195 -5.8434 52.2681
TCL: Running FEP window  11: Lambda1 0.4999999999999996 Lambda2 0.4499999999999996 [dLambda -0.04999999999999999]
TCL: Setting parameter firsttimestep to 0
TCL: Setting parameter alchLambda to 0.4999999999999996
Info: NONBONDED TABLE R-SQUARED SPACING: 0.0625
Info: NONBONDED TABLE SIZE: 705 POINTS
TCL: Setting parameter alchLambda2 to 0.4499999999999996
Info: NONBONDED TABLE R-SQUARED SPACING: 0.0625
Info: NONBONDED TABLE SIZE: 705 POINTS
TCL: Running for 1500000 steps
ETITLE: TS BOND ANGLE DIHED IMPRP ELECT VDW BOUNDARY MISC KINETIC TOTAL TEMP POTENTIAL TOTALAVG TEMPAVG PRESSURE GPRESSURE VOLUME PRESSAVG GPRESSAVG
ENERGY: 0 8.9646 4.5846 5.5307 0.0000 -10780.3720 1598.7235 0.0000 0.0000 1735.6555 -7426.9131 297.2338 -9162.5686 -7426.9131 297.2338 1226.7556 1310.3830 30038.6195 1226.7556 1310.3830
ENERGY: 300000 6.4694 4.6354 10.2976 0.0000 -10604.1537 1469.8317 0.0000 0.0000 1730.2537 -7382.6658 296.3088 -9112.9196 -7398.7683 299.7140 5.0001 69.2421 30668.8288 468.5426 550.0888
ENERGY: 600000 7.6412 5.5051 5.8367 0.0000 -10509.5015 1329.7411 0.0000 0.0000 1696.7066 -7464.0709 290.5638 -9160.7774 -7427.9115 296.4487 -999.6219 -934.5672 30058.6984 83.8672 158.5234
ENERGY: 900000 4.3790 5.3262 12.4394 0.0000 -10703.4208 1405.0941 0.0000 0.0000 1748.3803 -7527.8019 299.4130 -9276.1822 -7429.4378 297.9505 -589.3932 -571.9774 30081.6891 87.7832 160.7756
ENERGY: 1200000 5.5186 4.7136 4.3935 0.0000 -10573.8086 1414.5244 0.0000 0.0000 1795.7258 -7348.9327 307.5210 -9144.6585 -7419.8027 297.8868 -241.6579 -156.5954 30125.7180 27.0899 98.0518
ENERGY: 1500000 4.8736 8.3442 5.6629 0.0000 -10515.8656 1410.3940 0.0000 0.0000 1725.3605 -7361.2304 295.4708 -9086.5909 -7415.1269 298.9774 -251.2468 -124.4258 30415.9496 35.1154 110.5512
TCL: Running FEP window  12: Lambda1 0.4499999999999996 Lambda2 0.39999999999999963 [dLambda -0.04999999999999999]
TCL: Setting parameter firsttimestep to 0
TCL: Setting parameter alchLambda to 0.4499999999999996
Info: NONBONDED TABLE R-SQUARED SPACING: 0.0625
Info: NONBONDED TABLE SIZE: 705 POINTS
TCL: Setting parameter alchLambda2 to 0.39999999999999963
Info: NONBONDED TABLE R-SQUARED SPACING: 0.0625
Info: NONBONDED TABLE SIZE: 705 POINTS
TCL: Running for 1500000 steps
ETITLE: TS BOND ANGLE DIHED IMPRP ELECT VDW BOUNDARY MISC KINETIC TOTAL TEMP POTENTIAL TOTALAVG TEMPAVG PRESSURE GPRESSURE VOLUME PRESSAVG GPRESSAVG
ENERGY: 0 4.8736 8.3442 5.6629 0.0000 -10515.8651 1410.9395 0.0000 0.0000 1724.5187 -7361.5262 295.3266 -9086.0449 -7361.5262 295.3266 -221.2334 -134.3171 30415.9496 -221.2334 -134.3171
ENERGY: 300000 6.1485 6.0726 9.5950 0.0000 -10613.9095 1437.4266 0.0000 0.0000 1767.2710 -7387.3959 302.6480 -9154.6669 -7376.7438 298.4634 -21.3867 6.4410 29989.3803 57.2185 126.9548
ENERGY: 600000 5.7953 7.7416 4.5265 0.0000 -10562.7616 1371.0110 0.0000 0.0000 1743.2673 -7430.4199 298.5373 -9173.6872 -7372.9788 299.7873 -487.8115 -404.4711 30102.1201 -88.4391 -22.4992
ENERGY: 900000 11.3072 6.7786 8.3596 0.0000 -10516.4628 1349.5740 0.0000 0.0000 1770.5095 -7369.9340 303.2026 -9140.4435 -7364.9759 300.8320 -901.6790 -799.0046 30282.7878 -198.8460 -126.9065
ENERGY: 1200000 7.1042 13.7521 4.4288 0.0000 -10496.0366 1385.5892 0.0000 0.0000 1819.4178 -7265.7445 311.5783 -9085.1623 -7353.2641 302.2097 -84.1295 -54.5345 30013.9798 -182.4031 -120.6795
ENERGY: 1500000 6.6794 4.8777 5.8500 0.0000 -10522.1219 1392.4282 0.0000 0.0000 1714.1573 -7398.1293 293.5522 -9112.2866 -7353.2568 301.4374 -23.7488 41.2115 29976.3773 -74.0446 -11.8076
TCL: Running FEP window  13: Lambda1 0.39999999999999963 Lambda2 0.34999999999999964 [dLambda -0.04999999999999999]
TCL: Setting parameter firsttimestep to 0
TCL: Setting parameter alchLambda to 0.39999999999999963
Info: NONBONDED TABLE R-SQUARED SPACING: 0.0625
Info: NONBONDED TABLE SIZE: 705 POINTS
TCL: Setting parameter alchLambda2 to 0.34999999999999964
Info: NONBONDED TABLE R-SQUARED SPACING: 0.0625
Info: NONBONDED TABLE SIZE: 705 POINTS
TCL: Running for 1500000 steps
ETITLE: TS BOND ANGLE DIHED IMPRP ELECT VDW BOUNDARY MISC KINETIC TOTAL TEMP POTENTIAL TOTALAVG TEMPAVG PRESSURE GPRESSURE VOLUME PRESSAVG GPRESSAVG
ENERGY: 0 6.6794 4.8777 5.8500 0.0000 -10522.1209 1393.0914 0.0000 0.0000 1713.2831 -7398.3392 293.4025 -9111.6223 -7398.3392 293.4025 -47.3685 41.2757 29976.3773 -47.3685 41.2757
ENERGY: 300000 4.2492 6.9617 6.1887 0.0000 -10442.2307 1334.5938 0.0000 0.0000 1738.1411 -7352.0962 297.6595 -9090.2373 -7361.7012 296.7768 -658.1017 -586.7602 30234.4897 -89.2228 -8.1139
ENERGY: 600000 4.9737 5.9897 4.0548 0.0000 -10566.4812 1484.3571 0.0000 0.0000 1798.9434 -7268.1625 308.0720 -9067.1059 -7355.6346 299.4610 626.0571 636.0830 30409.7747 -64.5551 -2.2249
ENERGY: 900000 5.9365 7.6912 5.3454 0.0000 -10644.5877 1495.1526 0.0000 0.0000 1705.5164 -7424.9456 292.0724 -9130.4619 -7359.0372 299.1011 465.5605 566.7777 30170.4480 -61.0184 -1.1186
ENERGY: 1200000 9.3726 6.3155 7.6665 0.0000 -10696.7997 1478.6769 0.0000 0.0000 1745.2403 -7449.5280 298.8752 -9194.7682 -7372.6315 299.4748 333.8637 377.7163 29905.6003 21.3769 71.1178
ENERGY: 1500000 9.0429 9.1814 3.7562 0.0000 -10584.7826 1436.4261 0.0000 0.0000 1748.3169 -7378.0590 299.4021 -9126.3760 -7373.6273 299.1193 43.0258 91.8862 30018.5877 -30.9671 16.5924
TCL: Running FEP window  14: Lambda1 0.34999999999999964 Lambda2 0.29999999999999966 [dLambda -0.04999999999999999]
TCL: Setting parameter firsttimestep to 0
TCL: Setting parameter alchLambda to 0.34999999999999964
Info: NONBONDED TABLE R-SQUARED SPACING: 0.0625
Info: NONBONDED TABLE SIZE: 705 POINTS
TCL: Setting parameter alchLambda2 to 0.29999999999999966
Info: NONBONDED TABLE R-SQUARED SPACING: 0.0625
Info: NONBONDED TABLE SIZE: 705 POINTS
TCL: Running for 1500000 steps
ETITLE: TS BOND ANGLE DIHED IMPRP ELECT VDW BOUNDARY MISC KINETIC TOTAL TEMP POTENTIAL TOTALAVG TEMPAVG PRESSURE GPRESSURE VOLUME PRESSAVG GPRESSAVG
ENERGY: 0 9.0429 9.1814 3.7562 0.0000 -10584.7829 1436.7070 0.0000 0.0000 1747.4048 -7378.6905 299.2459 -9126.0952 -7378.6905 299.2459 -7.3566 86.6307 30018.5877 -7.3566 86.6307
ENERGY: 300000 6.4303 6.0222 5.6427 0.0000 -10613.8768 1396.5931 0.0000 0.0000 1806.7078 -7392.4806 309.4016 -9199.1885 -7344.2006 301.7854 -360.5704 -354.3283 29851.3787 -276.0160 -229.5723
ENERGY: 600000 7.5883 6.0067 10.2426 0.0000 -10628.3121 1443.0444 0.0000 0.0000 1770.6307 -7390.7994 303.2234 -9161.4301 -7363.8411 299.7662 95.8885 126.3920 29594.3342 -169.5087 -121.8873
ENERGY: 900000 10.2134 6.4708 7.4595 0.0000 -10641.1261 1515.6908 0.0000 0.0000 1692.8489 -7408.4428 289.9031 -9101.2917 -7363.1034 299.0919 683.2137 771.0600 30105.8130 -67.7214 -15.1835
ENERGY: 1200000 9.6732 6.9070 7.5434 0.0000 -10490.3348 1414.9327 0.0000 0.0000 1743.9462 -7307.3324 298.6536 -9051.2786 -7352.1051 299.8852 211.4792 266.8494 30256.4107 25.9073 76.5234
ENERGY: 1500000 8.7340 5.6774 8.1432 0.0000 -10765.3535 1520.4732 0.0000 0.0000 1777.3292 -7444.9965 304.3705 -9222.3257 -7364.9433 299.4819 511.3382 534.1768 29651.9673 35.6390 88.7605
TCL: Running FEP window  15: Lambda1 0.29999999999999966 Lambda2 0.24999999999999967 [dLambda -0.04999999999999999]
TCL: Setting parameter firsttimestep to 0
TCL: Setting parameter alchLambda to 0.29999999999999966
Info: NONBONDED TABLE R-SQUARED SPACING: 0.0625
Info: NONBONDED TABLE SIZE: 705 POINTS
TCL: Setting parameter alchLambda2 to 0.24999999999999967
Info: NONBONDED TABLE R-SQUARED SPACING: 0.0625
Info: NONBONDED TABLE SIZE: 705 POINTS
TCL: Running for 1500000 steps
ETITLE: TS BOND ANGLE DIHED IMPRP ELECT VDW BOUNDARY MISC KINETIC TOTAL TEMP POTENTIAL TOTALAVG TEMPAVG PRESSURE GPRESSURE VOLUME PRESSAVG GPRESSAVG
ENERGY: 0 8.7340 5.6774 8.1432 0.0000 -10765.3510 1520.8923 0.0000 0.0000 1776.4741 -7445.4300 304.2241 -9221.9041 -7445.4300 304.2241 447.3569 528.8984 29651.9673 447.3569 528.8984
ENERGY: 300000 4.2248 8.8308 7.6392 0.0000 -10755.6468 1552.9115 0.0000 0.0000 1748.1297 -7433.9109 299.3700 -9182.0406 -7379.3706 304.1780 772.8508 824.3790 29732.7589 451.2487 493.6108
ENERGY: 600000 10.0776 8.2182 7.4582 0.0000 -10582.4353 1484.5549 0.0000 0.0000 1737.7696 -7334.3567 297.5959 -9072.1263 -7354.7638 302.3811 546.4579 566.6587 30141.5281 209.7964 264.0223
ENERGY: 900000 7.4319 9.1362 14.3460 0.0000 -10488.8791 1380.7250 0.0000 0.0000 1715.4286 -7361.8114 293.7699 -9077.2401 -7346.2651 301.5569 -421.3864 -432.9119 30263.2158 45.1852 90.8726
ENERGY: 1200000 5.6859 5.7475 2.9745 0.0000 -10674.9244 1485.5979 0.0000 0.0000 1715.5536 -7459.3651 293.7913 -9174.9187 -7352.7229 302.4063 127.5248 164.0834 30102.8858 44.6035 92.7581
ENERGY: 1500000 5.8535 7.9116 6.6603 0.0000 -10423.9597 1341.7410 0.0000 0.0000 1744.3268 -7317.4665 298.7188 -9061.7933 -7343.5398 302.2976 -540.4682 -443.7086 30229.3891 3.0146 56.0108
TCL: Running FEP window  16: Lambda1 0.24999999999999967 Lambda2 0.19999999999999968 [dLambda -0.04999999999999999]
TCL: Setting parameter firsttimestep to 0
TCL: Setting parameter alchLambda to 0.24999999999999967
Info: NONBONDED TABLE R-SQUARED SPACING: 0.0625
Info: NONBONDED TABLE SIZE: 705 POINTS
TCL: Setting parameter alchLambda2 to 0.19999999999999968
Info: NONBONDED TABLE R-SQUARED SPACING: 0.0625
Info: NONBONDED TABLE SIZE: 705 POINTS
TCL: Running for 1500000 steps
ETITLE: TS BOND ANGLE DIHED IMPRP ELECT VDW BOUNDARY MISC KINETIC TOTAL TEMP POTENTIAL TOTALAVG TEMPAVG PRESSURE GPRESSURE VOLUME PRESSAVG GPRESSAVG
ENERGY: 0 5.8535 7.9116 6.6603 0.0000 -10423.9583 1342.7038 0.0000 0.0000 1743.4659 -7317.3631 298.5714 -9060.8291 -7317.3631 298.5714 -536.8378 -442.8251 30229.3891 -536.8378 -442.8251
ENERGY: 300000 8.1725 6.9803 5.0198 0.0000 -10503.0967 1381.4953 0.0000 0.0000 1727.5659 -7373.8629 295.8485 -9101.4288 -7337.1319 299.1626 -498.9096 -434.3741 30225.5661 124.6884 197.2162
ENERGY: 600000 8.4435 5.3044 11.2777 0.0000 -10491.4115 1403.5675 0.0000 0.0000 1786.4506 -7276.3677 305.9326 -9062.8183 -7325.1968 302.0584 -207.3915 -96.7034 30304.5795 55.0707 134.7592
ENERGY: 900000 2.9938 7.6224 7.4047 0.0000 -10553.3619 1473.6313 0.0000 0.0000 1779.2856 -7282.4240 304.7055 -9061.7096 -7324.4210 301.7113 726.3950 764.0958 29924.4529 34.8524 100.6861
ENERGY: 1200000 4.2604 8.5521 6.9129 0.0000 -10675.7050 1552.1933 0.0000 0.0000 1817.0691 -7286.7172 311.1760 -9103.7863 -7319.6029 303.2970 1084.7697 1160.3403 29980.1326 64.3397 125.2980
ENERGY: 1500000 6.4481 4.7190 6.8896 0.0000 -10493.7988 1437.2868 0.0000 0.0000 1699.7931 -7338.6621 291.0923 -9038.4552 -7319.5739 302.6444 -49.4057 65.0467 30010.8237 63.6282 125.9314
TCL: Running FEP window  17: Lambda1 0.19999999999999968 Lambda2 0.1499999999999997 [dLambda -0.04999999999999999]
TCL: Setting parameter firsttimestep to 0
TCL: Setting parameter alchLambda to 0.19999999999999968
Info: NONBONDED TABLE R-SQUARED SPACING: 0.0625
Info: NONBONDED TABLE SIZE: 705 POINTS
TCL: Setting parameter alchLambda2 to 0.1499999999999997
Info: NONBONDED TABLE R-SQUARED SPACING: 0.0625
Info: NONBONDED TABLE SIZE: 705 POINTS
TCL: Running for 1500000 steps
ETITLE: TS BOND ANGLE DIHED IMPRP ELECT VDW BOUNDARY MISC KINETIC TOTAL TEMP POTENTIAL TOTALAVG TEMPAVG PRESSURE GPRESSURE VOLUME PRESSAVG GPRESSAVG
ENERGY: 0 6.4481 4.7190 6.8896 0.0000 -10493.7996 1437.5574 0.0000 0.0000 1698.9341 -7339.2513 290.9452 -9038.1855 -7339.2513 290.9452 -18.8501 62.4221 30010.8237 -18.8501 62.4221
ENERGY: 300000 4.0118 5.5787 5.7918 0.0000 -10611.5323 1480.8331 0.0000 0.0000 1709.6411 -7405.6759 292.7788 -9115.3169 -7391.6401 294.6712 732.1103 818.0970 29757.8142 28.8080 110.7243
ENERGY: 600000 6.7999 5.4060 9.7790 0.0000 -10535.4785 1387.4016 0.0000 0.0000 1732.6587 -7393.4332 296.7206 -9126.0919 -7388.6982 298.0305 -823.9966 -766.0553 30445.9974 -68.1903 -5.6181
ENERGY: 900000 9.5328 6.7266 8.6480 0.0000 -10519.7999 1431.3076 0.0000 0.0000 1787.6998 -7275.8852 306.1465 -9063.5849 -7364.5760 299.6035 164.9333 178.7877 30123.2806 -31.5361 25.1424
ENERGY: 1200000 8.5615 7.7919 5.2022 0.0000 -10489.6813 1383.4948 0.0000 0.0000 1710.4071 -7374.2239 292.9100 -9084.6309 -7366.4246 298.4741 -316.5179 -309.3156 30283.8570 -61.5412 -10.2704
ENERGY: 1500000 4.3385 6.1605 5.5861 0.0000 -10501.7390 1369.9942 0.0000 0.0000 1752.3666 -7363.2930 300.0956 -9115.6596 -7368.8696 299.4151 -307.4248 -271.6927 30050.3624 -141.9412 -95.7303
TCL: Running FEP window  18: Lambda1 0.1499999999999997 Lambda2 0.09999999999999969 [dLambda -0.05 ]
TCL: Setting parameter firsttimestep to 0
TCL: Setting parameter alchLambda to 0.1499999999999997
Info: NONBONDED TABLE R-SQUARED SPACING: 0.0625
Info: NONBONDED TABLE SIZE: 705 POINTS
TCL: Setting parameter alchLambda2 to 0.09999999999999969
Info: NONBONDED TABLE R-SQUARED SPACING: 0.0625
Info: NONBONDED TABLE SIZE: 705 POINTS
TCL: Running for 1500000 steps
ETITLE: TS BOND ANGLE DIHED IMPRP ELECT VDW BOUNDARY MISC KINETIC TOTAL TEMP POTENTIAL TOTALAVG TEMPAVG PRESSURE GPRESSURE VOLUME PRESSAVG GPRESSAVG
ENERGY: 0 4.3385 6.1605 5.5861 0.0000 -10501.7395 1370.3212 0.0000 0.0000 1751.5090 -7363.8241 299.9488 -9115.3332 -7363.8241 299.9488 -370.2180 -276.2183 30050.3624 -370.2180 -276.2183
ENERGY: 300000 4.3271 7.4746 6.7293 0.0000 -10469.9196 1408.3867 0.0000 0.0000 1790.4743 -7252.5276 306.6216 -9043.0019 -7355.7036 300.5952 -127.8115 -7.1428 30303.3367 188.7266 273.0045
ENERGY: 600000 6.7290 9.4860 8.9961 0.0000 -10442.4123 1449.5750 0.0000 0.0000 1748.2881 -7219.3381 299.3972 -8967.6262 -7324.7451 301.7222 364.8840 406.7688 30357.2617 242.7188 310.2993
ENERGY: 900000 6.4164 12.1143 6.7278 0.0000 -10589.6316 1447.2104 0.0000 0.0000 1720.7520 -7396.4107 294.6816 -9117.1626 -7325.6536 301.1446 -19.8218 87.2152 29844.2016 205.9286 271.5179
ENERGY: 1200000 5.0851 9.8221 8.5773 0.0000 -10596.5114 1432.7103 0.0000 0.0000 1763.5400 -7376.7766 302.0091 -9140.3166 -7329.9785 301.8121 -124.9464 -69.1413 30074.6212 182.2149 246.3417
ENERGY: 1500000 4.6236 5.2859 5.2478 0.0000 -10604.6611 1486.2060 0.0000 0.0000 1736.2414 -7367.0564 297.3341 -9103.2977 -7328.0053 300.7713 340.5399 449.3336 30407.4842 135.6598 200.6478
TCL: Running FEP window  19: Lambda1 0.09999999999999969 Lambda2 0.049999999999999684 [dLambda -0.05 ]
TCL: Setting parameter firsttimestep to 0
TCL: Setting parameter alchLambda to 0.09999999999999969
Info: NONBONDED TABLE R-SQUARED SPACING: 0.0625
Info: NONBONDED TABLE SIZE: 705 POINTS
TCL: Setting parameter alchLambda2 to 0.049999999999999684
Info: NONBONDED TABLE R-SQUARED SPACING: 0.0625
Info: NONBONDED TABLE SIZE: 705 POINTS
TCL: Running for 1500000 steps
ETITLE: TS BOND ANGLE DIHED IMPRP ELECT VDW BOUNDARY MISC KINETIC TOTAL TEMP POTENTIAL TOTALAVG TEMPAVG PRESSURE GPRESSURE VOLUME PRESSAVG GPRESSAVG
ENERGY: 0 4.6236 5.2859 5.2478 0.0000 -10604.6602 1484.5336 0.0000 0.0000 1735.3532 -7369.6161 297.1820 -9104.9693 -7369.6161 297.1820 348.3362 436.2960 30407.4842 348.3362 436.2960
ENERGY: 300000 4.0159 7.0660 5.0981 0.0000 -10480.5662 1378.6795 0.0000 0.0000 1777.8988 -7307.8080 304.4681 -9085.7068 -7302.9042 303.6246 -91.0758 24.4317 29989.4838 327.1542 446.8713
ENERGY: 600000 9.5532 8.7683 12.4285 0.0000 -10559.0956 1436.6390 0.0000 0.0000 1745.7206 -7345.9860 298.9575 -9091.7066 -7324.6504 302.1625 -442.7307 -324.9322 30464.6905 173.5590 278.6751
ENERGY: 900000 5.5988 7.1528 10.4719 0.0000 -10633.8412 1450.3961 0.0000 0.0000 1757.1692 -7403.0524 300.9181 -9160.2216 -7331.9236 302.0752 401.5615 442.1243 29330.0280 222.1868 315.1890
ENERGY: 1200000 7.8562 6.1970 7.2869 0.0000 -10667.8307 1524.1765 0.0000 0.0000 1734.4514 -7387.8628 297.0276 -9122.3142 -7352.2801 299.9957 592.4042 655.0687 30093.3610 143.3523 222.2355
ENERGY: 1500000 5.2156 9.0656 5.8472 0.0000 -10555.0398 1399.5504 0.0000 0.0000 1751.3776 -7383.9834 299.9263 -9135.3610 -7354.2898 300.5564 -158.5989 -137.1663 29799.2981 112.5354 185.6857
TCL: Running FEP window  20: Lambda1 0.049999999999999684 Lambda2 0.0    [dLambda -0.049999999999999684]
TCL: Setting parameter firsttimestep to 0
TCL: Setting parameter alchLambda to 0.049999999999999684
Info: NONBONDED TABLE R-SQUARED SPACING: 0.0625
Info: NONBONDED TABLE SIZE: 705 POINTS
TCL: Setting parameter alchLambda2 to 0.0
Info: NONBONDED TABLE R-SQUARED SPACING: 0.0625
Info: NONBONDED TABLE SIZE: 705 POINTS
TCL: Running for 1500000 steps
ETITLE: TS BOND ANGLE DIHED IMPRP ELECT VDW BOUNDARY MISC KINETIC TOTAL TEMP POTENTIAL TOTALAVG TEMPAVG PRESSURE GPRESSURE VOLUME PRESSAVG GPRESSAVG
ENERGY: 0 5.2156 9.0656 5.8472 0.0000 -10555.0398 1399.0141 0.0000 0.0000 1750.4867 -7385.4107 299.7737 -9135.8974 -7385.4107 299.7737 -223.6708 -143.5475 29799.2981 -223.6708 -143.5475
ENERGY: 300000 6.7196 7.5041 8.1144 0.0000 -10497.6204 1373.7633 0.0000 0.0000 1746.5244 -7354.9947 299.0951 -9101.5190 -7367.3810 298.8260 -586.7632 -563.7868 30232.6577 -446.1287 -395.8851
ENERGY: 600000 5.2629 7.1578 5.2467 0.0000 -10670.9074 1465.8678 0.0000 0.0000 1766.2562 -7421.1160 302.4742 -9187.3723 -7375.4463 297.8328 59.2132 23.1511 30041.4813 -324.3921 -284.7372
ENERGY: 900000 7.8522 5.9006 8.6131 0.0000 -10616.4285 1460.6111 0.0000 0.0000 1776.9626 -7356.4889 304.3077 -9133.4515 -7374.1606 298.6775 402.6051 460.0041 29345.0881 -406.3831 -359.7301
ENERGY: 1200000 4.9333 6.2593 8.6952 0.0000 -10602.5803 1483.3072 0.0000 0.0000 1771.4510 -7327.9343 303.3639 -9099.3853 -7377.6671 298.6700 592.2095 588.0957 29799.3105 -270.1646 -228.8065
ENERGY: 1500000 6.9602 10.1339 9.6521 0.0000 -10401.7889 1357.6283 0.0000 0.0000 1702.1129 -7315.3016 291.4896 -9017.4145 -7365.5754 298.5208 -433.1222 -415.1663 30511.1932 -259.8584 -218.0386
TCL: Exiting due to exit command.
