Info: SIMULATION PARAMETERS:
Info: TIMESTEP               2
Info: NUMBER OF STEPS        0
Info: STEPS PER CYCLE        10
Info: PERIODIC CELL BASIS 1  30.7022 0 0
Info: PERIODIC CELL BASIS 2  0 31.3981 0
Info: PERIODIC CELL BASIS 3  0 0 31.1673
Info: PERIODIC CELL CENTER   0 0 0
Info: WRAPPING WATERS AROUND PERIODIC BOUNDARIES ON OUTPUT.
Info: WRAPPING ALL CLUSTERS AROUND PERIODIC BOUNDARIES ON OUTPUT.
Info: FIRST LDB TIMESTEP     50
Info: LAST LDB TIMESTEP     -1
Info: HOM BACKGROUND SCALING 1
Info: PME BACKGROUND SCALING 1
Info: MIN ATOMS PER PATCH    40
Info: EMPTY PATCH LOAD       40 ATOMS
Info: VELOCITY FILE          mobley_210639_equil.vel
Info: CENTER OF MASS MOVING INITIALLY? NO
Info: DIELECTRIC             1
Info: EXCLUDE                SCALED ONE-FOUR
Info: 1-4 ELECTROSTATICS SCALED BY 0.833333
Info: MODIFIED 1-4 VDW PARAMETERS WILL BE USED
Info: DCD FILENAME           mobley_210639_prod.dcd
Info: DCD FREQUENCY          100000
Info: DCD FIRST STEP         100000
Info: DCD FILE WILL CONTAIN UNIT CELL DATA
Info: XST FILENAME           mobley_210639_prod.xst
Info: XST FREQUENCY          100000
Info: NO VELOCITY DCD OUTPUT
Info: NO FORCE DCD OUTPUT
Info: OUTPUT FILENAME        mobley_210639_prod
Info: BINARY OUTPUT FILES WILL BE USED
Info: RESTART FILENAME       mobley_210639_prod.restart
Info: RESTART FREQUENCY      100000
Info: BINARY RESTART FILES WILL BE USED
Info: CUTOFF                 9
Info: PAIRLIST DISTANCE      11
Info: PAIRLIST SHRINK RATE   0.01
Info: PAIRLIST GROW RATE     0.01
Info: PAIRLIST TRIGGER       0.3
Info: PAIRLISTS PER CYCLE    2
Info: PAIRLISTS ENABLED
Info: MARGIN                 2
Info: HYDROGEN GROUP CUTOFF  2.5
Info: PATCH DIMENSION        15.5
Info: ENERGY OUTPUT STEPS    100000
Info: ENERGY EVALUATION STEPS    100000
Info: OUTPUT ENERGY PRECISION 4
Info: CROSSTERM ENERGY INCLUDED IN DIHEDRAL
Info: TIMING OUTPUT STEPS    1000000
Info: PRESSURE OUTPUT STEPS  100000
Info: ALCHEMICAL FEP ON
Info: FEP CURRENT LAMBDA VALUE     0
Info: FEP COMPARISON LAMBDA VALUE  0.05
Info: FEP INTRA-ALCHEMICAL NON-BONDED INTERACTIONS WILL BE RETAINED
Info: FEP INTRA-ALCHEMICAL BONDED INTERACTIONS WILL BE RETAINED
Info: FEP VDW SHIFTING COEFFICIENT 5
Info: FEP ELEC. ACTIVE FOR ANNIHILATED PARTICLES BETWEEN LAMBDA = 0 AND LAMBDA = 0.5
Info: FEP ELEC. ACTIVE FOR EXNIHILATED PARTICLES BETWEEN LAMBDA = 0.5 AND LAMBDA = 1
Info: FEP VDW ACTIVE FOR ANNIHILATED PARTICLES BETWEEN LAMBDA = 0 AND LAMBDA = 1
Info: FEP VDW ACTIVE FOR EXNIHILATED PARTICLES BETWEEN LAMBDA = 0 AND LAMBDA = 1
Info: FEP BOND ACTIVE FOR ANNIHILATED PARTICLES BETWEEN LAMBDA = 1 AND LAMBDA = 1
Info: FEP BOND ACTIVE FOR EXNIHILATED PARTICLES BETWEEN LAMBDA = 0 AND LAMBDA = 0
Info: LANGEVIN DYNAMICS ACTIVE
Info: LANGEVIN TEMPERATURE   300
Info: LANGEVIN USING BBK INTEGRATOR
Info: LANGEVIN DAMPING COEFFICIENT IS 1 INVERSE PS
Info: LANGEVIN DYNAMICS APPLIED TO HYDROGENS
Info: LANGEVIN PISTON PRESSURE CONTROL ACTIVE
Info:        TARGET PRESSURE IS 1.01325 BAR
Info:     OSCILLATION PERIOD IS 50 FS
Info:             DECAY TIME IS 25 FS
Info:     PISTON TEMPERATURE IS 300 K
Info:       PRESSURE CONTROL IS GROUP-BASED
Info:    INITIAL STRAIN RATE IS -1.31244e-05 -1.31244e-05 -1.31244e-05
Info:       CELL FLUCTUATION IS ISOTROPIC
Info: PARTICLE MESH EWALD (PME) ACTIVE
Info: PME TOLERANCE               1e-06
Info: PME EWALD COEFFICIENT       0.348832
Info: PME INTERPOLATION ORDER     4
Info: PME GRID DIMENSIONS         32 32 32
Info: PME MAXIMUM GRID SPACING    1
Info: PME CALCULATION WILL BE PERFORMED ON GPU
Info: FULL ELECTROSTATIC EVALUATION FREQUENCY      2
Info: USING VERLET I (r-RESPA) MTS SCHEME.
Info: C1 SPLITTING OF LONG RANGE ELECTROSTATICS
Info: PLACING ATOMS IN PATCHES BY HYDROGEN GROUPS
Info: RIGID BONDS TO HYDROGEN : ALL
Info:         ERROR TOLERANCE : 1e-08
Info:          MAX ITERATIONS : 100
Info: RIGID WATER USING SETTLE ALGORITHM
Info: RANDOM NUMBER SEED     1743512716
Info: USE HYDROGEN BONDS?    NO
Info: Using AMBER format force field!
Info: AMBER PARM FILE        mobley_210639.prmtop
Info: COORDINATE PDB         mobley_210639.pdb
Info: Exclusions will be read from PARM file!
Info: SCNB (VDW SCALING)     2
Info: USING ARITHMETIC MEAN TO COMBINE L-J SIGMA PARAMETERS
Info: BINARY COORDINATES     mobley_210639_equil.coor
Info: SUMMARY OF PARAMETERS:
Info: 6 BONDS
Info: 6 ANGLES
Info:   6 HARMONIC
Info:   0 COSINE-BASED
Info: 2 DIHEDRAL
Info: 0 IMPROPER
Info: 0 CROSSTERM
Info: 0 VDW
Info: 21 VDW_PAIRS
Info: 0 NBTHOLE_PAIRS
Info: To read alchdata from file: mobley_210639.pdb
Info: To read alchflag data from column: 5
Info: STRUCTURE SUMMARY:
Info: 2900 ATOMS
Info: 2899 BONDS
Info: 18 ANGLES
Info: 18 DIHEDRALS
Info: 0 IMPROPERS
Info: 0 CROSSTERMS
Info: 2935 EXCLUSIONS
Info: 2896 RIGID BONDS
Info: ALCH: 0 ATOMS TO DISAPPEAR IN FINAL STATE
Info: ALCH: 11 ATOMS TO APPEAR IN FINAL STATE
Info: 5804 DEGREES OF FREEDOM
Info: 967 HYDROGEN GROUPS
Info: 4 ATOMS IN LARGEST HYDROGEN GROUP
Info: 967 MIGRATION GROUPS
Info: 4 ATOMS IN LARGEST MIGRATION GROUP
Info: TOTAL MASS = 17519.4 amu
Info: TOTAL CHARGE = -7.45058e-09 e
Info: MASS DENSITY = 0.968292 g/cm^3
Info: ATOM DENSITY = 0.0965219 atoms/A^3
Info: ADDED 0 IMPLICIT EXCLUSIONS
Info: NONBONDED TABLE R-SQUARED SPACING: 0.0625
Info: NONBONDED TABLE SIZE: 705 POINTS
Info: REMOVING COM VELOCITY -0.00967409 0.0186968 -0.0414988
Info: Use 3D box decompostion in PME FFT.
Info: Updated CUDA force table with 4096 elements.
Info: Updated CUDA LJ table with 6 x 6 elements.
Info: Found 14 unique exclusion lists needing 24 bytes
TCL: Running for 1500000 steps
ETITLE: TS BOND ANGLE DIHED IMPRP ELECT VDW BOUNDARY MISC KINETIC TOTAL TEMP POTENTIAL TOTALAVG TEMPAVG PRESSURE GPRESSURE VOLUME PRESSAVG GPRESSAVG
ENERGY: 0 0.2469 2.9115 0.0801 0.0000 -10409.8864 1395.3938 0.0000 0.0000 1709.4015 -7301.8525 296.4197 -9011.2540 -7301.8525 296.4197 -19.6775 78.0086 30044.9837 -19.6775 78.0086
ENERGY: 300000 0.7412 6.3639 0.2259 0.0000 -10471.2833 1379.4837 0.0000 0.0000 1751.4003 -7333.0684 303.7025 -9084.4687 -7323.3493 302.5307 -608.3615 -597.2075 30469.6925 -85.4981 -8.4313
ENERGY: 600000 0.1727 3.7827 0.1915 0.0000 -10575.3438 1527.0975 0.0000 0.0000 1705.6776 -7338.4218 295.7740 -9044.0994 -7323.3299 301.6135 884.6478 886.0020 29945.9336 58.1066 117.0344
ENERGY: 900000 1.1091 4.7893 0.3798 0.0000 -10468.0868 1398.7671 0.0000 0.0000 1759.7873 -7303.2542 305.1569 -9063.0415 -7341.3344 300.7112 -92.4995 28.2860 29743.2943 73.9024 143.3589
ENERGY: 1200000 0.6243 3.8224 0.4712 0.0000 -10488.6822 1406.6483 0.0000 0.0000 1692.5076 -7384.6083 293.4902 -9077.1159 -7349.5521 300.4033 -410.9407 -348.8324 30450.5843 117.2021 188.0891
ENERGY: 1500000 0.3269 5.5563 1.9329 0.0000 -10487.5078 1389.4347 0.0000 0.0000 1714.1112 -7376.1457 297.2364 -9090.2569 -7358.9736 299.2557 -325.4126 -219.8785 29977.7655 65.4754 134.9707
TCL: Running FEP window   2: Lambda1 0.05   Lambda2 0.1    [dLambda 0.05  ]
TCL: Setting parameter firsttimestep to 0
TCL: Setting parameter alchLambda to 0.05
Info: NONBONDED TABLE R-SQUARED SPACING: 0.0625
Info: NONBONDED TABLE SIZE: 705 POINTS
TCL: Setting parameter alchLambda2 to 0.1
Info: NONBONDED TABLE R-SQUARED SPACING: 0.0625
Info: NONBONDED TABLE SIZE: 705 POINTS
TCL: Running for 1500000 steps
ETITLE: TS BOND ANGLE DIHED IMPRP ELECT VDW BOUNDARY MISC KINETIC TOTAL TEMP POTENTIAL TOTALAVG TEMPAVG PRESSURE GPRESSURE VOLUME PRESSAVG GPRESSAVG
ENERGY: 0 0.3269 5.5563 1.9329 0.0000 -10487.5094 1396.5531 0.0000 0.0000 1713.2016 -7369.9386 297.0787 -9083.1401 -7369.9386 297.0787 -291.3204 -206.5249 29977.7655 -291.3204 -206.5249
ENERGY: 300000 2.4811 3.1112 1.1449 0.0000 -10422.4887 1347.9318 0.0000 0.0000 1813.6396 -7254.1802 314.4952 -9067.8198 -7361.4201 301.4229 92.4231 119.9957 29250.8325 -30.9443 36.7532
ENERGY: 600000 0.4270 5.8714 0.7551 0.0000 -10662.6729 1462.3717 0.0000 0.0000 1795.4338 -7397.8138 311.3382 -9193.2476 -7374.5205 302.1426 432.0743 472.1957 29164.1944 99.8661 155.4083
ENERGY: 900000 0.5602 9.1432 0.6339 0.0000 -10568.5276 1425.8627 0.0000 0.0000 1732.7879 -7399.5397 300.4750 -9132.3277 -7379.5590 300.2743 -52.7832 50.1407 29647.9436 103.9225 172.3872
ENERGY: 1200000 1.1272 4.1900 0.6601 0.0000 -10678.9713 1465.2795 0.0000 0.0000 1744.8691 -7462.8455 302.5700 -9207.7145 -7390.1345 299.7666 277.6615 253.1629 29350.0810 57.2368 120.8019
ENERGY: 1500000 0.2081 3.0946 1.3775 0.0000 -10508.9003 1395.1893 0.0000 0.0000 1754.0205 -7355.0103 304.1569 -9109.0308 -7383.0617 300.1953 -440.7957 -352.6365 30245.6484 59.4636 127.0858
TCL: Running FEP window   3: Lambda1 0.1    Lambda2 0.15000000000000002 [dLambda 0.05000000000000002]
TCL: Setting parameter firsttimestep to 0
TCL: Setting parameter alchLambda to 0.1
Info: NONBONDED TABLE R-SQUARED SPACING: 0.0625
Info: NONBONDED TABLE SIZE: 705 POINTS
TCL: Setting parameter alchLambda2 to 0.15000000000000002
Info: NONBONDED TABLE R-SQUARED SPACING: 0.0625
Info: NONBONDED TABLE SIZE: 705 POINTS
TCL: Running for 1500000 steps
ETITLE: TS BOND ANGLE DIHED IMPRP ELECT VDW BOUNDARY MISC KINETIC TOTAL TEMP POTENTIAL TOTALAVG TEMPAVG PRESSURE GPRESSURE VOLUME PRESSAVG GPRESSAVG
ENERGY: 0 0.2081 3.0946 1.3775 0.0000 -10508.9010 1395.0408 0.0000 0.0000 1753.1038 -7356.0761 303.9979 -9109.1800 -7356.0761 303.9979 -431.8038 -350.8110 30245.6484 -431.8038 -350.8110
ENERGY: 300000 1.3846 5.5810 0.6205 0.0000 -10475.1897 1401.9322 0.0000 0.0000 1765.5786 -7300.0927 306.1611 -9065.6713 -7349.0450 302.1876 -118.5596 -66.1729 29771.4582 -168.9516 -133.2483
ENERGY: 600000 0.3263 5.1840 0.4964 0.0000 -10479.1219 1400.9134 0.0000 0.0000 1703.3611 -7368.8406 295.3723 -9072.2017 -7351.7188 302.1573 -163.8748 -54.4566 29730.3525 -123.0910 -73.9542
ENERGY: 900000 0.4384 3.1703 0.1676 0.0000 -10636.1841 1496.7476 0.0000 0.0000 1696.1417 -7439.5184 294.1204 -9135.6602 -7361.4496 300.9809 667.9398 693.0169 29613.4530 26.8247 83.4674
ENERGY: 1200000 0.3002 4.5521 0.5689 0.0000 -10368.2709 1369.5114 0.0000 0.0000 1772.2475 -7221.0908 307.3175 -8993.3383 -7351.6788 301.2296 -63.4025 0.5883 30007.3506 14.8852 72.9114
ENERGY: 1500000 0.6268 8.7339 1.0718 0.0000 -10509.9297 1387.5301 0.0000 0.0000 1762.3922 -7349.5750 305.6086 -9111.9672 -7354.1540 301.3667 -203.4994 -106.9586 29697.9561 26.9563 86.7099
TCL: Running FEP window   4: Lambda1 0.15000000000000002 Lambda2 0.2    [dLambda 0.04999999999999999]
TCL: Setting parameter firsttimestep to 0
TCL: Setting parameter alchLambda to 0.15000000000000002
Info: NONBONDED TABLE R-SQUARED SPACING: 0.0625
Info: NONBONDED TABLE SIZE: 705 POINTS
TCL: Setting parameter alchLambda2 to 0.2
Info: NONBONDED TABLE R-SQUARED SPACING: 0.0625
Info: NONBONDED TABLE SIZE: 705 POINTS
TCL: Running for 1500000 steps
ETITLE: TS BOND ANGLE DIHED IMPRP ELECT VDW BOUNDARY MISC KINETIC TOTAL TEMP POTENTIAL TOTALAVG TEMPAVG PRESSURE GPRESSURE VOLUME PRESSAVG GPRESSAVG
ENERGY: 0 0.6268 8.7339 1.0718 0.0000 -10509.9311 1387.1460 0.0000 0.0000 1761.5327 -7350.8199 305.4595 -9112.3526 -7350.8199 305.4595 -189.6947 -106.1544 29697.9561 -189.6947 -106.1544
ENERGY: 300000 0.8151 3.9686 0.3463 0.0000 -10397.8191 1352.5671 0.0000 0.0000 1745.9217 -7294.2003 302.7525 -9040.1220 -7364.4489 301.5966 -432.3996 -373.8601 30082.7752 11.1415 104.8701
ENERGY: 600000 0.3115 5.9382 0.7122 0.0000 -10510.8430 1442.7017 0.0000 0.0000 1729.2165 -7331.9630 299.8557 -9061.1794 -7347.8876 302.3216 299.2576 324.5757 29851.9256 180.7503 276.4481
ENERGY: 900000 0.3838 3.8492 0.9336 0.0000 -10401.4088 1337.7285 0.0000 0.0000 1718.3215 -7340.1922 297.9665 -9058.5137 -7341.0143 302.5757 -530.9600 -563.4799 29826.9434 98.6421 181.1063
ENERGY: 1200000 0.3473 3.1557 0.3304 0.0000 -10580.1565 1419.9411 0.0000 0.0000 1755.4986 -7400.8833 304.4132 -9156.3819 -7343.2081 302.2715 -54.6325 -60.5749 29751.3963 70.9911 146.3874
ENERGY: 1500000 0.5091 5.7814 0.3103 0.0000 -10534.2307 1452.5987 0.0000 0.0000 1688.6791 -7386.3521 292.8263 -9075.0312 -7345.0205 301.3060 603.4252 644.9807 29296.5906 95.4420 169.1831
TCL: Running FEP window   5: Lambda1 0.2    Lambda2 0.25   [dLambda 0.04999999999999999]
TCL: Setting parameter firsttimestep to 0
TCL: Setting parameter alchLambda to 0.2
Info: NONBONDED TABLE R-SQUARED SPACING: 0.0625
Info: NONBONDED TABLE SIZE: 705 POINTS
TCL: Setting parameter alchLambda2 to 0.25
Info: NONBONDED TABLE R-SQUARED SPACING: 0.0625
Info: NONBONDED TABLE SIZE: 705 POINTS
TCL: Running for 1500000 steps
ETITLE: TS BOND ANGLE DIHED IMPRP ELECT VDW BOUNDARY MISC KINETIC TOTAL TEMP POTENTIAL TOTALAVG TEMPAVG PRESSURE GPRESSURE VOLUME PRESSAVG GPRESSAVG
ENERGY: 0 0.5091 5.7814 0.3103 0.0000 -10534.2305 1452.2236 0.0000 0.0000 1687.8148 -7387.5912 292.6764 -9075.4060 -7387.5912 292.6764 563.7739 644.1933 29296.5906 563.7739 644.1933
ENERGY: 300000 1.4156 5.3682 2.2613 0.0000 -10613.4502 1455.1256 0.0000 0.0000 1781.6405 -7367.6390 308.9463 -9149.2795 -7377.2665 302.3825 147.6670 194.9630 29790.9392 370.4500 441.0924
ENERGY: 600000 0.3808 5.1990 1.0484 0.0000 -10601.9656 1504.0160 0.0000 0.0000 1709.2522 -7382.0692 296.3938 -9091.3214 -7373.8250 299.2784 611.4253 676.5222 29912.8753 253.4113 320.9907
ENERGY: 900000 1.7209 3.8460 0.0588 0.0000 -10565.7968 1418.5674 0.0000 0.0000 1740.5902 -7401.0135 301.8280 -9141.6037 -7375.1341 300.0978 344.8167 348.5108 29248.9831 248.4464 308.9589
ENERGY: 1200000 0.3649 5.3190 1.5438 0.0000 -10375.7080 1304.2952 0.0000 0.0000 1756.1198 -7308.0654 304.5209 -9064.1851 -7375.6229 300.8645 -905.3156 -830.0145 30037.3467 54.7184 123.4524
ENERGY: 1500000 0.9620 4.7097 0.2712 0.0000 -10401.8355 1334.8623 0.0000 0.0000 1701.2655 -7359.7647 295.0089 -9061.0302 -7387.0242 299.2834 -677.0818 -623.3989 30059.9182 -85.2884 -18.1649
TCL: Running FEP window   6: Lambda1 0.25   Lambda2 0.3    [dLambda 0.04999999999999999]
TCL: Setting parameter firsttimestep to 0
TCL: Setting parameter alchLambda to 0.25
Info: NONBONDED TABLE R-SQUARED SPACING: 0.0625
Info: NONBONDED TABLE SIZE: 705 POINTS
TCL: Setting parameter alchLambda2 to 0.3
Info: NONBONDED TABLE R-SQUARED SPACING: 0.0625
Info: NONBONDED TABLE SIZE: 705 POINTS
TCL: Running for 1500000 steps
ETITLE: TS BOND ANGLE DIHED IMPRP ELECT VDW BOUNDARY MISC KINETIC TOTAL TEMP POTENTIAL TOTALAVG TEMPAVG PRESSURE GPRESSURE VOLUME PRESSAVG GPRESSAVG
ENERGY: 0 0.9620 4.7097 0.2712 0.0000 -10401.8367 1337.1952 0.0000 0.0000 1700.3732 -7358.3253 294.8541 -9058.6985 -7358.3253 294.8541 -683.4081 -608.6011 30059.9182 -683.4081 -608.6011
ENERGY: 300000 0.5839 3.4826 0.5032 0.0000 -10347.2003 1351.9990 0.0000 0.0000 1711.2826 -7279.3491 296.7459 -8990.6316 -7352.2852 297.7051 -224.5313 -189.7747 30154.0298 -358.6282 -295.5284
ENERGY: 600000 1.4200 3.2417 0.4792 0.0000 -10583.6775 1467.6228 0.0000 0.0000 1731.3586 -7379.5551 300.2272 -9110.9137 -7363.3029 299.5155 462.4783 493.2960 29812.1718 67.6972 129.6357
ENERGY: 900000 0.4539 6.0662 2.4391 0.0000 -10542.8478 1471.5103 0.0000 0.0000 1724.4678 -7337.9105 299.0323 -9062.3784 -7362.6424 299.4546 586.0906 705.8244 29625.3202 111.1304 179.3295
ENERGY: 1200000 1.0437 10.3395 0.1268 0.0000 -10460.9870 1352.3845 0.0000 0.0000 1734.6208 -7362.4716 300.7929 -9097.0925 -7353.6962 300.8891 -1054.1926 -924.1280 30758.7093 -11.5502 58.8938
ENERGY: 1500000 1.9485 5.0876 0.0897 0.0000 -10690.7423 1493.2196 0.0000 0.0000 1717.3746 -7473.0223 297.8023 -9190.3969 -7357.8702 301.0293 424.2419 457.4734 29805.2861 11.3449 77.1778
TCL: Running FEP window   7: Lambda1 0.3    Lambda2 0.35   [dLambda 0.04999999999999999]
TCL: Setting parameter firsttimestep to 0
TCL: Setting parameter alchLambda to 0.3
Info: NONBONDED TABLE R-SQUARED SPACING: 0.0625
Info: NONBONDED TABLE SIZE: 705 POINTS
TCL: Setting parameter alchLambda2 to 0.35
Info: NONBONDED TABLE R-SQUARED SPACING: 0.0625
Info: NONBONDED TABLE SIZE: 705 POINTS
TCL: Running for 1500000 steps
ETITLE: TS BOND ANGLE DIHED IMPRP ELECT VDW BOUNDARY MISC KINETIC TOTAL TEMP POTENTIAL TOTALAVG TEMPAVG PRESSURE GPRESSURE VOLUME PRESSAVG GPRESSAVG
ENERGY: 0 1.9485 5.0876 0.0897 0.0000 -10690.7407 1493.2845 0.0000 0.0000 1716.5361 -7473.7943 297.6569 -9190.3304 -7473.7943 297.6569 374.7097 458.5746 29805.2861 374.7097 458.5746
ENERGY: 300000 1.3674 4.6195 1.2327 0.0000 -10601.8010 1458.4560 0.0000 0.0000 1768.9000 -7367.2254 306.7371 -9136.1254 -7376.5086 301.2446 193.2833 259.4955 29556.9653 216.6266 266.1315
ENERGY: 600000 0.7409 5.6425 0.9541 0.0000 -10529.9104 1378.0255 0.0000 0.0000 1712.8739 -7431.6736 297.0218 -9144.5475 -7372.4673 301.8372 -593.1366 -496.8002 30213.8982 135.7766 195.0091
ENERGY: 900000 0.4525 3.9947 0.5288 0.0000 -10529.7888 1412.0918 0.0000 0.0000 1689.6078 -7423.1133 292.9874 -9112.7211 -7371.0499 300.3065 -181.9990 -128.4252 29933.1374 136.2341 192.6177
ENERGY: 1200000 0.1103 7.1230 0.2916 0.0000 -10533.4606 1406.9322 0.0000 0.0000 1714.1850 -7404.8185 297.2492 -9119.0035 -7366.6131 299.8528 -142.9553 -45.1459 29649.5783 89.4433 153.6724
ENERGY: 1500000 1.5031 3.7934 0.6741 0.0000 -10591.1412 1472.6627 0.0000 0.0000 1757.6015 -7354.9065 304.7778 -9112.5079 -7361.5033 300.6505 268.8177 303.1606 30333.4926 80.2899 140.8965
TCL: Running FEP window   8: Lambda1 0.35   Lambda2 0.39999999999999997 [dLambda 0.04999999999999999]
TCL: Setting parameter firsttimestep to 0
TCL: Setting parameter alchLambda to 0.35
Info: NONBONDED TABLE R-SQUARED SPACING: 0.0625
Info: NONBONDED TABLE SIZE: 705 POINTS
TCL: Setting parameter alchLambda2 to 0.39999999999999997
Info: NONBONDED TABLE R-SQUARED SPACING: 0.0625
Info: NONBONDED TABLE SIZE: 705 POINTS
TCL: Running for 1500000 steps
ETITLE: TS BOND ANGLE DIHED IMPRP ELECT VDW BOUNDARY MISC KINETIC TOTAL TEMP POTENTIAL TOTALAVG TEMPAVG PRESSURE GPRESSURE VOLUME PRESSAVG GPRESSAVG
ENERGY: 0 1.5031 3.7934 0.6741 0.0000 -10591.1415 1472.6117 0.0000 0.0000 1756.6890 -7355.8703 304.6196 -9112.5592 -7355.8703 304.6196 217.1087 303.0818 30333.4926 217.1087 303.0818
ENERGY: 300000 0.1969 4.0460 0.1970 0.0000 -10505.6962 1456.4300 0.0000 0.0000 1768.3970 -7276.4293 306.6498 -9044.8263 -7356.4199 302.6675 482.3942 517.9193 29978.3012 -41.5355 34.1865
ENERGY: 600000 1.4685 3.8989 0.4145 0.0000 -10476.1463 1405.4857 0.0000 0.0000 1765.7328 -7299.1459 306.1879 -9064.8787 -7327.5475 302.5331 125.2203 162.2528 29633.2552 -185.4928 -125.3353
ENERGY: 900000 1.4141 4.0233 0.1599 0.0000 -10427.4136 1327.5033 0.0000 0.0000 1693.7261 -7400.5868 293.7015 -9094.3129 -7340.5982 302.6897 -1014.7736 -920.7276 30371.1965 -265.7814 -205.8500
ENERGY: 1200000 1.0106 4.9557 0.1559 0.0000 -10613.5762 1436.5561 0.0000 0.0000 1719.5686 -7451.3294 298.1827 -9170.8980 -7350.9172 302.4014 65.1028 80.8483 29469.1475 -246.1301 -186.3779
ENERGY: 1500000 0.6567 4.9029 0.5515 0.0000 -10497.7998 1423.4955 0.0000 0.0000 1745.1689 -7323.0244 302.6220 -9068.1932 -7357.1965 302.0058 -41.4264 53.6907 29919.4832 -154.6728 -87.6037
TCL: Running FEP window   9: Lambda1 0.39999999999999997 Lambda2 0.44999999999999996 [dLambda 0.04999999999999999]
TCL: Setting parameter firsttimestep to 0
TCL: Setting parameter alchLambda to 0.39999999999999997
Info: NONBONDED TABLE R-SQUARED SPACING: 0.0625
Info: NONBONDED TABLE SIZE: 705 POINTS
TCL: Setting parameter alchLambda2 to 0.44999999999999996
Info: NONBONDED TABLE R-SQUARED SPACING: 0.0625
Info: NONBONDED TABLE SIZE: 705 POINTS
TCL: Running for 1500000 steps
ETITLE: TS BOND ANGLE DIHED IMPRP ELECT VDW BOUNDARY MISC KINETIC TOTAL TEMP POTENTIAL TOTALAVG TEMPAVG PRESSURE GPRESSURE VOLUME PRESSAVG GPRESSAVG
ENERGY: 0 0.6567 4.9029 0.5515 0.0000 -10497.7990 1424.1640 0.0000 0.0000 1744.3455 -7323.1784 302.4792 -9067.5240 -7323.1784 302.4792 -33.4765 61.7880 29919.4832 -33.4765 61.7880
ENERGY: 300000 1.8744 1.8805 0.2125 0.0000 -10612.1104 1474.2314 0.0000 0.0000 1729.7481 -7404.1635 299.9479 -9133.9117 -7365.8343 301.1667 501.8894 523.0579 29687.7432 112.3669 179.3316
ENERGY: 600000 1.8844 5.7546 0.6569 0.0000 -10373.0428 1301.7340 0.0000 0.0000 1721.2241 -7341.7888 298.4698 -9063.0129 -7374.0119 299.5061 -1005.2508 -887.8070 29982.9434 -40.8080 27.9281
ENERGY: 900000 2.4148 8.9699 0.9369 0.0000 -10589.2354 1445.8882 0.0000 0.0000 1772.3660 -7358.6596 307.3381 -9131.0255 -7373.0012 300.8803 468.9296 519.7611 29275.7632 -130.1306 -63.3614
ENERGY: 1200000 2.5727 4.1479 0.8215 0.0000 -10460.7443 1339.3475 0.0000 0.0000 1782.9295 -7330.9251 309.1699 -9113.8546 -7375.1415 300.6120 -643.9649 -634.7096 30030.2423 -273.8134 -199.9111
ENERGY: 1500000 2.2573 6.1409 0.7017 0.0000 -10499.0018 1371.2038 0.0000 0.0000 1698.2659 -7420.4323 294.4887 -9118.6981 -7380.9992 299.8215 -331.8869 -233.6244 29683.5664 -364.1646 -291.1208
TCL: Running FEP window  10: Lambda1 0.44999999999999996 Lambda2 0.49999999999999994 [dLambda 0.04999999999999999]
TCL: Setting parameter firsttimestep to 0
TCL: Setting parameter alchLambda to 0.44999999999999996
Info: NONBONDED TABLE R-SQUARED SPACING: 0.0625
Info: NONBONDED TABLE SIZE: 705 POINTS
TCL: Setting parameter alchLambda2 to 0.49999999999999994
Info: NONBONDED TABLE R-SQUARED SPACING: 0.0625
Info: NONBONDED TABLE SIZE: 705 POINTS
TCL: Running for 1500000 steps
ETITLE: TS BOND ANGLE DIHED IMPRP ELECT VDW BOUNDARY MISC KINETIC TOTAL TEMP POTENTIAL TOTALAVG TEMPAVG PRESSURE GPRESSURE VOLUME PRESSAVG GPRESSAVG
ENERGY: 0 2.2573 6.1409 0.7017 0.0000 -10499.0013 1370.8294 0.0000 0.0000 1697.3981 -7421.6739 294.3382 -9119.0720 -7421.6739 294.3382 -314.6657 -231.1369 29683.5664 -314.6657 -231.1369
ENERGY: 300000 1.1443 4.4203 1.2437 0.0000 -10542.8212 1429.3278 0.0000 0.0000 1711.1324 -7395.5527 296.7198 -9106.6851 -7407.1424 297.3781 -168.3442 -134.3532 30326.6599 -298.3545 -239.8673
ENERGY: 600000 0.2604 5.2376 0.7279 0.0000 -10589.1764 1432.6185 0.0000 0.0000 1724.1576 -7426.1745 298.9785 -9150.3321 -7392.9712 299.0627 185.1554 246.9210 29600.2727 -179.2051 -122.2013
ENERGY: 900000 1.9344 5.0422 0.0523 0.0000 -10421.4137 1323.7242 0.0000 0.0000 1704.6481 -7386.0124 295.5954 -9090.6606 -7373.6388 299.8510 -873.9477 -818.5275 30052.9904 -242.6726 -186.2482
ENERGY: 1200000 1.5526 3.5215 0.2502 0.0000 -10561.1311 1502.3382 0.0000 0.0000 1732.2810 -7321.1877 300.3871 -9053.4687 -7370.6138 300.4283 726.7770 826.4482 30055.8640 -59.7387 6.3811
ENERGY: 1500000 3.8572 2.7782 1.5471 0.0000 -10369.8082 1278.0552 0.0000 0.0000 1740.1886 -7343.3820 301.7583 -9083.5706 -7366.2557 300.4985 -1041.5365 -1012.6071 29969.4989 -114.9770 -55.0305
TCL: Running FEP window  11: Lambda1 0.49999999999999994 Lambda2 0.5499999999999999 [dLambda 0.04999999999999999]
TCL: Setting parameter firsttimestep to 0
TCL: Setting parameter alchLambda to 0.49999999999999994
Info: NONBONDED TABLE R-SQUARED SPACING: 0.0625
Info: NONBONDED TABLE SIZE: 705 POINTS
TCL: Setting parameter alchLambda2 to 0.5499999999999999
Info: NONBONDED TABLE R-SQUARED SPACING: 0.0625
Info: NONBONDED TABLE SIZE: 705 POINTS
TCL: Running for 1500000 steps
ETITLE: TS BOND ANGLE DIHED IMPRP ELECT VDW BOUNDARY MISC KINETIC TOTAL TEMP POTENTIAL TOTALAVG TEMPAVG PRESSURE GPRESSURE VOLUME PRESSAVG GPRESSAVG
ENERGY: 0 3.8572 2.7782 1.5471 0.0000 -10369.8088 1278.5720 0.0000 0.0000 1739.3049 -7343.7493 301.6051 -9083.0543 -7343.7493 301.6051 -1089.8088 -1001.6220 29969.4989 -1089.8088 -1001.6220
ENERGY: 300000 2.1763 3.3318 0.3242 0.0000 -10484.8316 1382.3863 0.0000 0.0000 1716.1576 -7380.4553 297.5912 -9096.6129 -7371.5377 299.0702 -357.6421 -299.4185 29601.2913 -583.6825 -519.0911
ENERGY: 600000 1.8509 8.0973 0.1345 0.0000 -10582.2930 1444.0748 0.0000 0.0000 1715.1875 -7412.9481 297.4230 -9128.1357 -7392.6524 300.2425 273.7786 341.1795 29661.7120 -364.1439 -308.1240
ENERGY: 900000 0.1890 3.9776 0.1515 0.0000 -10637.2853 1525.6887 0.0000 0.0000 1740.4992 -7366.7793 301.8122 -9107.2784 -7382.4661 301.3947 920.8255 1046.5667 29733.8324 -140.8307 -78.3621
ENERGY: 1200000 0.0907 5.6740 1.9405 0.0000 -10539.5370 1403.4445 0.0000 0.0000 1783.7599 -7344.6275 309.3138 -9128.3873 -7382.2595 301.1681 58.8154 108.5136 29522.2432 -62.9108 2.3298
ENERGY: 1500000 0.3573 5.0321 1.5855 0.0000 -10544.8498 1464.8831 0.0000 0.0000 1758.4036 -7314.5881 304.9169 -9072.9917 -7379.4569 300.5356 483.1445 492.5052 29952.5614 45.7341 112.4593
TCL: Running FEP window  12: Lambda1 0.5499999999999999 Lambda2 0.6    [dLambda 0.050000000000000044]
TCL: Setting parameter firsttimestep to 0
TCL: Setting parameter alchLambda to 0.5499999999999999
Info: NONBONDED TABLE R-SQUARED SPACING: 0.0625
Info: NONBONDED TABLE SIZE: 705 POINTS
TCL: Setting parameter alchLambda2 to 0.6
Info: NONBONDED TABLE R-SQUARED SPACING: 0.0625
Info: NONBONDED TABLE SIZE: 705 POINTS
TCL: Running for 1500000 steps
ETITLE: TS BOND ANGLE DIHED IMPRP ELECT VDW BOUNDARY MISC KINETIC TOTAL TEMP POTENTIAL TOTALAVG TEMPAVG PRESSURE GPRESSURE VOLUME PRESSAVG GPRESSAVG
ENERGY: 0 0.3573 5.0321 1.5855 0.0000 -10544.5918 1465.4895 0.0000 0.0000 1757.5507 -7314.5767 304.7690 -9072.1274 -7314.5767 304.7690 419.1807 506.0853 29952.5614 419.1807 506.0853
ENERGY: 300000 1.3131 4.8804 0.8277 0.0000 -10429.3066 1381.4311 0.0000 0.0000 1728.2482 -7312.6061 299.6878 -9040.8543 -7310.1422 305.2939 -97.8862 -56.5161 30116.8847 211.8992 286.8426
ENERGY: 600000 0.1988 2.6201 0.3816 0.0000 -10480.8062 1339.0575 0.0000 0.0000 1745.4987 -7393.0496 302.6791 -9138.5483 -7336.6276 303.7224 -779.6921 -725.1023 30240.0953 42.0681 116.5838
ENERGY: 900000 1.6895 2.4448 1.8931 0.0000 -10452.3908 1351.8621 0.0000 0.0000 1735.8346 -7358.6669 301.0033 -9094.5014 -7339.8511 303.9200 -561.3516 -491.4454 30045.3849 -224.0124 -147.8950
ENERGY: 1200000 0.1835 3.0172 0.8073 0.0000 -10618.7531 1466.7928 0.0000 0.0000 1764.7856 -7383.1666 306.0236 -9147.9522 -7355.2218 302.7118 572.0014 636.7163 29145.1607 -206.1157 -136.0019
ENERGY: 1500000 0.7913 1.6081 1.6363 0.0000 -10681.3776 1500.7553 0.0000 0.0000 1753.3066 -7423.2800 304.0331 -9176.5866 -7363.2393 302.0375 596.6276 611.7802 29944.4320 -83.9819 -19.2042
TCL: Running FEP window  13: Lambda1 0.6    Lambda2 0.65   [dLambda 0.050000000000000044]
TCL: Setting parameter firsttimestep to 0
TCL: Setting parameter alchLambda to 0.6
Info: NONBONDED TABLE R-SQUARED SPACING: 0.0625
Info: NONBONDED TABLE SIZE: 705 POINTS
TCL: Setting parameter alchLambda2 to 0.65
Info: NONBONDED TABLE R-SQUARED SPACING: 0.0625
Info: NONBONDED TABLE SIZE: 705 POINTS
TCL: Running for 1500000 steps
ETITLE: TS BOND ANGLE DIHED IMPRP ELECT VDW BOUNDARY MISC KINETIC TOTAL TEMP POTENTIAL TOTALAVG TEMPAVG PRESSURE GPRESSURE VOLUME PRESSAVG GPRESSAVG
ENERGY: 0 0.7913 1.6081 1.6363 0.0000 -10681.5361 1500.7690 0.0000 0.0000 1752.4072 -7424.3242 303.8771 -9176.7314 -7424.3242 303.8771 546.0522 618.0649 29944.4320 546.0522 618.0649
ENERGY: 300000 0.2395 1.9174 0.2824 0.0000 -10572.8273 1409.1072 0.0000 0.0000 1699.2636 -7462.0173 294.6617 -9161.2809 -7380.8307 301.1955 -514.0118 -427.9734 30393.8067 18.4791 80.6755
ENERGY: 600000 0.2102 7.1121 0.1955 0.0000 -10710.0289 1543.9643 0.0000 0.0000 1747.8458 -7410.7011 303.0862 -9158.5469 -7360.4803 301.9983 744.0134 852.1177 29902.2189 -62.2886 7.5633
ENERGY: 900000 1.1755 2.5312 0.3246 0.0000 -10390.8593 1317.4119 0.0000 0.0000 1744.2094 -7325.2067 302.4556 -9069.4162 -7354.4587 302.8001 -643.2166 -635.5563 29987.4685 -165.2789 -108.4781
ENERGY: 1200000 1.4764 5.1702 0.4877 0.0000 -10522.7770 1477.6818 0.0000 0.0000 1696.8787 -7341.0823 294.2482 -9037.9610 -7359.3457 300.8411 682.6812 729.4358 29975.3390 -43.9492 14.2853
ENERGY: 1500000 1.4440 5.4314 0.1477 0.0000 -10426.0886 1326.9834 0.0000 0.0000 1705.9853 -7386.0967 295.8273 -9092.0820 -7366.2230 300.2180 -675.8346 -652.9482 29914.2770 -65.7323 -7.6830
TCL: Running FEP window  14: Lambda1 0.65   Lambda2 0.7000000000000001 [dLambda 0.050000000000000044]
TCL: Setting parameter firsttimestep to 0
TCL: Setting parameter alchLambda to 0.65
Info: NONBONDED TABLE R-SQUARED SPACING: 0.0625
Info: NONBONDED TABLE SIZE: 705 POINTS
TCL: Setting parameter alchLambda2 to 0.7000000000000001
Info: NONBONDED TABLE R-SQUARED SPACING: 0.0625
Info: NONBONDED TABLE SIZE: 705 POINTS
TCL: Running for 1500000 steps
ETITLE: TS BOND ANGLE DIHED IMPRP ELECT VDW BOUNDARY MISC KINETIC TOTAL TEMP POTENTIAL TOTALAVG TEMPAVG PRESSURE GPRESSURE VOLUME PRESSAVG GPRESSAVG
ENERGY: 0 1.4440 5.4314 0.1477 0.0000 -10426.0638 1326.9539 0.0000 0.0000 1705.1306 -7386.9562 295.6791 -9092.0868 -7386.9562 295.6791 -738.1526 -647.7068 29914.2770 -738.1526 -647.7068
ENERGY: 300000 0.7554 7.5843 1.5200 0.0000 -10445.6155 1355.2030 0.0000 0.0000 1770.6895 -7309.8633 307.0474 -9080.5528 -7348.5241 301.8557 -301.1890 -275.7573 29838.0480 -178.7663 -115.2253
ENERGY: 600000 0.3331 2.2037 0.5607 0.0000 -10435.3382 1372.4691 0.0000 0.0000 1688.5036 -7371.2679 292.7959 -9059.7715 -7341.6649 302.4871 -356.6222 -222.1438 30026.1460 -220.7694 -163.4836
ENERGY: 900000 0.8248 5.1668 0.8755 0.0000 -10691.6947 1480.1915 0.0000 0.0000 1753.6771 -7450.9591 304.0973 -9204.6361 -7357.1166 300.3551 338.0517 374.1191 29661.9852 -34.8056 17.0957
ENERGY: 1200000 0.9238 8.8719 0.5230 0.0000 -10484.1311 1376.6337 0.0000 0.0000 1667.0867 -7430.0921 289.0821 -9097.1787 -7373.4107 298.9318 -95.1461 -79.4649 29401.9985 -58.1131 -10.1842
ENERGY: 1500000 2.2945 6.5783 1.5515 0.0000 -10451.7129 1379.1099 0.0000 0.0000 1737.1550 -7325.0237 301.2323 -9062.1787 -7374.5521 299.0337 -255.1728 -189.4739 29923.5873 -55.5582 -13.4402
TCL: Running FEP window  15: Lambda1 0.7000000000000001 Lambda2 0.7500000000000001 [dLambda 0.050000000000000044]
TCL: Setting parameter firsttimestep to 0
TCL: Setting parameter alchLambda to 0.7000000000000001
Info: NONBONDED TABLE R-SQUARED SPACING: 0.0625
Info: NONBONDED TABLE SIZE: 705 POINTS
TCL: Setting parameter alchLambda2 to 0.7500000000000001
Info: NONBONDED TABLE R-SQUARED SPACING: 0.0625
Info: NONBONDED TABLE SIZE: 705 POINTS
TCL: Running for 1500000 steps
ETITLE: TS BOND ANGLE DIHED IMPRP ELECT VDW BOUNDARY MISC KINETIC TOTAL TEMP POTENTIAL TOTALAVG TEMPAVG PRESSURE GPRESSURE VOLUME PRESSAVG GPRESSAVG
ENERGY: 0 2.2945 6.5783 1.5515 0.0000 -10451.5918 1379.1306 0.0000 0.0000 1736.2721 -7325.7648 301.0792 -9062.0369 -7325.7648 301.0792 -257.5830 -180.6219 29923.5873 -257.5830 -180.6219
ENERGY: 300000 0.2110 5.1904 0.6638 0.0000 -10636.9011 1446.9092 0.0000 0.0000 1698.4618 -7485.4650 294.5227 -9183.9268 -7416.6773 299.8105 86.3652 145.0763 29691.0395 261.0473 324.6172
ENERGY: 600000 2.5883 6.2798 1.6390 0.0000 -10567.5992 1436.9010 0.0000 0.0000 1707.3580 -7412.8331 296.0654 -9120.1912 -7396.1091 298.7574 183.4997 266.1532 29688.7669 155.0760 228.4251
ENERGY: 900000 1.4452 4.8820 0.9404 0.0000 -10626.8323 1461.2050 0.0000 0.0000 1772.2996 -7386.0602 307.3266 -9158.3597 -7386.2189 299.9651 393.6468 461.8060 29982.0909 79.6470 145.7063
ENERGY: 1200000 1.3439 7.0219 0.5892 0.0000 -10575.3521 1379.6691 0.0000 0.0000 1745.3753 -7441.3527 302.6578 -9186.7280 -7393.0101 300.3201 -476.5921 -435.8471 29623.1470 87.9957 151.1001
ENERGY: 1500000 0.6704 5.0094 0.1112 0.0000 -10421.3376 1322.4156 0.0000 0.0000 1678.1540 -7414.9769 291.0012 -9093.1309 -7386.7834 299.3912 -1021.6957 -991.6301 30242.2282 -34.3168 26.7877
TCL: Running FEP window  16: Lambda1 0.7500000000000001 Lambda2 0.8000000000000002 [dLambda 0.050000000000000044]
TCL: Setting parameter firsttimestep to 0
TCL: Setting parameter alchLambda to 0.7500000000000001
Info: NONBONDED TABLE R-SQUARED SPACING: 0.0625
Info: NONBONDED TABLE SIZE: 705 POINTS
TCL: Setting parameter alchLambda2 to 0.8000000000000002
Info: NONBONDED TABLE R-SQUARED SPACING: 0.0625
Info: NONBONDED TABLE SIZE: 705 POINTS
TCL: Running for 1500000 steps
ETITLE: TS BOND ANGLE DIHED IMPRP ELECT VDW BOUNDARY MISC KINETIC TOTAL TEMP POTENTIAL TOTALAVG TEMPAVG PRESSURE GPRESSURE VOLUME PRESSAVG GPRESSAVG
ENERGY: 0 0.6704 5.0094 0.1112 0.0000 -10421.6049 1322.0224 0.0000 0.0000 1677.2785 -7416.5129 290.8494 -9093.7914 -7416.5129 290.8494 -1066.8369 -987.8689 30242.2282 -1066.8369 -987.8689
ENERGY: 300000 1.8055 3.4210 0.5384 0.0000 -10420.9605 1356.9763 0.0000 0.0000 1726.1467 -7332.0726 299.3234 -9058.2193 -7365.1917 300.5490 -268.4080 -219.0506 30049.9446 -400.4700 -329.2150
ENERGY: 600000 1.2617 4.8181 0.3124 0.0000 -10595.8733 1466.6130 0.0000 0.0000 1759.4204 -7363.4477 305.0933 -9122.8681 -7376.2843 299.4827 202.3555 283.5776 29901.9367 -206.1074 -143.5388
ENERGY: 900000 1.4954 3.7674 0.7981 0.0000 -10438.5961 1379.4957 0.0000 0.0000 1771.3015 -7281.7379 307.1535 -9053.0394 -7386.5657 299.2958 -92.6531 -26.0728 30009.6332 -147.2870 -84.8543
ENERGY: 1200000 0.1952 5.8978 0.0777 0.0000 -10574.3531 1437.5149 0.0000 0.0000 1693.3192 -7437.3483 293.6309 -9130.6675 -7393.0725 298.5830 174.3477 250.5703 29566.6776 -149.4879 -85.4851
ENERGY: 1500000 0.2894 3.4611 1.3842 0.0000 -10511.8012 1319.8567 0.0000 0.0000 1760.1340 -7426.6759 305.2170 -9186.8098 -7401.7304 298.5127 -765.4422 -764.7230 29692.7626 -168.3491 -105.7660
TCL: Running FEP window  17: Lambda1 0.8000000000000002 Lambda2 0.8500000000000002 [dLambda 0.050000000000000044]
TCL: Setting parameter firsttimestep to 0
TCL: Setting parameter alchLambda to 0.8000000000000002
Info: NONBONDED TABLE R-SQUARED SPACING: 0.0625
Info: NONBONDED TABLE SIZE: 705 POINTS
TCL: Setting parameter alchLambda2 to 0.8500000000000002
Info: NONBONDED TABLE R-SQUARED SPACING: 0.0625
Info: NONBONDED TABLE SIZE: 705 POINTS
TCL: Running for 1500000 steps
ETITLE: TS BOND ANGLE DIHED IMPRP ELECT VDW BOUNDARY MISC KINETIC TOTAL TEMP POTENTIAL TOTALAVG TEMPAVG PRESSURE GPRESSURE VOLUME PRESSAVG GPRESSAVG
ENERGY: 0 0.2894 3.4611 1.3842 0.0000 -10512.1013 1319.8589 0.0000 0.0000 1759.2718 -7427.8359 305.0675 -9187.1077 -7427.8359 305.0675 -826.2571 -754.6450 29692.7626 -826.2571 -754.6450
ENERGY: 300000 1.2684 4.8589 0.6980 0.0000 -10385.0551 1327.7528 0.0000 0.0000 1771.6416 -7278.8354 307.2125 -9050.4770 -7367.2130 302.6837 -519.2323 -407.6447 29641.0292 -693.4083 -626.3280
ENERGY: 600000 1.0673 4.9209 1.8932 0.0000 -10495.1023 1375.2526 0.0000 0.0000 1683.9447 -7428.0236 292.0053 -9111.9682 -7361.2350 298.3645 -425.2008 -354.9509 30263.7761 -366.1260 -297.0206
ENERGY: 900000 1.3581 4.2954 1.1320 0.0000 -10515.1048 1440.3546 0.0000 0.0000 1734.0105 -7333.9542 300.6870 -9067.9648 -7365.8960 298.7537 481.2240 568.9183 29608.1786 -159.8266 -94.3278
ENERGY: 1200000 2.4401 6.2539 0.5597 0.0000 -10553.0541 1376.0295 0.0000 0.0000 1765.3246 -7402.4464 306.1171 -9167.7710 -7362.2463 300.5297 -336.8805 -256.4771 29469.3635 -89.3567 -27.9526
ENERGY: 1500000 0.7171 7.3807 0.4684 0.0000 -10563.1967 1416.8187 0.0000 0.0000 1748.5898 -7389.2220 303.2152 -9137.8118 -7375.0995 300.2196 -40.9241 -23.9164 29969.9814 -51.8880 4.5428
TCL: Running FEP window  18: Lambda1 0.8500000000000002 Lambda2 0.9000000000000002 [dLambda 0.050000000000000044]
TCL: Setting parameter firsttimestep to 0
TCL: Setting parameter alchLambda to 0.8500000000000002
Info: NONBONDED TABLE R-SQUARED SPACING: 0.0625
Info: NONBONDED TABLE SIZE: 705 POINTS
TCL: Setting parameter alchLambda2 to 0.9000000000000002
Info: NONBONDED TABLE R-SQUARED SPACING: 0.0625
Info: NONBONDED TABLE SIZE: 705 POINTS
TCL: Running for 1500000 steps
ETITLE: TS BOND ANGLE DIHED IMPRP ELECT VDW BOUNDARY MISC KINETIC TOTAL TEMP POTENTIAL TOTALAVG TEMPAVG PRESSURE GPRESSURE VOLUME PRESSAVG GPRESSAVG
ENERGY: 0 0.7171 7.3807 0.4684 0.0000 -10563.5025 1416.7544 0.0000 0.0000 1747.7276 -7390.4543 303.0657 -9138.1819 -7390.4543 303.0657 -96.8247 -13.9593 29969.9814 -96.8247 -13.9593
ENERGY: 300000 0.4193 4.3512 0.2845 0.0000 -10497.7721 1404.2207 0.0000 0.0000 1748.4540 -7340.0424 303.1916 -9088.4964 -7361.6139 300.5364 118.2979 231.0460 29498.5153 -90.3316 -45.7854
ENERGY: 600000 0.2091 4.8534 0.1820 0.0000 -10424.0833 1349.0211 0.0000 0.0000 1735.4933 -7334.3244 300.9442 -9069.8177 -7355.3679 299.7560 -334.0541 -276.9276 29886.4369 -209.6912 -171.2964
ENERGY: 900000 0.8565 3.0210 1.0574 0.0000 -10517.1710 1397.4040 0.0000 0.0000 1698.8607 -7415.9714 294.5919 -9114.8321 -7372.5615 299.7280 -292.5320 -178.3029 30126.8942 -197.2269 -132.9873
ENERGY: 1200000 1.4731 3.5527 1.7761 0.0000 -10536.5490 1390.1043 0.0000 0.0000 1789.5919 -7350.0509 310.3252 -9139.6428 -7363.6854 299.8369 -223.1520 -152.8145 29818.9554 -182.9502 -115.7416
ENERGY: 1500000 0.9306 4.0122 0.2248 0.0000 -10385.1068 1300.6215 0.0000 0.0000 1722.4889 -7356.8288 298.6891 -9079.3177 -7362.1682 299.6746 -941.8485 -891.1418 30224.6606 -226.2568 -165.1912
TCL: Running FEP window  19: Lambda1 0.9000000000000002 Lambda2 0.9500000000000003 [dLambda 0.050000000000000044]
TCL: Setting parameter firsttimestep to 0
TCL: Setting parameter alchLambda to 0.9000000000000002
Info: NONBONDED TABLE R-SQUARED SPACING: 0.0625
Info: NONBONDED TABLE SIZE: 705 POINTS
TCL: Setting parameter alchLambda2 to 0.9500000000000003
Info: NONBONDED TABLE R-SQUARED SPACING: 0.0625
Info: NONBONDED TABLE SIZE: 705 POINTS
TCL: Running for 1500000 steps
ETITLE: TS BOND ANGLE DIHED IMPRP ELECT VDW BOUNDARY MISC KINETIC TOTAL TEMP POTENTIAL TOTALAVG TEMPAVG PRESSURE GPRESSURE VOLUME PRESSAVG GPRESSAVG
ENERGY: 0 0.9306 4.0122 0.2248 0.0000 -10385.5792 1300.5764 0.0000 0.0000 1721.6348 -7358.2004 298.5410 -9079.8352 -7358.2004 298.5410 -964.2592 -882.7498 30224.6606 -964.2592 -882.7498
ENERGY: 300000 0.6648 7.1345 0.4653 0.0000 -10540.4712 1361.1798 0.0000 0.0000 1781.0247 -7390.0020 308.8396 -9171.0267 -7393.3770 299.8948 -478.6347 -428.2592 29693.6061 -170.8744 -122.1645
ENERGY: 600000 1.1164 5.8707 0.1601 0.0000 -10519.7403 1443.6144 0.0000 0.0000 1731.8578 -7337.1209 300.3137 -9068.9787 -7389.2014 299.1920 485.9493 514.1887 29556.5557 42.9105 83.1264
ENERGY: 900000 0.6690 4.9515 0.2427 0.0000 -10610.0147 1461.4534 0.0000 0.0000 1732.9297 -7409.7684 300.4996 -9142.6982 -7397.0654 299.6745 222.5158 328.7099 29708.2506 85.2972 134.5588
ENERGY: 1200000 0.4294 5.4479 0.3796 0.0000 -10542.7458 1392.7018 0.0000 0.0000 1691.8671 -7451.9198 293.3791 -9143.7869 -7400.1980 298.9175 -188.2376 -74.1507 29537.3542 33.6993 95.1394
ENERGY: 1500000 0.5167 6.2132 0.8140 0.0000 -10418.4649 1347.9119 0.0000 0.0000 1682.9658 -7380.0432 291.8356 -9063.0090 -7389.6756 299.4018 -437.3354 -384.5800 29916.3996 21.3671 82.3886
TCL: Running FEP window  20: Lambda1 0.9500000000000003 Lambda2 1.0    [dLambda 0.04999999999999971]
TCL: Setting parameter firsttimestep to 0
TCL: Setting parameter alchLambda to 0.9500000000000003
Info: NONBONDED TABLE R-SQUARED SPACING: 0.0625
Info: NONBONDED TABLE SIZE: 705 POINTS
TCL: Setting parameter alchLambda2 to 1.0
Info: NONBONDED TABLE R-SQUARED SPACING: 0.0625
Info: NONBONDED TABLE SIZE: 705 POINTS
TCL: Running for 1500000 steps
ETITLE: TS BOND ANGLE DIHED IMPRP ELECT VDW BOUNDARY MISC KINETIC TOTAL TEMP POTENTIAL TOTALAVG TEMPAVG PRESSURE GPRESSURE VOLUME PRESSAVG GPRESSAVG
ENERGY: 0 0.5167 6.2132 0.8140 0.0000 -10418.6119 1348.4233 0.0000 0.0000 1682.1580 -7380.4866 291.6955 -9062.6446 -7380.4866 291.6955 -455.5094 -366.6162 29916.3996 -455.5094 -366.6162
ENERGY: 300000 0.3114 3.5254 0.3099 0.0000 -10585.7227 1422.1732 0.0000 0.0000 1659.7883 -7499.6146 287.8165 -9159.4029 -7388.9530 295.6926 -109.6680 -32.2215 29990.5145 -214.7676 -147.5348
ENERGY: 600000 0.4960 4.4679 1.4455 0.0000 -10620.3687 1482.8968 0.0000 0.0000 1695.6622 -7435.4003 294.0372 -9131.0625 -7411.5882 295.3916 138.9330 244.9037 30325.1371 -60.4764 -2.7505
ENERGY: 900000 0.8588 6.1282 0.1483 0.0000 -10547.4651 1447.2139 0.0000 0.0000 1748.9536 -7344.1623 303.2783 -9093.1159 -7383.7641 297.1590 151.8343 210.1771 29999.1640 -84.1280 -22.2558
ENERGY: 1200000 0.7062 7.3489 0.1410 0.0000 -10543.1611 1446.1113 0.0000 0.0000 1697.1015 -7391.7523 294.2868 -9088.8538 -7383.2981 295.9640 259.9175 341.6324 29705.8379 -104.2792 -38.2755
ENERGY: 1500000 1.5151 5.3074 0.4489 0.0000 -10467.1921 1308.2689 0.0000 0.0000 1741.6276 -7410.0243 302.0079 -9151.6518 -7383.5031 296.6337 -901.4479 -827.3030 29919.8547 -121.6101 -55.3523
TCL: Exiting due to exit command.
