Info: SIMULATION PARAMETERS:
Info: TIMESTEP               2
Info: NUMBER OF STEPS        0
Info: STEPS PER CYCLE        10
Info: PERIODIC CELL BASIS 1  32.0783 0 0
Info: PERIODIC CELL BASIS 2  0 31.043 0
Info: PERIODIC CELL BASIS 3  0 0 30.4022
Info: PERIODIC CELL CENTER   0 0 0
Info: WRAPPING WATERS AROUND PERIODIC BOUNDARIES ON OUTPUT.
Info: WRAPPING ALL CLUSTERS AROUND PERIODIC BOUNDARIES ON OUTPUT.
Info: FIRST LDB TIMESTEP     50
Info: LAST LDB TIMESTEP     -1
Info: HOM BACKGROUND SCALING 1
Info: PME BACKGROUND SCALING 1
Info: MIN ATOMS PER PATCH    40
Info: EMPTY PATCH LOAD       40 ATOMS
Info: VELOCITY FILE          mobley_9565165_equil.vel
Info: CENTER OF MASS MOVING INITIALLY? NO
Info: DIELECTRIC             1
Info: EXCLUDE                SCALED ONE-FOUR
Info: 1-4 ELECTROSTATICS SCALED BY 0.833333
Info: MODIFIED 1-4 VDW PARAMETERS WILL BE USED
Info: DCD FILENAME           mobley_9565165_prod.dcd
Info: DCD FREQUENCY          100000
Info: DCD FIRST STEP         100000
Info: DCD FILE WILL CONTAIN UNIT CELL DATA
Info: XST FILENAME           mobley_9565165_prod.xst
Info: XST FREQUENCY          100000
Info: NO VELOCITY DCD OUTPUT
Info: NO FORCE DCD OUTPUT
Info: OUTPUT FILENAME        mobley_9565165_prod
Info: BINARY OUTPUT FILES WILL BE USED
Info: RESTART FILENAME       mobley_9565165_prod.restart
Info: RESTART FREQUENCY      100000
Info: BINARY RESTART FILES WILL BE USED
Info: CUTOFF                 9
Info: PAIRLIST DISTANCE      11
Info: PAIRLIST SHRINK RATE   0.01
Info: PAIRLIST GROW RATE     0.01
Info: PAIRLIST TRIGGER       0.3
Info: PAIRLISTS PER CYCLE    2
Info: PAIRLISTS ENABLED
Info: MARGIN                 2
Info: HYDROGEN GROUP CUTOFF  2.5
Info: PATCH DIMENSION        15.5
Info: ENERGY OUTPUT STEPS    100000
Info: ENERGY EVALUATION STEPS    100000
Info: OUTPUT ENERGY PRECISION 4
Info: CROSSTERM ENERGY INCLUDED IN DIHEDRAL
Info: TIMING OUTPUT STEPS    1000000
Info: PRESSURE OUTPUT STEPS  100000
Info: ALCHEMICAL FEP ON
Info: FEP CURRENT LAMBDA VALUE     1
Info: FEP COMPARISON LAMBDA VALUE  0.95
Info: FEP INTRA-ALCHEMICAL NON-BONDED INTERACTIONS WILL BE RETAINED
Info: FEP INTRA-ALCHEMICAL BONDED INTERACTIONS WILL BE RETAINED
Info: FEP VDW SHIFTING COEFFICIENT 5
Info: FEP ELEC. ACTIVE FOR ANNIHILATED PARTICLES BETWEEN LAMBDA = 0 AND LAMBDA = 0.5
Info: FEP ELEC. ACTIVE FOR EXNIHILATED PARTICLES BETWEEN LAMBDA = 0.5 AND LAMBDA = 1
Info: FEP VDW ACTIVE FOR ANNIHILATED PARTICLES BETWEEN LAMBDA = 0 AND LAMBDA = 1
Info: FEP VDW ACTIVE FOR EXNIHILATED PARTICLES BETWEEN LAMBDA = 0 AND LAMBDA = 1
Info: FEP BOND ACTIVE FOR ANNIHILATED PARTICLES BETWEEN LAMBDA = 1 AND LAMBDA = 1
Info: FEP BOND ACTIVE FOR EXNIHILATED PARTICLES BETWEEN LAMBDA = 0 AND LAMBDA = 0
Info: LANGEVIN DYNAMICS ACTIVE
Info: LANGEVIN TEMPERATURE   300
Info: LANGEVIN USING BBK INTEGRATOR
Info: LANGEVIN DAMPING COEFFICIENT IS 1 INVERSE PS
Info: LANGEVIN DYNAMICS APPLIED TO HYDROGENS
Info: LANGEVIN PISTON PRESSURE CONTROL ACTIVE
Info:        TARGET PRESSURE IS 1.01325 BAR
Info:     OSCILLATION PERIOD IS 50 FS
Info:             DECAY TIME IS 25 FS
Info:     PISTON TEMPERATURE IS 300 K
Info:       PRESSURE CONTROL IS GROUP-BASED
Info:    INITIAL STRAIN RATE IS 0.000199056 0.000199056 0.000199056
Info:       CELL FLUCTUATION IS ISOTROPIC
Info: PARTICLE MESH EWALD (PME) ACTIVE
Info: PME TOLERANCE               1e-06
Info: PME EWALD COEFFICIENT       0.348832
Info: PME INTERPOLATION ORDER     4
Info: PME GRID DIMENSIONS         36 32 32
Info: PME MAXIMUM GRID SPACING    1
Info: PME CALCULATION WILL BE PERFORMED ON GPU
Info: FULL ELECTROSTATIC EVALUATION FREQUENCY      2
Info: USING VERLET I (r-RESPA) MTS SCHEME.
Info: C1 SPLITTING OF LONG RANGE ELECTROSTATICS
Info: PLACING ATOMS IN PATCHES BY HYDROGEN GROUPS
Info: RIGID BONDS TO HYDROGEN : ALL
Info:         ERROR TOLERANCE : 1e-08
Info:          MAX ITERATIONS : 100
Info: RIGID WATER USING SETTLE ALGORITHM
Info: RANDOM NUMBER SEED     1743650445
Info: USE HYDROGEN BONDS?    NO
Info: Using AMBER format force field!
Info: AMBER PARM FILE        mobley_9565165.prmtop
Info: COORDINATE PDB         mobley_9565165.pdb
Info: Exclusions will be read from PARM file!
Info: SCNB (VDW SCALING)     2
Info: USING ARITHMETIC MEAN TO COMBINE L-J SIGMA PARAMETERS
Info: BINARY COORDINATES     mobley_9565165_equil.coor
Info: SUMMARY OF PARAMETERS:
Info: 8 BONDS
Info: 11 ANGLES
Info:   11 HARMONIC
Info:   0 COSINE-BASED
Info: 4 DIHEDRAL
Info: 0 IMPROPER
Info: 0 CROSSTERM
Info: 0 VDW
Info: 21 VDW_PAIRS
Info: 0 NBTHOLE_PAIRS
Info: To read alchdata from file: mobley_9565165.pdb
Info: To read alchflag data from column: 5
Info: STRUCTURE SUMMARY:
Info: 2945 ATOMS
Info: 2947 BONDS
Info: 42 ANGLES
Info: 76 DIHEDRALS
Info: 0 IMPROPERS
Info: 0 CROSSTERMS
Info: 3042 EXCLUSIONS
Info: 2932 RIGID BONDS
Info: ALCH: 0 ATOMS TO DISAPPEAR IN FINAL STATE
Info: ALCH: 23 ATOMS TO APPEAR IN FINAL STATE
Info: 5903 DEGREES OF FREEDOM
Info: 987 HYDROGEN GROUPS
Info: 3 ATOMS IN LARGEST HYDROGEN GROUP
Info: 987 MIGRATION GROUPS
Info: 3 ATOMS IN LARGEST MIGRATION GROUP
Info: TOTAL MASS = 17713.8 amu
Info: TOTAL CHARGE = 0.000100026 e
Info: MASS DENSITY = 0.971606 g/cm^3
Info: ATOM DENSITY = 0.0972758 atoms/A^3
Info: ADDED 0 IMPLICIT EXCLUSIONS
Info: NONBONDED TABLE R-SQUARED SPACING: 0.0625
Info: NONBONDED TABLE SIZE: 705 POINTS
Info: REDUCING NUMBER OF PATCHES TO IMPROVE LOAD BALANCE
Info: REMOVING COM VELOCITY -0.0361677 -0.0781677 -0.103639
Info: Use 3D box decompostion in PME FFT.
Info: Updated CUDA force table with 4096 elements.
Info: Updated CUDA LJ table with 6 x 6 elements.
Info: Found 23 unique exclusion lists needing 72 bytes
TCL: Running for 1500000 steps
ETITLE: TS BOND ANGLE DIHED IMPRP ELECT VDW BOUNDARY MISC KINETIC TOTAL TEMP POTENTIAL TOTALAVG TEMPAVG PRESSURE GPRESSURE VOLUME PRESSAVG GPRESSAVG
ENERGY: 0 3.2789 23.4942 4.6750 0.0000 -10719.8507 1448.1184 0.0000 0.0000 1770.8605 -7469.4236 301.9270 -9240.2841 -7469.4236 301.9270 -104.9372 -33.0872 30274.7414 -104.9372 -33.0872
ENERGY: 300000 5.1827 28.1856 8.5511 0.0000 -10641.8587 1414.2606 0.0000 0.0000 1768.6334 -7417.0452 301.5473 -9185.6787 -7424.7428 298.2756 -159.9426 -159.7895 30313.1549 -99.9702 -50.9818
ENERGY: 600000 4.6265 28.1647 5.9248 0.0000 -10596.4271 1467.4786 0.0000 0.0000 1749.6178 -7340.6147 298.3052 -9090.2325 -7410.8733 299.0215 361.4757 390.9919 30650.2781 -76.2820 -22.6610
ENERGY: 900000 3.2940 27.0207 5.6841 0.0000 -10817.3317 1580.9111 0.0000 0.0000 1808.9191 -7391.5028 308.4159 -9200.4219 -7403.6928 299.8426 1436.5556 1439.3026 29612.2093 39.1772 97.5600
ENERGY: 1200000 3.3706 23.5064 2.3429 0.0000 -10657.7600 1488.4750 0.0000 0.0000 1814.1610 -7325.9041 309.3096 -9140.0651 -7397.6916 301.8655 533.7883 633.3977 30722.4408 25.1785 83.1982
ENERGY: 1500000 4.7885 22.6105 7.7479 0.0000 -10539.2197 1307.3119 0.0000 0.0000 1798.2351 -7398.5258 306.5943 -9196.7608 -7399.1722 301.8816 -830.3042 -763.0114 30349.7973 -52.7122 7.3841
TCL: Running FEP window   2: Lambda1 0.95   Lambda2 0.8999999999999999 [dLambda -0.050000000000000044]
TCL: Setting parameter firsttimestep to 0
TCL: Setting parameter alchLambda to 0.95
Info: NONBONDED TABLE R-SQUARED SPACING: 0.0625
Info: NONBONDED TABLE SIZE: 705 POINTS
TCL: Setting parameter alchLambda2 to 0.8999999999999999
Info: NONBONDED TABLE R-SQUARED SPACING: 0.0625
Info: NONBONDED TABLE SIZE: 705 POINTS
TCL: Running for 1500000 steps
ETITLE: TS BOND ANGLE DIHED IMPRP ELECT VDW BOUNDARY MISC KINETIC TOTAL TEMP POTENTIAL TOTALAVG TEMPAVG PRESSURE GPRESSURE VOLUME PRESSAVG GPRESSAVG
ENERGY: 0 4.7885 22.6105 7.7480 0.0000 -10537.8965 1307.6165 0.0000 0.0000 1797.3580 -7397.7750 306.4448 -9195.1331 -7397.7750 306.4448 -860.2038 -774.0399 30349.7973 -860.2038 -774.0399
ENERGY: 300000 3.4168 24.3306 6.1281 0.0000 -10693.7183 1418.0847 0.0000 0.0000 1816.4629 -7425.2953 309.7021 -9241.7581 -7445.7251 304.7814 -254.7200 -244.9454 30570.0562 -374.2141 -317.9700
ENERGY: 600000 4.2132 28.0274 4.2021 0.0000 -10706.1746 1490.1088 0.0000 0.0000 1767.7828 -7411.8403 301.4023 -9179.6232 -7422.0082 303.7143 404.2533 482.3147 30376.4298 -350.2138 -291.5119
ENERGY: 900000 5.1595 24.2423 3.9345 0.0000 -10623.8703 1376.4336 0.0000 0.0000 1724.6581 -7489.4422 294.0496 -9214.1003 -7414.6748 303.3165 -228.1222 -178.9235 30044.8093 -312.3351 -257.7746
ENERGY: 1200000 2.6276 23.0151 4.4333 0.0000 -10804.6101 1574.4331 0.0000 0.0000 1768.1382 -7431.9628 301.4629 -9200.1010 -7423.9426 302.8504 1140.9628 1197.9830 30502.1873 -41.5551 14.2413
ENERGY: 1500000 5.7461 24.9918 5.9978 0.0000 -10626.6621 1416.1818 0.0000 0.0000 1746.7007 -7427.0438 297.8078 -9173.7446 -7419.6722 302.2871 -93.4156 -25.6526 30164.2129 10.7726 66.3771
TCL: Running FEP window   3: Lambda1 0.8999999999999999 Lambda2 0.8499999999999999 [dLambda -0.050000000000000044]
TCL: Setting parameter firsttimestep to 0
TCL: Setting parameter alchLambda to 0.8999999999999999
Info: NONBONDED TABLE R-SQUARED SPACING: 0.0625
Info: NONBONDED TABLE SIZE: 705 POINTS
TCL: Setting parameter alchLambda2 to 0.8499999999999999
Info: NONBONDED TABLE R-SQUARED SPACING: 0.0625
Info: NONBONDED TABLE SIZE: 705 POINTS
TCL: Running for 1500000 steps
ETITLE: TS BOND ANGLE DIHED IMPRP ELECT VDW BOUNDARY MISC KINETIC TOTAL TEMP POTENTIAL TOTALAVG TEMPAVG PRESSURE GPRESSURE VOLUME PRESSAVG GPRESSAVG
ENERGY: 0 5.7461 24.9918 5.9978 0.0000 -10625.5090 1416.4840 0.0000 0.0000 1745.8062 -7426.4830 297.6553 -9172.2892 -7426.4830 297.6553 -118.0542 -35.9475 30164.2129 -118.0542 -35.9475
ENERGY: 300000 8.1085 26.0640 4.1753 0.0000 -10654.6468 1447.5112 0.0000 0.0000 1756.8901 -7411.8977 299.5451 -9168.7878 -7402.2087 298.4992 -76.3336 23.4525 30134.2485 84.6614 164.7854
ENERGY: 600000 2.9298 23.6086 5.3860 0.0000 -10834.2697 1497.3182 0.0000 0.0000 1728.9534 -7576.0737 294.7820 -9305.0271 -7454.4902 297.3555 224.8820 312.0299 30160.4867 106.9518 171.8607
ENERGY: 900000 5.5327 24.7771 7.3146 0.0000 -10646.2121 1443.1270 0.0000 0.0000 1788.1572 -7377.3035 304.8760 -9165.4607 -7437.8754 298.8380 98.4725 170.9856 30529.9246 83.8647 144.0519
ENERGY: 1200000 3.7188 28.8678 5.2907 0.0000 -10577.8314 1412.8362 0.0000 0.0000 1718.3811 -7408.7367 292.9794 -9127.1179 -7426.7092 298.7911 -28.1974 10.1163 30711.9135 179.1838 242.1777
ENERGY: 1500000 1.3315 26.6688 5.4226 0.0000 -10664.9788 1410.8607 0.0000 0.0000 1809.7267 -7410.9685 308.5536 -9220.6952 -7422.7147 299.2059 -144.8174 -104.7595 30434.4260 184.9333 248.3951
TCL: Running FEP window   4: Lambda1 0.8499999999999999 Lambda2 0.7999999999999998 [dLambda -0.050000000000000044]
TCL: Setting parameter firsttimestep to 0
TCL: Setting parameter alchLambda to 0.8499999999999999
Info: NONBONDED TABLE R-SQUARED SPACING: 0.0625
Info: NONBONDED TABLE SIZE: 705 POINTS
TCL: Setting parameter alchLambda2 to 0.7999999999999998
Info: NONBONDED TABLE R-SQUARED SPACING: 0.0625
Info: NONBONDED TABLE SIZE: 705 POINTS
TCL: Running for 1500000 steps
ETITLE: TS BOND ANGLE DIHED IMPRP ELECT VDW BOUNDARY MISC KINETIC TOTAL TEMP POTENTIAL TOTALAVG TEMPAVG PRESSURE GPRESSURE VOLUME PRESSAVG GPRESSAVG
ENERGY: 0 1.3315 26.6688 5.4226 0.0000 -10663.6354 1410.9618 0.0000 0.0000 1808.8720 -7410.3788 308.4079 -9219.2508 -7410.3788 308.4079 -194.6200 -114.2058 30434.4260 -194.6200 -114.2058
ENERGY: 300000 3.4556 23.1154 5.2726 0.0000 -10648.2151 1421.2943 0.0000 0.0000 1755.0704 -7440.0068 299.2348 -9195.0773 -7424.1949 303.7631 -33.5020 89.9164 30083.6644 -193.3569 -99.7686
ENERGY: 600000 1.6094 24.4449 6.6262 0.0000 -10637.6107 1415.8157 0.0000 0.0000 1758.3509 -7430.7636 299.7942 -9189.1146 -7423.1835 302.5433 -33.9955 46.8974 30271.5570 -58.1577 19.3584
ENERGY: 900000 8.8396 24.0005 6.7941 0.0000 -10653.5665 1364.7773 0.0000 0.0000 1793.3044 -7455.8506 305.7536 -9249.1549 -7430.5274 300.7493 -603.7009 -562.6817 30096.6084 -99.0220 -26.4779
ENERGY: 1200000 5.4624 22.5124 3.8804 0.0000 -10583.4133 1411.5064 0.0000 0.0000 1741.7532 -7398.2986 296.9643 -9140.0518 -7422.4726 300.1982 -151.8316 -119.4434 30469.5884 -112.2355 -47.3417
ENERGY: 1500000 3.8154 25.2120 8.9779 0.0000 -10424.8836 1303.8836 0.0000 0.0000 1767.9922 -7315.0026 301.4380 -9082.9948 -7410.9593 301.0810 -985.7006 -935.9274 30677.0736 -180.0964 -108.2399
TCL: Running FEP window   5: Lambda1 0.7999999999999998 Lambda2 0.7499999999999998 [dLambda -0.050000000000000044]
TCL: Setting parameter firsttimestep to 0
TCL: Setting parameter alchLambda to 0.7999999999999998
Info: NONBONDED TABLE R-SQUARED SPACING: 0.0625
Info: NONBONDED TABLE SIZE: 705 POINTS
TCL: Setting parameter alchLambda2 to 0.7499999999999998
Info: NONBONDED TABLE R-SQUARED SPACING: 0.0625
Info: NONBONDED TABLE SIZE: 705 POINTS
TCL: Running for 1500000 steps
ETITLE: TS BOND ANGLE DIHED IMPRP ELECT VDW BOUNDARY MISC KINETIC TOTAL TEMP POTENTIAL TOTALAVG TEMPAVG PRESSURE GPRESSURE VOLUME PRESSAVG GPRESSAVG
ENERGY: 0 3.8154 25.2120 8.9779 0.0000 -10423.6474 1303.8750 0.0000 0.0000 1767.1379 -7314.6293 301.2923 -9081.7672 -7314.6293 301.2923 -1010.8442 -946.0519 30677.0736 -1010.8442 -946.0519
ENERGY: 300000 5.5432 22.2847 3.9425 0.0000 -10781.6311 1474.5530 0.0000 0.0000 1786.9408 -7488.3668 304.6687 -9275.3077 -7414.5761 301.8807 -68.0595 23.0842 30556.5438 -542.2717 -474.3157
ENERGY: 600000 5.1926 23.0398 5.7912 0.0000 -10637.5855 1467.5351 0.0000 0.0000 1820.9146 -7315.1122 310.4611 -9136.0268 -7411.7675 302.0384 241.3968 334.1663 30524.0051 -279.9131 -214.8394
ENERGY: 900000 2.5187 25.0378 4.8306 0.0000 -10689.4595 1456.0771 0.0000 0.0000 1698.9298 -7502.0655 289.6630 -9200.9953 -7426.6486 300.6438 -264.7145 -222.0328 30917.9578 -238.7631 -181.2798
ENERGY: 1200000 3.0063 29.1916 8.7982 0.0000 -10686.3724 1440.8685 0.0000 0.0000 1756.8841 -7447.6237 299.5441 -9204.5078 -7426.8628 300.9759 -127.7415 -89.5485 30661.2089 -159.3762 -104.6469
ENERGY: 1500000 4.0168 25.3943 6.1818 0.0000 -10565.6026 1358.8864 0.0000 0.0000 1766.5522 -7404.5711 301.1924 -9171.1233 -7423.8007 301.1590 -345.2607 -293.5835 30337.9740 -171.1764 -115.6391
TCL: Running FEP window   6: Lambda1 0.7499999999999998 Lambda2 0.6999999999999997 [dLambda -0.050000000000000044]
TCL: Setting parameter firsttimestep to 0
TCL: Setting parameter alchLambda to 0.7499999999999998
Info: NONBONDED TABLE R-SQUARED SPACING: 0.0625
Info: NONBONDED TABLE SIZE: 705 POINTS
TCL: Setting parameter alchLambda2 to 0.6999999999999997
Info: NONBONDED TABLE R-SQUARED SPACING: 0.0625
Info: NONBONDED TABLE SIZE: 705 POINTS
TCL: Running for 1500000 steps
ETITLE: TS BOND ANGLE DIHED IMPRP ELECT VDW BOUNDARY MISC KINETIC TOTAL TEMP POTENTIAL TOTALAVG TEMPAVG PRESSURE GPRESSURE VOLUME PRESSAVG GPRESSAVG
ENERGY: 0 4.0167 25.3943 6.1819 0.0000 -10565.1034 1358.8318 0.0000 0.0000 1765.6508 -7405.0279 301.0388 -9170.6787 -7405.0279 301.0388 -393.9737 -305.4700 30337.9740 -393.9737 -305.4700
ENERGY: 300000 7.3175 23.3576 3.8859 0.0000 -10581.1779 1373.3535 0.0000 0.0000 1769.5572 -7403.7061 301.7048 -9173.2633 -7409.9776 301.3840 -738.4292 -680.2863 30633.8022 -387.5284 -331.5422
ENERGY: 600000 4.6658 21.5922 9.6279 0.0000 -10545.1563 1428.2957 0.0000 0.0000 1839.3216 -7241.6532 313.5994 -9080.9747 -7383.6765 301.2435 130.8838 159.4622 30619.1588 -259.9966 -197.4632
ENERGY: 900000 5.7487 27.8580 4.2331 0.0000 -10620.6273 1440.1006 0.0000 0.0000 1749.9361 -7392.7508 298.3594 -9142.6869 -7374.3013 302.3669 12.4111 116.8515 30610.0989 -147.7468 -80.5585
ENERGY: 1200000 4.0042 25.9906 5.5153 0.0000 -10823.1838 1564.2026 0.0000 0.0000 1730.8924 -7492.5786 295.1125 -9223.4709 -7379.0957 303.0862 1234.0283 1275.1584 29908.1791 -80.8872 -26.4480
ENERGY: 1500000 4.8972 21.4695 8.5494 0.0000 -10633.2978 1410.7795 0.0000 0.0000 1724.0161 -7463.5861 293.9401 -9187.6022 -7392.2286 302.1032 -89.4715 -59.5281 30025.8981 -57.2506 -5.5024
TCL: Running FEP window   7: Lambda1 0.6999999999999997 Lambda2 0.6499999999999997 [dLambda -0.050000000000000044]
TCL: Setting parameter firsttimestep to 0
TCL: Setting parameter alchLambda to 0.6999999999999997
Info: NONBONDED TABLE R-SQUARED SPACING: 0.0625
Info: NONBONDED TABLE SIZE: 705 POINTS
TCL: Setting parameter alchLambda2 to 0.6499999999999997
Info: NONBONDED TABLE R-SQUARED SPACING: 0.0625
Info: NONBONDED TABLE SIZE: 705 POINTS
TCL: Running for 1500000 steps
ETITLE: TS BOND ANGLE DIHED IMPRP ELECT VDW BOUNDARY MISC KINETIC TOTAL TEMP POTENTIAL TOTALAVG TEMPAVG PRESSURE GPRESSURE VOLUME PRESSAVG GPRESSAVG
ENERGY: 0 4.8972 21.4695 8.5494 0.0000 -10632.5996 1411.4102 0.0000 0.0000 1723.1287 -7463.1447 293.7888 -9186.2734 -7463.1447 293.7888 -155.1201 -64.0263 30025.8981 -155.1201 -64.0263
ENERGY: 300000 4.1199 26.5947 4.4165 0.0000 -10558.4107 1361.5742 0.0000 0.0000 1751.2850 -7410.4205 298.5894 -9161.7054 -7371.0811 300.1856 -483.9728 -440.8383 30323.8024 -336.0865 -291.9135
ENERGY: 600000 9.4059 26.6945 5.5785 0.0000 -10579.8600 1391.7269 0.0000 0.0000 1682.5431 -7463.9111 286.8691 -9146.4541 -7396.2662 299.6487 -532.3256 -555.3776 30136.0670 -282.4032 -243.4430
ENERGY: 900000 6.3829 24.3829 9.0276 0.0000 -10711.0388 1493.3678 0.0000 0.0000 1751.3847 -7426.4929 298.6064 -9177.8776 -7407.4775 299.0840 293.4104 348.3704 30471.2335 -234.1337 -187.6807
ENERGY: 1200000 1.8761 22.5110 2.9586 0.0000 -10662.3620 1448.1611 0.0000 0.0000 1764.1424 -7422.7129 300.7816 -9186.8553 -7405.6811 299.3345 -214.2230 -99.0974 30841.5231 -218.7315 -165.0758
ENERGY: 1500000 4.9322 23.0157 4.2118 0.0000 -10657.7859 1485.3836 0.0000 0.0000 1776.2609 -7363.9817 302.8478 -9140.2426 -7398.1290 300.1212 424.9331 468.7855 30221.9035 -132.0372 -79.5486
TCL: Running FEP window   8: Lambda1 0.6499999999999997 Lambda2 0.5999999999999996 [dLambda -0.050000000000000044]
TCL: Setting parameter firsttimestep to 0
TCL: Setting parameter alchLambda to 0.6499999999999997
Info: NONBONDED TABLE R-SQUARED SPACING: 0.0625
Info: NONBONDED TABLE SIZE: 705 POINTS
TCL: Setting parameter alchLambda2 to 0.5999999999999996
Info: NONBONDED TABLE R-SQUARED SPACING: 0.0625
Info: NONBONDED TABLE SIZE: 705 POINTS
TCL: Running for 1500000 steps
ETITLE: TS BOND ANGLE DIHED IMPRP ELECT VDW BOUNDARY MISC KINETIC TOTAL TEMP POTENTIAL TOTALAVG TEMPAVG PRESSURE GPRESSURE VOLUME PRESSAVG GPRESSAVG
ENERGY: 0 4.9322 23.0157 4.2118 0.0000 -10657.1743 1485.7861 0.0000 0.0000 1775.4277 -7363.8008 302.7057 -9139.2285 -7363.8008 302.7057 395.1358 463.9459 30221.9035 395.1358 463.9459
ENERGY: 300000 1.7183 24.7534 4.4252 0.0000 -10664.4365 1413.4894 0.0000 0.0000 1733.6661 -7486.3841 295.5855 -9220.0502 -7432.1643 298.4450 -32.6287 64.8611 30167.8709 -351.3181 -252.6937
ENERGY: 600000 13.5088 26.5121 3.7677 0.0000 -10590.5876 1428.9943 0.0000 0.0000 1743.9603 -7373.8444 297.3406 -9117.8046 -7404.4454 299.8265 -28.7479 47.8501 30061.2721 -105.7214 -28.1941
ENERGY: 900000 6.1292 20.7563 5.2819 0.0000 -10747.4061 1539.1778 0.0000 0.0000 1774.5592 -7401.5017 302.5576 -9176.0609 -7412.9826 299.6991 1120.8867 1179.3825 29895.4535 -36.9890 33.0577
ENERGY: 1200000 5.2415 24.5496 5.7863 0.0000 -10715.0011 1512.6547 0.0000 0.0000 1751.9170 -7414.8520 298.6972 -9166.7689 -7414.1562 299.3567 870.2862 940.3151 30025.7618 24.6534 91.3347
ENERGY: 1500000 7.1901 24.9792 4.4692 0.0000 -10715.8624 1488.0816 0.0000 0.0000 1751.9033 -7439.2391 298.6948 -9191.1424 -7403.7154 300.1375 218.7121 265.6970 30435.1364 -10.7812 51.7306
TCL: Running FEP window   9: Lambda1 0.5999999999999996 Lambda2 0.5499999999999996 [dLambda -0.050000000000000044]
TCL: Setting parameter firsttimestep to 0
TCL: Setting parameter alchLambda to 0.5999999999999996
Info: NONBONDED TABLE R-SQUARED SPACING: 0.0625
Info: NONBONDED TABLE SIZE: 705 POINTS
TCL: Setting parameter alchLambda2 to 0.5499999999999996
Info: NONBONDED TABLE R-SQUARED SPACING: 0.0625
Info: NONBONDED TABLE SIZE: 705 POINTS
TCL: Running for 1500000 steps
ETITLE: TS BOND ANGLE DIHED IMPRP ELECT VDW BOUNDARY MISC KINETIC TOTAL TEMP POTENTIAL TOTALAVG TEMPAVG PRESSURE GPRESSURE VOLUME PRESSAVG GPRESSAVG
ENERGY: 0 7.1900 24.9792 4.4692 0.0000 -10715.5448 1488.9999 0.0000 0.0000 1751.0396 -7438.8668 298.5476 -9189.9065 -7438.8668 298.5476 176.1644 261.4098 30435.1364 176.1644 261.4098
ENERGY: 300000 5.6534 25.2664 6.4020 0.0000 -10670.2431 1403.2725 0.0000 0.0000 1765.8443 -7463.8045 301.0717 -9229.6488 -7429.1928 298.8029 -717.0846 -525.4692 30588.8842 -122.1048 8.0546
ENERGY: 600000 6.8298 24.6896 2.2079 0.0000 -10500.3908 1307.4707 0.0000 0.0000 1735.0362 -7424.1565 295.8191 -9159.1928 -7431.6139 299.7119 -1131.2763 -1018.7817 30510.9151 -358.7226 -248.5058
ENERGY: 900000 5.0965 25.5103 8.4140 0.0000 -10730.5427 1450.7281 0.0000 0.0000 1751.6393 -7489.1545 298.6498 -9240.7938 -7438.1351 299.0712 63.7589 80.3101 30166.0516 -251.4411 -161.0603
ENERGY: 1200000 3.0032 26.2129 5.6323 0.0000 -10611.8826 1479.0347 0.0000 0.0000 1750.3761 -7347.6235 298.4345 -9097.9995 -7433.0658 297.6819 505.4256 537.8349 30651.9205 -240.6592 -162.9453
ENERGY: 1500000 5.9247 24.3144 5.0247 0.0000 -10516.7928 1306.5103 0.0000 0.0000 1775.9687 -7399.0500 302.7979 -9175.0187 -7418.8825 298.7335 -1039.5498 -1020.4309 30462.1885 -306.4154 -235.7439
TCL: Running FEP window  10: Lambda1 0.5499999999999996 Lambda2 0.4999999999999996 [dLambda -0.04999999999999999]
TCL: Setting parameter firsttimestep to 0
TCL: Setting parameter alchLambda to 0.5499999999999996
Info: NONBONDED TABLE R-SQUARED SPACING: 0.0625
Info: NONBONDED TABLE SIZE: 705 POINTS
TCL: Setting parameter alchLambda2 to 0.4999999999999996
Info: NONBONDED TABLE R-SQUARED SPACING: 0.0625
Info: NONBONDED TABLE SIZE: 705 POINTS
TCL: Running for 1500000 steps
ETITLE: TS BOND ANGLE DIHED IMPRP ELECT VDW BOUNDARY MISC KINETIC TOTAL TEMP POTENTIAL TOTALAVG TEMPAVG PRESSURE GPRESSURE VOLUME PRESSAVG GPRESSAVG
ENERGY: 0 5.9247 24.3144 5.0247 0.0000 -10516.3213 1307.5307 0.0000 0.0000 1775.0968 -7398.4300 302.6493 -9173.5268 -7398.4300 302.6493 -1100.7027 -1017.7759 30462.1885 -1100.7027 -1017.7759
ENERGY: 300000 8.1958 21.4553 6.9737 0.0000 -10589.4190 1426.7977 0.0000 0.0000 1787.5361 -7338.4605 304.7701 -9125.9965 -7409.0539 301.1914 76.7045 148.7031 30515.1593 -255.6194 -183.3849
ENERGY: 600000 4.6888 23.7636 7.1386 0.0000 -10571.9364 1365.9350 0.0000 0.0000 1755.8555 -7414.5548 299.3687 -9170.4103 -7421.4658 301.8196 -656.5540 -588.4883 30519.1120 -270.0241 -195.9672
ENERGY: 900000 2.8614 24.3783 5.5834 0.0000 -10617.5109 1379.8423 0.0000 0.0000 1755.4941 -7449.3515 299.3071 -9204.8456 -7422.1257 301.9974 -462.8113 -361.1125 30196.7838 -366.0850 -287.7438
ENERGY: 1200000 6.7061 22.4926 6.2695 0.0000 -10653.3780 1437.8048 0.0000 0.0000 1740.9418 -7439.1632 296.8259 -9180.1051 -7412.5810 302.1024 -234.9316 -116.7010 30488.8596 -348.7570 -271.0378
ENERGY: 1500000 5.5007 22.4140 6.2608 0.0000 -10577.2617 1385.9324 0.0000 0.0000 1798.6817 -7358.4721 306.6704 -9157.1538 -7404.7678 301.6407 -322.2765 -315.5671 29949.9197 -300.3274 -226.5208
TCL: Running FEP window  11: Lambda1 0.4999999999999996 Lambda2 0.4499999999999996 [dLambda -0.04999999999999999]
TCL: Setting parameter firsttimestep to 0
TCL: Setting parameter alchLambda to 0.4999999999999996
Info: NONBONDED TABLE R-SQUARED SPACING: 0.0625
Info: NONBONDED TABLE SIZE: 705 POINTS
TCL: Setting parameter alchLambda2 to 0.4499999999999996
Info: NONBONDED TABLE R-SQUARED SPACING: 0.0625
Info: NONBONDED TABLE SIZE: 705 POINTS
TCL: Running for 1500000 steps
ETITLE: TS BOND ANGLE DIHED IMPRP ELECT VDW BOUNDARY MISC KINETIC TOTAL TEMP POTENTIAL TOTALAVG TEMPAVG PRESSURE GPRESSURE VOLUME PRESSAVG GPRESSAVG
ENERGY: 0 5.5007 22.4140 6.2608 0.0000 -10577.1830 1385.9720 0.0000 0.0000 1797.8112 -7359.2242 306.5220 -9157.0355 -7359.2242 306.5220 -388.9764 -321.4840 29949.9197 -388.9764 -321.4840
ENERGY: 300000 8.4292 24.8175 9.0423 0.0000 -10495.9319 1369.4178 0.0000 0.0000 1810.2306 -7273.9946 308.6395 -9084.2252 -7358.9582 306.0262 -310.4662 -252.3383 30379.7938 -25.9947 23.1911
ENERGY: 600000 6.3348 30.9371 4.2278 0.0000 -10639.6230 1451.5284 0.0000 0.0000 1791.3871 -7355.2078 305.4267 -9146.5949 -7363.8964 305.6415 349.9937 485.8642 29908.1820 42.5815 119.0677
ENERGY: 900000 6.2924 22.7114 5.1705 0.0000 -10621.9530 1415.0344 0.0000 0.0000 1701.6486 -7471.0958 290.1266 -9172.7444 -7381.4377 303.3761 -536.3315 -457.2865 30691.5360 -78.7623 1.9202
ENERGY: 1200000 1.7000 23.7302 3.8194 0.0000 -10602.1030 1446.9506 0.0000 0.0000 1725.9461 -7399.9567 294.2692 -9125.9028 -7384.0044 302.5506 92.5383 137.2422 30464.9946 -53.6968 23.6761
ENERGY: 1500000 5.4258 25.7365 4.2321 0.0000 -10610.0846 1415.1679 0.0000 0.0000 1791.4568 -7368.0656 305.4386 -9159.5223 -7381.5053 302.8071 -251.2704 -179.1599 30472.6451 -43.9782 31.2840
TCL: Running FEP window  12: Lambda1 0.4499999999999996 Lambda2 0.39999999999999963 [dLambda -0.04999999999999999]
TCL: Setting parameter firsttimestep to 0
TCL: Setting parameter alchLambda to 0.4499999999999996
Info: NONBONDED TABLE R-SQUARED SPACING: 0.0625
Info: NONBONDED TABLE SIZE: 705 POINTS
TCL: Setting parameter alchLambda2 to 0.39999999999999963
Info: NONBONDED TABLE R-SQUARED SPACING: 0.0625
Info: NONBONDED TABLE SIZE: 705 POINTS
TCL: Running for 1500000 steps
ETITLE: TS BOND ANGLE DIHED IMPRP ELECT VDW BOUNDARY MISC KINETIC TOTAL TEMP POTENTIAL TOTALAVG TEMPAVG PRESSURE GPRESSURE VOLUME PRESSAVG GPRESSAVG
ENERGY: 0 5.4258 25.7365 4.2321 0.0000 -10610.0861 1415.8636 0.0000 0.0000 1790.5656 -7368.2625 305.2867 -9158.8281 -7368.2625 305.2867 -280.6316 -183.6931 30472.6451 -280.6316 -183.6931
ENERGY: 300000 3.9520 22.8111 3.6388 0.0000 -10604.2081 1412.0793 0.0000 0.0000 1783.9945 -7377.7324 304.1663 -9161.7269 -7378.4366 301.4984 -205.7312 -144.0587 30405.0026 -146.3125 -48.1435
ENERGY: 600000 7.2346 23.9681 4.3553 0.0000 -10592.3586 1434.8517 0.0000 0.0000 1735.1102 -7386.8387 295.8317 -9121.9489 -7402.2389 300.9176 -26.5469 88.7268 30282.4329 -65.8644 32.6650
ENERGY: 900000 5.1127 26.2258 6.9922 0.0000 -10714.8974 1458.9507 0.0000 0.0000 1765.9594 -7451.6566 301.0914 -9217.6160 -7404.2239 301.2849 94.4138 118.3701 30234.5961 -13.7280 71.5315
ENERGY: 1200000 4.7962 27.7918 7.9071 0.0000 -10435.5472 1322.7449 0.0000 0.0000 1732.1543 -7340.1528 295.3277 -9072.3072 -7402.1888 300.1398 -985.0523 -883.2953 30651.1489 -128.8524 -44.7749
ENERGY: 1500000 4.6563 24.3823 3.3212 0.0000 -10730.6610 1475.2059 0.0000 0.0000 1791.3744 -7431.7210 305.4246 -9223.0954 -7407.1435 300.6626 -246.5322 -150.2416 30846.9960 -161.5947 -75.8554
TCL: Running FEP window  13: Lambda1 0.39999999999999963 Lambda2 0.34999999999999964 [dLambda -0.04999999999999999]
TCL: Setting parameter firsttimestep to 0
TCL: Setting parameter alchLambda to 0.39999999999999963
Info: NONBONDED TABLE R-SQUARED SPACING: 0.0625
Info: NONBONDED TABLE SIZE: 705 POINTS
TCL: Setting parameter alchLambda2 to 0.34999999999999964
Info: NONBONDED TABLE R-SQUARED SPACING: 0.0625
Info: NONBONDED TABLE SIZE: 705 POINTS
TCL: Running for 1500000 steps
ETITLE: TS BOND ANGLE DIHED IMPRP ELECT VDW BOUNDARY MISC KINETIC TOTAL TEMP POTENTIAL TOTALAVG TEMPAVG PRESSURE GPRESSURE VOLUME PRESSAVG GPRESSAVG
ENERGY: 0 4.6563 24.3823 3.3212 0.0000 -10730.6617 1475.4078 0.0000 0.0000 1790.4762 -7432.4180 305.2714 -9222.8942 -7432.4180 305.2714 -236.8221 -155.0509 30846.9960 -236.8221 -155.0509
ENERGY: 300000 9.9289 28.8236 10.7340 0.0000 -10592.4969 1370.4976 0.0000 0.0000 1719.0848 -7453.4281 293.0994 -9172.5128 -7432.3750 298.9280 -827.7890 -775.1766 30237.3233 -421.4879 -369.8403
ENERGY: 600000 4.8000 30.8944 6.2945 0.0000 -10762.7906 1546.7698 0.0000 0.0000 1754.7156 -7419.3163 299.1743 -9174.0319 -7439.6693 299.7257 976.2045 1054.8853 29799.2906 -246.9178 -172.2507
ENERGY: 900000 9.6817 29.1013 4.5351 0.0000 -10563.7739 1414.4648 0.0000 0.0000 1746.2583 -7359.7327 297.7324 -9105.9911 -7423.4094 299.8112 294.4068 376.5084 29916.7408 -233.6900 -157.2813
ENERGY: 1200000 8.5911 24.1136 8.2795 0.0000 -10495.2662 1433.5620 0.0000 0.0000 1782.5010 -7238.2189 303.9117 -9020.7199 -7413.8932 300.0743 23.1722 87.7553 30546.8725 -182.0956 -112.2198
ENERGY: 1500000 3.9480 27.6718 4.3495 0.0000 -10622.4478 1399.4353 0.0000 0.0000 1761.0689 -7425.9743 300.2576 -9187.0432 -7416.2078 299.8114 -573.5315 -532.7619 30594.0216 -159.3829 -92.5698
TCL: Running FEP window  14: Lambda1 0.34999999999999964 Lambda2 0.29999999999999966 [dLambda -0.04999999999999999]
TCL: Setting parameter firsttimestep to 0
TCL: Setting parameter alchLambda to 0.34999999999999964
Info: NONBONDED TABLE R-SQUARED SPACING: 0.0625
Info: NONBONDED TABLE SIZE: 705 POINTS
TCL: Setting parameter alchLambda2 to 0.29999999999999966
Info: NONBONDED TABLE R-SQUARED SPACING: 0.0625
Info: NONBONDED TABLE SIZE: 705 POINTS
TCL: Running for 1500000 steps
ETITLE: TS BOND ANGLE DIHED IMPRP ELECT VDW BOUNDARY MISC KINETIC TOTAL TEMP POTENTIAL TOTALAVG TEMPAVG PRESSURE GPRESSURE VOLUME PRESSAVG GPRESSAVG
ENERGY: 0 3.9480 27.6718 4.3495 0.0000 -10622.4492 1399.9861 0.0000 0.0000 1760.1689 -7426.3250 300.1041 -9186.4939 -7426.3250 300.1041 -619.5345 -534.3305 30594.0216 -619.5345 -534.3305
ENERGY: 300000 6.0020 22.2063 1.5296 0.0000 -10521.7031 1382.0811 0.0000 0.0000 1782.9530 -7326.9311 303.9887 -9109.8840 -7396.8143 301.6074 -548.3903 -454.8615 30760.3193 -339.3884 -275.9067
ENERGY: 600000 5.0034 24.5625 4.4726 0.0000 -10644.8690 1407.7305 0.0000 0.0000 1761.8651 -7441.2349 300.3933 -9203.1000 -7403.7606 299.6648 -54.0573 -4.9771 29874.9738 -421.7313 -373.3831
ENERGY: 900000 5.8247 24.7044 4.7393 0.0000 -10563.1719 1445.4471 0.0000 0.0000 1717.9850 -7364.4715 292.9119 -9082.4564 -7400.2316 299.9042 152.4040 239.7425 30345.4380 -198.5040 -149.6149
ENERGY: 1200000 5.6325 27.9311 6.8811 0.0000 -10720.3903 1476.1355 0.0000 0.0000 1778.9606 -7424.8495 303.3080 -9203.8101 -7401.5391 300.3906 -118.3507 -50.4310 30418.2315 -116.2442 -62.4486
ENERGY: 1500000 3.3342 25.4194 5.6396 0.0000 -10587.0699 1417.3390 0.0000 0.0000 1760.6792 -7374.6585 300.1911 -9135.3377 -7395.6779 300.8192 -82.5741 18.2030 30102.9073 -64.4365 -7.5072
TCL: Running FEP window  15: Lambda1 0.29999999999999966 Lambda2 0.24999999999999967 [dLambda -0.04999999999999999]
TCL: Setting parameter firsttimestep to 0
TCL: Setting parameter alchLambda to 0.29999999999999966
Info: NONBONDED TABLE R-SQUARED SPACING: 0.0625
Info: NONBONDED TABLE SIZE: 705 POINTS
TCL: Setting parameter alchLambda2 to 0.24999999999999967
Info: NONBONDED TABLE R-SQUARED SPACING: 0.0625
Info: NONBONDED TABLE SIZE: 705 POINTS
TCL: Running for 1500000 steps
ETITLE: TS BOND ANGLE DIHED IMPRP ELECT VDW BOUNDARY MISC KINETIC TOTAL TEMP POTENTIAL TOTALAVG TEMPAVG PRESSURE GPRESSURE VOLUME PRESSAVG GPRESSAVG
ENERGY: 0 3.3342 25.4194 5.6396 0.0000 -10587.0700 1417.8910 0.0000 0.0000 1759.8004 -7374.9855 300.0413 -9134.7859 -7374.9855 300.0413 -57.6275 17.4696 30102.9073 -57.6275 17.4696
ENERGY: 300000 4.2940 24.8538 5.7904 0.0000 -10647.1446 1431.4553 0.0000 0.0000 1824.5173 -7356.2338 311.0753 -9180.7511 -7318.6831 305.5942 -48.9484 7.2068 30368.8290 -4.2300 40.2006
ENERGY: 600000 5.1032 25.1663 4.7725 0.0000 -10640.8205 1416.4623 0.0000 0.0000 1725.1352 -7464.1810 294.1310 -9189.3162 -7342.2191 303.5280 57.1103 193.8635 29637.0017 -228.5135 -162.5165
ENERGY: 900000 3.9263 24.5466 8.0113 0.0000 -10534.7010 1388.1113 0.0000 0.0000 1735.3510 -7374.7544 295.8727 -9110.1054 -7360.3965 301.7742 -230.9817 -181.0215 30259.0692 -274.7343 -210.8289
ENERGY: 1200000 8.1992 27.8942 7.8364 0.0000 -10768.6160 1509.0498 0.0000 0.0000 1749.5874 -7466.0491 298.3000 -9215.6365 -7369.2606 301.2690 252.4632 318.0571 30158.3643 -299.5543 -231.4653
ENERGY: 1500000 4.4706 24.4908 8.0727 0.0000 -10636.6796 1397.4159 0.0000 0.0000 1752.6533 -7449.5764 298.8227 -9202.2297 -7382.6135 300.4343 -483.9329 -440.0124 30474.0053 -258.7998 -189.6806
TCL: Running FEP window  16: Lambda1 0.24999999999999967 Lambda2 0.19999999999999968 [dLambda -0.04999999999999999]
TCL: Setting parameter firsttimestep to 0
TCL: Setting parameter alchLambda to 0.24999999999999967
Info: NONBONDED TABLE R-SQUARED SPACING: 0.0625
Info: NONBONDED TABLE SIZE: 705 POINTS
TCL: Setting parameter alchLambda2 to 0.19999999999999968
Info: NONBONDED TABLE R-SQUARED SPACING: 0.0625
Info: NONBONDED TABLE SIZE: 705 POINTS
TCL: Running for 1500000 steps
ETITLE: TS BOND ANGLE DIHED IMPRP ELECT VDW BOUNDARY MISC KINETIC TOTAL TEMP POTENTIAL TOTALAVG TEMPAVG PRESSURE GPRESSURE VOLUME PRESSAVG GPRESSAVG
ENERGY: 0 4.4706 24.4908 8.0727 0.0000 -10636.6804 1397.9616 0.0000 0.0000 1751.8091 -7449.8756 298.6788 -9201.6847 -7449.8756 298.6788 -524.1109 -443.7081 30474.0053 -524.1109 -443.7081
ENERGY: 300000 3.2879 23.2859 8.0878 0.0000 -10594.2190 1420.2533 0.0000 0.0000 1760.8772 -7378.4269 300.2249 -9139.3041 -7408.6825 302.7523 219.7161 241.5801 30182.3420 22.4107 72.2034
ENERGY: 600000 6.7527 27.3850 5.0055 0.0000 -10639.3240 1418.1221 0.0000 0.0000 1791.7238 -7390.3349 305.4841 -9182.0587 -7388.7388 300.7445 -475.5107 -416.6441 30571.6914 4.6606 51.8916
ENERGY: 900000 3.3078 22.4218 5.6941 0.0000 -10670.3773 1498.5729 0.0000 0.0000 1759.9321 -7380.4486 300.0637 -9140.3807 -7390.5128 299.6360 590.8227 574.6736 30138.3015 -32.9954 7.4923
ENERGY: 1200000 8.1561 22.1507 8.9533 0.0000 -10626.8363 1363.6353 0.0000 0.0000 1771.0900 -7452.8509 301.9661 -9223.9409 -7396.1641 300.2505 -919.3813 -820.5139 30001.2882 36.0698 83.8580
ENERGY: 1500000 7.0547 26.5911 3.7031 0.0000 -10617.2853 1402.7217 0.0000 0.0000 1730.8976 -7446.3170 295.1134 -9177.2146 -7393.9572 300.5281 -169.4376 -123.8709 30142.5428 34.9563 78.8361
TCL: Running FEP window  17: Lambda1 0.19999999999999968 Lambda2 0.1499999999999997 [dLambda -0.04999999999999999]
TCL: Setting parameter firsttimestep to 0
TCL: Setting parameter alchLambda to 0.19999999999999968
Info: NONBONDED TABLE R-SQUARED SPACING: 0.0625
Info: NONBONDED TABLE SIZE: 705 POINTS
TCL: Setting parameter alchLambda2 to 0.1499999999999997
Info: NONBONDED TABLE R-SQUARED SPACING: 0.0625
Info: NONBONDED TABLE SIZE: 705 POINTS
TCL: Running for 1500000 steps
ETITLE: TS BOND ANGLE DIHED IMPRP ELECT VDW BOUNDARY MISC KINETIC TOTAL TEMP POTENTIAL TOTALAVG TEMPAVG PRESSURE GPRESSURE VOLUME PRESSAVG GPRESSAVG
ENERGY: 0 7.0547 26.5911 3.7031 0.0000 -10617.2861 1402.1155 0.0000 0.0000 1729.9737 -7447.8479 294.9559 -9177.8216 -7447.8479 294.9559 -209.7202 -131.8508 30142.5428 -209.7202 -131.8508
ENERGY: 300000 7.2078 29.1821 3.6520 0.0000 -10667.6718 1455.9005 0.0000 0.0000 1770.8785 -7400.8510 301.9301 -9171.7294 -7415.4488 299.4386 -150.0801 -48.5155 30383.7813 -38.5672 37.5662
ENERGY: 600000 2.2619 30.2781 7.3710 0.0000 -10598.1621 1428.2120 0.0000 0.0000 1739.3372 -7390.7020 296.5524 -9130.0391 -7419.6888 299.1486 212.9060 274.5874 29990.7334 135.1114 206.1974
ENERGY: 900000 5.5989 22.1595 4.2152 0.0000 -10731.2790 1545.6256 0.0000 0.0000 1759.0598 -7394.6200 299.9150 -9153.6798 -7405.7452 299.9853 852.0975 934.7678 29864.8291 158.1675 228.7008
ENERGY: 1200000 11.0303 21.6663 6.5136 0.0000 -10746.5200 1514.4518 0.0000 0.0000 1737.6712 -7455.1867 296.2683 -9192.8579 -7407.3416 299.5188 345.2953 398.8937 30211.8915 102.1591 161.6222
ENERGY: 1500000 5.9921 23.7287 3.9900 0.0000 -10620.5430 1432.4800 0.0000 0.0000 1809.4712 -7344.8811 308.5100 -9154.3523 -7405.1835 299.6699 -63.4074 -3.7683 30297.9575 77.9867 133.4037
TCL: Running FEP window  18: Lambda1 0.1499999999999997 Lambda2 0.09999999999999969 [dLambda -0.05 ]
TCL: Setting parameter firsttimestep to 0
TCL: Setting parameter alchLambda to 0.1499999999999997
Info: NONBONDED TABLE R-SQUARED SPACING: 0.0625
Info: NONBONDED TABLE SIZE: 705 POINTS
TCL: Setting parameter alchLambda2 to 0.09999999999999969
Info: NONBONDED TABLE R-SQUARED SPACING: 0.0625
Info: NONBONDED TABLE SIZE: 705 POINTS
TCL: Running for 1500000 steps
ETITLE: TS BOND ANGLE DIHED IMPRP ELECT VDW BOUNDARY MISC KINETIC TOTAL TEMP POTENTIAL TOTALAVG TEMPAVG PRESSURE GPRESSURE VOLUME PRESSAVG GPRESSAVG
ENERGY: 0 5.9921 23.7287 3.9900 0.0000 -10620.5427 1432.2274 0.0000 0.0000 1808.5840 -7346.0206 308.3588 -9154.6046 -7346.0206 308.3588 -92.0344 -11.5235 30297.9575 -92.0344 -11.5235
ENERGY: 300000 2.9943 30.4334 3.5713 0.0000 -10665.0137 1421.7675 0.0000 0.0000 1762.7668 -7443.4804 300.5470 -9206.2472 -7386.6563 300.2357 -266.6879 -229.1317 30155.4042 -124.4826 -62.3729
ENERGY: 600000 5.7493 27.6599 6.2418 0.0000 -10517.4787 1391.6332 0.0000 0.0000 1746.1888 -7340.0057 297.7205 -9086.1945 -7375.3096 301.3201 -251.7618 -184.5698 30242.2651 -158.2369 -93.3971
ENERGY: 900000 10.2121 25.9602 8.7267 0.0000 -10720.9521 1527.4862 0.0000 0.0000 1778.6671 -7369.8999 303.2580 -9148.5670 -7361.4454 302.7733 605.1168 655.3064 30001.3594 -103.5145 -22.6647
ENERGY: 1200000 6.7968 22.3745 6.7859 0.0000 -10525.2700 1329.7496 0.0000 0.0000 1788.3758 -7371.1875 304.9133 -9159.5633 -7365.7108 302.5309 -817.0554 -757.3788 30361.6419 -209.0392 -139.1608
ENERGY: 1500000 7.8599 26.0376 5.2277 0.0000 -10519.6131 1315.8387 0.0000 0.0000 1738.8286 -7425.8206 296.4656 -9164.6492 -7370.3341 301.9470 -1186.3230 -1115.8885 30028.3341 -194.7001 -119.9819
TCL: Running FEP window  19: Lambda1 0.09999999999999969 Lambda2 0.049999999999999684 [dLambda -0.05 ]
TCL: Setting parameter firsttimestep to 0
TCL: Setting parameter alchLambda to 0.09999999999999969
Info: NONBONDED TABLE R-SQUARED SPACING: 0.0625
Info: NONBONDED TABLE SIZE: 705 POINTS
TCL: Setting parameter alchLambda2 to 0.049999999999999684
Info: NONBONDED TABLE R-SQUARED SPACING: 0.0625
Info: NONBONDED TABLE SIZE: 705 POINTS
TCL: Running for 1500000 steps
ETITLE: TS BOND ANGLE DIHED IMPRP ELECT VDW BOUNDARY MISC KINETIC TOTAL TEMP POTENTIAL TOTALAVG TEMPAVG PRESSURE GPRESSURE VOLUME PRESSAVG GPRESSAVG
ENERGY: 0 7.8599 26.0376 5.2277 0.0000 -10519.6144 1315.1373 0.0000 0.0000 1738.0087 -7427.3433 296.3259 -9165.3519 -7427.3433 296.3259 -1218.1425 -1124.8495 30028.3341 -1218.1425 -1124.8495
ENERGY: 300000 2.0651 27.2894 7.5484 0.0000 -10573.4424 1368.9538 0.0000 0.0000 1759.6442 -7407.9415 300.0146 -9167.5857 -7425.8044 300.5215 -563.2742 -551.0362 30121.3781 -513.7075 -464.4682
ENERGY: 600000 5.5478 25.3882 5.7485 0.0000 -10617.9728 1446.2577 0.0000 0.0000 1786.4643 -7348.5664 304.5874 -9135.0307 -7412.6039 300.3942 263.3343 277.6247 30112.7403 -307.5333 -260.5719
ENERGY: 900000 3.0446 24.0407 4.7314 0.0000 -10561.2941 1399.3520 0.0000 0.0000 1758.7349 -7371.3904 299.8596 -9130.1254 -7411.7123 300.1486 -166.6892 -34.5468 30220.6435 -350.7726 -296.4472
ENERGY: 1200000 6.0021 24.9021 7.4272 0.0000 -10683.4835 1494.5315 0.0000 0.0000 1707.0475 -7443.5732 291.0471 -9150.6207 -7401.9421 300.2399 455.8780 499.2354 30003.5393 -294.0821 -243.8577
ENERGY: 1500000 3.2890 23.7060 7.2893 0.0000 -10603.7314 1378.1954 0.0000 0.0000 1749.6439 -7441.6077 298.3096 -9191.2517 -7410.9117 299.5384 -594.2916 -598.6240 30223.6479 -284.5359 -235.9294
TCL: Running FEP window  20: Lambda1 0.049999999999999684 Lambda2 0.0    [dLambda -0.049999999999999684]
TCL: Setting parameter firsttimestep to 0
TCL: Setting parameter alchLambda to 0.049999999999999684
Info: NONBONDED TABLE R-SQUARED SPACING: 0.0625
Info: NONBONDED TABLE SIZE: 705 POINTS
TCL: Setting parameter alchLambda2 to 0.0
Info: NONBONDED TABLE R-SQUARED SPACING: 0.0625
Info: NONBONDED TABLE SIZE: 705 POINTS
TCL: Running for 1500000 steps
ETITLE: TS BOND ANGLE DIHED IMPRP ELECT VDW BOUNDARY MISC KINETIC TOTAL TEMP POTENTIAL TOTALAVG TEMPAVG PRESSURE GPRESSURE VOLUME PRESSAVG GPRESSAVG
ENERGY: 0 3.2890 23.7060 7.2893 0.0000 -10603.7310 1378.3668 0.0000 0.0000 1748.7692 -7442.3107 298.1605 -9191.0798 -7442.3107 298.1605 -668.9590 -598.3090 30223.6479 -668.9590 -598.3090
ENERGY: 300000 3.1833 22.5917 9.4067 0.0000 -10532.0293 1395.9885 0.0000 0.0000 1774.1558 -7326.7033 302.4888 -9100.8592 -7403.1716 302.4612 -387.5474 -314.6857 30437.7687 -123.5345 -52.3393
ENERGY: 600000 3.0676 25.4571 3.5845 0.0000 -10591.3538 1368.5044 0.0000 0.0000 1770.3398 -7420.4003 301.8382 -9190.7402 -7408.5354 303.0394 -735.8666 -676.9770 30405.5434 -139.9210 -80.3223
ENERGY: 900000 3.6573 30.8078 6.8612 0.0000 -10530.7260 1378.6809 0.0000 0.0000 1743.3909 -7367.3278 297.2435 -9110.7188 -7400.6977 301.8411 -620.8629 -485.4452 30265.2883 -261.1439 -198.3736
ENERGY: 1200000 3.6524 23.4911 3.0240 0.0000 -10549.6901 1349.1317 0.0000 0.0000 1771.7470 -7398.6439 302.0781 -9170.3909 -7392.9760 302.1343 -551.5619 -551.3516 30189.0739 -248.9835 -186.9287
ENERGY: 1500000 3.2243 26.4478 7.2164 0.0000 -10563.2789 1441.0441 0.0000 0.0000 1664.8282 -7420.5180 283.8488 -9085.3462 -7405.8031 300.4201 198.4509 280.8356 29887.4257 -206.2804 -143.7686
TCL: Exiting due to exit command.
