Info: SIMULATION PARAMETERS:
Info: TIMESTEP               2
Info: NUMBER OF STEPS        0
Info: STEPS PER CYCLE        10
Info: PERIODIC CELL BASIS 1  31.7791 0 0
Info: PERIODIC CELL BASIS 2  0 30.0977 0
Info: PERIODIC CELL BASIS 3  0 0 31.9503
Info: PERIODIC CELL CENTER   0 0 0
Info: WRAPPING WATERS AROUND PERIODIC BOUNDARIES ON OUTPUT.
Info: WRAPPING ALL CLUSTERS AROUND PERIODIC BOUNDARIES ON OUTPUT.
Info: FIRST LDB TIMESTEP     50
Info: LAST LDB TIMESTEP     -1
Info: HOM BACKGROUND SCALING 1
Info: PME BACKGROUND SCALING 1
Info: MIN ATOMS PER PATCH    40
Info: EMPTY PATCH LOAD       40 ATOMS
Info: VELOCITY FILE          mobley_1424265_equil.vel
Info: CENTER OF MASS MOVING INITIALLY? NO
Info: DIELECTRIC             1
Info: EXCLUDE                SCALED ONE-FOUR
Info: 1-4 ELECTROSTATICS SCALED BY 0.833333
Info: MODIFIED 1-4 VDW PARAMETERS WILL BE USED
Info: DCD FILENAME           mobley_1424265_prod.dcd
Info: DCD FREQUENCY          100000
Info: DCD FIRST STEP         100000
Info: DCD FILE WILL CONTAIN UNIT CELL DATA
Info: XST FILENAME           mobley_1424265_prod.xst
Info: XST FREQUENCY          100000
Info: NO VELOCITY DCD OUTPUT
Info: NO FORCE DCD OUTPUT
Info: OUTPUT FILENAME        mobley_1424265_prod
Info: BINARY OUTPUT FILES WILL BE USED
Info: RESTART FILENAME       mobley_1424265_prod.restart
Info: RESTART FREQUENCY      100000
Info: BINARY RESTART FILES WILL BE USED
Info: CUTOFF                 9
Info: PAIRLIST DISTANCE      11
Info: PAIRLIST SHRINK RATE   0.01
Info: PAIRLIST GROW RATE     0.01
Info: PAIRLIST TRIGGER       0.3
Info: PAIRLISTS PER CYCLE    2
Info: PAIRLISTS ENABLED
Info: MARGIN                 2
Info: HYDROGEN GROUP CUTOFF  2.5
Info: PATCH DIMENSION        15.5
Info: ENERGY OUTPUT STEPS    100000
Info: ENERGY EVALUATION STEPS    100000
Info: OUTPUT ENERGY PRECISION 4
Info: CROSSTERM ENERGY INCLUDED IN DIHEDRAL
Info: TIMING OUTPUT STEPS    1000000
Info: PRESSURE OUTPUT STEPS  100000
Info: ALCHEMICAL FEP ON
Info: FEP CURRENT LAMBDA VALUE     0
Info: FEP COMPARISON LAMBDA VALUE  0.05
Info: FEP INTRA-ALCHEMICAL NON-BONDED INTERACTIONS WILL BE RETAINED
Info: FEP INTRA-ALCHEMICAL BONDED INTERACTIONS WILL BE RETAINED
Info: FEP VDW SHIFTING COEFFICIENT 5
Info: FEP ELEC. ACTIVE FOR ANNIHILATED PARTICLES BETWEEN LAMBDA = 0 AND LAMBDA = 0.5
Info: FEP ELEC. ACTIVE FOR EXNIHILATED PARTICLES BETWEEN LAMBDA = 0.5 AND LAMBDA = 1
Info: FEP VDW ACTIVE FOR ANNIHILATED PARTICLES BETWEEN LAMBDA = 0 AND LAMBDA = 1
Info: FEP VDW ACTIVE FOR EXNIHILATED PARTICLES BETWEEN LAMBDA = 0 AND LAMBDA = 1
Info: FEP BOND ACTIVE FOR ANNIHILATED PARTICLES BETWEEN LAMBDA = 1 AND LAMBDA = 1
Info: FEP BOND ACTIVE FOR EXNIHILATED PARTICLES BETWEEN LAMBDA = 0 AND LAMBDA = 0
Info: LANGEVIN DYNAMICS ACTIVE
Info: LANGEVIN TEMPERATURE   300
Info: LANGEVIN USING BBK INTEGRATOR
Info: LANGEVIN DAMPING COEFFICIENT IS 1 INVERSE PS
Info: LANGEVIN DYNAMICS APPLIED TO HYDROGENS
Info: LANGEVIN PISTON PRESSURE CONTROL ACTIVE
Info:        TARGET PRESSURE IS 1.01325 BAR
Info:     OSCILLATION PERIOD IS 50 FS
Info:             DECAY TIME IS 25 FS
Info:     PISTON TEMPERATURE IS 300 K
Info:       PRESSURE CONTROL IS GROUP-BASED
Info:    INITIAL STRAIN RATE IS -0.000104719 -0.000104719 -0.000104719
Info:       CELL FLUCTUATION IS ISOTROPIC
Info: PARTICLE MESH EWALD (PME) ACTIVE
Info: PME TOLERANCE               1e-06
Info: PME EWALD COEFFICIENT       0.348832
Info: PME INTERPOLATION ORDER     4
Info: PME GRID DIMENSIONS         32 32 32
Info: PME MAXIMUM GRID SPACING    1
Info: PME CALCULATION WILL BE PERFORMED ON GPU
Info: FULL ELECTROSTATIC EVALUATION FREQUENCY      2
Info: USING VERLET I (r-RESPA) MTS SCHEME.
Info: C1 SPLITTING OF LONG RANGE ELECTROSTATICS
Info: PLACING ATOMS IN PATCHES BY HYDROGEN GROUPS
Info: RIGID BONDS TO HYDROGEN : ALL
Info:         ERROR TOLERANCE : 1e-08
Info:          MAX ITERATIONS : 100
Info: RIGID WATER USING SETTLE ALGORITHM
Info: RANDOM NUMBER SEED     1743596796
Info: USE HYDROGEN BONDS?    NO
Info: Using AMBER format force field!
Info: AMBER PARM FILE        mobley_1424265.prmtop
Info: COORDINATE PDB         mobley_1424265.pdb
Info: Exclusions will be read from PARM file!
Info: SCNB (VDW SCALING)     2
Info: USING ARITHMETIC MEAN TO COMBINE L-J SIGMA PARAMETERS
Info: BINARY COORDINATES     mobley_1424265_equil.coor
Info: SUMMARY OF PARAMETERS:
Info: 6 BONDS
Info: 5 ANGLES
Info:   5 HARMONIC
Info:   0 COSINE-BASED
Info: 3 DIHEDRAL
Info: 0 IMPROPER
Info: 0 CROSSTERM
Info: 0 VDW
Info: 21 VDW_PAIRS
Info: 0 NBTHOLE_PAIRS
Info: To read alchdata from file: mobley_1424265.pdb
Info: To read alchflag data from column: 5
Info: STRUCTURE SUMMARY:
Info: 2976 ATOMS
Info: 2976 BONDS
Info: 30 ANGLES
Info: 42 DIHEDRALS
Info: 0 IMPROPERS
Info: 0 CROSSTERMS
Info: 3039 EXCLUSIONS
Info: 2968 RIGID BONDS
Info: ALCH: 0 ATOMS TO DISAPPEAR IN FINAL STATE
Info: ALCH: 18 ATOMS TO APPEAR IN FINAL STATE
Info: 5960 DEGREES OF FREEDOM
Info: 994 HYDROGEN GROUPS
Info: 4 ATOMS IN LARGEST HYDROGEN GROUP
Info: 994 MIGRATION GROUPS
Info: 4 ATOMS IN LARGEST MIGRATION GROUP
Info: TOTAL MASS = 17869.9 amu
Info: TOTAL CHARGE = 3.72529e-08 e
Info: MASS DENSITY = 0.971028 g/cm^3
Info: ATOM DENSITY = 0.0973829 atoms/A^3
Info: ADDED 0 IMPLICIT EXCLUSIONS
Info: NONBONDED TABLE R-SQUARED SPACING: 0.0625
Info: NONBONDED TABLE SIZE: 705 POINTS
Info: REMOVING COM VELOCITY -0.0637094 -0.00377608 0.114711
Info: Use 3D box decompostion in PME FFT.
Info: Updated CUDA force table with 4096 elements.
Info: Updated CUDA LJ table with 6 x 6 elements.
Info: Found 19 unique exclusion lists needing 48 bytes
TCL: Running for 1500000 steps
ETITLE: TS BOND ANGLE DIHED IMPRP ELECT VDW BOUNDARY MISC KINETIC TOTAL TEMP POTENTIAL TOTALAVG TEMPAVG PRESSURE GPRESSURE VOLUME PRESSAVG GPRESSAVG
ENERGY: 0 2.8848 7.1615 2.1414 0.0000 -10685.0624 1421.4670 0.0000 0.0000 1708.4414 -7542.9663 288.4989 -9251.4077 -7542.9663 288.4989 -148.2927 -63.8102 30559.7907 -148.2927 -63.8102
ENERGY: 300000 3.1924 5.7335 2.6842 0.0000 -10831.0317 1478.4866 0.0000 0.0000 1770.2731 -7570.6618 298.9403 -9340.9350 -7595.0892 297.5085 135.6948 176.9835 30227.0856 75.1536 118.4306
ENERGY: 600000 3.7971 7.4812 2.1394 0.0000 -10670.3151 1385.6358 0.0000 0.0000 1773.5261 -7497.7355 299.4896 -9271.2616 -7573.0072 297.7187 -615.2319 -519.7915 30639.6865 -134.3517 -80.9293
ENERGY: 900000 2.6432 7.2326 3.2206 0.0000 -10785.6578 1465.8120 0.0000 0.0000 1834.6521 -7472.0973 309.8117 -9306.7494 -7551.5059 300.9865 187.6285 335.1409 30234.6859 -35.9178 30.0382
ENERGY: 1200000 2.4085 6.4095 1.3101 0.0000 -10756.4302 1431.6738 0.0000 0.0000 1758.8840 -7555.7443 297.0170 -9314.6284 -7543.4618 300.4851 -405.9821 -355.0798 30503.4310 -78.9596 -6.2733
ENERGY: 1500000 2.4694 7.0452 2.3878 0.0000 -10755.5892 1468.0149 0.0000 0.0000 1760.8275 -7514.8445 297.3452 -9275.6719 -7542.3825 299.9757 475.2703 440.9891 30233.8061 -101.3078 -38.6877
TCL: Running FEP window   2: Lambda1 0.05   Lambda2 0.1    [dLambda 0.05  ]
TCL: Setting parameter firsttimestep to 0
TCL: Setting parameter alchLambda to 0.05
Info: NONBONDED TABLE R-SQUARED SPACING: 0.0625
Info: NONBONDED TABLE SIZE: 705 POINTS
TCL: Setting parameter alchLambda2 to 0.1
Info: NONBONDED TABLE R-SQUARED SPACING: 0.0625
Info: NONBONDED TABLE SIZE: 705 POINTS
TCL: Running for 1500000 steps
ETITLE: TS BOND ANGLE DIHED IMPRP ELECT VDW BOUNDARY MISC KINETIC TOTAL TEMP POTENTIAL TOTALAVG TEMPAVG PRESSURE GPRESSURE VOLUME PRESSAVG GPRESSAVG
ENERGY: 0 2.4694 7.0452 2.3878 0.0000 -10755.5896 1472.6699 0.0000 0.0000 1759.9464 -7511.0710 297.1964 -9271.0174 -7511.0710 297.1964 370.3285 446.5528 30233.8061 370.3285 446.5528
ENERGY: 300000 1.6819 5.5958 2.7452 0.0000 -10693.9596 1449.1835 0.0000 0.0000 1762.2636 -7472.4896 297.5877 -9234.7532 -7495.9855 298.7270 284.6154 325.1446 30331.9422 188.7562 244.6322
ENERGY: 600000 0.7833 2.4730 2.4455 0.0000 -10633.2555 1342.3207 0.0000 0.0000 1786.1470 -7499.0860 301.6208 -9285.2330 -7538.6815 298.1123 -748.5698 -686.5191 30293.3830 -111.7255 -61.4064
ENERGY: 900000 4.4998 4.1653 2.3800 0.0000 -10740.2705 1421.4630 0.0000 0.0000 1776.1890 -7531.5734 299.9393 -9307.7624 -7543.8236 298.7126 -347.6859 -292.5434 30672.8587 -143.6155 -91.5724
ENERGY: 1200000 1.9140 4.2903 2.7714 0.0000 -10719.1980 1413.7563 0.0000 0.0000 1785.8810 -7510.5849 301.5759 -9296.4660 -7546.1740 299.0042 -433.3570 -413.3175 30507.5162 -66.5587 -14.2282
ENERGY: 1500000 4.0913 4.6773 3.6332 0.0000 -10813.8860 1511.0367 0.0000 0.0000 1777.8337 -7512.6138 300.2170 -9290.4475 -7550.5326 299.0783 375.4073 456.9973 30325.5167 -74.6037 -24.5495
TCL: Running FEP window   3: Lambda1 0.1    Lambda2 0.15000000000000002 [dLambda 0.05000000000000002]
TCL: Setting parameter firsttimestep to 0
TCL: Setting parameter alchLambda to 0.1
Info: NONBONDED TABLE R-SQUARED SPACING: 0.0625
Info: NONBONDED TABLE SIZE: 705 POINTS
TCL: Setting parameter alchLambda2 to 0.15000000000000002
Info: NONBONDED TABLE R-SQUARED SPACING: 0.0625
Info: NONBONDED TABLE SIZE: 705 POINTS
TCL: Running for 1500000 steps
ETITLE: TS BOND ANGLE DIHED IMPRP ELECT VDW BOUNDARY MISC KINETIC TOTAL TEMP POTENTIAL TOTALAVG TEMPAVG PRESSURE GPRESSURE VOLUME PRESSAVG GPRESSAVG
ENERGY: 0 4.0913 4.6773 3.6332 0.0000 -10813.8862 1514.2764 0.0000 0.0000 1776.9562 -7510.2517 300.0688 -9287.2080 -7510.2517 300.0688 379.5934 470.3009 30325.5167 379.5934 470.3009
ENERGY: 300000 4.0871 3.9277 4.2463 0.0000 -10710.5321 1386.3864 0.0000 0.0000 1790.1650 -7521.7195 302.2993 -9311.8846 -7502.8479 300.4368 -879.9190 -816.9697 30880.7493 -107.0779 -28.4382
ENERGY: 600000 3.2941 9.3944 0.7293 0.0000 -10796.2657 1469.0477 0.0000 0.0000 1770.0148 -7543.7854 298.8966 -9313.8002 -7510.3424 300.3887 184.5123 222.5355 30445.6662 -127.5564 -52.1922
ENERGY: 900000 1.3230 4.4494 2.5210 0.0000 -10865.4001 1545.4396 0.0000 0.0000 1779.1109 -7532.5563 300.4327 -9311.6672 -7534.6754 300.0359 956.9355 1063.3453 30187.8323 -97.7924 -13.1507
ENERGY: 1200000 2.6152 7.3640 4.2145 0.0000 -10807.1883 1494.9170 0.0000 0.0000 1814.7465 -7483.3312 306.4503 -9298.0777 -7531.7042 300.5386 309.1704 424.6008 30518.0017 -106.7817 -31.4501
ENERGY: 1500000 7.8516 6.2704 2.4022 0.0000 -10856.1311 1496.8742 0.0000 0.0000 1791.9156 -7550.8172 302.5949 -9342.7328 -7529.2642 300.5926 94.1757 122.9587 30222.2791 -60.0719 11.8767
TCL: Running FEP window   4: Lambda1 0.15000000000000002 Lambda2 0.2    [dLambda 0.04999999999999999]
TCL: Setting parameter firsttimestep to 0
TCL: Setting parameter alchLambda to 0.15000000000000002
Info: NONBONDED TABLE R-SQUARED SPACING: 0.0625
Info: NONBONDED TABLE SIZE: 705 POINTS
TCL: Setting parameter alchLambda2 to 0.2
Info: NONBONDED TABLE R-SQUARED SPACING: 0.0625
Info: NONBONDED TABLE SIZE: 705 POINTS
TCL: Running for 1500000 steps
ETITLE: TS BOND ANGLE DIHED IMPRP ELECT VDW BOUNDARY MISC KINETIC TOTAL TEMP POTENTIAL TOTALAVG TEMPAVG PRESSURE GPRESSURE VOLUME PRESSAVG GPRESSAVG
ENERGY: 0 7.8516 6.2704 2.4022 0.0000 -10856.1317 1497.7640 0.0000 0.0000 1791.0420 -7550.8016 302.4474 -9341.8436 -7550.8016 302.4474 46.7487 128.5306 30222.2791 46.7487 128.5306
ENERGY: 300000 1.5385 6.9532 2.9644 0.0000 -10857.9481 1539.4758 0.0000 0.0000 1750.9720 -7556.0442 295.6809 -9307.0162 -7567.6776 296.4678 489.4196 599.9916 30494.9354 -77.7759 -8.4116
ENERGY: 600000 2.4961 4.4327 1.5062 0.0000 -10723.4868 1426.6295 0.0000 0.0000 1773.8743 -7514.5480 299.5484 -9288.4223 -7534.9441 298.0969 -309.9872 -305.6542 30641.1099 -181.4077 -109.1696
ENERGY: 900000 1.5326 6.1271 1.7892 0.0000 -10796.4399 1497.9422 0.0000 0.0000 1787.0250 -7502.0237 301.7691 -9289.0488 -7532.4014 298.4382 420.0936 466.4541 30617.5615 -172.2824 -108.0901
ENERGY: 1200000 2.7367 5.2458 5.8695 0.0000 -10709.2042 1390.5339 0.0000 0.0000 1775.7014 -7529.1170 299.8569 -9304.8184 -7522.3133 299.1285 -238.5653 -193.0860 30223.9228 -194.6754 -134.3633
ENERGY: 1500000 1.1038 3.4616 4.3874 0.0000 -10790.2926 1472.4524 0.0000 0.0000 1772.4080 -7536.4793 299.3008 -9308.8874 -7515.6772 299.4969 235.0387 304.0403 30342.0201 -91.0163 -29.3323
TCL: Running FEP window   5: Lambda1 0.2    Lambda2 0.25   [dLambda 0.04999999999999999]
TCL: Setting parameter firsttimestep to 0
TCL: Setting parameter alchLambda to 0.2
Info: NONBONDED TABLE R-SQUARED SPACING: 0.0625
Info: NONBONDED TABLE SIZE: 705 POINTS
TCL: Setting parameter alchLambda2 to 0.25
Info: NONBONDED TABLE R-SQUARED SPACING: 0.0625
Info: NONBONDED TABLE SIZE: 705 POINTS
TCL: Running for 1500000 steps
ETITLE: TS BOND ANGLE DIHED IMPRP ELECT VDW BOUNDARY MISC KINETIC TOTAL TEMP POTENTIAL TOTALAVG TEMPAVG PRESSURE GPRESSURE VOLUME PRESSAVG GPRESSAVG
ENERGY: 0 1.1038 3.4616 4.3874 0.0000 -10790.2946 1473.3961 0.0000 0.0000 1771.5286 -7536.4171 299.1523 -9307.9457 -7536.4171 299.1523 230.6236 312.8590 30342.0201 230.6236 312.8590
ENERGY: 300000 3.1628 4.6569 2.8536 0.0000 -10748.9410 1480.0546 0.0000 0.0000 1792.8360 -7465.3771 302.7504 -9258.2130 -7528.6545 301.8181 165.8458 286.4288 30669.5777 -33.0074 50.9679
ENERGY: 600000 0.8722 6.2036 2.5945 0.0000 -10815.6353 1504.0235 0.0000 0.0000 1789.9710 -7511.9704 302.2666 -9301.9414 -7524.0914 301.5973 390.9783 470.1795 30348.7471 -28.9326 31.9719
ENERGY: 900000 10.0922 6.9448 4.1427 0.0000 -10813.6162 1463.7388 0.0000 0.0000 1846.0070 -7482.6907 311.7292 -9328.6977 -7511.1324 301.8095 -52.3037 -49.9172 30433.5478 -216.5070 -155.4386
ENERGY: 1200000 1.8400 5.1467 2.2362 0.0000 -10729.0434 1401.0837 0.0000 0.0000 1797.8152 -7520.9217 303.5912 -9318.7369 -7494.8799 303.3172 -629.7573 -512.6421 30570.9419 -247.6879 -186.0126
ENERGY: 1500000 4.1296 4.8425 0.2609 0.0000 -10595.7348 1329.1008 0.0000 0.0000 1814.4431 -7442.9577 306.3991 -9257.4009 -7496.9406 302.5277 -891.1142 -777.9840 30642.1791 -261.4127 -197.3961
TCL: Running FEP window   6: Lambda1 0.25   Lambda2 0.3    [dLambda 0.04999999999999999]
TCL: Setting parameter firsttimestep to 0
TCL: Setting parameter alchLambda to 0.25
Info: NONBONDED TABLE R-SQUARED SPACING: 0.0625
Info: NONBONDED TABLE SIZE: 705 POINTS
TCL: Setting parameter alchLambda2 to 0.3
Info: NONBONDED TABLE R-SQUARED SPACING: 0.0625
Info: NONBONDED TABLE SIZE: 705 POINTS
TCL: Running for 1500000 steps
ETITLE: TS BOND ANGLE DIHED IMPRP ELECT VDW BOUNDARY MISC KINETIC TOTAL TEMP POTENTIAL TOTALAVG TEMPAVG PRESSURE GPRESSURE VOLUME PRESSAVG GPRESSAVG
ENERGY: 0 4.1296 4.8425 0.2609 0.0000 -10595.7361 1330.0445 0.0000 0.0000 1813.5653 -7442.8932 306.2509 -9256.4585 -7442.8932 306.2509 -850.1020 -769.1304 30642.1791 -850.1020 -769.1304
ENERGY: 300000 5.5112 4.1140 3.8042 0.0000 -10871.5398 1546.0801 0.0000 0.0000 1753.9825 -7558.0478 296.1893 -9312.0304 -7537.1542 298.6673 620.6073 644.2313 30419.9574 -105.0889 -50.5577
ENERGY: 600000 2.7396 6.1777 1.6759 0.0000 -10791.3625 1408.5695 0.0000 0.0000 1830.3816 -7541.8183 309.0906 -9372.1999 -7544.3154 301.9727 -750.9846 -742.6077 30821.9594 -85.8315 -43.1894
ENERGY: 900000 1.6917 6.0337 1.4679 0.0000 -10750.3102 1428.4527 0.0000 0.0000 1820.5584 -7492.1059 307.4318 -9312.6643 -7542.0177 301.7154 -371.2148 -315.5909 31085.4146 14.4161 61.9811
ENERGY: 1200000 3.2070 6.2444 1.8886 0.0000 -10830.0243 1525.0879 0.0000 0.0000 1760.0244 -7533.5720 297.2096 -9293.5964 -7549.5363 300.6835 418.8997 487.7716 30859.2679 -49.9742 7.6962
ENERGY: 1500000 5.8812 8.1061 3.8738 0.0000 -10935.2779 1523.6035 0.0000 0.0000 1738.2650 -7655.5482 293.5351 -9393.8132 -7548.7945 299.9751 -70.1521 -0.1660 30636.1802 48.8584 109.9293
TCL: Running FEP window   7: Lambda1 0.3    Lambda2 0.35   [dLambda 0.04999999999999999]
TCL: Setting parameter firsttimestep to 0
TCL: Setting parameter alchLambda to 0.3
Info: NONBONDED TABLE R-SQUARED SPACING: 0.0625
Info: NONBONDED TABLE SIZE: 705 POINTS
TCL: Setting parameter alchLambda2 to 0.35
Info: NONBONDED TABLE R-SQUARED SPACING: 0.0625
Info: NONBONDED TABLE SIZE: 705 POINTS
TCL: Running for 1500000 steps
ETITLE: TS BOND ANGLE DIHED IMPRP ELECT VDW BOUNDARY MISC KINETIC TOTAL TEMP POTENTIAL TOTALAVG TEMPAVG PRESSURE GPRESSURE VOLUME PRESSAVG GPRESSAVG
ENERGY: 0 5.8812 8.1061 3.8738 0.0000 -10935.2786 1523.5175 0.0000 0.0000 1737.3795 -7656.5204 293.3856 -9393.8999 -7656.5204 293.3856 -64.6380 2.5358 30636.1802 -64.6380 2.5358
ENERGY: 300000 2.8307 6.6810 4.5013 0.0000 -10692.1979 1379.8912 0.0000 0.0000 1784.7852 -7513.5084 301.3909 -9298.2937 -7534.9126 299.4781 -551.2773 -472.3436 30383.6991 -318.6797 -251.3658
ENERGY: 600000 1.5802 4.1656 3.6701 0.0000 -10737.5981 1490.9822 0.0000 0.0000 1745.2407 -7491.9592 294.7131 -9237.2000 -7536.7038 299.2388 580.7627 682.8012 30744.9079 -110.6888 -39.0156
ENERGY: 900000 2.0576 4.8358 1.1693 0.0000 -10965.4812 1557.5428 0.0000 0.0000 1824.5626 -7575.3130 308.1079 -9399.8756 -7537.9841 301.0464 606.7799 738.0300 30150.2521 -43.3846 31.3349
ENERGY: 1200000 2.0528 4.6489 3.5653 0.0000 -10673.0433 1409.7435 0.0000 0.0000 1800.8827 -7452.1502 304.1092 -9253.0329 -7525.7046 301.6507 -285.2045 -242.6181 30829.4175 -129.8876 -55.8132
ENERGY: 1500000 1.8348 4.7031 1.4555 0.0000 -10751.5591 1446.4188 0.0000 0.0000 1765.2802 -7531.8668 298.0971 -9297.1470 -7523.2439 301.5371 189.4212 295.5174 30227.0416 -243.5344 -171.2386
TCL: Running FEP window   8: Lambda1 0.35   Lambda2 0.39999999999999997 [dLambda 0.04999999999999999]
TCL: Setting parameter firsttimestep to 0
TCL: Setting parameter alchLambda to 0.35
Info: NONBONDED TABLE R-SQUARED SPACING: 0.0625
Info: NONBONDED TABLE SIZE: 705 POINTS
TCL: Setting parameter alchLambda2 to 0.39999999999999997
Info: NONBONDED TABLE R-SQUARED SPACING: 0.0625
Info: NONBONDED TABLE SIZE: 705 POINTS
TCL: Running for 1500000 steps
ETITLE: TS BOND ANGLE DIHED IMPRP ELECT VDW BOUNDARY MISC KINETIC TOTAL TEMP POTENTIAL TOTALAVG TEMPAVG PRESSURE GPRESSURE VOLUME PRESSAVG GPRESSAVG
ENERGY: 0 1.8348 4.7031 1.4555 0.0000 -10751.5584 1448.4178 0.0000 0.0000 1764.3739 -7530.7734 297.9441 -9295.1473 -7530.7734 297.9441 220.5708 314.8380 30227.0416 220.5708 314.8380
ENERGY: 300000 3.5084 4.3598 4.8286 0.0000 -10890.7583 1517.5570 0.0000 0.0000 1705.8919 -7654.6126 288.0684 -9360.5045 -7546.2625 296.7105 321.4594 361.7642 30545.5971 473.1433 547.0300
ENERGY: 600000 3.3601 6.8215 1.4736 0.0000 -10721.0161 1428.4563 0.0000 0.0000 1809.5603 -7471.3443 305.5746 -9280.9046 -7524.8358 301.2383 -378.4735 -326.2081 31016.3229 147.1762 207.8603
ENERGY: 900000 2.0026 6.4396 1.7440 0.0000 -10788.1602 1455.8619 0.0000 0.0000 1753.3337 -7568.7784 296.0798 -9322.1121 -7523.7871 301.4977 -125.4492 -23.6842 30771.1446 -7.7446 52.3869
ENERGY: 1200000 2.5414 4.9114 1.6240 0.0000 -10718.2524 1437.7201 0.0000 0.0000 1765.4699 -7505.9856 298.1291 -9271.4555 -7522.4751 301.3877 -368.8222 -293.6885 30880.3339 -58.3248 5.3419
ENERGY: 1500000 2.2913 2.8708 1.2100 0.0000 -10859.1699 1444.7305 0.0000 0.0000 1779.4194 -7628.6479 300.4848 -9408.0673 -7527.0252 301.5782 -254.9248 -180.9554 30235.4631 -52.6358 12.2850
TCL: Running FEP window   9: Lambda1 0.39999999999999997 Lambda2 0.44999999999999996 [dLambda 0.04999999999999999]
TCL: Setting parameter firsttimestep to 0
TCL: Setting parameter alchLambda to 0.39999999999999997
Info: NONBONDED TABLE R-SQUARED SPACING: 0.0625
Info: NONBONDED TABLE SIZE: 705 POINTS
TCL: Setting parameter alchLambda2 to 0.44999999999999996
Info: NONBONDED TABLE R-SQUARED SPACING: 0.0625
Info: NONBONDED TABLE SIZE: 705 POINTS
TCL: Running for 1500000 steps
ETITLE: TS BOND ANGLE DIHED IMPRP ELECT VDW BOUNDARY MISC KINETIC TOTAL TEMP POTENTIAL TOTALAVG TEMPAVG PRESSURE GPRESSURE VOLUME PRESSAVG GPRESSAVG
ENERGY: 0 2.2913 2.8708 1.2100 0.0000 -10859.1697 1444.8809 0.0000 0.0000 1778.5454 -7629.3713 300.3372 -9407.9167 -7629.3713 300.3372 -262.5520 -174.2679 30235.4631 -262.5520 -174.2679
ENERGY: 300000 2.8429 5.1849 2.7261 0.0000 -10957.4888 1628.1670 0.0000 0.0000 1716.2374 -7602.3305 289.8154 -9318.5679 -7547.9841 300.1932 1443.1548 1470.3079 30387.5132 186.6917 239.0867
ENERGY: 600000 2.3179 4.2467 3.5915 0.0000 -10848.7352 1504.6904 0.0000 0.0000 1771.7709 -7562.1179 299.1932 -9333.8888 -7543.1071 299.1494 588.2435 588.7446 30287.6366 83.4928 116.5956
ENERGY: 900000 6.0440 7.4755 2.2709 0.0000 -10713.1348 1427.2108 0.0000 0.0000 1794.1358 -7475.9978 302.9699 -9270.1335 -7533.1843 299.7856 -400.0730 -360.1717 31153.8690 -119.9186 -72.6807
ENERGY: 1200000 1.7728 6.6998 2.1360 0.0000 -10752.8308 1441.5668 0.0000 0.0000 1734.7942 -7565.8612 292.9490 -9300.6554 -7535.8569 298.7380 94.0049 144.3701 30462.1999 -135.3090 -81.9930
ENERGY: 1500000 2.7077 3.1556 3.6098 0.0000 -10674.5734 1395.4399 0.0000 0.0000 1770.6904 -7498.9700 299.0107 -9269.6604 -7535.6752 298.7214 -496.4171 -452.6587 30911.2670 -89.4567 -35.7181
TCL: Running FEP window  10: Lambda1 0.44999999999999996 Lambda2 0.49999999999999994 [dLambda 0.04999999999999999]
TCL: Setting parameter firsttimestep to 0
TCL: Setting parameter alchLambda to 0.44999999999999996
Info: NONBONDED TABLE R-SQUARED SPACING: 0.0625
Info: NONBONDED TABLE SIZE: 705 POINTS
TCL: Setting parameter alchLambda2 to 0.49999999999999994
Info: NONBONDED TABLE R-SQUARED SPACING: 0.0625
Info: NONBONDED TABLE SIZE: 705 POINTS
TCL: Running for 1500000 steps
ETITLE: TS BOND ANGLE DIHED IMPRP ELECT VDW BOUNDARY MISC KINETIC TOTAL TEMP POTENTIAL TOTALAVG TEMPAVG PRESSURE GPRESSURE VOLUME PRESSAVG GPRESSAVG
ENERGY: 0 2.7077 3.1556 3.6098 0.0000 -10674.5723 1394.9689 0.0000 0.0000 1769.8070 -7500.3233 298.8615 -9270.1303 -7500.3233 298.8615 -546.4089 -450.3673 30911.2670 -546.4089 -450.3673
ENERGY: 300000 0.8352 6.7482 2.5507 0.0000 -10666.0367 1423.0921 0.0000 0.0000 1789.4606 -7443.3500 302.1804 -9232.8105 -7480.6898 298.1879 -78.2131 -43.1336 30757.1954 -219.5569 -135.9411
ENERGY: 600000 3.3335 2.8487 1.7336 0.0000 -10824.5299 1495.0525 0.0000 0.0000 1757.0037 -7564.5580 296.6995 -9321.5617 -7491.3400 299.3904 442.9922 531.4324 30458.5415 -79.2348 -2.3605
ENERGY: 900000 1.0719 5.8800 4.6282 0.0000 -10683.9790 1409.0283 0.0000 0.0000 1768.1838 -7495.1867 298.5874 -9263.3706 -7503.9030 299.7671 -292.7630 -274.6556 30851.3704 -103.5528 -38.0131
ENERGY: 1200000 2.5433 3.7596 2.2215 0.0000 -10668.5757 1407.8991 0.0000 0.0000 1763.9302 -7488.2221 297.8691 -9252.1523 -7500.8770 299.8662 -190.4105 -203.4656 30842.3505 -120.7109 -65.3824
ENERGY: 1500000 2.9123 5.1802 0.7756 0.0000 -10589.3721 1326.1706 0.0000 0.0000 1780.0777 -7474.2557 300.5959 -9254.3334 -7505.1620 299.5242 -1001.5323 -1037.8263 31550.4595 -116.6129 -69.8686
TCL: Running FEP window  11: Lambda1 0.49999999999999994 Lambda2 0.5499999999999999 [dLambda 0.04999999999999999]
TCL: Setting parameter firsttimestep to 0
TCL: Setting parameter alchLambda to 0.49999999999999994
Info: NONBONDED TABLE R-SQUARED SPACING: 0.0625
Info: NONBONDED TABLE SIZE: 705 POINTS
TCL: Setting parameter alchLambda2 to 0.5499999999999999
Info: NONBONDED TABLE R-SQUARED SPACING: 0.0625
Info: NONBONDED TABLE SIZE: 705 POINTS
TCL: Running for 1500000 steps
ETITLE: TS BOND ANGLE DIHED IMPRP ELECT VDW BOUNDARY MISC KINETIC TOTAL TEMP POTENTIAL TOTALAVG TEMPAVG PRESSURE GPRESSURE VOLUME PRESSAVG GPRESSAVG
ENERGY: 0 2.9123 5.1802 0.7756 0.0000 -10589.3723 1325.8187 0.0000 0.0000 1779.2254 -7475.4601 300.4520 -9254.6855 -7475.4601 300.4520 -1101.6906 -1035.8373 31550.4595 -1101.6906 -1035.8373
ENERGY: 300000 2.7854 5.3919 1.6496 0.0000 -10762.1174 1430.6147 0.0000 0.0000 1782.5678 -7539.1080 301.0164 -9321.6757 -7566.2870 297.2300 -33.5049 12.6958 30131.3813 -349.6820 -299.7281
ENERGY: 600000 2.7084 2.9434 1.5560 0.0000 -10807.8904 1464.0244 0.0000 0.0000 1750.3499 -7586.3083 295.5759 -9336.6582 -7532.0646 299.0019 282.6990 309.3284 30116.9098 -112.1170 -63.5759
ENERGY: 900000 3.2107 5.6321 3.4101 0.0000 -10777.0780 1448.6131 0.0000 0.0000 1742.9746 -7573.2375 294.3304 -9316.2120 -7541.5296 297.1568 335.2380 388.9186 29719.6394 -25.2565 27.9216
ENERGY: 1200000 1.5193 7.8760 2.0063 0.0000 -10890.4479 1447.1652 0.0000 0.0000 1786.4602 -7645.4209 301.6737 -9431.8810 -7549.0361 298.0468 -368.3797 -290.7114 30314.2403 -64.7225 -13.4609
ENERGY: 1500000 3.5606 4.3889 3.6038 0.0000 -10789.4109 1472.8529 0.0000 0.0000 1713.7528 -7591.2519 289.3959 -9305.0047 -7540.3868 298.4948 -153.1398 -157.4732 31488.0470 -92.7192 -39.6080
TCL: Running FEP window  12: Lambda1 0.5499999999999999 Lambda2 0.6    [dLambda 0.050000000000000044]
TCL: Setting parameter firsttimestep to 0
TCL: Setting parameter alchLambda to 0.5499999999999999
Info: NONBONDED TABLE R-SQUARED SPACING: 0.0625
Info: NONBONDED TABLE SIZE: 705 POINTS
TCL: Setting parameter alchLambda2 to 0.6
Info: NONBONDED TABLE R-SQUARED SPACING: 0.0625
Info: NONBONDED TABLE SIZE: 705 POINTS
TCL: Running for 1500000 steps
ETITLE: TS BOND ANGLE DIHED IMPRP ELECT VDW BOUNDARY MISC KINETIC TOTAL TEMP POTENTIAL TOTALAVG TEMPAVG PRESSURE GPRESSURE VOLUME PRESSAVG GPRESSAVG
ENERGY: 0 3.5606 4.3889 3.6038 0.0000 -10789.4668 1472.4377 0.0000 0.0000 1712.9042 -7592.5717 289.2525 -9305.4759 -7592.5717 289.2525 -225.0397 -157.1231 31488.0470 -225.0397 -157.1231
ENERGY: 300000 4.4810 5.3793 5.4364 0.0000 -10678.7880 1389.3406 0.0000 0.0000 1760.3772 -7513.7735 297.2692 -9274.1506 -7525.5086 298.1511 -543.6290 -446.7716 30799.2683 -13.6606 41.9385
ENERGY: 600000 0.9751 5.0848 2.1086 0.0000 -10644.6163 1325.0496 0.0000 0.0000 1822.2468 -7489.1514 307.7169 -9311.3982 -7528.6606 299.3876 -929.0155 -919.8469 30956.2327 -68.4874 -11.9874
ENERGY: 900000 0.5413 3.7184 5.1756 0.0000 -10682.5527 1418.1420 0.0000 0.0000 1825.5041 -7429.4714 308.2669 -9254.9754 -7515.6023 300.2690 137.3707 262.1550 30233.9073 -112.3605 -38.1563
ENERGY: 1200000 3.3811 5.0920 2.5285 0.0000 -10673.2988 1373.3982 0.0000 0.0000 1827.2424 -7461.6567 308.5605 -9288.8990 -7520.4665 300.1463 -688.0168 -619.3405 30853.6358 -211.9496 -137.6659
ENERGY: 1500000 1.9069 5.8037 1.1449 0.0000 -10633.9680 1362.6531 0.0000 0.0000 1820.7652 -7441.6943 307.4667 -9262.4595 -7521.1392 300.7155 -516.2387 -423.7090 30648.5519 -221.3294 -145.3400
TCL: Running FEP window  13: Lambda1 0.6    Lambda2 0.65   [dLambda 0.050000000000000044]
TCL: Setting parameter firsttimestep to 0
TCL: Setting parameter alchLambda to 0.6
Info: NONBONDED TABLE R-SQUARED SPACING: 0.0625
Info: NONBONDED TABLE SIZE: 705 POINTS
TCL: Setting parameter alchLambda2 to 0.65
Info: NONBONDED TABLE R-SQUARED SPACING: 0.0625
Info: NONBONDED TABLE SIZE: 705 POINTS
TCL: Running for 1500000 steps
ETITLE: TS BOND ANGLE DIHED IMPRP ELECT VDW BOUNDARY MISC KINETIC TOTAL TEMP POTENTIAL TOTALAVG TEMPAVG PRESSURE GPRESSURE VOLUME PRESSAVG GPRESSAVG
ENERGY: 0 1.9069 5.8037 1.1449 0.0000 -10634.1848 1362.7238 0.0000 0.0000 1819.9035 -7442.7022 307.3212 -9262.6056 -7442.7022 307.3212 -500.0143 -414.3623 30648.5519 -500.0143 -414.3623
ENERGY: 300000 2.4908 7.7105 3.3549 0.0000 -10803.4494 1451.9085 0.0000 0.0000 1782.1442 -7555.8405 300.9449 -9337.9847 -7500.6262 299.7186 -70.3438 -11.2174 30313.0007 -253.1100 -195.3666
ENERGY: 600000 4.2144 5.8034 1.8457 0.0000 -10637.1629 1357.5924 0.0000 0.0000 1778.5025 -7489.2044 300.3299 -9267.7070 -7499.1856 300.6569 -893.7272 -814.1755 30840.2356 -94.2461 -40.2644
ENERGY: 900000 1.8485 3.0190 3.3459 0.0000 -10633.3510 1410.4836 0.0000 0.0000 1791.3324 -7423.3216 302.4965 -9214.6540 -7498.8470 299.8339 78.3001 126.8454 30490.0414 -233.4239 -183.4963
ENERGY: 1200000 4.6421 3.9497 2.3871 0.0000 -10684.0528 1422.1727 0.0000 0.0000 1802.5739 -7448.3273 304.3948 -9250.9012 -7501.2475 300.1938 -164.3706 -143.0656 30496.6788 -114.8167 -58.6210
ENERGY: 1500000 3.1333 7.7728 1.5216 0.0000 -10619.2080 1399.1749 0.0000 0.0000 1804.6981 -7402.9074 304.7535 -9207.6055 -7494.9506 300.7410 -376.6312 -357.9448 31302.7643 -11.3479 44.5476
TCL: Running FEP window  14: Lambda1 0.65   Lambda2 0.7000000000000001 [dLambda 0.050000000000000044]
TCL: Setting parameter firsttimestep to 0
TCL: Setting parameter alchLambda to 0.65
Info: NONBONDED TABLE R-SQUARED SPACING: 0.0625
Info: NONBONDED TABLE SIZE: 705 POINTS
TCL: Setting parameter alchLambda2 to 0.7000000000000001
Info: NONBONDED TABLE R-SQUARED SPACING: 0.0625
Info: NONBONDED TABLE SIZE: 705 POINTS
TCL: Running for 1500000 steps
ETITLE: TS BOND ANGLE DIHED IMPRP ELECT VDW BOUNDARY MISC KINETIC TOTAL TEMP POTENTIAL TOTALAVG TEMPAVG PRESSURE GPRESSURE VOLUME PRESSAVG GPRESSAVG
ENERGY: 0 3.1333 7.7728 1.5216 0.0000 -10619.4656 1399.3608 0.0000 0.0000 1803.8177 -7403.8594 304.6048 -9207.6772 -7403.8594 304.6048 -426.7192 -349.4824 31302.7643 -426.7192 -349.4824
ENERGY: 300000 2.7173 5.5041 1.5391 0.0000 -10787.0017 1423.4765 0.0000 0.0000 1775.0837 -7578.6810 299.7526 -9353.7647 -7497.6096 305.3945 -310.2018 -306.5767 30537.6621 105.4350 143.6006
ENERGY: 600000 3.2406 10.9041 2.6568 0.0000 -10845.5331 1474.9730 0.0000 0.0000 1749.4055 -7604.3532 295.4164 -9353.7587 -7519.7325 301.0802 365.6449 421.5164 30336.4888 300.9642 347.2224
ENERGY: 900000 5.3536 7.1891 1.5089 0.0000 -10671.6866 1396.5886 0.0000 0.0000 1786.6432 -7474.4033 301.7046 -9261.0465 -7507.7257 301.8693 -487.7464 -425.7034 30758.8567 228.8482 281.1852
ENERGY: 1200000 1.6985 5.7431 4.1340 0.0000 -10677.1424 1339.8114 0.0000 0.0000 1764.3529 -7561.4026 297.9405 -9325.7555 -7514.2627 301.7674 -797.6822 -672.4725 30585.0199 96.2759 150.1643
ENERGY: 1500000 2.1061 3.5531 5.2382 0.0000 -10787.0073 1453.7419 0.0000 0.0000 1803.5885 -7518.7793 304.5661 -9322.3679 -7511.1133 302.2391 -37.7268 -12.2471 30581.2087 100.7201 160.4851
TCL: Running FEP window  15: Lambda1 0.7000000000000001 Lambda2 0.7500000000000001 [dLambda 0.050000000000000044]
TCL: Setting parameter firsttimestep to 0
TCL: Setting parameter alchLambda to 0.7000000000000001
Info: NONBONDED TABLE R-SQUARED SPACING: 0.0625
Info: NONBONDED TABLE SIZE: 705 POINTS
TCL: Setting parameter alchLambda2 to 0.7500000000000001
Info: NONBONDED TABLE R-SQUARED SPACING: 0.0625
Info: NONBONDED TABLE SIZE: 705 POINTS
TCL: Running for 1500000 steps
ETITLE: TS BOND ANGLE DIHED IMPRP ELECT VDW BOUNDARY MISC KINETIC TOTAL TEMP POTENTIAL TOTALAVG TEMPAVG PRESSURE GPRESSURE VOLUME PRESSAVG GPRESSAVG
ENERGY: 0 2.1061 3.5531 5.2382 0.0000 -10787.2400 1453.7309 0.0000 0.0000 1802.6925 -7519.9192 304.4148 -9322.6116 -7519.9192 304.4148 -93.2064 -5.5524 30581.2087 -93.2064 -5.5524
ENERGY: 300000 1.5782 5.4916 1.2656 0.0000 -10865.9608 1524.2585 0.0000 0.0000 1848.9682 -7484.3988 312.2292 -9333.3670 -7520.6224 304.9557 520.1559 604.6769 30588.7213 146.0474 217.7149
ENERGY: 600000 2.5980 5.1193 2.7478 0.0000 -10819.6409 1440.8283 0.0000 0.0000 1827.7733 -7540.5742 308.6501 -9368.3475 -7533.5141 305.2107 -128.4093 -79.4515 30361.6228 122.0316 174.0012
ENERGY: 900000 4.6720 7.2399 3.9441 0.0000 -10860.2502 1477.9906 0.0000 0.0000 1800.1838 -7566.2197 303.9912 -9366.4036 -7530.8491 305.1872 207.3378 257.9390 30153.8272 155.6199 208.1430
ENERGY: 1200000 2.5185 3.2813 2.6936 0.0000 -10798.5250 1443.0689 0.0000 0.0000 1801.4038 -7545.5590 304.1972 -9346.9628 -7521.7196 304.9778 -56.2506 36.8566 30500.4754 27.1244 89.1330
ENERGY: 1500000 3.5815 6.7645 3.5542 0.0000 -10727.4454 1363.6211 0.0000 0.0000 1831.2736 -7518.6504 309.2412 -9349.9240 -7517.2136 304.3331 -648.6103 -649.9659 30743.1390 -22.8334 38.0480
TCL: Running FEP window  16: Lambda1 0.7500000000000001 Lambda2 0.8000000000000002 [dLambda 0.050000000000000044]
TCL: Setting parameter firsttimestep to 0
TCL: Setting parameter alchLambda to 0.7500000000000001
Info: NONBONDED TABLE R-SQUARED SPACING: 0.0625
Info: NONBONDED TABLE SIZE: 705 POINTS
TCL: Setting parameter alchLambda2 to 0.8000000000000002
Info: NONBONDED TABLE R-SQUARED SPACING: 0.0625
Info: NONBONDED TABLE SIZE: 705 POINTS
TCL: Running for 1500000 steps
ETITLE: TS BOND ANGLE DIHED IMPRP ELECT VDW BOUNDARY MISC KINETIC TOTAL TEMP POTENTIAL TOTALAVG TEMPAVG PRESSURE GPRESSURE VOLUME PRESSAVG GPRESSAVG
ENERGY: 0 3.5815 6.7646 3.5542 0.0000 -10727.5444 1363.1928 0.0000 0.0000 1830.3807 -7520.0707 309.0904 -9350.4514 -7520.0707 309.0904 -725.1765 -646.6719 30743.1390 -725.1765 -646.6719
ENERGY: 300000 1.8392 6.4987 3.0707 0.0000 -10585.9156 1360.6221 0.0000 0.0000 1819.1602 -7394.7248 307.1956 -9213.8850 -7517.5806 303.0869 -502.9653 -485.5814 30879.2705 -475.5835 -417.0854
ENERGY: 600000 2.5565 7.2677 1.9540 0.0000 -10883.6418 1522.7788 0.0000 0.0000 1802.8813 -7546.2036 304.4467 -9349.0849 -7520.9222 302.4285 324.6347 425.6043 30768.2269 -70.8927 7.4038
ENERGY: 900000 3.0843 4.2313 5.0191 0.0000 -10592.9740 1309.8473 0.0000 0.0000 1751.1803 -7519.6117 295.7161 -9270.7920 -7533.0008 300.1241 -1372.7355 -1350.4209 31548.8061 -87.1348 -15.8645
ENERGY: 1200000 2.6791 2.6461 2.0418 0.0000 -10573.0541 1362.6417 0.0000 0.0000 1793.5706 -7409.4748 302.8744 -9203.0454 -7527.0395 299.1219 -523.6454 -429.8354 30677.2141 -95.5622 -25.3669
ENERGY: 1500000 3.3686 6.5545 1.1166 0.0000 -10794.2804 1474.9741 0.0000 0.0000 1790.6877 -7517.5790 302.3876 -9308.2667 -7523.7524 299.4932 157.1642 273.6435 30878.3784 -140.3994 -67.5072
TCL: Running FEP window  17: Lambda1 0.8000000000000002 Lambda2 0.8500000000000002 [dLambda 0.050000000000000044]
TCL: Setting parameter firsttimestep to 0
TCL: Setting parameter alchLambda to 0.8000000000000002
Info: NONBONDED TABLE R-SQUARED SPACING: 0.0625
Info: NONBONDED TABLE SIZE: 705 POINTS
TCL: Setting parameter alchLambda2 to 0.8500000000000002
Info: NONBONDED TABLE R-SQUARED SPACING: 0.0625
Info: NONBONDED TABLE SIZE: 705 POINTS
TCL: Running for 1500000 steps
ETITLE: TS BOND ANGLE DIHED IMPRP ELECT VDW BOUNDARY MISC KINETIC TOTAL TEMP POTENTIAL TOTALAVG TEMPAVG PRESSURE GPRESSURE VOLUME PRESSAVG GPRESSAVG
ENERGY: 0 3.3686 6.5545 1.1166 0.0000 -10795.1984 1475.6609 0.0000 0.0000 1789.8269 -7518.6708 302.2422 -9308.4978 -7518.6708 302.2422 213.7876 289.8630 30878.3784 213.7876 289.8630
ENERGY: 300000 5.4357 4.1193 3.1516 0.0000 -10745.9655 1395.9060 0.0000 0.0000 1757.2486 -7580.1045 296.7408 -9337.3531 -7566.8291 301.4543 -353.0702 -245.5729 30234.9260 199.5327 247.6074
ENERGY: 600000 1.4502 6.0884 2.3677 0.0000 -10760.9608 1393.8351 0.0000 0.0000 1777.8633 -7579.3561 300.2220 -9357.2194 -7566.8636 300.8373 -743.7569 -633.0409 31060.1149 -0.8732 58.2215
ENERGY: 900000 2.4661 6.3537 4.3023 0.0000 -10751.4421 1420.7636 0.0000 0.0000 1718.2663 -7599.2901 290.1580 -9317.5564 -7583.5538 298.1852 -535.5841 -460.0865 31082.4673 -42.1663 31.8263
ENERGY: 1200000 2.0380 4.6640 4.9720 0.0000 -10765.6981 1513.5820 0.0000 0.0000 1770.3252 -7470.1167 298.9491 -9240.4420 -7567.5900 298.5657 449.9186 540.0796 31028.3729 2.9338 79.0790
ENERGY: 1500000 2.6536 3.5628 4.0543 0.0000 -10687.9464 1410.6854 0.0000 0.0000 1840.3160 -7426.6744 310.7682 -9266.9904 -7553.7351 299.2433 -131.8691 -78.0625 30683.8613 -29.8730 41.9988
TCL: Running FEP window  18: Lambda1 0.8500000000000002 Lambda2 0.9000000000000002 [dLambda 0.050000000000000044]
TCL: Setting parameter firsttimestep to 0
TCL: Setting parameter alchLambda to 0.8500000000000002
Info: NONBONDED TABLE R-SQUARED SPACING: 0.0625
Info: NONBONDED TABLE SIZE: 705 POINTS
TCL: Setting parameter alchLambda2 to 0.9000000000000002
Info: NONBONDED TABLE R-SQUARED SPACING: 0.0625
Info: NONBONDED TABLE SIZE: 705 POINTS
TCL: Running for 1500000 steps
ETITLE: TS BOND ANGLE DIHED IMPRP ELECT VDW BOUNDARY MISC KINETIC TOTAL TEMP POTENTIAL TOTALAVG TEMPAVG PRESSURE GPRESSURE VOLUME PRESSAVG GPRESSAVG
ENERGY: 0 2.6536 3.5628 4.0543 0.0000 -10688.6169 1411.1427 0.0000 0.0000 1839.4552 -7427.7484 310.6228 -9267.2036 -7427.7484 310.6228 -144.3254 -65.7987 30683.8613 -144.3254 -65.7987
ENERGY: 300000 3.0963 3.1941 1.0510 0.0000 -10626.7583 1381.2377 0.0000 0.0000 1798.9689 -7439.2103 303.7860 -9238.1792 -7479.3317 302.9631 -335.6189 -305.5110 30651.6678 -411.2350 -342.0114
ENERGY: 600000 1.6424 5.1878 4.0779 0.0000 -10701.1885 1397.9152 0.0000 0.0000 1702.9132 -7589.4519 287.5654 -9292.3651 -7496.9509 300.4321 -390.3155 -322.2346 30748.7511 -422.6599 -365.7291
ENERGY: 900000 1.1447 6.3320 2.9231 0.0000 -10843.0051 1457.5451 0.0000 0.0000 1811.5866 -7563.4735 305.9167 -9375.0601 -7519.7180 300.0764 80.4797 125.1341 30589.4194 -295.1957 -233.8592
ENERGY: 1200000 4.1181 10.2114 1.8681 0.0000 -10813.4167 1466.3281 0.0000 0.0000 1786.5924 -7544.2986 301.6960 -9330.8911 -7526.6721 299.8130 84.0639 138.1058 30452.5863 -255.6458 -191.2889
ENERGY: 1500000 1.1279 4.9696 2.5449 0.0000 -10749.2527 1422.5920 0.0000 0.0000 1821.9351 -7496.0832 307.6642 -9318.0183 -7528.4491 299.9135 -79.1281 20.7159 30529.3103 -218.1338 -157.7370
TCL: Running FEP window  19: Lambda1 0.9000000000000002 Lambda2 0.9500000000000003 [dLambda 0.050000000000000044]
TCL: Setting parameter firsttimestep to 0
TCL: Setting parameter alchLambda to 0.9000000000000002
Info: NONBONDED TABLE R-SQUARED SPACING: 0.0625
Info: NONBONDED TABLE SIZE: 705 POINTS
TCL: Setting parameter alchLambda2 to 0.9500000000000003
Info: NONBONDED TABLE R-SQUARED SPACING: 0.0625
Info: NONBONDED TABLE SIZE: 705 POINTS
TCL: Running for 1500000 steps
ETITLE: TS BOND ANGLE DIHED IMPRP ELECT VDW BOUNDARY MISC KINETIC TOTAL TEMP POTENTIAL TOTALAVG TEMPAVG PRESSURE GPRESSURE VOLUME PRESSAVG GPRESSAVG
ENERGY: 0 1.1279 4.9696 2.5449 0.0000 -10749.7116 1422.4371 0.0000 0.0000 1821.0495 -7497.5826 307.5147 -9318.6321 -7497.5826 307.5147 -47.7930 30.2213 30529.3103 -47.7930 30.2213
ENERGY: 300000 3.0550 3.5848 2.0264 0.0000 -10765.2631 1383.3171 0.0000 0.0000 1786.5114 -7586.7685 301.6824 -9373.2799 -7518.3690 304.9297 -899.3153 -851.4536 30929.9810 78.4609 147.6497
ENERGY: 600000 1.8617 4.8190 2.3251 0.0000 -10915.4542 1515.6089 0.0000 0.0000 1797.5183 -7593.3212 303.5411 -9390.8395 -7549.0774 302.7073 455.2920 463.1992 30537.7143 124.3795 172.6052
ENERGY: 900000 1.6725 6.0454 0.8845 0.0000 -10842.7161 1520.6592 0.0000 0.0000 1809.0964 -7504.3583 305.4962 -9313.4546 -7545.4668 303.4477 788.2956 860.9200 30146.0499 88.1127 148.8875
ENERGY: 1200000 3.3092 8.3219 3.4634 0.0000 -10575.1531 1372.2084 0.0000 0.0000 1787.0436 -7400.8066 301.7722 -9187.8502 -7524.8204 303.1030 -176.6373 -16.2478 30647.6409 100.3227 174.6794
ENERGY: 1500000 2.1764 6.8149 2.4776 0.0000 -10899.9930 1506.2840 0.0000 0.0000 1810.2150 -7572.0251 305.6851 -9382.2401 -7528.0137 303.3498 423.2499 483.9378 30256.4934 193.5734 260.4729
TCL: Running FEP window  20: Lambda1 0.9500000000000003 Lambda2 1.0    [dLambda 0.04999999999999971]
TCL: Setting parameter firsttimestep to 0
TCL: Setting parameter alchLambda to 0.9500000000000003
Info: NONBONDED TABLE R-SQUARED SPACING: 0.0625
Info: NONBONDED TABLE SIZE: 705 POINTS
TCL: Setting parameter alchLambda2 to 1.0
Info: NONBONDED TABLE R-SQUARED SPACING: 0.0625
Info: NONBONDED TABLE SIZE: 705 POINTS
TCL: Running for 1500000 steps
ETITLE: TS BOND ANGLE DIHED IMPRP ELECT VDW BOUNDARY MISC KINETIC TOTAL TEMP POTENTIAL TOTALAVG TEMPAVG PRESSURE GPRESSURE VOLUME PRESSAVG GPRESSAVG
ENERGY: 0 2.1764 6.8149 2.4776 0.0000 -10900.6561 1505.9957 0.0000 0.0000 1809.3500 -7573.8415 305.5390 -9383.1915 -7573.8415 305.5390 415.1902 491.0112 30256.4934 415.1902 491.0112
ENERGY: 300000 0.3590 7.2366 2.8867 0.0000 -10860.6312 1500.3370 0.0000 0.0000 1829.3157 -7520.4962 308.9106 -9349.8119 -7530.6307 304.2130 497.7630 556.5310 30396.3357 67.2629 134.5254
ENERGY: 600000 2.8045 5.0266 1.3038 0.0000 -10837.2482 1515.6919 0.0000 0.0000 1835.1904 -7477.2310 309.9026 -9312.4214 -7534.1450 304.4549 737.3184 759.5102 30053.7785 104.3921 160.2357
ENERGY: 900000 2.7982 6.5160 1.3201 0.0000 -10691.0906 1360.6457 0.0000 0.0000 1851.7199 -7468.0906 312.6939 -9319.8105 -7537.5160 304.0302 -633.5470 -659.1023 30688.0972 -82.9260 -37.0758
ENERGY: 1200000 0.9039 3.5067 1.0804 0.0000 -10769.7045 1402.2877 0.0000 0.0000 1777.9725 -7583.9532 300.2404 -9361.9257 -7539.1475 304.2513 -386.4066 -319.9372 30459.9810 -92.4861 -44.4703
ENERGY: 1500000 2.1572 4.9822 3.3075 0.0000 -10912.0617 1499.8166 0.0000 0.0000 1755.4860 -7646.3122 296.4432 -9401.7982 -7544.2387 303.3396 333.1360 411.3635 30057.9301 -68.6750 -23.4032
TCL: Exiting due to exit command.
