Info: SIMULATION PARAMETERS:
Info: TIMESTEP               2
Info: NUMBER OF STEPS        0
Info: STEPS PER CYCLE        10
Info: PERIODIC CELL BASIS 1  31.8432 0 0
Info: PERIODIC CELL BASIS 2  0 31.7205 0
Info: PERIODIC CELL BASIS 3  0 0 28.9523
Info: PERIODIC CELL CENTER   0 0 0
Info: WRAPPING WATERS AROUND PERIODIC BOUNDARIES ON OUTPUT.
Info: WRAPPING ALL CLUSTERS AROUND PERIODIC BOUNDARIES ON OUTPUT.
Info: FIRST LDB TIMESTEP     50
Info: LAST LDB TIMESTEP     -1
Info: HOM BACKGROUND SCALING 1
Info: PME BACKGROUND SCALING 1
Info: MIN ATOMS PER PATCH    40
Info: EMPTY PATCH LOAD       40 ATOMS
Info: VELOCITY FILE          mobley_3715043_equil.vel
Info: CENTER OF MASS MOVING INITIALLY? NO
Info: DIELECTRIC             1
Info: EXCLUDE                SCALED ONE-FOUR
Info: 1-4 ELECTROSTATICS SCALED BY 0.833333
Info: MODIFIED 1-4 VDW PARAMETERS WILL BE USED
Info: DCD FILENAME           mobley_3715043_prod.dcd
Info: DCD FREQUENCY          100000
Info: DCD FIRST STEP         100000
Info: DCD FILE WILL CONTAIN UNIT CELL DATA
Info: XST FILENAME           mobley_3715043_prod.xst
Info: XST FREQUENCY          100000
Info: NO VELOCITY DCD OUTPUT
Info: NO FORCE DCD OUTPUT
Info: OUTPUT FILENAME        mobley_3715043_prod
Info: BINARY OUTPUT FILES WILL BE USED
Info: RESTART FILENAME       mobley_3715043_prod.restart
Info: RESTART FREQUENCY      100000
Info: BINARY RESTART FILES WILL BE USED
Info: CUTOFF                 9
Info: PAIRLIST DISTANCE      11
Info: PAIRLIST SHRINK RATE   0.01
Info: PAIRLIST GROW RATE     0.01
Info: PAIRLIST TRIGGER       0.3
Info: PAIRLISTS PER CYCLE    2
Info: PAIRLISTS ENABLED
Info: MARGIN                 2
Info: HYDROGEN GROUP CUTOFF  2.5
Info: PATCH DIMENSION        15.5
Info: ENERGY OUTPUT STEPS    100000
Info: ENERGY EVALUATION STEPS    100000
Info: OUTPUT ENERGY PRECISION 4
Info: CROSSTERM ENERGY INCLUDED IN DIHEDRAL
Info: TIMING OUTPUT STEPS    1000000
Info: PRESSURE OUTPUT STEPS  100000
Info: ALCHEMICAL FEP ON
Info: FEP CURRENT LAMBDA VALUE     1
Info: FEP COMPARISON LAMBDA VALUE  0.95
Info: FEP INTRA-ALCHEMICAL NON-BONDED INTERACTIONS WILL BE RETAINED
Info: FEP INTRA-ALCHEMICAL BONDED INTERACTIONS WILL BE RETAINED
Info: FEP VDW SHIFTING COEFFICIENT 5
Info: FEP ELEC. ACTIVE FOR ANNIHILATED PARTICLES BETWEEN LAMBDA = 0 AND LAMBDA = 0.5
Info: FEP ELEC. ACTIVE FOR EXNIHILATED PARTICLES BETWEEN LAMBDA = 0.5 AND LAMBDA = 1
Info: FEP VDW ACTIVE FOR ANNIHILATED PARTICLES BETWEEN LAMBDA = 0 AND LAMBDA = 1
Info: FEP VDW ACTIVE FOR EXNIHILATED PARTICLES BETWEEN LAMBDA = 0 AND LAMBDA = 1
Info: FEP BOND ACTIVE FOR ANNIHILATED PARTICLES BETWEEN LAMBDA = 1 AND LAMBDA = 1
Info: FEP BOND ACTIVE FOR EXNIHILATED PARTICLES BETWEEN LAMBDA = 0 AND LAMBDA = 0
Info: LANGEVIN DYNAMICS ACTIVE
Info: LANGEVIN TEMPERATURE   300
Info: LANGEVIN USING BBK INTEGRATOR
Info: LANGEVIN DAMPING COEFFICIENT IS 1 INVERSE PS
Info: LANGEVIN DYNAMICS APPLIED TO HYDROGENS
Info: LANGEVIN PISTON PRESSURE CONTROL ACTIVE
Info:        TARGET PRESSURE IS 1.01325 BAR
Info:     OSCILLATION PERIOD IS 50 FS
Info:             DECAY TIME IS 25 FS
Info:     PISTON TEMPERATURE IS 300 K
Info:       PRESSURE CONTROL IS GROUP-BASED
Info:    INITIAL STRAIN RATE IS -0.000935862 -0.000935862 -0.000935862
Info:       CELL FLUCTUATION IS ISOTROPIC
Info: PARTICLE MESH EWALD (PME) ACTIVE
Info: PME TOLERANCE               1e-06
Info: PME EWALD COEFFICIENT       0.348832
Info: PME INTERPOLATION ORDER     4
Info: PME GRID DIMENSIONS         32 32 32
Info: PME MAXIMUM GRID SPACING    1
Info: PME CALCULATION WILL BE PERFORMED ON GPU
Info: FULL ELECTROSTATIC EVALUATION FREQUENCY      2
Info: USING VERLET I (r-RESPA) MTS SCHEME.
Info: C1 SPLITTING OF LONG RANGE ELECTROSTATICS
Info: PLACING ATOMS IN PATCHES BY HYDROGEN GROUPS
Info: RIGID BONDS TO HYDROGEN : ALL
Info:         ERROR TOLERANCE : 1e-08
Info:          MAX ITERATIONS : 100
Info: RIGID WATER USING SETTLE ALGORITHM
Info: RANDOM NUMBER SEED     1743651179
Info: USE HYDROGEN BONDS?    NO
Info: Using AMBER format force field!
Info: AMBER PARM FILE        mobley_3715043.prmtop
Info: COORDINATE PDB         mobley_3715043.pdb
Info: Exclusions will be read from PARM file!
Info: SCNB (VDW SCALING)     2
Info: USING ARITHMETIC MEAN TO COMBINE L-J SIGMA PARAMETERS
Info: BINARY COORDINATES     mobley_3715043_equil.coor
Info: SUMMARY OF PARAMETERS:
Info: 6 BONDS
Info: 5 ANGLES
Info:   5 HARMONIC
Info:   0 COSINE-BASED
Info: 3 DIHEDRAL
Info: 0 IMPROPER
Info: 0 CROSSTERM
Info: 0 VDW
Info: 21 VDW_PAIRS
Info: 0 NBTHOLE_PAIRS
Info: To read alchdata from file: mobley_3715043.pdb
Info: To read alchflag data from column: 5
Info: STRUCTURE SUMMARY:
Info: 2904 ATOMS
Info: 2905 BONDS
Info: 42 ANGLES
Info: 66 DIHEDRALS
Info: 0 IMPROPERS
Info: 0 CROSSTERMS
Info: 2997 EXCLUSIONS
Info: 2892 RIGID BONDS
Info: ALCH: 0 ATOMS TO DISAPPEAR IN FINAL STATE
Info: ALCH: 24 ATOMS TO APPEAR IN FINAL STATE
Info: 5820 DEGREES OF FREEDOM
Info: 972 HYDROGEN GROUPS
Info: 4 ATOMS IN LARGEST HYDROGEN GROUP
Info: 972 MIGRATION GROUPS
Info: 4 ATOMS IN LARGEST MIGRATION GROUP
Info: TOTAL MASS = 17451.6 amu
Info: TOTAL CHARGE = -0.000100028 e
Info: MASS DENSITY = 0.990952 g/cm^3
Info: ATOM DENSITY = 0.0993014 atoms/A^3
Info: ADDED 0 IMPLICIT EXCLUSIONS
Info: NONBONDED TABLE R-SQUARED SPACING: 0.0625
Info: NONBONDED TABLE SIZE: 705 POINTS
Info: REDUCING NUMBER OF PATCHES TO IMPROVE LOAD BALANCE
Info: REMOVING COM VELOCITY 0.0873315 -0.102433 -0.0048969
Info: Use 3D box decompostion in PME FFT.
Info: Updated CUDA force table with 4096 elements.
Info: Updated CUDA LJ table with 6 x 6 elements.
Info: Found 24 unique exclusion lists needing 80 bytes
TCL: Running for 1500000 steps
ETITLE: TS BOND ANGLE DIHED IMPRP ELECT VDW BOUNDARY MISC KINETIC TOTAL TEMP POTENTIAL TOTALAVG TEMPAVG PRESSURE GPRESSURE VOLUME PRESSAVG GPRESSAVG
ENERGY: 0 3.3074 5.3161 3.3023 0.0000 -10627.1037 1478.1968 0.0000 0.0000 1707.4933 -7429.4878 295.2748 -9136.9812 -7429.4878 295.2748 586.7080 673.6344 29244.3129 586.7080 673.6344
ENERGY: 300000 7.8916 6.0306 3.6089 0.0000 -10522.5063 1409.9185 0.0000 0.0000 1731.8803 -7363.1765 299.4920 -9095.0568 -7373.4811 299.8542 -81.5768 -73.7125 29649.2855 76.0105 130.3005
ENERGY: 600000 8.3237 6.9006 5.5250 0.0000 -10567.0414 1472.5712 0.0000 0.0000 1751.5316 -7322.1893 302.8903 -9073.7209 -7362.6344 299.9630 481.7796 561.4912 29938.9201 57.4353 106.3002
ENERGY: 900000 7.5621 9.9339 8.9336 0.0000 -10486.0846 1360.7412 0.0000 0.0000 1748.7964 -7350.1175 302.4173 -9098.9139 -7352.1808 301.6131 -883.1993 -882.7640 30352.3624 -85.0346 -40.9131
ENERGY: 1200000 5.3030 5.7431 5.2609 0.0000 -10544.1245 1434.8776 0.0000 0.0000 1741.2262 -7351.7136 301.1082 -9092.9398 -7354.3012 301.1553 51.7432 107.0348 30159.8635 -69.7939 -27.6001
ENERGY: 1500000 2.1663 9.7332 4.8272 0.0000 -10422.6294 1389.4679 0.0000 0.0000 1704.5848 -7311.8500 294.7718 -9016.4347 -7351.2729 300.9562 -317.8837 -329.6293 30558.6694 -84.4875 -41.9919
TCL: Running FEP window   2: Lambda1 0.95   Lambda2 0.8999999999999999 [dLambda -0.050000000000000044]
TCL: Setting parameter firsttimestep to 0
TCL: Setting parameter alchLambda to 0.95
Info: NONBONDED TABLE R-SQUARED SPACING: 0.0625
Info: NONBONDED TABLE SIZE: 705 POINTS
TCL: Setting parameter alchLambda2 to 0.8999999999999999
Info: NONBONDED TABLE R-SQUARED SPACING: 0.0625
Info: NONBONDED TABLE SIZE: 705 POINTS
TCL: Running for 1500000 steps
ETITLE: TS BOND ANGLE DIHED IMPRP ELECT VDW BOUNDARY MISC KINETIC TOTAL TEMP POTENTIAL TOTALAVG TEMPAVG PRESSURE GPRESSURE VOLUME PRESSAVG GPRESSAVG
ENERGY: 0 2.1663 9.7332 4.8272 0.0000 -10421.6114 1389.1522 0.0000 0.0000 1703.7223 -7312.0101 294.6227 -9015.7324 -7312.0101 294.6227 -448.5904 -352.2562 30558.6694 -448.5904 -352.2562
ENERGY: 300000 3.7530 6.9458 3.8437 0.0000 -10332.0719 1323.7937 0.0000 0.0000 1727.8317 -7265.9040 298.7919 -8993.7357 -7320.9861 299.5524 -830.3520 -742.9613 30591.6068 -388.6436 -302.0741
ENERGY: 600000 7.1182 9.7768 3.4699 0.0000 -10457.3454 1403.2423 0.0000 0.0000 1730.5013 -7303.2368 299.2536 -9033.7381 -7315.9174 300.3577 -61.5584 -36.9949 29897.9579 -292.8228 -218.4634
ENERGY: 900000 3.3052 9.7544 5.3097 0.0000 -10425.0797 1351.1098 0.0000 0.0000 1732.0288 -7323.5717 299.5177 -9055.6006 -7306.4738 300.6296 -472.9369 -398.3986 29893.5340 -378.6745 -311.0473
ENERGY: 1200000 4.5500 8.5856 3.5180 0.0000 -10502.8039 1427.3167 0.0000 0.0000 1739.3649 -7319.4687 300.7863 -9058.8336 -7316.0505 300.4397 -197.1974 -108.6735 30521.5797 -302.0526 -239.1627
ENERGY: 1500000 5.1099 9.2320 2.3664 0.0000 -10512.8876 1338.2357 0.0000 0.0000 1749.8149 -7408.1287 302.5934 -9157.9436 -7330.3379 299.9125 -892.3358 -784.3751 29962.2586 -326.2032 -258.2041
TCL: Running FEP window   3: Lambda1 0.8999999999999999 Lambda2 0.8499999999999999 [dLambda -0.050000000000000044]
TCL: Setting parameter firsttimestep to 0
TCL: Setting parameter alchLambda to 0.8999999999999999
Info: NONBONDED TABLE R-SQUARED SPACING: 0.0625
Info: NONBONDED TABLE SIZE: 705 POINTS
TCL: Setting parameter alchLambda2 to 0.8499999999999999
Info: NONBONDED TABLE R-SQUARED SPACING: 0.0625
Info: NONBONDED TABLE SIZE: 705 POINTS
TCL: Running for 1500000 steps
ETITLE: TS BOND ANGLE DIHED IMPRP ELECT VDW BOUNDARY MISC KINETIC TOTAL TEMP POTENTIAL TOTALAVG TEMPAVG PRESSURE GPRESSURE VOLUME PRESSAVG GPRESSAVG
ENERGY: 0 5.1099 9.2320 2.3664 0.0000 -10511.8552 1338.6788 0.0000 0.0000 1748.9076 -7407.5604 302.4365 -9156.4680 -7407.5604 302.4365 -872.3153 -791.5534 29962.2586 -872.3153 -791.5534
ENERGY: 300000 1.9350 8.9040 2.4958 0.0000 -10560.8405 1515.3217 0.0000 0.0000 1787.9584 -7244.2256 309.1895 -9032.1840 -7340.8005 305.7268 1019.0244 1030.3600 29983.1747 0.0351 57.4901
ENERGY: 600000 5.1050 7.5380 3.8716 0.0000 -10460.0715 1365.1154 0.0000 0.0000 1741.1927 -7337.2488 301.1024 -9078.4415 -7326.6874 303.9879 -326.2629 -244.3353 30130.6270 94.6717 178.9835
ENERGY: 900000 6.4359 6.7160 4.4744 0.0000 -10480.7778 1365.9275 0.0000 0.0000 1787.1771 -7310.0467 309.0544 -9097.2239 -7331.3125 302.5851 -477.2722 -384.8021 29667.3173 -34.7291 46.1014
ENERGY: 1200000 2.8686 7.9063 6.6085 0.0000 -10376.2677 1351.8552 0.0000 0.0000 1756.7759 -7250.2532 303.7972 -9007.0291 -7320.4687 302.6411 -234.4131 -103.9355 30334.1692 -77.2900 6.6013
ENERGY: 1500000 3.7730 7.6775 4.2065 0.0000 -10550.7740 1455.0999 0.0000 0.0000 1721.3109 -7358.7063 297.6643 -9080.0172 -7329.2377 301.5644 172.7870 180.1283 29901.3741 -99.8386 -22.9707
TCL: Running FEP window   4: Lambda1 0.8499999999999999 Lambda2 0.7999999999999998 [dLambda -0.050000000000000044]
TCL: Setting parameter firsttimestep to 0
TCL: Setting parameter alchLambda to 0.8499999999999999
Info: NONBONDED TABLE R-SQUARED SPACING: 0.0625
Info: NONBONDED TABLE SIZE: 705 POINTS
TCL: Setting parameter alchLambda2 to 0.7999999999999998
Info: NONBONDED TABLE R-SQUARED SPACING: 0.0625
Info: NONBONDED TABLE SIZE: 705 POINTS
TCL: Running for 1500000 steps
ETITLE: TS BOND ANGLE DIHED IMPRP ELECT VDW BOUNDARY MISC KINETIC TOTAL TEMP POTENTIAL TOTALAVG TEMPAVG PRESSURE GPRESSURE VOLUME PRESSAVG GPRESSAVG
ENERGY: 0 3.7730 7.6775 4.2065 0.0000 -10550.2052 1455.4744 0.0000 0.0000 1720.4116 -7358.6622 297.5088 -9079.0739 -7358.6622 297.5088 86.6539 172.3866 29901.3741 86.6539 172.3866
ENERGY: 300000 7.0284 6.3234 7.8235 0.0000 -10579.1869 1436.7199 0.0000 0.0000 1761.6306 -7359.6610 304.6367 -9121.2917 -7379.9738 299.7324 242.8866 288.7127 30119.2257 -104.7101 -57.8703
ENERGY: 600000 4.1816 6.7571 2.6025 0.0000 -10383.4002 1354.5973 0.0000 0.0000 1703.6830 -7311.5788 294.6159 -9015.2618 -7338.8008 300.5165 -283.5496 -223.7464 29790.2236 -113.7509 -73.4401
ENERGY: 900000 3.8385 7.3893 4.5001 0.0000 -10449.8515 1444.6619 0.0000 0.0000 1778.9277 -7210.5339 307.6279 -8989.4616 -7319.8458 301.2798 461.0141 516.6342 29966.3505 -84.1323 -37.5693
ENERGY: 1200000 5.4433 11.8232 2.7989 0.0000 -10499.1268 1464.7490 0.0000 0.0000 1682.2966 -7332.0157 290.9176 -9014.3123 -7324.3303 300.1937 518.0096 567.1486 29793.7938 58.2052 111.3644
ENERGY: 1500000 5.7509 7.3938 4.6020 0.0000 -10454.0528 1395.5764 0.0000 0.0000 1783.3547 -7257.3750 308.3934 -9040.7297 -7323.2363 301.0314 -62.3090 -3.2918 29684.5150 75.8514 131.5230
TCL: Running FEP window   5: Lambda1 0.7999999999999998 Lambda2 0.7499999999999998 [dLambda -0.050000000000000044]
TCL: Setting parameter firsttimestep to 0
TCL: Setting parameter alchLambda to 0.7999999999999998
Info: NONBONDED TABLE R-SQUARED SPACING: 0.0625
Info: NONBONDED TABLE SIZE: 705 POINTS
TCL: Setting parameter alchLambda2 to 0.7499999999999998
Info: NONBONDED TABLE R-SQUARED SPACING: 0.0625
Info: NONBONDED TABLE SIZE: 705 POINTS
TCL: Running for 1500000 steps
ETITLE: TS BOND ANGLE DIHED IMPRP ELECT VDW BOUNDARY MISC KINETIC TOTAL TEMP POTENTIAL TOTALAVG TEMPAVG PRESSURE GPRESSURE VOLUME PRESSAVG GPRESSAVG
ENERGY: 0 5.7509 7.3938 4.6020 0.0000 -10453.2714 1395.8603 0.0000 0.0000 1782.5035 -7257.1608 308.2462 -9039.6643 -7257.1608 308.2462 -105.9184 -13.3750 29684.5150 -105.9184 -13.3750
ENERGY: 300000 4.0375 5.5356 4.7673 0.0000 -10476.1610 1452.3654 0.0000 0.0000 1736.4395 -7273.0157 300.2804 -9009.4552 -7277.8682 300.7668 463.5276 422.1558 30299.2331 -169.8482 -120.1998
ENERGY: 600000 4.1552 9.9252 5.0042 0.0000 -10658.5050 1579.7502 0.0000 0.0000 1642.3134 -7417.3567 284.0033 -9059.6701 -7310.2569 297.4868 1089.4397 1196.9727 29926.5405 41.6102 112.7288
ENERGY: 900000 5.2369 9.6994 1.6768 0.0000 -10521.9779 1481.6787 0.0000 0.0000 1783.8442 -7239.8419 308.4781 -9023.6861 -7304.3173 299.2528 666.7909 677.9996 29622.8173 184.0988 244.4767
ENERGY: 1200000 4.9933 9.6700 2.0873 0.0000 -10368.5265 1379.5892 0.0000 0.0000 1728.5959 -7243.5908 298.9241 -8972.1867 -7303.2456 299.9259 -181.9746 -205.4050 30167.0724 79.8680 130.4912
ENERGY: 1500000 8.2743 9.4029 4.6563 0.0000 -10589.3577 1477.6229 0.0000 0.0000 1767.0449 -7322.3566 305.5730 -9089.4014 -7306.2579 300.0149 480.7367 568.1266 29897.5618 43.9889 105.2510
TCL: Running FEP window   6: Lambda1 0.7499999999999998 Lambda2 0.6999999999999997 [dLambda -0.050000000000000044]
TCL: Setting parameter firsttimestep to 0
TCL: Setting parameter alchLambda to 0.7499999999999998
Info: NONBONDED TABLE R-SQUARED SPACING: 0.0625
Info: NONBONDED TABLE SIZE: 705 POINTS
TCL: Setting parameter alchLambda2 to 0.6999999999999997
Info: NONBONDED TABLE R-SQUARED SPACING: 0.0625
Info: NONBONDED TABLE SIZE: 705 POINTS
TCL: Running for 1500000 steps
ETITLE: TS BOND ANGLE DIHED IMPRP ELECT VDW BOUNDARY MISC KINETIC TOTAL TEMP POTENTIAL TOTALAVG TEMPAVG PRESSURE GPRESSURE VOLUME PRESSAVG GPRESSAVG
ENERGY: 0 8.2743 9.4029 4.6563 0.0000 -10588.4524 1477.6789 0.0000 0.0000 1766.1820 -7322.2581 305.4238 -9088.4400 -7322.2581 305.4238 465.5257 559.4274 29897.5618 465.5257 559.4274
ENERGY: 300000 5.6496 4.6306 6.6247 0.0000 -10553.8808 1442.0213 0.0000 0.0000 1769.8244 -7325.1303 306.0537 -9094.9547 -7275.4432 306.7518 171.4687 165.6270 29835.7180 -39.5605 10.1872
ENERGY: 600000 5.7426 10.4954 5.2015 0.0000 -10616.3179 1509.6535 0.0000 0.0000 1721.7652 -7363.4597 297.7428 -9085.2249 -7309.1531 303.4068 886.8806 927.3828 29234.5289 134.8896 172.0403
ENERGY: 900000 5.9331 4.5954 3.1217 0.0000 -10653.1080 1546.6739 0.0000 0.0000 1692.7396 -7400.0443 292.7235 -9092.7839 -7324.2814 301.3313 892.0437 1006.6526 30051.8101 25.3295 77.7361
ENERGY: 1200000 2.9584 8.9264 3.1815 0.0000 -10456.0884 1384.7236 0.0000 0.0000 1739.0521 -7317.2464 300.7322 -9056.2985 -7322.9810 300.7236 -24.9938 52.5810 29540.1917 15.5170 72.2155
ENERGY: 1500000 6.0299 7.9355 5.7602 0.0000 -10553.5744 1440.1004 0.0000 0.0000 1739.5702 -7354.1781 300.8218 -9093.7483 -7329.7200 300.2637 -193.1092 -97.4307 30056.8549 -18.7311 42.9442
TCL: Running FEP window   7: Lambda1 0.6999999999999997 Lambda2 0.6499999999999997 [dLambda -0.050000000000000044]
TCL: Setting parameter firsttimestep to 0
TCL: Setting parameter alchLambda to 0.6999999999999997
Info: NONBONDED TABLE R-SQUARED SPACING: 0.0625
Info: NONBONDED TABLE SIZE: 705 POINTS
TCL: Setting parameter alchLambda2 to 0.6499999999999997
Info: NONBONDED TABLE R-SQUARED SPACING: 0.0625
Info: NONBONDED TABLE SIZE: 705 POINTS
TCL: Running for 1500000 steps
ETITLE: TS BOND ANGLE DIHED IMPRP ELECT VDW BOUNDARY MISC KINETIC TOTAL TEMP POTENTIAL TOTALAVG TEMPAVG PRESSURE GPRESSURE VOLUME PRESSAVG GPRESSAVG
ENERGY: 0 6.0299 7.9355 5.7602 0.0000 -10552.8505 1440.4942 0.0000 0.0000 1738.6920 -7353.9387 300.6700 -9092.6307 -7353.9387 300.6700 -190.6225 -106.4971 30056.8549 -190.6225 -106.4971
ENERGY: 300000 2.3563 9.8948 6.4158 0.0000 -10595.8737 1471.0621 0.0000 0.0000 1704.8256 -7401.3192 294.8135 -9106.1448 -7352.1177 298.1238 180.6538 214.5967 29964.3213 103.8644 131.3005
ENERGY: 600000 2.6238 7.6408 4.6561 0.0000 -10385.8687 1322.1436 0.0000 0.0000 1759.5232 -7289.2813 304.2723 -9048.8045 -7332.2602 298.4574 -625.6651 -524.6599 29848.6468 51.0497 101.5080
ENERGY: 900000 4.9557 7.9190 3.9989 0.0000 -10474.5029 1387.8284 0.0000 0.0000 1681.2215 -7388.5794 290.7317 -9069.8009 -7358.8061 296.2554 -80.6135 33.6947 29650.0459 61.2832 109.1352
ENERGY: 1200000 3.3630 5.2658 2.2333 0.0000 -10477.8976 1417.1189 0.0000 0.0000 1695.8381 -7354.0785 293.2593 -9049.9166 -7349.4589 295.3248 -251.7612 -158.5918 30265.0359 14.9405 60.0258
ENERGY: 1500000 3.7567 8.0483 9.5079 0.0000 -10378.4040 1326.2762 0.0000 0.0000 1737.4668 -7293.3480 300.4581 -9030.8149 -7345.8276 295.7196 -704.3032 -616.3037 29843.0763 -73.0123 -22.1201
TCL: Running FEP window   8: Lambda1 0.6499999999999997 Lambda2 0.5999999999999996 [dLambda -0.050000000000000044]
TCL: Setting parameter firsttimestep to 0
TCL: Setting parameter alchLambda to 0.6499999999999997
Info: NONBONDED TABLE R-SQUARED SPACING: 0.0625
Info: NONBONDED TABLE SIZE: 705 POINTS
TCL: Setting parameter alchLambda2 to 0.5999999999999996
Info: NONBONDED TABLE R-SQUARED SPACING: 0.0625
Info: NONBONDED TABLE SIZE: 705 POINTS
TCL: Running for 1500000 steps
ETITLE: TS BOND ANGLE DIHED IMPRP ELECT VDW BOUNDARY MISC KINETIC TOTAL TEMP POTENTIAL TOTALAVG TEMPAVG PRESSURE GPRESSURE VOLUME PRESSAVG GPRESSAVG
ENERGY: 0 3.7567 8.0483 9.5079 0.0000 -10378.2049 1326.5970 0.0000 0.0000 1736.5875 -7293.7075 300.3060 -9030.2950 -7293.7075 300.3060 -710.3684 -623.5398 29843.0763 -710.3684 -623.5398
ENERGY: 300000 5.1150 7.7381 4.0911 0.0000 -10307.5026 1308.7766 0.0000 0.0000 1793.1083 -7188.6735 310.0801 -8981.7818 -7277.2152 301.4027 -919.3579 -871.6328 30427.2493 -324.3540 -279.2252
ENERGY: 600000 4.6815 7.6282 5.2721 0.0000 -10367.7671 1337.6675 0.0000 0.0000 1755.3129 -7257.2049 303.5442 -9012.5178 -7276.0182 302.6271 -307.1648 -271.1725 29658.6525 -216.7655 -151.2009
ENERGY: 900000 5.8350 5.2827 7.7703 0.0000 -10289.7253 1317.4573 0.0000 0.0000 1789.3279 -7164.0520 309.4264 -8953.3799 -7277.7050 302.7022 -665.4794 -621.4026 30085.2030 -206.2758 -141.8499
ENERGY: 1200000 4.3911 5.8050 3.5073 0.0000 -10492.3942 1389.0530 0.0000 0.0000 1724.6930 -7364.9448 298.2491 -9089.6378 -7286.4606 302.0406 -187.3894 -119.7928 29345.9817 -286.7414 -225.2044
ENERGY: 1500000 7.0078 11.1644 4.5862 0.0000 -10573.3335 1465.1814 0.0000 0.0000 1817.2122 -7268.1815 314.2484 -9085.3937 -7291.4160 302.6843 29.8341 82.7515 30512.3952 -224.7277 -160.6434
TCL: Running FEP window   9: Lambda1 0.5999999999999996 Lambda2 0.5499999999999996 [dLambda -0.050000000000000044]
TCL: Setting parameter firsttimestep to 0
TCL: Setting parameter alchLambda to 0.5999999999999996
Info: NONBONDED TABLE R-SQUARED SPACING: 0.0625
Info: NONBONDED TABLE SIZE: 705 POINTS
TCL: Setting parameter alchLambda2 to 0.5499999999999996
Info: NONBONDED TABLE R-SQUARED SPACING: 0.0625
Info: NONBONDED TABLE SIZE: 705 POINTS
TCL: Running for 1500000 steps
ETITLE: TS BOND ANGLE DIHED IMPRP ELECT VDW BOUNDARY MISC KINETIC TOTAL TEMP POTENTIAL TOTALAVG TEMPAVG PRESSURE GPRESSURE VOLUME PRESSAVG GPRESSAVG
ENERGY: 0 7.0078 11.1644 4.5862 0.0000 -10573.4571 1465.7296 0.0000 0.0000 1816.3606 -7268.6084 314.1011 -9084.9690 -7268.6084 314.1011 -8.6702 80.1126 30512.3952 -8.6702 80.1126
ENERGY: 300000 6.1942 12.2665 5.0677 0.0000 -10428.7925 1427.0660 0.0000 0.0000 1729.7488 -7248.4493 299.1234 -8978.1981 -7238.0386 304.3494 200.8461 322.4233 30038.1689 -78.6850 -1.0486
ENERGY: 600000 3.2820 8.3966 5.4011 0.0000 -10498.7943 1439.0709 0.0000 0.0000 1779.8107 -7262.8331 307.7806 -9042.6437 -7267.4367 305.0057 162.9916 212.9742 30071.0910 210.1836 271.2309
ENERGY: 900000 5.1358 8.8455 1.7966 0.0000 -10446.6301 1371.7696 0.0000 0.0000 1726.1419 -7332.9406 298.4997 -9059.0825 -7278.1171 303.2002 -288.1611 -209.7636 29602.8597 165.0212 237.1767
ENERGY: 1200000 5.2734 7.0498 4.0432 0.0000 -10389.2937 1369.5074 0.0000 0.0000 1718.5555 -7284.8644 297.1878 -9003.4198 -7287.3495 302.3797 -406.3004 -350.5746 29909.8420 19.2500 93.2163
ENERGY: 1500000 7.0808 7.1535 6.4556 0.0000 -10601.6570 1479.8408 0.0000 0.0000 1781.5930 -7319.5333 308.0888 -9101.1263 -7293.5841 302.5556 522.8400 620.6009 29308.8365 8.4316 81.9810
TCL: Running FEP window  10: Lambda1 0.5499999999999996 Lambda2 0.4999999999999996 [dLambda -0.04999999999999999]
TCL: Setting parameter firsttimestep to 0
TCL: Setting parameter alchLambda to 0.5499999999999996
Info: NONBONDED TABLE R-SQUARED SPACING: 0.0625
Info: NONBONDED TABLE SIZE: 705 POINTS
TCL: Setting parameter alchLambda2 to 0.4999999999999996
Info: NONBONDED TABLE R-SQUARED SPACING: 0.0625
Info: NONBONDED TABLE SIZE: 705 POINTS
TCL: Running for 1500000 steps
ETITLE: TS BOND ANGLE DIHED IMPRP ELECT VDW BOUNDARY MISC KINETIC TOTAL TEMP POTENTIAL TOTALAVG TEMPAVG PRESSURE GPRESSURE VOLUME PRESSAVG GPRESSAVG
ENERGY: 0 7.0808 7.1535 6.4556 0.0000 -10601.8644 1479.9818 0.0000 0.0000 1780.7347 -7320.4579 307.9404 -9101.1926 -7320.4579 307.9404 536.9576 607.4707 29308.8365 536.9576 607.4707
ENERGY: 300000 3.5227 9.3241 4.2680 0.0000 -10709.6141 1571.5022 0.0000 0.0000 1774.2182 -7346.7789 306.8135 -9120.9972 -7314.8067 304.9877 951.6912 990.3170 30177.7680 487.0355 536.7290
ENERGY: 600000 2.5855 10.8003 6.4556 0.0000 -10332.4459 1338.0532 0.0000 0.0000 1726.6771 -7247.8742 298.5922 -8974.5513 -7329.2745 300.1503 -422.1655 -346.3719 30014.5336 147.4508 202.9300
ENERGY: 900000 2.3239 13.0272 2.9567 0.0000 -10528.0965 1407.4570 0.0000 0.0000 1793.2163 -7309.1154 310.0988 -9102.3318 -7326.9269 300.7636 39.5868 56.8251 29927.3086 22.7348 71.9904
ENERGY: 1200000 4.2270 5.7482 1.7443 0.0000 -10490.8619 1421.1605 0.0000 0.0000 1793.2525 -7264.7293 310.1051 -9057.9818 -7321.6626 301.6824 260.5108 356.6567 29923.1490 62.2522 114.2617
ENERGY: 1500000 6.8885 3.9428 6.0011 0.0000 -10500.8387 1473.5980 0.0000 0.0000 1744.5748 -7265.8336 301.6873 -9010.4084 -7317.3832 301.9954 380.4949 409.6552 30048.4447 161.5131 220.0569
TCL: Running FEP window  11: Lambda1 0.4999999999999996 Lambda2 0.4499999999999996 [dLambda -0.04999999999999999]
TCL: Setting parameter firsttimestep to 0
TCL: Setting parameter alchLambda to 0.4999999999999996
Info: NONBONDED TABLE R-SQUARED SPACING: 0.0625
Info: NONBONDED TABLE SIZE: 705 POINTS
TCL: Setting parameter alchLambda2 to 0.4499999999999996
Info: NONBONDED TABLE R-SQUARED SPACING: 0.0625
Info: NONBONDED TABLE SIZE: 705 POINTS
TCL: Running for 1500000 steps
ETITLE: TS BOND ANGLE DIHED IMPRP ELECT VDW BOUNDARY MISC KINETIC TOTAL TEMP POTENTIAL TOTALAVG TEMPAVG PRESSURE GPRESSURE VOLUME PRESSAVG GPRESSAVG
ENERGY: 0 6.8884 3.9428 6.0011 0.0000 -10501.1569 1473.0485 0.0000 0.0000 1743.6856 -7267.5904 301.5335 -9011.2761 -7267.5904 301.5335 321.1942 390.7572 30048.4447 321.1942 390.7572
ENERGY: 300000 8.0982 11.2573 4.5372 0.0000 -10482.3688 1383.1701 0.0000 0.0000 1758.2917 -7317.0143 304.0593 -9075.3060 -7308.3408 301.7076 -333.4755 -203.2961 29732.2400 -11.0850 84.1194
ENERGY: 600000 6.2164 5.7125 4.6749 0.0000 -10505.2093 1371.9529 0.0000 0.0000 1737.7650 -7378.8876 300.5097 -9116.6526 -7299.7101 303.5900 -671.9957 -583.5163 30068.1842 1.8109 88.3008
ENERGY: 900000 0.9654 7.0622 2.7983 0.0000 -10317.8714 1338.4818 0.0000 0.0000 1750.5033 -7218.0604 302.7125 -8968.5637 -7284.5926 302.7554 -323.7356 -186.9882 29751.9455 -24.1490 56.3215
ENERGY: 1200000 8.0017 10.7309 3.1231 0.0000 -10432.8968 1447.7631 0.0000 0.0000 1745.6381 -7217.6398 301.8712 -8963.2780 -7292.1663 302.2049 157.5365 234.1243 30335.5129 -55.3412 19.8867
ENERGY: 1500000 6.5366 7.2340 4.7986 0.0000 -10439.5282 1414.9754 0.0000 0.0000 1756.1958 -7249.7877 303.6969 -9005.9835 -7293.1771 301.2839 84.7490 123.5128 30003.3514 46.4645 113.7947
TCL: Running FEP window  12: Lambda1 0.4499999999999996 Lambda2 0.39999999999999963 [dLambda -0.04999999999999999]
TCL: Setting parameter firsttimestep to 0
TCL: Setting parameter alchLambda to 0.4499999999999996
Info: NONBONDED TABLE R-SQUARED SPACING: 0.0625
Info: NONBONDED TABLE SIZE: 705 POINTS
TCL: Setting parameter alchLambda2 to 0.39999999999999963
Info: NONBONDED TABLE R-SQUARED SPACING: 0.0625
Info: NONBONDED TABLE SIZE: 705 POINTS
TCL: Running for 1500000 steps
ETITLE: TS BOND ANGLE DIHED IMPRP ELECT VDW BOUNDARY MISC KINETIC TOTAL TEMP POTENTIAL TOTALAVG TEMPAVG PRESSURE GPRESSURE VOLUME PRESSAVG GPRESSAVG
ENERGY: 0 6.5366 7.2340 4.7987 0.0000 -10439.5276 1415.2913 0.0000 0.0000 1755.3453 -7250.3217 303.5498 -9005.6670 -7250.3217 303.5498 44.9111 118.7722 30003.3514 44.9111 118.7722
ENERGY: 300000 3.9817 6.7651 5.8314 0.0000 -10449.1438 1427.2213 0.0000 0.0000 1738.5519 -7266.7924 300.6458 -9005.3444 -7312.6948 296.7873 220.4810 288.6600 29969.9985 139.4003 209.8349
ENERGY: 600000 5.2900 7.4856 3.0487 0.0000 -10374.3665 1377.6057 0.0000 0.0000 1743.2749 -7237.6615 301.4625 -8980.9365 -7294.9484 297.9589 -419.7191 -453.5550 30246.5624 -292.9901 -245.8489
ENERGY: 900000 7.0212 8.1987 1.1255 0.0000 -10513.4394 1463.1851 0.0000 0.0000 1696.9464 -7336.9626 293.4509 -9033.9089 -7303.1379 298.1075 274.5859 330.0741 29795.2127 -252.8317 -209.4087
ENERGY: 1200000 4.6534 7.2108 2.1524 0.0000 -10447.2118 1454.9270 0.0000 0.0000 1719.3703 -7258.8978 297.3287 -8978.2682 -7286.3384 299.0436 720.3032 808.1653 29646.4203 -131.6999 -88.6867
ENERGY: 1500000 6.9898 6.1897 1.8045 0.0000 -10613.6819 1472.5827 0.0000 0.0000 1773.9980 -7352.1172 306.7754 -9126.1152 -7298.4109 299.4042 -53.4949 24.2318 30018.0512 -115.2268 -58.0815
TCL: Running FEP window  13: Lambda1 0.39999999999999963 Lambda2 0.34999999999999964 [dLambda -0.04999999999999999]
TCL: Setting parameter firsttimestep to 0
TCL: Setting parameter alchLambda to 0.39999999999999963
Info: NONBONDED TABLE R-SQUARED SPACING: 0.0625
Info: NONBONDED TABLE SIZE: 705 POINTS
TCL: Setting parameter alchLambda2 to 0.34999999999999964
Info: NONBONDED TABLE R-SQUARED SPACING: 0.0625
Info: NONBONDED TABLE SIZE: 705 POINTS
TCL: Running for 1500000 steps
ETITLE: TS BOND ANGLE DIHED IMPRP ELECT VDW BOUNDARY MISC KINETIC TOTAL TEMP POTENTIAL TOTALAVG TEMPAVG PRESSURE GPRESSURE VOLUME PRESSAVG GPRESSAVG
ENERGY: 0 6.9898 6.1897 1.8045 0.0000 -10613.6822 1472.7454 0.0000 0.0000 1773.1421 -7352.8108 306.6274 -9125.9529 -7352.8108 306.6274 -63.0738 20.1784 30018.0512 -63.0738 20.1784
ENERGY: 300000 2.7683 4.8064 3.4041 0.0000 -10531.3050 1460.7921 0.0000 0.0000 1755.9002 -7303.6339 303.6458 -9059.5340 -7317.1971 304.1277 607.0207 682.4576 29524.6708 278.2235 321.8640
ENERGY: 600000 4.5950 7.9108 4.8369 0.0000 -10362.6861 1376.0016 0.0000 0.0000 1736.1551 -7233.1866 300.2313 -8969.3417 -7315.8681 301.6017 -243.1629 -165.0220 29715.4543 99.4205 142.5128
ENERGY: 900000 3.8894 7.5520 7.0121 0.0000 -10623.3176 1494.2135 0.0000 0.0000 1751.3548 -7359.2959 302.8597 -9110.6507 -7312.2329 301.0370 230.1893 294.3314 29923.9356 53.5124 101.7598
ENERGY: 1200000 3.4600 6.7857 4.6224 0.0000 -10577.1604 1428.3279 0.0000 0.0000 1706.6530 -7427.3114 295.1295 -9133.9644 -7320.3381 300.5920 -461.0811 -352.9850 30442.4008 -18.6044 39.0519
ENERGY: 1500000 5.8062 9.6962 6.2642 0.0000 -10451.2288 1337.9199 0.0000 0.0000 1719.5899 -7371.9525 297.3667 -9091.5424 -7327.4951 300.0812 -954.0995 -912.0030 30015.4941 -69.6884 -21.1629
TCL: Running FEP window  14: Lambda1 0.34999999999999964 Lambda2 0.29999999999999966 [dLambda -0.04999999999999999]
TCL: Setting parameter firsttimestep to 0
TCL: Setting parameter alchLambda to 0.34999999999999964
Info: NONBONDED TABLE R-SQUARED SPACING: 0.0625
Info: NONBONDED TABLE SIZE: 705 POINTS
TCL: Setting parameter alchLambda2 to 0.29999999999999966
Info: NONBONDED TABLE R-SQUARED SPACING: 0.0625
Info: NONBONDED TABLE SIZE: 705 POINTS
TCL: Running for 1500000 steps
ETITLE: TS BOND ANGLE DIHED IMPRP ELECT VDW BOUNDARY MISC KINETIC TOTAL TEMP POTENTIAL TOTALAVG TEMPAVG PRESSURE GPRESSURE VOLUME PRESSAVG GPRESSAVG
ENERGY: 0 5.8062 9.6962 6.2642 0.0000 -10451.2282 1338.2748 0.0000 0.0000 1718.7408 -7372.4459 297.2198 -9091.1868 -7372.4459 297.2198 -1003.1608 -915.1888 30015.4941 -1003.1608 -915.1888
ENERGY: 300000 5.4020 8.9729 3.4819 0.0000 -10500.3743 1421.5761 0.0000 0.0000 1692.3486 -7368.5928 292.6559 -9060.9414 -7359.8820 300.8397 -80.1982 -3.3790 29882.8037 -489.5347 -426.1461
ENERGY: 600000 3.2727 4.8136 6.1796 0.0000 -10563.9521 1533.1462 0.0000 0.0000 1736.5300 -7280.0100 300.2961 -9016.5400 -7327.8390 300.7332 1227.2772 1232.3435 29912.3510 -121.0604 -71.5116
ENERGY: 900000 2.2059 4.2809 4.2587 0.0000 -10313.6375 1346.7255 0.0000 0.0000 1738.2976 -7217.8689 300.6018 -8956.1665 -7314.3555 300.8197 -236.6073 -168.7922 29938.7572 -162.3479 -112.0678
ENERGY: 1200000 3.8587 4.3841 3.8014 0.0000 -10531.9040 1446.8325 0.0000 0.0000 1714.8204 -7358.2069 296.5419 -9073.0273 -7324.5423 299.5208 139.3820 186.9942 29854.9293 -136.4384 -89.6492
ENERGY: 1500000 6.1625 6.9401 6.2317 0.0000 -10664.0686 1539.8921 0.0000 0.0000 1748.2102 -7356.6321 302.3159 -9104.8422 -7322.7701 300.1162 679.8442 763.6736 29759.3485 -144.7297 -95.4060
TCL: Running FEP window  15: Lambda1 0.29999999999999966 Lambda2 0.24999999999999967 [dLambda -0.04999999999999999]
TCL: Setting parameter firsttimestep to 0
TCL: Setting parameter alchLambda to 0.29999999999999966
Info: NONBONDED TABLE R-SQUARED SPACING: 0.0625
Info: NONBONDED TABLE SIZE: 705 POINTS
TCL: Setting parameter alchLambda2 to 0.24999999999999967
Info: NONBONDED TABLE R-SQUARED SPACING: 0.0625
Info: NONBONDED TABLE SIZE: 705 POINTS
TCL: Running for 1500000 steps
ETITLE: TS BOND ANGLE DIHED IMPRP ELECT VDW BOUNDARY MISC KINETIC TOTAL TEMP POTENTIAL TOTALAVG TEMPAVG PRESSURE GPRESSURE VOLUME PRESSAVG GPRESSAVG
ENERGY: 0 6.1625 6.9401 6.2317 0.0000 -10664.0700 1540.1568 0.0000 0.0000 1747.3432 -7357.2356 302.1660 -9104.5788 -7357.2356 302.1660 658.1478 756.4385 29759.3485 658.1478 756.4385
ENERGY: 300000 3.7133 9.3412 5.0940 0.0000 -10363.1899 1311.2105 0.0000 0.0000 1722.3699 -7311.4610 297.8474 -9033.8310 -7329.0697 302.4083 -1051.3543 -1001.8209 30154.3126 -235.8863 -169.1111
ENERGY: 600000 4.9508 4.8901 6.2412 0.0000 -10411.7377 1423.3270 0.0000 0.0000 1750.2521 -7222.0765 302.6690 -8972.3286 -7296.2880 302.2733 157.0920 221.7331 29961.3058 -75.9816 -10.7911
ENERGY: 900000 2.9624 6.8495 3.2747 0.0000 -10418.5948 1401.5423 0.0000 0.0000 1747.1429 -7256.8229 302.1314 -9003.9658 -7279.8250 302.4678 -167.7875 -179.9511 30277.1301 -31.4088 22.1327
ENERGY: 1200000 5.5684 8.9930 5.0652 0.0000 -10444.4476 1379.6642 0.0000 0.0000 1720.8630 -7324.2938 297.5868 -9045.1568 -7289.8875 301.5351 -295.1274 -254.3797 29550.5551 -123.2376 -71.5380
ENERGY: 1500000 3.8678 10.9696 5.0465 0.0000 -10526.2927 1458.4599 0.0000 0.0000 1748.9302 -7299.0188 302.4404 -9047.9489 -7298.4073 301.3446 278.4927 303.3006 29701.1975 -90.7052 -38.3875
TCL: Running FEP window  16: Lambda1 0.24999999999999967 Lambda2 0.19999999999999968 [dLambda -0.04999999999999999]
TCL: Setting parameter firsttimestep to 0
TCL: Setting parameter alchLambda to 0.24999999999999967
Info: NONBONDED TABLE R-SQUARED SPACING: 0.0625
Info: NONBONDED TABLE SIZE: 705 POINTS
TCL: Setting parameter alchLambda2 to 0.19999999999999968
Info: NONBONDED TABLE R-SQUARED SPACING: 0.0625
Info: NONBONDED TABLE SIZE: 705 POINTS
TCL: Running for 1500000 steps
ETITLE: TS BOND ANGLE DIHED IMPRP ELECT VDW BOUNDARY MISC KINETIC TOTAL TEMP POTENTIAL TOTALAVG TEMPAVG PRESSURE GPRESSURE VOLUME PRESSAVG GPRESSAVG
ENERGY: 0 3.8678 10.9697 5.0465 0.0000 -10526.2931 1458.5347 0.0000 0.0000 1748.0453 -7299.8292 302.2874 -9047.8745 -7299.8292 302.2874 214.2301 298.0413 29701.1975 214.2301 298.0413
ENERGY: 300000 4.8689 6.8037 6.7676 0.0000 -10546.6414 1499.3279 0.0000 0.0000 1733.1313 -7295.7420 299.7084 -9028.8733 -7278.5795 302.2046 367.4483 474.9618 29961.2244 340.4192 395.2044
ENERGY: 600000 2.9972 7.4130 4.9448 0.0000 -10578.3090 1507.6911 0.0000 0.0000 1652.8019 -7402.4610 285.8171 -9055.2629 -7297.5365 299.3501 762.2017 817.4545 29372.8727 312.9023 383.3049
ENERGY: 900000 2.3918 6.1314 5.1012 0.0000 -10395.6725 1347.8537 0.0000 0.0000 1746.1356 -7288.0588 301.9572 -9034.1944 -7302.5908 299.9208 -908.6337 -851.4459 30517.9378 190.6882 256.6444
ENERGY: 1200000 5.2050 3.8292 6.6506 0.0000 -10321.9457 1313.7401 0.0000 0.0000 1769.3435 -7223.1773 305.9705 -8992.5208 -7311.3268 299.7768 -457.9572 -414.8113 29717.9982 134.2223 197.4267
ENERGY: 1500000 4.3100 7.4883 2.3663 0.0000 -10367.3418 1310.4661 0.0000 0.0000 1670.7390 -7371.9723 288.9189 -9042.7112 -7314.0534 298.8951 -1083.2875 -976.8669 29872.3864 60.2884 120.8387
TCL: Running FEP window  17: Lambda1 0.19999999999999968 Lambda2 0.1499999999999997 [dLambda -0.04999999999999999]
TCL: Setting parameter firsttimestep to 0
TCL: Setting parameter alchLambda to 0.19999999999999968
Info: NONBONDED TABLE R-SQUARED SPACING: 0.0625
Info: NONBONDED TABLE SIZE: 705 POINTS
TCL: Setting parameter alchLambda2 to 0.1499999999999997
Info: NONBONDED TABLE R-SQUARED SPACING: 0.0625
Info: NONBONDED TABLE SIZE: 705 POINTS
TCL: Running for 1500000 steps
ETITLE: TS BOND ANGLE DIHED IMPRP ELECT VDW BOUNDARY MISC KINETIC TOTAL TEMP POTENTIAL TOTALAVG TEMPAVG PRESSURE GPRESSURE VOLUME PRESSAVG GPRESSAVG
ENERGY: 0 4.3100 7.4883 2.3663 0.0000 -10367.3426 1310.3655 0.0000 0.0000 1669.8842 -7372.9285 288.7711 -9042.8126 -7372.9285 288.7711 -1067.2847 -983.1053 29872.3864 -1067.2847 -983.1053
ENERGY: 300000 8.8996 9.3022 5.1203 0.0000 -10374.8930 1389.6065 0.0000 0.0000 1733.9171 -7228.0474 299.8442 -8961.9645 -7323.7612 297.9933 192.7989 272.3001 29380.9587 -172.9701 -92.0300
ENERGY: 600000 4.0522 4.7407 5.5312 0.0000 -10495.9168 1386.0503 0.0000 0.0000 1685.7499 -7409.7926 291.5148 -9095.5425 -7336.2911 297.6050 -52.1359 -91.8909 29458.8993 -116.8123 -47.7419
ENERGY: 900000 2.5986 7.5127 3.6431 0.0000 -10596.6428 1482.6611 0.0000 0.0000 1759.0253 -7341.2021 304.1862 -9100.2274 -7330.4454 298.7775 519.6476 582.0102 29340.8479 -56.1162 12.5411
ENERGY: 1200000 6.1981 8.1535 2.4968 0.0000 -10508.7609 1471.3960 0.0000 0.0000 1689.3593 -7331.1571 292.1389 -9020.5164 -7316.2948 299.1973 43.3837 125.9970 30271.6495 -81.9058 -15.6829
ENERGY: 1500000 5.9380 8.9287 3.0111 0.0000 -10486.1808 1432.2361 0.0000 0.0000 1648.1971 -7387.8699 285.0208 -9036.0669 -7323.3892 298.3812 231.5174 238.2391 29353.1702 -80.7507 -17.5212
TCL: Running FEP window  18: Lambda1 0.1499999999999997 Lambda2 0.09999999999999969 [dLambda -0.05 ]
TCL: Setting parameter firsttimestep to 0
TCL: Setting parameter alchLambda to 0.1499999999999997
Info: NONBONDED TABLE R-SQUARED SPACING: 0.0625
Info: NONBONDED TABLE SIZE: 705 POINTS
TCL: Setting parameter alchLambda2 to 0.09999999999999969
Info: NONBONDED TABLE R-SQUARED SPACING: 0.0625
Info: NONBONDED TABLE SIZE: 705 POINTS
TCL: Running for 1500000 steps
ETITLE: TS BOND ANGLE DIHED IMPRP ELECT VDW BOUNDARY MISC KINETIC TOTAL TEMP POTENTIAL TOTALAVG TEMPAVG PRESSURE GPRESSURE VOLUME PRESSAVG GPRESSAVG
ENERGY: 0 5.9379 8.9287 3.0111 0.0000 -10486.1798 1432.1146 0.0000 0.0000 1647.3161 -7388.8714 284.8684 -9036.1875 -7388.8714 284.8684 157.0968 234.1598 29353.1702 157.0968 234.1598
ENERGY: 300000 5.9611 10.8287 2.9650 0.0000 -10609.2062 1539.3128 0.0000 0.0000 1705.6028 -7344.5358 294.9479 -9050.1386 -7323.5643 295.7757 811.8941 878.4987 29689.7938 83.5528 111.6593
ENERGY: 600000 3.9913 10.4602 5.5071 0.0000 -10463.1077 1408.7595 0.0000 0.0000 1635.2586 -7399.1309 282.7834 -9034.3895 -7340.5178 294.5789 -29.2628 7.0243 29535.2262 152.5111 198.4664
ENERGY: 900000 4.0075 5.2503 3.1289 0.0000 -10405.1339 1297.4772 0.0000 0.0000 1732.5605 -7362.7094 299.6097 -9095.2700 -7334.1792 297.5149 -1251.2946 -1200.1115 30165.2168 -97.9952 -39.9756
ENERGY: 1200000 3.8760 8.7618 4.3953 0.0000 -10372.3967 1382.0250 0.0000 0.0000 1772.5893 -7200.7493 306.5318 -8973.3386 -7317.4665 298.5059 -92.6610 -11.9679 29503.4872 -143.9674 -85.0301
ENERGY: 1500000 6.1407 10.3702 3.7809 0.0000 -10423.6832 1394.6733 0.0000 0.0000 1771.0507 -7237.6673 306.2657 -9008.7180 -7327.7344 299.1052 -453.4989 -405.6779 30421.9557 -110.0774 -50.5423
TCL: Running FEP window  19: Lambda1 0.09999999999999969 Lambda2 0.049999999999999684 [dLambda -0.05 ]
TCL: Setting parameter firsttimestep to 0
TCL: Setting parameter alchLambda to 0.09999999999999969
Info: NONBONDED TABLE R-SQUARED SPACING: 0.0625
Info: NONBONDED TABLE SIZE: 705 POINTS
TCL: Setting parameter alchLambda2 to 0.049999999999999684
Info: NONBONDED TABLE R-SQUARED SPACING: 0.0625
Info: NONBONDED TABLE SIZE: 705 POINTS
TCL: Running for 1500000 steps
ETITLE: TS BOND ANGLE DIHED IMPRP ELECT VDW BOUNDARY MISC KINETIC TOTAL TEMP POTENTIAL TOTALAVG TEMPAVG PRESSURE GPRESSURE VOLUME PRESSAVG GPRESSAVG
ENERGY: 0 6.1407 10.3702 3.7810 0.0000 -10423.6841 1395.2806 0.0000 0.0000 1770.1777 -7237.9339 306.1148 -9008.1116 -7237.9339 306.1148 -466.2184 -403.8392 30421.9557 -466.2184 -403.8392
ENERGY: 300000 2.9369 9.4621 3.7100 0.0000 -10413.9128 1374.9056 0.0000 0.0000 1782.7225 -7240.1757 308.2841 -9022.8982 -7237.5276 305.8482 -212.1281 -179.8881 29964.1266 78.0566 145.3897
ENERGY: 600000 4.7700 10.5232 8.0975 0.0000 -10502.2779 1508.4652 0.0000 0.0000 1730.5371 -7239.8849 299.2598 -8970.4220 -7251.2250 303.4525 765.8584 827.6391 29944.8624 150.4561 225.0673
ENERGY: 900000 5.9064 6.6474 5.0654 0.0000 -10271.4740 1270.7396 0.0000 0.0000 1719.6879 -7263.4273 297.3836 -8983.1152 -7268.8049 302.8475 -1533.7039 -1376.3137 30498.9806 105.7440 185.9577
ENERGY: 1200000 2.1624 9.3656 2.8634 0.0000 -10339.7240 1329.0605 0.0000 0.0000 1762.3186 -7233.9535 304.7557 -8996.2722 -7284.1993 301.8577 -439.9524 -300.3398 29593.2727 80.9125 163.8213
ENERGY: 1500000 5.3617 5.8894 3.8881 0.0000 -10345.2108 1347.9967 0.0000 0.0000 1751.9006 -7230.1742 302.9541 -8982.0748 -7282.9771 302.1237 -621.2469 -495.4412 30086.3841 43.0982 133.1628
TCL: Running FEP window  20: Lambda1 0.049999999999999684 Lambda2 0.0    [dLambda -0.049999999999999684]
TCL: Setting parameter firsttimestep to 0
TCL: Setting parameter alchLambda to 0.049999999999999684
Info: NONBONDED TABLE R-SQUARED SPACING: 0.0625
Info: NONBONDED TABLE SIZE: 705 POINTS
TCL: Setting parameter alchLambda2 to 0.0
Info: NONBONDED TABLE R-SQUARED SPACING: 0.0625
Info: NONBONDED TABLE SIZE: 705 POINTS
TCL: Running for 1500000 steps
ETITLE: TS BOND ANGLE DIHED IMPRP ELECT VDW BOUNDARY MISC KINETIC TOTAL TEMP POTENTIAL TOTALAVG TEMPAVG PRESSURE GPRESSURE VOLUME PRESSAVG GPRESSAVG
ENERGY: 0 5.3617 5.8894 3.8881 0.0000 -10345.2099 1348.1514 0.0000 0.0000 1751.0593 -7230.8600 302.8086 -8981.9193 -7230.8600 302.8086 -572.0392 -499.0570 30086.3841 -572.0392 -499.0570
ENERGY: 300000 7.2445 7.0630 5.4471 0.0000 -10557.0624 1487.1305 0.0000 0.0000 1665.2054 -7384.9720 287.9620 -9050.1774 -7366.7920 293.5499 425.1645 473.7502 29630.6976 -236.9742 -184.0846
ENERGY: 600000 7.3225 7.2242 3.6893 0.0000 -10385.9218 1397.8390 0.0000 0.0000 1751.6620 -7218.1847 302.9129 -8969.8468 -7352.2147 294.8400 -345.8494 -224.1056 30047.4026 -262.4151 -206.4196
ENERGY: 900000 9.3037 6.7455 5.1075 0.0000 -10594.1090 1473.4043 0.0000 0.0000 1718.6435 -7380.9046 297.2030 -9099.5481 -7357.1095 295.2969 -32.8911 34.0561 29674.9351 -181.6248 -128.3754
ENERGY: 1200000 5.9212 12.7849 5.2158 0.0000 -10360.0639 1349.2864 0.0000 0.0000 1758.7057 -7228.1499 304.1309 -8986.8556 -7334.3224 296.1846 -699.0846 -636.8821 29947.9966 -310.8190 -262.5162
ENERGY: 1500000 5.7079 9.4580 2.5413 0.0000 -10613.0518 1473.1469 0.0000 0.0000 1780.8101 -7341.3875 307.9534 -9122.1976 -7336.4151 297.0325 287.1702 337.0754 29585.5316 -246.4604 -195.2446
TCL: Exiting due to exit command.
