Info: SIMULATION PARAMETERS:
Info: TIMESTEP               2
Info: NUMBER OF STEPS        0
Info: STEPS PER CYCLE        10
Info: PERIODIC CELL BASIS 1  31.8708 0 0
Info: PERIODIC CELL BASIS 2  0 30.0955 0
Info: PERIODIC CELL BASIS 3  0 0 31.4975
Info: PERIODIC CELL CENTER   0 0 0
Info: WRAPPING WATERS AROUND PERIODIC BOUNDARIES ON OUTPUT.
Info: WRAPPING ALL CLUSTERS AROUND PERIODIC BOUNDARIES ON OUTPUT.
Info: FIRST LDB TIMESTEP     50
Info: LAST LDB TIMESTEP     -1
Info: HOM BACKGROUND SCALING 1
Info: PME BACKGROUND SCALING 1
Info: MIN ATOMS PER PATCH    40
Info: EMPTY PATCH LOAD       40 ATOMS
Info: VELOCITY FILE          mobley_6257907_equil.vel
Info: CENTER OF MASS MOVING INITIALLY? NO
Info: DIELECTRIC             1
Info: EXCLUDE                SCALED ONE-FOUR
Info: 1-4 ELECTROSTATICS SCALED BY 0.833333
Info: MODIFIED 1-4 VDW PARAMETERS WILL BE USED
Info: DCD FILENAME           mobley_6257907_prod.dcd
Info: DCD FREQUENCY          100000
Info: DCD FIRST STEP         100000
Info: DCD FILE WILL CONTAIN UNIT CELL DATA
Info: XST FILENAME           mobley_6257907_prod.xst
Info: XST FREQUENCY          100000
Info: NO VELOCITY DCD OUTPUT
Info: NO FORCE DCD OUTPUT
Info: OUTPUT FILENAME        mobley_6257907_prod
Info: BINARY OUTPUT FILES WILL BE USED
Info: RESTART FILENAME       mobley_6257907_prod.restart
Info: RESTART FREQUENCY      100000
Info: BINARY RESTART FILES WILL BE USED
Info: CUTOFF                 9
Info: PAIRLIST DISTANCE      11
Info: PAIRLIST SHRINK RATE   0.01
Info: PAIRLIST GROW RATE     0.01
Info: PAIRLIST TRIGGER       0.3
Info: PAIRLISTS PER CYCLE    2
Info: PAIRLISTS ENABLED
Info: MARGIN                 2
Info: HYDROGEN GROUP CUTOFF  2.5
Info: PATCH DIMENSION        15.5
Info: ENERGY OUTPUT STEPS    100000
Info: ENERGY EVALUATION STEPS    100000
Info: OUTPUT ENERGY PRECISION 4
Info: CROSSTERM ENERGY INCLUDED IN DIHEDRAL
Info: TIMING OUTPUT STEPS    1000000
Info: PRESSURE OUTPUT STEPS  100000
Info: ALCHEMICAL FEP ON
Info: FEP CURRENT LAMBDA VALUE     0
Info: FEP COMPARISON LAMBDA VALUE  0.05
Info: FEP INTRA-ALCHEMICAL NON-BONDED INTERACTIONS WILL BE RETAINED
Info: FEP INTRA-ALCHEMICAL BONDED INTERACTIONS WILL BE RETAINED
Info: FEP VDW SHIFTING COEFFICIENT 5
Info: FEP ELEC. ACTIVE FOR ANNIHILATED PARTICLES BETWEEN LAMBDA = 0 AND LAMBDA = 0.5
Info: FEP ELEC. ACTIVE FOR EXNIHILATED PARTICLES BETWEEN LAMBDA = 0.5 AND LAMBDA = 1
Info: FEP VDW ACTIVE FOR ANNIHILATED PARTICLES BETWEEN LAMBDA = 0 AND LAMBDA = 1
Info: FEP VDW ACTIVE FOR EXNIHILATED PARTICLES BETWEEN LAMBDA = 0 AND LAMBDA = 1
Info: FEP BOND ACTIVE FOR ANNIHILATED PARTICLES BETWEEN LAMBDA = 1 AND LAMBDA = 1
Info: FEP BOND ACTIVE FOR EXNIHILATED PARTICLES BETWEEN LAMBDA = 0 AND LAMBDA = 0
Info: LANGEVIN DYNAMICS ACTIVE
Info: LANGEVIN TEMPERATURE   300
Info: LANGEVIN USING BBK INTEGRATOR
Info: LANGEVIN DAMPING COEFFICIENT IS 1 INVERSE PS
Info: LANGEVIN DYNAMICS APPLIED TO HYDROGENS
Info: LANGEVIN PISTON PRESSURE CONTROL ACTIVE
Info:        TARGET PRESSURE IS 1.01325 BAR
Info:     OSCILLATION PERIOD IS 50 FS
Info:             DECAY TIME IS 25 FS
Info:     PISTON TEMPERATURE IS 300 K
Info:       PRESSURE CONTROL IS GROUP-BASED
Info:    INITIAL STRAIN RATE IS -6.92667e-05 -6.92667e-05 -6.92667e-05
Info:       CELL FLUCTUATION IS ISOTROPIC
Info: PARTICLE MESH EWALD (PME) ACTIVE
Info: PME TOLERANCE               1e-06
Info: PME EWALD COEFFICIENT       0.348832
Info: PME INTERPOLATION ORDER     4
Info: PME GRID DIMENSIONS         32 32 32
Info: PME MAXIMUM GRID SPACING    1
Info: PME CALCULATION WILL BE PERFORMED ON GPU
Info: FULL ELECTROSTATIC EVALUATION FREQUENCY      2
Info: USING VERLET I (r-RESPA) MTS SCHEME.
Info: C1 SPLITTING OF LONG RANGE ELECTROSTATICS
Info: PLACING ATOMS IN PATCHES BY HYDROGEN GROUPS
Info: RIGID BONDS TO HYDROGEN : ALL
Info:         ERROR TOLERANCE : 1e-08
Info:          MAX ITERATIONS : 100
Info: RIGID WATER USING SETTLE ALGORITHM
Info: RANDOM NUMBER SEED     1743565010
Info: USE HYDROGEN BONDS?    NO
Info: Using AMBER format force field!
Info: AMBER PARM FILE        mobley_6257907.prmtop
Info: COORDINATE PDB         mobley_6257907.pdb
Info: Exclusions will be read from PARM file!
Info: SCNB (VDW SCALING)     2
Info: USING ARITHMETIC MEAN TO COMBINE L-J SIGMA PARAMETERS
Info: BINARY COORDINATES     mobley_6257907_equil.coor
Info: SUMMARY OF PARAMETERS:
Info: 7 BONDS
Info: 6 ANGLES
Info:   6 HARMONIC
Info:   0 COSINE-BASED
Info: 3 DIHEDRAL
Info: 0 IMPROPER
Info: 0 CROSSTERM
Info: 0 VDW
Info: 28 VDW_PAIRS
Info: 0 NBTHOLE_PAIRS
Info: To read alchdata from file: mobley_6257907.pdb
Info: To read alchflag data from column: 5
Info: STRUCTURE SUMMARY:
Info: 2927 ATOMS
Info: 2927 BONDS
Info: 21 ANGLES
Info: 35 DIHEDRALS
Info: 0 IMPROPERS
Info: 0 CROSSTERMS
Info: 2973 EXCLUSIONS
Info: 2919 RIGID BONDS
Info: ALCH: 0 ATOMS TO DISAPPEAR IN FINAL STATE
Info: ALCH: 14 ATOMS TO APPEAR IN FINAL STATE
Info: 5862 DEGREES OF FREEDOM
Info: 979 HYDROGEN GROUPS
Info: 3 ATOMS IN LARGEST HYDROGEN GROUP
Info: 979 MIGRATION GROUPS
Info: 3 ATOMS IN LARGEST MIGRATION GROUP
Info: TOTAL MASS = 17621.1 amu
Info: TOTAL CHARGE = 0.000200048 e
Info: MASS DENSITY = 0.968552 g/cm^3
Info: ATOM DENSITY = 0.0968843 atoms/A^3
Info: ADDED 0 IMPLICIT EXCLUSIONS
Info: NONBONDED TABLE R-SQUARED SPACING: 0.0625
Info: NONBONDED TABLE SIZE: 705 POINTS
Info: REMOVING COM VELOCITY -0.1723 0.0640034 -0.166192
Info: Use 3D box decompostion in PME FFT.
Info: Updated CUDA force table with 4096 elements.
Info: Updated CUDA LJ table with 7 x 7 elements.
Info: Found 17 unique exclusion lists needing 36 bytes
TCL: Running for 1500000 steps
ETITLE: TS BOND ANGLE DIHED IMPRP ELECT VDW BOUNDARY MISC KINETIC TOTAL TEMP POTENTIAL TOTALAVG TEMPAVG PRESSURE GPRESSURE VOLUME PRESSAVG GPRESSAVG
ENERGY: 0 1.8109 5.9327 3.1627 0.0000 -10627.4374 1422.7101 0.0000 0.0000 1713.7983 -7480.0227 294.2417 -9193.8210 -7480.0227 294.2417 -137.5658 -61.9705 30211.2953 -137.5658 -61.9705
ENERGY: 300000 2.1431 3.0711 3.6302 0.0000 -10679.9090 1455.9068 0.0000 0.0000 1732.9077 -7482.2501 297.5226 -9215.1578 -7420.0798 302.1025 206.7063 212.4495 29826.4744 188.6062 225.2314
ENERGY: 600000 4.0468 4.5702 2.1880 0.0000 -10603.1194 1402.6134 0.0000 0.0000 1736.3530 -7453.3480 298.1142 -9189.7011 -7428.9953 300.2324 -246.3272 -189.7855 30232.3422 25.3834 83.0882
ENERGY: 900000 3.8119 3.6947 5.0066 0.0000 -10641.0102 1428.6823 0.0000 0.0000 1789.0580 -7410.7568 307.1631 -9199.8148 -7431.0488 301.6807 -231.4509 -177.9419 30068.8245 43.9933 106.0972
ENERGY: 1200000 2.4598 4.5605 3.8276 0.0000 -10540.5032 1334.4311 0.0000 0.0000 1725.8835 -7469.3408 296.3166 -9195.2242 -7438.1077 300.7620 -397.8216 -403.0902 29520.4422 13.5556 73.4673
ENERGY: 1500000 2.3541 8.8000 4.2236 0.0000 -10512.3409 1367.0318 0.0000 0.0000 1723.5096 -7406.4217 295.9091 -9129.9314 -7445.4005 299.5909 -375.9977 -308.3056 30040.8307 -54.5152 4.1640
TCL: Running FEP window   2: Lambda1 0.05   Lambda2 0.1    [dLambda 0.05  ]
TCL: Setting parameter firsttimestep to 0
TCL: Setting parameter alchLambda to 0.05
Info: NONBONDED TABLE R-SQUARED SPACING: 0.0625
Info: NONBONDED TABLE SIZE: 705 POINTS
TCL: Setting parameter alchLambda2 to 0.1
Info: NONBONDED TABLE R-SQUARED SPACING: 0.0625
Info: NONBONDED TABLE SIZE: 705 POINTS
TCL: Running for 1500000 steps
ETITLE: TS BOND ANGLE DIHED IMPRP ELECT VDW BOUNDARY MISC KINETIC TOTAL TEMP POTENTIAL TOTALAVG TEMPAVG PRESSURE GPRESSURE VOLUME PRESSAVG GPRESSAVG
ENERGY: 0 2.3541 8.8001 4.2236 0.0000 -10512.3409 1369.7347 0.0000 0.0000 1722.6779 -7404.5506 295.7663 -9127.2285 -7404.5506 295.7663 -372.3739 -301.0865 30040.8307 -372.3739 -301.0865
ENERGY: 300000 1.2872 6.0914 3.9490 0.0000 -10656.1162 1464.2587 0.0000 0.0000 1765.9057 -7414.6242 303.1880 -9180.5299 -7416.5376 298.9502 375.8876 381.9628 30064.1032 22.0461 63.3395
ENERGY: 600000 2.0375 2.7271 5.3718 0.0000 -10419.7842 1327.5146 0.0000 0.0000 1715.5154 -7366.6177 294.5366 -9082.1331 -7414.6119 300.3777 -675.0892 -599.5634 30538.6786 -288.6626 -245.2177
ENERGY: 900000 5.9181 3.8051 2.9037 0.0000 -10615.6024 1404.3231 0.0000 0.0000 1728.0081 -7470.6442 296.6814 -9198.6523 -7424.6604 299.6249 -404.3394 -344.0295 30231.3452 -330.1229 -270.4047
ENERGY: 1200000 2.3765 4.4104 5.7599 0.0000 -10745.9920 1467.7943 0.0000 0.0000 1745.2894 -7520.3615 299.6484 -9265.6509 -7424.3840 300.0273 183.8466 251.9280 29679.9028 -291.1431 -230.6645
ENERGY: 1500000 4.0848 2.7840 5.1054 0.0000 -10783.1564 1534.1916 0.0000 0.0000 1740.1641 -7496.8264 298.7685 -9236.9905 -7427.2496 298.8522 917.5633 997.7664 29406.7982 -259.5373 -199.8470
TCL: Running FEP window   3: Lambda1 0.1    Lambda2 0.15000000000000002 [dLambda 0.05000000000000002]
TCL: Setting parameter firsttimestep to 0
TCL: Setting parameter alchLambda to 0.1
Info: NONBONDED TABLE R-SQUARED SPACING: 0.0625
Info: NONBONDED TABLE SIZE: 705 POINTS
TCL: Setting parameter alchLambda2 to 0.15000000000000002
Info: NONBONDED TABLE R-SQUARED SPACING: 0.0625
Info: NONBONDED TABLE SIZE: 705 POINTS
TCL: Running for 1500000 steps
ETITLE: TS BOND ANGLE DIHED IMPRP ELECT VDW BOUNDARY MISC KINETIC TOTAL TEMP POTENTIAL TOTALAVG TEMPAVG PRESSURE GPRESSURE VOLUME PRESSAVG GPRESSAVG
ENERGY: 0 4.0848 2.7840 5.1054 0.0000 -10783.1572 1535.3883 0.0000 0.0000 1739.3058 -7496.4888 298.6211 -9235.7946 -7496.4888 298.6211 913.0110 1004.6173 29406.7982 913.0110 1004.6173
ENERGY: 300000 1.3171 4.5346 4.7069 0.0000 -10584.3798 1383.1552 0.0000 0.0000 1804.9023 -7385.7638 309.8834 -9190.6661 -7441.2756 302.1472 -324.5326 -216.7488 30024.5329 107.4243 206.3925
ENERGY: 600000 0.8792 3.6027 2.0363 0.0000 -10765.3512 1527.6076 0.0000 0.0000 1715.2882 -7515.9373 294.4975 -9231.2255 -7456.7660 299.3988 639.7506 724.6193 29825.9071 118.6357 210.8616
ENERGY: 900000 1.3634 5.2923 1.5941 0.0000 -10645.7954 1456.8583 0.0000 0.0000 1714.2768 -7466.4105 294.3239 -9180.6872 -7462.1685 299.3138 338.3590 362.9560 29656.4621 165.9402 240.5802
ENERGY: 1200000 2.2317 3.2268 3.6387 0.0000 -10605.0623 1407.1218 0.0000 0.0000 1757.6663 -7431.1770 301.7734 -9188.8433 -7469.2620 299.4545 -127.9930 -12.3598 30248.3561 82.5613 157.6629
ENERGY: 1500000 1.7001 2.2266 3.3513 0.0000 -10660.3042 1402.6501 0.0000 0.0000 1717.5965 -7532.7796 294.8939 -9250.3761 -7472.5190 299.8852 -608.0009 -502.0816 30093.1214 57.2058 132.1248
TCL: Running FEP window   4: Lambda1 0.15000000000000002 Lambda2 0.2    [dLambda 0.04999999999999999]
TCL: Setting parameter firsttimestep to 0
TCL: Setting parameter alchLambda to 0.15000000000000002
Info: NONBONDED TABLE R-SQUARED SPACING: 0.0625
Info: NONBONDED TABLE SIZE: 705 POINTS
TCL: Setting parameter alchLambda2 to 0.2
Info: NONBONDED TABLE R-SQUARED SPACING: 0.0625
Info: NONBONDED TABLE SIZE: 705 POINTS
TCL: Running for 1500000 steps
ETITLE: TS BOND ANGLE DIHED IMPRP ELECT VDW BOUNDARY MISC KINETIC TOTAL TEMP POTENTIAL TOTALAVG TEMPAVG PRESSURE GPRESSURE VOLUME PRESSAVG GPRESSAVG
ENERGY: 0 1.7001 2.2266 3.3513 0.0000 -10660.3068 1405.6740 0.0000 0.0000 1716.7095 -7530.6452 294.7416 -9247.3548 -7530.6452 294.7416 -571.1015 -487.4226 30093.1214 -571.1015 -487.4226
ENERGY: 300000 3.9082 4.3106 2.0402 0.0000 -10636.9037 1450.7106 0.0000 0.0000 1766.8398 -7409.0943 303.3484 -9175.9341 -7454.9452 300.4886 296.2310 393.1885 29823.2050 178.5279 267.2753
ENERGY: 600000 6.5937 3.8963 5.4376 0.0000 -10616.3275 1406.1607 0.0000 0.0000 1715.1398 -7479.0994 294.4721 -9194.2392 -7469.2096 299.3336 -216.3847 -170.3373 29846.6642 6.5110 75.5172
ENERGY: 900000 1.4648 4.8593 4.1051 0.0000 -10552.0606 1427.4780 0.0000 0.0000 1776.4592 -7337.6941 305.0000 -9114.1533 -7468.9856 297.8303 80.3131 171.7779 30102.6390 -53.9396 14.4700
ENERGY: 1200000 2.2180 4.8649 6.6886 0.0000 -10684.6294 1426.6219 0.0000 0.0000 1758.8955 -7485.3404 301.9845 -9244.2359 -7474.2474 298.0007 -386.8618 -333.7813 30579.0692 8.4007 80.6156
ENERGY: 1500000 2.2398 2.3939 1.9513 0.0000 -10584.1152 1386.9304 0.0000 0.0000 1793.1070 -7397.4927 307.8582 -9190.5997 -7470.0304 299.6308 -653.9373 -571.2398 30416.1377 -34.2128 44.4915
TCL: Running FEP window   5: Lambda1 0.2    Lambda2 0.25   [dLambda 0.04999999999999999]
TCL: Setting parameter firsttimestep to 0
TCL: Setting parameter alchLambda to 0.2
Info: NONBONDED TABLE R-SQUARED SPACING: 0.0625
Info: NONBONDED TABLE SIZE: 705 POINTS
TCL: Setting parameter alchLambda2 to 0.25
Info: NONBONDED TABLE R-SQUARED SPACING: 0.0625
Info: NONBONDED TABLE SIZE: 705 POINTS
TCL: Running for 1500000 steps
ETITLE: TS BOND ANGLE DIHED IMPRP ELECT VDW BOUNDARY MISC KINETIC TOTAL TEMP POTENTIAL TOTALAVG TEMPAVG PRESSURE GPRESSURE VOLUME PRESSAVG GPRESSAVG
ENERGY: 0 2.2398 2.3939 1.9513 0.0000 -10584.1156 1387.3264 0.0000 0.0000 1792.2450 -7397.9592 307.7102 -9190.2042 -7397.9592 307.7102 -645.7824 -564.5135 30416.1377 -645.7824 -564.5135
ENERGY: 300000 4.2944 5.5354 1.7019 0.0000 -10549.9516 1406.4942 0.0000 0.0000 1741.6584 -7390.2673 299.0250 -9131.9256 -7463.8456 298.9805 -99.6904 -51.5876 30104.8491 -209.1246 -136.6301
ENERGY: 600000 3.2764 11.4606 2.8017 0.0000 -10541.4629 1365.6856 0.0000 0.0000 1777.0408 -7381.1979 305.0998 -9158.2387 -7469.6844 299.6659 -479.8116 -410.5273 30103.3502 -163.1515 -93.6555
ENERGY: 900000 1.8123 4.2473 6.4191 0.0000 -10796.5386 1530.9171 0.0000 0.0000 1798.0756 -7455.0673 308.7113 -9253.1429 -7450.6891 300.9970 786.4676 892.5222 29526.8547 -138.2395 -60.6158
ENERGY: 1200000 4.3655 2.9621 5.3779 0.0000 -10543.5017 1373.2236 0.0000 0.0000 1787.8523 -7369.7205 306.9560 -9157.5727 -7455.6818 299.5932 -482.7424 -410.6865 30248.7579 -237.9003 -164.2164
ENERGY: 1500000 0.9659 2.5383 3.3280 0.0000 -10574.6317 1383.2402 0.0000 0.0000 1736.4268 -7448.1326 298.1268 -9184.5594 -7446.5396 300.3082 -127.0646 -85.0037 29738.3976 -246.5887 -174.7724
TCL: Running FEP window   6: Lambda1 0.25   Lambda2 0.3    [dLambda 0.04999999999999999]
TCL: Setting parameter firsttimestep to 0
TCL: Setting parameter alchLambda to 0.25
Info: NONBONDED TABLE R-SQUARED SPACING: 0.0625
Info: NONBONDED TABLE SIZE: 705 POINTS
TCL: Setting parameter alchLambda2 to 0.3
Info: NONBONDED TABLE R-SQUARED SPACING: 0.0625
Info: NONBONDED TABLE SIZE: 705 POINTS
TCL: Running for 1500000 steps
ETITLE: TS BOND ANGLE DIHED IMPRP ELECT VDW BOUNDARY MISC KINETIC TOTAL TEMP POTENTIAL TOTALAVG TEMPAVG PRESSURE GPRESSURE VOLUME PRESSAVG GPRESSAVG
ENERGY: 0 0.9659 2.5382 3.3280 0.0000 -10574.6309 1383.0991 0.0000 0.0000 1735.5848 -7449.1149 297.9823 -9184.6996 -7449.1149 297.9823 -177.3513 -85.3606 29738.3976 -177.3513 -85.3606
ENERGY: 300000 2.0878 3.1379 2.9317 0.0000 -10779.7231 1520.9355 0.0000 0.0000 1784.8389 -7465.7912 306.4387 -9250.6301 -7440.2198 303.5396 808.7101 921.5203 29417.7505 452.5539 532.1529
ENERGY: 600000 5.5983 3.5770 3.8173 0.0000 -10638.3080 1451.5278 0.0000 0.0000 1740.6806 -7433.1070 298.8572 -9173.7876 -7445.8485 303.1283 221.5588 222.9659 30014.9502 405.8663 471.4104
ENERGY: 900000 2.0680 3.8663 4.7722 0.0000 -10513.7298 1358.9183 0.0000 0.0000 1757.4960 -7386.6090 301.7442 -9144.1050 -7432.5656 302.1956 -483.9246 -365.1913 30154.4537 94.5099 165.9954
ENERGY: 1200000 4.1076 2.8072 6.1322 0.0000 -10656.6666 1444.6009 0.0000 0.0000 1760.4641 -7438.5546 302.2538 -9199.0187 -7436.1107 301.9090 101.7074 181.2311 29998.5112 150.8565 228.4052
ENERGY: 1500000 4.1624 4.3232 3.5772 0.0000 -10628.7505 1428.5268 0.0000 0.0000 1708.8868 -7479.2740 293.3985 -9188.1608 -7434.6382 301.6329 -344.6797 -243.2536 30333.8919 143.0256 218.6948
TCL: Running FEP window   7: Lambda1 0.3    Lambda2 0.35   [dLambda 0.04999999999999999]
TCL: Setting parameter firsttimestep to 0
TCL: Setting parameter alchLambda to 0.3
Info: NONBONDED TABLE R-SQUARED SPACING: 0.0625
Info: NONBONDED TABLE SIZE: 705 POINTS
TCL: Setting parameter alchLambda2 to 0.35
Info: NONBONDED TABLE R-SQUARED SPACING: 0.0625
Info: NONBONDED TABLE SIZE: 705 POINTS
TCL: Running for 1500000 steps
ETITLE: TS BOND ANGLE DIHED IMPRP ELECT VDW BOUNDARY MISC KINETIC TOTAL TEMP POTENTIAL TOTALAVG TEMPAVG PRESSURE GPRESSURE VOLUME PRESSAVG GPRESSAVG
ENERGY: 0 4.1624 4.3232 3.5772 0.0000 -10628.7506 1428.1536 0.0000 0.0000 1708.0257 -7480.5084 293.2506 -9188.5342 -7480.5084 293.2506 -317.8820 -242.3612 30333.8919 -317.8820 -242.3612
ENERGY: 300000 2.3200 4.0908 3.8208 0.0000 -10589.2672 1404.6631 0.0000 0.0000 1777.8567 -7396.5157 305.2399 -9174.3725 -7427.8626 302.6862 -272.7463 -195.6244 30349.0147 -155.4885 -65.2509
ENERGY: 600000 2.0495 3.4932 3.0134 0.0000 -10542.6327 1394.5237 0.0000 0.0000 1805.8186 -7333.7343 310.0407 -9139.5528 -7427.3557 300.8885 42.2386 102.6484 29613.3560 -223.2004 -136.7681
ENERGY: 900000 1.2568 3.7074 1.4503 0.0000 -10645.5333 1416.3852 0.0000 0.0000 1802.6698 -7420.0637 309.5001 -9222.7335 -7425.5323 301.3849 -53.9775 64.3467 29678.5309 -163.2768 -82.5940
ENERGY: 1200000 3.8862 7.4139 3.4505 0.0000 -10595.8324 1433.1326 0.0000 0.0000 1833.3747 -7314.5745 314.7718 -9147.9493 -7425.0685 301.3611 685.5589 776.2483 29628.2115 -143.8851 -61.1162
ENERGY: 1500000 1.1276 2.0332 1.3479 0.0000 -10713.7346 1477.7979 0.0000 0.0000 1733.5835 -7497.8445 297.6387 -9231.4280 -7436.6284 301.1461 187.7027 280.4053 30456.6558 -87.2934 -3.7791
TCL: Running FEP window   8: Lambda1 0.35   Lambda2 0.39999999999999997 [dLambda 0.04999999999999999]
TCL: Setting parameter firsttimestep to 0
TCL: Setting parameter alchLambda to 0.35
Info: NONBONDED TABLE R-SQUARED SPACING: 0.0625
Info: NONBONDED TABLE SIZE: 705 POINTS
TCL: Setting parameter alchLambda2 to 0.39999999999999997
Info: NONBONDED TABLE R-SQUARED SPACING: 0.0625
Info: NONBONDED TABLE SIZE: 705 POINTS
TCL: Running for 1500000 steps
ETITLE: TS BOND ANGLE DIHED IMPRP ELECT VDW BOUNDARY MISC KINETIC TOTAL TEMP POTENTIAL TOTALAVG TEMPAVG PRESSURE GPRESSURE VOLUME PRESSAVG GPRESSAVG
ENERGY: 0 1.1276 2.0332 1.3479 0.0000 -10713.7344 1477.6821 0.0000 0.0000 1732.7117 -7498.8318 297.4890 -9231.5435 -7498.8318 297.4890 211.4006 284.4823 30456.6558 211.4006 284.4823
ENERGY: 300000 4.6131 3.4623 7.6112 0.0000 -10557.7008 1385.2097 0.0000 0.0000 1790.4552 -7366.3493 307.4030 -9156.8045 -7484.6788 298.8237 -616.0446 -596.4390 30512.8653 -32.9889 24.6907
ENERGY: 600000 5.4052 8.0636 4.4013 0.0000 -10590.8366 1362.9041 0.0000 0.0000 1756.3207 -7453.7418 301.5424 -9210.0624 -7466.0436 299.3594 -906.1342 -817.0747 30713.3555 -50.3769 7.1041
ENERGY: 900000 2.9498 4.7210 3.1074 0.0000 -10609.4990 1465.4799 0.0000 0.0000 1791.9713 -7341.2695 307.6632 -9133.2408 -7443.7966 300.4375 540.9089 607.6005 30146.4715 30.5219 94.2822
ENERGY: 1200000 5.0095 5.2540 3.6002 0.0000 -10567.8743 1418.3534 0.0000 0.0000 1751.1800 -7384.4773 300.6598 -9135.6572 -7433.7415 300.4310 -61.4821 -30.8665 30295.1830 -14.2987 39.8733
ENERGY: 1500000 0.6111 2.3557 2.4653 0.0000 -10810.5955 1486.6370 0.0000 0.0000 1709.9785 -7608.5479 293.5859 -9318.5264 -7440.0164 300.1583 192.8844 242.1207 29621.2535 4.4006 64.1601
TCL: Running FEP window   9: Lambda1 0.39999999999999997 Lambda2 0.44999999999999996 [dLambda 0.04999999999999999]
TCL: Setting parameter firsttimestep to 0
TCL: Setting parameter alchLambda to 0.39999999999999997
Info: NONBONDED TABLE R-SQUARED SPACING: 0.0625
Info: NONBONDED TABLE SIZE: 705 POINTS
TCL: Setting parameter alchLambda2 to 0.44999999999999996
Info: NONBONDED TABLE R-SQUARED SPACING: 0.0625
Info: NONBONDED TABLE SIZE: 705 POINTS
TCL: Running for 1500000 steps
ETITLE: TS BOND ANGLE DIHED IMPRP ELECT VDW BOUNDARY MISC KINETIC TOTAL TEMP POTENTIAL TOTALAVG TEMPAVG PRESSURE GPRESSURE VOLUME PRESSAVG GPRESSAVG
ENERGY: 0 0.6111 2.3556 2.4653 0.0000 -10810.5942 1487.7373 0.0000 0.0000 1709.1272 -7608.2976 293.4398 -9317.4248 -7608.2976 293.4398 156.4070 254.0286 29621.2535 156.4070 254.0286
ENERGY: 300000 1.1906 1.7463 5.2990 0.0000 -10718.2716 1447.9904 0.0000 0.0000 1740.2154 -7521.8299 298.7773 -9262.0453 -7507.9776 298.7720 0.6732 16.2325 29726.8753 86.4645 152.0206
ENERGY: 600000 3.9001 5.2116 3.3788 0.0000 -10547.1226 1369.7509 0.0000 0.0000 1742.3344 -7422.5469 299.1411 -9164.8813 -7489.6343 297.2148 -602.6185 -627.3714 30374.8382 -105.8518 -39.0131
ENERGY: 900000 1.9049 2.3073 4.5218 0.0000 -10597.6576 1439.1975 0.0000 0.0000 1771.0424 -7378.6837 304.0700 -9149.7261 -7480.8587 298.0217 335.0959 405.6392 29668.8309 -40.4947 29.3490
ENERGY: 1200000 3.5567 2.1987 1.8559 0.0000 -10675.6515 1517.3929 0.0000 0.0000 1753.5907 -7397.0566 301.0737 -9150.6473 -7464.7097 299.0961 811.0729 873.8395 30118.5300 37.0234 102.0291
ENERGY: 1500000 1.8819 3.3021 0.9166 0.0000 -10603.6178 1378.8442 0.0000 0.0000 1691.9574 -7526.7156 290.4919 -9218.6730 -7470.2089 298.5975 -616.0184 -579.9178 30525.4663 8.6844 70.7424
TCL: Running FEP window  10: Lambda1 0.44999999999999996 Lambda2 0.49999999999999994 [dLambda 0.04999999999999999]
TCL: Setting parameter firsttimestep to 0
TCL: Setting parameter alchLambda to 0.44999999999999996
Info: NONBONDED TABLE R-SQUARED SPACING: 0.0625
Info: NONBONDED TABLE SIZE: 705 POINTS
TCL: Setting parameter alchLambda2 to 0.49999999999999994
Info: NONBONDED TABLE R-SQUARED SPACING: 0.0625
Info: NONBONDED TABLE SIZE: 705 POINTS
TCL: Running for 1500000 steps
ETITLE: TS BOND ANGLE DIHED IMPRP ELECT VDW BOUNDARY MISC KINETIC TOTAL TEMP POTENTIAL TOTALAVG TEMPAVG PRESSURE GPRESSURE VOLUME PRESSAVG GPRESSAVG
ENERGY: 0 1.8819 3.3021 0.9166 0.0000 -10603.6168 1378.6267 0.0000 0.0000 1691.0325 -7527.8570 290.3331 -9218.8895 -7527.8570 290.3331 -660.4505 -575.0435 30525.4663 -660.4505 -575.0435
ENERGY: 300000 1.6433 3.9433 5.6868 0.0000 -10559.2773 1393.7846 0.0000 0.0000 1727.0986 -7427.1207 296.5253 -9154.2194 -7451.0265 296.8023 -381.2734 -321.2719 30555.5768 -269.5440 -196.7242
ENERGY: 600000 2.0762 3.3951 3.9337 0.0000 -10710.2516 1406.0542 0.0000 0.0000 1696.5979 -7598.1945 291.2886 -9294.7924 -7465.5061 297.9322 -503.6481 -410.6668 29823.1667 -255.6928 -185.6365
ENERGY: 900000 3.2631 3.6960 5.2923 0.0000 -10623.9992 1406.9636 0.0000 0.0000 1787.3679 -7417.4162 306.8729 -9204.7841 -7456.4217 299.3554 -238.0981 -171.6451 30186.9217 -166.7879 -93.8423
ENERGY: 1200000 3.2416 5.1270 1.8505 0.0000 -10630.1489 1392.5959 0.0000 0.0000 1733.8257 -7493.5081 297.6802 -9227.3338 -7460.8195 299.6235 -351.4219 -292.1387 30115.1853 -129.6479 -62.9654
ENERGY: 1500000 2.4235 6.7277 5.1805 0.0000 -10713.9109 1462.8513 0.0000 0.0000 1735.7617 -7500.9661 298.0126 -9236.7278 -7457.7953 299.9651 162.2049 247.1270 29985.8188 -94.3750 -20.1441
TCL: Running FEP window  11: Lambda1 0.49999999999999994 Lambda2 0.5499999999999999 [dLambda 0.04999999999999999]
TCL: Setting parameter firsttimestep to 0
TCL: Setting parameter alchLambda to 0.49999999999999994
Info: NONBONDED TABLE R-SQUARED SPACING: 0.0625
Info: NONBONDED TABLE SIZE: 705 POINTS
TCL: Setting parameter alchLambda2 to 0.5499999999999999
Info: NONBONDED TABLE R-SQUARED SPACING: 0.0625
Info: NONBONDED TABLE SIZE: 705 POINTS
TCL: Running for 1500000 steps
ETITLE: TS BOND ANGLE DIHED IMPRP ELECT VDW BOUNDARY MISC KINETIC TOTAL TEMP POTENTIAL TOTALAVG TEMPAVG PRESSURE GPRESSURE VOLUME PRESSAVG GPRESSAVG
ENERGY: 0 2.4235 6.7277 5.1805 0.0000 -10713.9122 1462.9597 0.0000 0.0000 1734.9324 -7501.6883 297.8703 -9236.6208 -7501.6883 297.8703 179.5027 253.8344 29985.8188 179.5027 253.8344
ENERGY: 300000 3.8841 3.2422 2.3347 0.0000 -10548.0277 1375.4739 0.0000 0.0000 1765.6127 -7397.4801 303.1378 -9163.0928 -7453.0445 300.1254 -608.1637 -529.5889 30375.0884 -99.5642 -8.6337
ENERGY: 600000 3.0549 4.2900 3.9559 0.0000 -10671.9594 1459.5430 0.0000 0.0000 1782.7154 -7418.4002 306.0741 -9201.1156 -7444.0974 298.9786 133.6932 228.5975 30029.1042 115.4412 197.6249
ENERGY: 900000 3.5431 3.6671 5.1116 0.0000 -10633.6035 1481.1981 0.0000 0.0000 1771.2262 -7368.8575 304.1015 -9140.0836 -7447.6634 298.5745 441.0227 478.3861 30774.6027 273.8928 341.3131
ENERGY: 1200000 1.8524 2.4759 3.4095 0.0000 -10652.1245 1517.8788 0.0000 0.0000 1691.7097 -7434.7982 290.4494 -9126.5079 -7449.4624 298.3643 1017.5102 1072.2222 29769.9270 343.0471 402.3702
ENERGY: 1500000 2.8192 2.6516 1.7623 0.0000 -10620.2947 1379.7974 0.0000 0.0000 1700.2071 -7533.0571 291.9083 -9233.2643 -7456.7043 298.9379 -592.2214 -469.0774 30173.7700 233.5967 295.0037
TCL: Running FEP window  12: Lambda1 0.5499999999999999 Lambda2 0.6    [dLambda 0.050000000000000044]
TCL: Setting parameter firsttimestep to 0
TCL: Setting parameter alchLambda to 0.5499999999999999
Info: NONBONDED TABLE R-SQUARED SPACING: 0.0625
Info: NONBONDED TABLE SIZE: 705 POINTS
TCL: Setting parameter alchLambda2 to 0.6
Info: NONBONDED TABLE R-SQUARED SPACING: 0.0625
Info: NONBONDED TABLE SIZE: 705 POINTS
TCL: Running for 1500000 steps
ETITLE: TS BOND ANGLE DIHED IMPRP ELECT VDW BOUNDARY MISC KINETIC TOTAL TEMP POTENTIAL TOTALAVG TEMPAVG PRESSURE GPRESSURE VOLUME PRESSAVG GPRESSAVG
ENERGY: 0 2.8192 2.6516 1.7623 0.0000 -10619.5337 1379.6503 0.0000 0.0000 1699.3072 -7533.3431 291.7538 -9232.6503 -7533.3431 291.7538 -557.2664 -459.9455 30173.7700 -557.2664 -459.9455
ENERGY: 300000 1.8799 5.8687 1.9809 0.0000 -10614.1042 1404.4910 0.0000 0.0000 1776.3799 -7423.5039 304.9864 -9199.8838 -7443.6099 296.8508 -100.5694 -43.8509 30017.4813 -176.3264 -108.4391
ENERGY: 600000 1.9006 2.1094 4.4497 0.0000 -10634.6131 1425.3172 0.0000 0.0000 1810.7392 -7390.0970 310.8855 -9200.8362 -7433.7609 301.7641 40.5395 94.1777 30261.5320 -41.6053 25.4488
ENERGY: 900000 2.0772 3.0402 2.6259 0.0000 -10621.2584 1396.2656 0.0000 0.0000 1719.4433 -7497.8061 295.2109 -9217.2494 -7445.2470 299.2451 -187.4647 -137.7546 29772.1452 -145.2307 -86.5429
ENERGY: 1200000 4.1531 2.7830 3.9185 0.0000 -10562.4536 1406.2854 0.0000 0.0000 1760.1843 -7385.1293 302.2058 -9145.3136 -7447.3181 299.2870 182.6163 245.8320 29747.6162 -100.6164 -38.0091
ENERGY: 1500000 4.2526 2.9141 1.7548 0.0000 -10725.5839 1570.5204 0.0000 0.0000 1732.8002 -7413.3419 297.5042 -9146.1420 -7450.9800 299.0709 1621.4947 1637.5423 29562.8949 -15.0971 43.4383
TCL: Running FEP window  13: Lambda1 0.6    Lambda2 0.65   [dLambda 0.050000000000000044]
TCL: Setting parameter firsttimestep to 0
TCL: Setting parameter alchLambda to 0.6
Info: NONBONDED TABLE R-SQUARED SPACING: 0.0625
Info: NONBONDED TABLE SIZE: 705 POINTS
TCL: Setting parameter alchLambda2 to 0.65
Info: NONBONDED TABLE R-SQUARED SPACING: 0.0625
Info: NONBONDED TABLE SIZE: 705 POINTS
TCL: Running for 1500000 steps
ETITLE: TS BOND ANGLE DIHED IMPRP ELECT VDW BOUNDARY MISC KINETIC TOTAL TEMP POTENTIAL TOTALAVG TEMPAVG PRESSURE GPRESSURE VOLUME PRESSAVG GPRESSAVG
ENERGY: 0 4.2526 2.9141 1.7548 0.0000 -10725.6216 1570.1604 0.0000 0.0000 1731.9167 -7414.6230 297.3525 -9146.5397 -7414.6230 297.3525 1549.8580 1645.0672 29562.8949 1549.8580 1645.0672
ENERGY: 300000 2.1901 11.0055 3.2758 0.0000 -10708.7466 1527.8960 0.0000 0.0000 1745.5032 -7418.8759 299.6851 -9164.3791 -7412.2852 300.1247 1012.4377 1047.7794 29849.5959 891.8412 962.0883
ENERGY: 600000 1.9061 4.9413 2.8492 0.0000 -10559.8454 1414.9374 0.0000 0.0000 1732.5612 -7402.6502 297.4631 -9135.2114 -7407.4938 300.4150 215.3746 280.8810 29838.1922 632.8263 701.0101
ENERGY: 900000 2.2656 3.4750 3.9016 0.0000 -10799.5448 1563.3633 0.0000 0.0000 1721.8405 -7504.6988 295.6225 -9226.5393 -7429.9547 299.5710 1312.0547 1314.6702 29732.1515 650.2740 703.4415
ENERGY: 1200000 2.1411 2.6487 3.7607 0.0000 -10521.5971 1285.9215 0.0000 0.0000 1792.4380 -7434.6872 307.7434 -9227.1251 -7447.6439 300.1836 -1070.0864 -1021.1911 29926.7861 477.7971 527.2737
ENERGY: 1500000 3.1525 5.1047 3.3931 0.0000 -10599.5298 1438.8237 0.0000 0.0000 1755.5637 -7393.4922 301.4124 -9149.0558 -7451.0813 299.9023 78.2018 164.4126 30240.6510 418.0448 474.1166
TCL: Running FEP window  14: Lambda1 0.65   Lambda2 0.7000000000000001 [dLambda 0.050000000000000044]
TCL: Setting parameter firsttimestep to 0
TCL: Setting parameter alchLambda to 0.65
Info: NONBONDED TABLE R-SQUARED SPACING: 0.0625
Info: NONBONDED TABLE SIZE: 705 POINTS
TCL: Setting parameter alchLambda2 to 0.7000000000000001
Info: NONBONDED TABLE R-SQUARED SPACING: 0.0625
Info: NONBONDED TABLE SIZE: 705 POINTS
TCL: Running for 1500000 steps
ETITLE: TS BOND ANGLE DIHED IMPRP ELECT VDW BOUNDARY MISC KINETIC TOTAL TEMP POTENTIAL TOTALAVG TEMPAVG PRESSURE GPRESSURE VOLUME PRESSAVG GPRESSAVG
ENERGY: 0 3.1525 5.1047 3.3931 0.0000 -10599.5176 1438.8131 0.0000 0.0000 1754.6670 -7394.3872 301.2585 -9149.0542 -7394.3872 301.2585 94.5612 171.4590 30240.6510 94.5612 171.4590
ENERGY: 300000 1.8302 2.3702 3.1602 0.0000 -10698.7736 1450.0090 0.0000 0.0000 1780.2961 -7461.1079 305.6587 -9241.4040 -7434.6157 301.5065 242.8867 302.5674 29891.5278 -75.3751 -6.4608
ENERGY: 600000 2.0195 6.8807 3.7732 0.0000 -10757.8755 1489.6124 0.0000 0.0000 1715.7230 -7539.8667 294.5722 -9255.5897 -7468.9753 299.5954 315.5492 418.3103 30019.2211 -162.0413 -82.0496
ENERGY: 900000 2.4582 3.1398 1.1655 0.0000 -10482.9037 1286.4673 0.0000 0.0000 1746.7814 -7442.8914 299.9046 -9189.6729 -7445.2468 300.7295 -1217.4396 -1169.6311 30646.8910 -284.4255 -218.2935
ENERGY: 1200000 3.4643 1.0817 8.6794 0.0000 -10559.9333 1429.2632 0.0000 0.0000 1770.4673 -7346.9774 303.9712 -9117.4447 -7436.9643 300.8423 -351.8507 -287.1447 31077.1457 -292.4109 -228.3782
ENERGY: 1500000 1.9731 2.9089 3.2232 0.0000 -10498.6440 1367.4033 0.0000 0.0000 1714.8331 -7408.3025 294.4194 -9123.1355 -7443.5535 299.6025 -198.9270 -127.4821 30274.9063 -213.7864 -149.6714
TCL: Running FEP window  15: Lambda1 0.7000000000000001 Lambda2 0.7500000000000001 [dLambda 0.050000000000000044]
TCL: Setting parameter firsttimestep to 0
TCL: Setting parameter alchLambda to 0.7000000000000001
Info: NONBONDED TABLE R-SQUARED SPACING: 0.0625
Info: NONBONDED TABLE SIZE: 705 POINTS
TCL: Setting parameter alchLambda2 to 0.7500000000000001
Info: NONBONDED TABLE R-SQUARED SPACING: 0.0625
Info: NONBONDED TABLE SIZE: 705 POINTS
TCL: Running for 1500000 steps
ETITLE: TS BOND ANGLE DIHED IMPRP ELECT VDW BOUNDARY MISC KINETIC TOTAL TEMP POTENTIAL TOTALAVG TEMPAVG PRESSURE GPRESSURE VOLUME PRESSAVG GPRESSAVG
ENERGY: 0 1.9731 2.9089 3.2232 0.0000 -10499.1334 1367.0786 0.0000 0.0000 1713.9635 -7409.9862 294.2701 -9123.9497 -7409.9862 294.2701 -205.9727 -124.4533 30274.9063 -205.9727 -124.4533
ENERGY: 300000 1.7190 4.9661 2.8244 0.0000 -10780.2291 1486.3674 0.0000 0.0000 1750.0593 -7534.2929 300.4674 -9284.3522 -7481.6781 297.8389 445.3583 493.2128 29717.4065 28.5437 83.4862
ENERGY: 600000 2.5274 4.7450 1.6752 0.0000 -10588.0196 1351.0486 0.0000 0.0000 1771.1254 -7456.8980 304.0842 -9228.0235 -7467.1794 300.0766 -557.9909 -513.1835 29896.5464 31.1722 85.5362
ENERGY: 900000 4.3620 3.5310 5.2247 0.0000 -10763.9905 1470.8209 0.0000 0.0000 1792.2751 -7487.7768 307.7154 -9280.0519 -7466.0084 300.3540 258.0709 294.0170 29717.3980 54.3257 106.7312
ENERGY: 1200000 2.4038 2.0495 3.0581 0.0000 -10620.6941 1395.9688 0.0000 0.0000 1792.1000 -7425.1139 307.6853 -9217.2139 -7462.8248 300.8170 -206.4027 -139.2469 30220.4993 63.1112 118.3416
ENERGY: 1500000 4.1603 5.1662 2.3101 0.0000 -10741.5141 1474.2711 0.0000 0.0000 1731.8616 -7523.7448 297.3430 -9255.6064 -7468.9349 299.9361 241.2711 307.8504 29884.2427 127.8974 186.4076
TCL: Running FEP window  16: Lambda1 0.7500000000000001 Lambda2 0.8000000000000002 [dLambda 0.050000000000000044]
TCL: Setting parameter firsttimestep to 0
TCL: Setting parameter alchLambda to 0.7500000000000001
Info: NONBONDED TABLE R-SQUARED SPACING: 0.0625
Info: NONBONDED TABLE SIZE: 705 POINTS
TCL: Setting parameter alchLambda2 to 0.8000000000000002
Info: NONBONDED TABLE R-SQUARED SPACING: 0.0625
Info: NONBONDED TABLE SIZE: 705 POINTS
TCL: Running for 1500000 steps
ETITLE: TS BOND ANGLE DIHED IMPRP ELECT VDW BOUNDARY MISC KINETIC TOTAL TEMP POTENTIAL TOTALAVG TEMPAVG PRESSURE GPRESSURE VOLUME PRESSAVG GPRESSAVG
ENERGY: 0 4.1603 5.1662 2.3101 0.0000 -10742.0608 1474.7526 0.0000 0.0000 1731.0025 -7524.6691 297.1955 -9255.6716 -7524.6691 297.1955 228.4258 320.1264 29884.2427 228.4258 320.1264
ENERGY: 300000 2.0634 1.9701 2.6578 0.0000 -10636.5739 1413.6392 0.0000 0.0000 1743.3369 -7472.9065 299.3132 -9216.2434 -7485.0619 297.7517 193.0517 267.7183 29596.7332 -140.0350 -75.5224
ENERGY: 600000 5.3123 5.1047 2.2432 0.0000 -10678.3234 1456.3208 0.0000 0.0000 1717.9453 -7491.3971 294.9537 -9209.3424 -7479.2748 296.7752 25.9335 165.8538 30375.8517 -337.7009 -264.0249
ENERGY: 900000 1.3665 5.8146 4.8563 0.0000 -10784.3740 1473.4050 0.0000 0.0000 1727.7183 -7571.2134 296.6317 -9298.9317 -7481.6924 297.5689 283.1091 373.1295 29951.0141 -122.7146 -42.8470
ENERGY: 1200000 2.5266 4.7095 4.6672 0.0000 -10625.1352 1409.0842 0.0000 0.0000 1723.2566 -7480.8910 295.8656 -9204.1476 -7473.7579 297.9185 -499.8710 -457.9389 30475.7060 -116.5441 -46.4442
ENERGY: 1500000 1.6096 4.1778 3.4312 0.0000 -10603.5302 1371.9379 0.0000 0.0000 1737.5678 -7484.8059 298.3227 -9222.3737 -7467.4290 298.0707 -362.8534 -395.7810 30325.6658 -129.9777 -73.0210
TCL: Running FEP window  17: Lambda1 0.8000000000000002 Lambda2 0.8500000000000002 [dLambda 0.050000000000000044]
TCL: Setting parameter firsttimestep to 0
TCL: Setting parameter alchLambda to 0.8000000000000002
Info: NONBONDED TABLE R-SQUARED SPACING: 0.0625
Info: NONBONDED TABLE SIZE: 705 POINTS
TCL: Setting parameter alchLambda2 to 0.8500000000000002
Info: NONBONDED TABLE R-SQUARED SPACING: 0.0625
Info: NONBONDED TABLE SIZE: 705 POINTS
TCL: Running for 1500000 steps
ETITLE: TS BOND ANGLE DIHED IMPRP ELECT VDW BOUNDARY MISC KINETIC TOTAL TEMP POTENTIAL TOTALAVG TEMPAVG PRESSURE GPRESSURE VOLUME PRESSAVG GPRESSAVG
ENERGY: 0 1.6096 4.1778 3.4312 0.0000 -10604.1859 1372.2535 0.0000 0.0000 1736.6704 -7486.0433 298.1686 -9222.7137 -7486.0433 298.1686 -455.1179 -384.0539 30325.6658 -455.1179 -384.0539
ENERGY: 300000 2.2780 2.6650 4.0016 0.0000 -10613.1337 1464.3350 0.0000 0.0000 1757.9495 -7381.9047 301.8220 -9139.8542 -7403.9871 301.8423 392.6652 425.0133 30363.9575 42.2430 95.9999
ENERGY: 600000 1.9349 3.4245 5.2542 0.0000 -10397.0668 1289.3887 0.0000 0.0000 1788.3214 -7308.7432 307.0366 -9097.0646 -7411.8892 302.0973 -798.2027 -686.4073 30183.9258 -152.1141 -92.2111
ENERGY: 900000 2.0096 5.7156 3.6024 0.0000 -10524.9722 1391.3817 0.0000 0.0000 1794.2577 -7328.0051 308.0558 -9122.2628 -7427.8757 302.0240 -342.6766 -256.7677 30878.5641 -80.6700 -13.1605
ENERGY: 1200000 2.6459 4.9381 6.6149 0.0000 -10786.7675 1498.7647 0.0000 0.0000 1751.0627 -7522.7412 300.6397 -9273.8039 -7430.5902 302.2521 401.4428 475.1506 29760.2623 86.2002 156.7929
ENERGY: 1500000 4.4977 3.0173 5.3831 0.0000 -10599.4260 1341.0009 0.0000 0.0000 1763.1127 -7482.4143 302.7085 -9245.5270 -7432.4975 302.5949 -604.2526 -537.3614 29858.8280 -7.9210 58.5668
TCL: Running FEP window  18: Lambda1 0.8500000000000002 Lambda2 0.9000000000000002 [dLambda 0.050000000000000044]
TCL: Setting parameter firsttimestep to 0
TCL: Setting parameter alchLambda to 0.8500000000000002
Info: NONBONDED TABLE R-SQUARED SPACING: 0.0625
Info: NONBONDED TABLE SIZE: 705 POINTS
TCL: Setting parameter alchLambda2 to 0.9000000000000002
Info: NONBONDED TABLE R-SQUARED SPACING: 0.0625
Info: NONBONDED TABLE SIZE: 705 POINTS
TCL: Running for 1500000 steps
ETITLE: TS BOND ANGLE DIHED IMPRP ELECT VDW BOUNDARY MISC KINETIC TOTAL TEMP POTENTIAL TOTALAVG TEMPAVG PRESSURE GPRESSURE VOLUME PRESSAVG GPRESSAVG
ENERGY: 0 4.4977 3.0173 5.3831 0.0000 -10601.0982 1342.8732 0.0000 0.0000 1762.1981 -7483.1287 302.5515 -9245.3269 -7483.1287 302.5515 -600.9111 -511.2174 29858.8280 -600.9111 -511.2174
ENERGY: 300000 2.6030 5.4342 5.7863 0.0000 -10464.3137 1349.9811 0.0000 0.0000 1726.8670 -7373.6421 296.4855 -9100.5091 -7442.5519 298.5706 -443.9613 -424.1893 30358.7916 -593.1913 -503.8829
ENERGY: 600000 1.4552 3.6756 3.8371 0.0000 -10572.4351 1348.8924 0.0000 0.0000 1744.6447 -7469.9301 299.5377 -9214.5747 -7442.7952 300.7085 -485.7486 -380.1330 30031.3623 -480.1642 -393.8129
ENERGY: 900000 2.4146 3.1419 2.7520 0.0000 -10728.4528 1491.5977 0.0000 0.0000 1776.7628 -7451.7838 305.0521 -9228.5466 -7444.2359 300.5357 155.6309 235.3596 30530.5946 -396.8355 -313.6342
ENERGY: 1200000 3.3390 4.2892 2.2629 0.0000 -10629.8590 1468.7039 0.0000 0.0000 1842.2092 -7309.0548 316.2886 -9151.2640 -7432.7169 302.1141 648.9240 702.9311 30121.3102 -244.2787 -160.3933
ENERGY: 1500000 1.5722 4.1421 4.6820 0.0000 -10829.3075 1557.6364 0.0000 0.0000 1803.9739 -7457.3009 309.7240 -9261.2748 -7436.2999 302.2476 800.8326 935.4123 29973.8927 -134.2292 -57.0409
TCL: Running FEP window  19: Lambda1 0.9000000000000002 Lambda2 0.9500000000000003 [dLambda 0.050000000000000044]
TCL: Setting parameter firsttimestep to 0
TCL: Setting parameter alchLambda to 0.9000000000000002
Info: NONBONDED TABLE R-SQUARED SPACING: 0.0625
Info: NONBONDED TABLE SIZE: 705 POINTS
TCL: Setting parameter alchLambda2 to 0.9500000000000003
Info: NONBONDED TABLE R-SQUARED SPACING: 0.0625
Info: NONBONDED TABLE SIZE: 705 POINTS
TCL: Running for 1500000 steps
ETITLE: TS BOND ANGLE DIHED IMPRP ELECT VDW BOUNDARY MISC KINETIC TOTAL TEMP POTENTIAL TOTALAVG TEMPAVG PRESSURE GPRESSURE VOLUME PRESSAVG GPRESSAVG
ENERGY: 0 1.5722 4.1421 4.6820 0.0000 -10830.7485 1558.3864 0.0000 0.0000 1803.0778 -7458.8879 309.5701 -9261.9657 -7458.8879 309.5701 865.5025 950.0874 29973.8927 865.5025 950.0874
ENERGY: 300000 4.7826 8.3184 5.9064 0.0000 -10637.6127 1370.9217 0.0000 0.0000 1730.2065 -7517.4770 297.0589 -9247.6835 -7458.5840 303.8979 -507.5067 -376.6492 30141.8794 42.1344 152.3737
ENERGY: 600000 3.1006 4.9428 2.6077 0.0000 -10517.4365 1322.7035 0.0000 0.0000 1731.5169 -7452.5650 297.2838 -9184.0819 -7478.7480 300.7971 -1077.5446 -1030.4809 30614.5609 -261.7213 -169.3008
ENERGY: 900000 2.9539 4.0428 3.1310 0.0000 -10641.8080 1364.3926 0.0000 0.0000 1739.5976 -7527.6901 298.6712 -9267.2877 -7476.4057 300.2015 -570.5389 -573.5669 30084.8201 -330.2419 -243.5583
ENERGY: 1200000 2.5339 3.5778 7.8056 0.0000 -10755.4468 1481.2492 0.0000 0.0000 1761.7494 -7498.5310 302.4745 -9260.2804 -7480.9231 299.9878 612.1703 688.6078 29842.8686 -138.3043 -49.7976
ENERGY: 1500000 1.8972 2.1330 2.4891 0.0000 -10776.4785 1552.9260 0.0000 0.0000 1745.4992 -7471.5339 299.6845 -9217.0331 -7484.9097 299.5387 864.3180 933.8333 30281.9154 21.4273 107.2534
TCL: Running FEP window  20: Lambda1 0.9500000000000003 Lambda2 1.0    [dLambda 0.04999999999999971]
TCL: Setting parameter firsttimestep to 0
TCL: Setting parameter alchLambda to 0.9500000000000003
Info: NONBONDED TABLE R-SQUARED SPACING: 0.0625
Info: NONBONDED TABLE SIZE: 705 POINTS
TCL: Setting parameter alchLambda2 to 1.0
Info: NONBONDED TABLE R-SQUARED SPACING: 0.0625
Info: NONBONDED TABLE SIZE: 705 POINTS
TCL: Running for 1500000 steps
ETITLE: TS BOND ANGLE DIHED IMPRP ELECT VDW BOUNDARY MISC KINETIC TOTAL TEMP POTENTIAL TOTALAVG TEMPAVG PRESSURE GPRESSURE VOLUME PRESSAVG GPRESSAVG
ENERGY: 0 1.8972 2.1330 2.4891 0.0000 -10778.0299 1554.6177 0.0000 0.0000 1744.6335 -7472.2594 299.5358 -9216.8929 -7472.2594 299.5358 893.0275 962.3700 30281.9154 893.0275 962.3700
ENERGY: 300000 2.7312 5.0944 3.5677 0.0000 -10651.5100 1480.5523 0.0000 0.0000 1750.2839 -7409.2805 300.5059 -9159.5644 -7471.3022 298.4709 776.0414 824.5093 29693.2823 470.1392 546.9192
ENERGY: 600000 2.4623 3.3868 3.1158 0.0000 -10586.1480 1411.5589 0.0000 0.0000 1701.1109 -7464.5133 292.0634 -9165.6242 -7467.9140 297.6946 -154.7081 -79.0355 30493.8040 151.4947 228.3139
ENERGY: 900000 2.4969 4.1848 3.4758 0.0000 -10677.2178 1425.2099 0.0000 0.0000 1716.1460 -7525.7044 294.6448 -9241.8504 -7466.1215 298.3739 -275.7972 -215.2148 30279.6297 -7.6737 54.5839
ENERGY: 1200000 1.7163 4.0594 3.3310 0.0000 -10657.8767 1436.3538 0.0000 0.0000 1740.9857 -7471.4304 298.9095 -9212.4161 -7464.2107 299.2238 17.9046 76.6828 30273.9178 -76.0123 -16.1599
ENERGY: 1500000 2.7717 2.8688 6.8956 0.0000 -10660.2205 1469.6045 0.0000 0.0000 1784.0608 -7394.0191 306.3051 -9178.0799 -7459.1198 299.4535 718.7364 758.0066 29992.8985 -25.5286 34.4074
TCL: Exiting due to exit command.
