Info: SIMULATION PARAMETERS:
Info: TIMESTEP               2
Info: NUMBER OF STEPS        0
Info: STEPS PER CYCLE        10
Info: PERIODIC CELL BASIS 1  31.9437 0 0
Info: PERIODIC CELL BASIS 2  0 30.3955 0
Info: PERIODIC CELL BASIS 3  0 0 32.1158
Info: PERIODIC CELL CENTER   0 0 0
Info: WRAPPING WATERS AROUND PERIODIC BOUNDARIES ON OUTPUT.
Info: WRAPPING ALL CLUSTERS AROUND PERIODIC BOUNDARIES ON OUTPUT.
Info: FIRST LDB TIMESTEP     50
Info: LAST LDB TIMESTEP     -1
Info: HOM BACKGROUND SCALING 1
Info: PME BACKGROUND SCALING 1
Info: MIN ATOMS PER PATCH    40
Info: EMPTY PATCH LOAD       40 ATOMS
Info: VELOCITY FILE          mobley_4584540_equil.vel
Info: CENTER OF MASS MOVING INITIALLY? NO
Info: DIELECTRIC             1
Info: EXCLUDE                SCALED ONE-FOUR
Info: 1-4 ELECTROSTATICS SCALED BY 0.833333
Info: MODIFIED 1-4 VDW PARAMETERS WILL BE USED
Info: DCD FILENAME           mobley_4584540_prod.dcd
Info: DCD FREQUENCY          100000
Info: DCD FIRST STEP         100000
Info: DCD FILE WILL CONTAIN UNIT CELL DATA
Info: XST FILENAME           mobley_4584540_prod.xst
Info: XST FREQUENCY          100000
Info: NO VELOCITY DCD OUTPUT
Info: NO FORCE DCD OUTPUT
Info: OUTPUT FILENAME        mobley_4584540_prod
Info: BINARY OUTPUT FILES WILL BE USED
Info: RESTART FILENAME       mobley_4584540_prod.restart
Info: RESTART FREQUENCY      100000
Info: BINARY RESTART FILES WILL BE USED
Info: CUTOFF                 9
Info: PAIRLIST DISTANCE      11
Info: PAIRLIST SHRINK RATE   0.01
Info: PAIRLIST GROW RATE     0.01
Info: PAIRLIST TRIGGER       0.3
Info: PAIRLISTS PER CYCLE    2
Info: PAIRLISTS ENABLED
Info: MARGIN                 2
Info: HYDROGEN GROUP CUTOFF  2.5
Info: PATCH DIMENSION        15.5
Info: ENERGY OUTPUT STEPS    100000
Info: ENERGY EVALUATION STEPS    100000
Info: OUTPUT ENERGY PRECISION 4
Info: CROSSTERM ENERGY INCLUDED IN DIHEDRAL
Info: TIMING OUTPUT STEPS    1000000
Info: PRESSURE OUTPUT STEPS  100000
Info: ALCHEMICAL FEP ON
Info: FEP CURRENT LAMBDA VALUE     0
Info: FEP COMPARISON LAMBDA VALUE  0.05
Info: FEP INTRA-ALCHEMICAL NON-BONDED INTERACTIONS WILL BE RETAINED
Info: FEP INTRA-ALCHEMICAL BONDED INTERACTIONS WILL BE RETAINED
Info: FEP VDW SHIFTING COEFFICIENT 5
Info: FEP ELEC. ACTIVE FOR ANNIHILATED PARTICLES BETWEEN LAMBDA = 0 AND LAMBDA = 0.5
Info: FEP ELEC. ACTIVE FOR EXNIHILATED PARTICLES BETWEEN LAMBDA = 0.5 AND LAMBDA = 1
Info: FEP VDW ACTIVE FOR ANNIHILATED PARTICLES BETWEEN LAMBDA = 0 AND LAMBDA = 1
Info: FEP VDW ACTIVE FOR EXNIHILATED PARTICLES BETWEEN LAMBDA = 0 AND LAMBDA = 1
Info: FEP BOND ACTIVE FOR ANNIHILATED PARTICLES BETWEEN LAMBDA = 1 AND LAMBDA = 1
Info: FEP BOND ACTIVE FOR EXNIHILATED PARTICLES BETWEEN LAMBDA = 0 AND LAMBDA = 0
Info: LANGEVIN DYNAMICS ACTIVE
Info: LANGEVIN TEMPERATURE   300
Info: LANGEVIN USING BBK INTEGRATOR
Info: LANGEVIN DAMPING COEFFICIENT IS 1 INVERSE PS
Info: LANGEVIN DYNAMICS APPLIED TO HYDROGENS
Info: LANGEVIN PISTON PRESSURE CONTROL ACTIVE
Info:        TARGET PRESSURE IS 1.01325 BAR
Info:     OSCILLATION PERIOD IS 50 FS
Info:             DECAY TIME IS 25 FS
Info:     PISTON TEMPERATURE IS 300 K
Info:       PRESSURE CONTROL IS GROUP-BASED
Info:    INITIAL STRAIN RATE IS 0.000205299 0.000205299 0.000205299
Info:       CELL FLUCTUATION IS ISOTROPIC
Info: PARTICLE MESH EWALD (PME) ACTIVE
Info: PME TOLERANCE               1e-06
Info: PME EWALD COEFFICIENT       0.348832
Info: PME INTERPOLATION ORDER     4
Info: PME GRID DIMENSIONS         32 32 36
Info: PME MAXIMUM GRID SPACING    1
Info: PME CALCULATION WILL BE PERFORMED ON GPU
Info: FULL ELECTROSTATIC EVALUATION FREQUENCY      2
Info: USING VERLET I (r-RESPA) MTS SCHEME.
Info: C1 SPLITTING OF LONG RANGE ELECTROSTATICS
Info: PLACING ATOMS IN PATCHES BY HYDROGEN GROUPS
Info: RIGID BONDS TO HYDROGEN : ALL
Info:         ERROR TOLERANCE : 1e-08
Info:          MAX ITERATIONS : 100
Info: RIGID WATER USING SETTLE ALGORITHM
Info: RANDOM NUMBER SEED     1743589404
Info: USE HYDROGEN BONDS?    NO
Info: Using AMBER format force field!
Info: AMBER PARM FILE        mobley_4584540.prmtop
Info: COORDINATE PDB         mobley_4584540.pdb
Info: Exclusions will be read from PARM file!
Info: SCNB (VDW SCALING)     2
Info: USING ARITHMETIC MEAN TO COMBINE L-J SIGMA PARAMETERS
Info: BINARY COORDINATES     mobley_4584540_equil.coor
Info: SUMMARY OF PARAMETERS:
Info: 7 BONDS
Info: 8 ANGLES
Info:   8 HARMONIC
Info:   0 COSINE-BASED
Info: 4 DIHEDRAL
Info: 0 IMPROPER
Info: 0 CROSSTERM
Info: 0 VDW
Info: 28 VDW_PAIRS
Info: 0 NBTHOLE_PAIRS
Info: To read alchdata from file: mobley_4584540.pdb
Info: To read alchflag data from column: 5
Info: STRUCTURE SUMMARY:
Info: 2981 ATOMS
Info: 2981 BONDS
Info: 28 ANGLES
Info: 37 DIHEDRALS
Info: 0 IMPROPERS
Info: 0 CROSSTERMS
Info: 3038 EXCLUSIONS
Info: 2973 RIGID BONDS
Info: ALCH: 0 ATOMS TO DISAPPEAR IN FINAL STATE
Info: ALCH: 17 ATOMS TO APPEAR IN FINAL STATE
Info: 5970 DEGREES OF FREEDOM
Info: 996 HYDROGEN GROUPS
Info: 4 ATOMS IN LARGEST HYDROGEN GROUP
Info: 996 MIGRATION GROUPS
Info: 4 ATOMS IN LARGEST MIGRATION GROUP
Info: TOTAL MASS = 17907 amu
Info: TOTAL CHARGE = -0.000499979 e
Info: MASS DENSITY = 0.953602 g/cm^3
Info: ATOM DENSITY = 0.0955978 atoms/A^3
Info: ADDED 0 IMPLICIT EXCLUSIONS
Info: NONBONDED TABLE R-SQUARED SPACING: 0.0625
Info: NONBONDED TABLE SIZE: 705 POINTS
Info: REMOVING COM VELOCITY -0.252571 -0.119254 -0.0751712
Info: Use 3D box decompostion in PME FFT.
Info: Updated CUDA force table with 4096 elements.
Info: Updated CUDA LJ table with 7 x 7 elements.
Info: Found 18 unique exclusion lists needing 40 bytes
TCL: Running for 1500000 steps
ETITLE: TS BOND ANGLE DIHED IMPRP ELECT VDW BOUNDARY MISC KINETIC TOTAL TEMP POTENTIAL TOTALAVG TEMPAVG PRESSURE GPRESSURE VOLUME PRESSAVG GPRESSAVG
ENERGY: 0 2.5015 5.6977 1.2616 0.0000 -10748.9164 1419.7469 0.0000 0.0000 1747.4941 -7572.2146 294.5993 -9319.7087 -7572.2146 294.5993 -397.8404 -313.8446 31182.7250 -397.8404 -313.8446
ENERGY: 300000 1.3735 6.4873 2.9583 0.0000 -10841.0084 1445.7008 0.0000 0.0000 1743.8057 -7640.6829 293.9775 -9384.4885 -7586.9497 299.3971 -108.6473 -38.7841 30452.0300 -463.3342 -400.0133
ENERGY: 600000 0.4083 5.3754 1.6598 0.0000 -10926.4396 1535.5211 0.0000 0.0000 1779.0665 -7604.4085 299.9219 -9383.4750 -7592.8350 300.6255 588.7743 676.6781 30383.8854 -194.8573 -118.9521
ENERGY: 900000 2.3425 6.3015 2.7072 0.0000 -10930.5593 1495.1718 0.0000 0.0000 1745.4641 -7678.5722 294.2571 -9424.0364 -7596.1792 300.5642 -206.8153 -133.6053 31115.1941 -242.3125 -167.1216
ENERGY: 1200000 1.7914 4.1840 4.6597 0.0000 -10856.7059 1495.6424 0.0000 0.0000 1822.7185 -7527.7099 307.2810 -9350.4284 -7596.5162 300.7980 340.3102 401.9710 30501.0278 -214.6848 -138.6946
ENERGY: 1500000 2.9666 8.3639 2.2435 0.0000 -10700.3479 1361.5696 0.0000 0.0000 1786.0742 -7539.1300 301.1033 -9325.2042 -7587.1068 300.6728 -758.3775 -662.9426 30341.2053 -254.4093 -177.5230
TCL: Running FEP window   2: Lambda1 0.05   Lambda2 0.1    [dLambda 0.05  ]
TCL: Setting parameter firsttimestep to 0
TCL: Setting parameter alchLambda to 0.05
Info: NONBONDED TABLE R-SQUARED SPACING: 0.0625
Info: NONBONDED TABLE SIZE: 705 POINTS
TCL: Setting parameter alchLambda2 to 0.1
Info: NONBONDED TABLE R-SQUARED SPACING: 0.0625
Info: NONBONDED TABLE SIZE: 705 POINTS
TCL: Running for 1500000 steps
ETITLE: TS BOND ANGLE DIHED IMPRP ELECT VDW BOUNDARY MISC KINETIC TOTAL TEMP POTENTIAL TOTALAVG TEMPAVG PRESSURE GPRESSURE VOLUME PRESSAVG GPRESSAVG
ENERGY: 0 2.9666 8.3639 2.2435 0.0000 -10700.3465 1366.7904 0.0000 0.0000 1785.1597 -7534.8224 300.9492 -9319.9821 -7534.8224 300.9492 -755.7020 -655.6252 30341.2053 -755.7020 -655.6252
ENERGY: 300000 3.4317 6.0112 2.1333 0.0000 -10766.5902 1395.5993 0.0000 0.0000 1727.0174 -7632.3974 291.1473 -9359.4147 -7556.0449 298.3241 -672.7819 -619.7771 30980.3674 -269.9346 -178.0278
ENERGY: 600000 2.2806 5.6423 1.9986 0.0000 -10785.5100 1335.1482 0.0000 0.0000 1733.0083 -7707.4321 292.1573 -9440.4403 -7591.3523 297.6665 -1052.4007 -979.8713 30335.3344 -268.6159 -189.3794
ENERGY: 900000 2.1167 5.9594 1.1456 0.0000 -10736.2256 1413.1655 0.0000 0.0000 1768.6539 -7545.1846 298.1665 -9313.8385 -7588.7944 297.0062 -306.9403 -265.8048 30912.8415 -228.1215 -159.7339
ENERGY: 1200000 1.9174 4.9362 1.2857 0.0000 -10612.4544 1324.2374 0.0000 0.0000 1764.3388 -7515.7388 297.4391 -9280.0776 -7567.5591 298.6922 -1027.1276 -955.9119 30940.3328 -267.0584 -197.8561
ENERGY: 1500000 4.5969 6.4582 2.9432 0.0000 -10596.4215 1359.1856 0.0000 0.0000 1732.7905 -7490.4471 292.1206 -9223.2376 -7567.2826 298.8614 -494.1481 -391.3793 30538.4591 -275.9231 -200.7172
TCL: Running FEP window   3: Lambda1 0.1    Lambda2 0.15000000000000002 [dLambda 0.05000000000000002]
TCL: Setting parameter firsttimestep to 0
TCL: Setting parameter alchLambda to 0.1
Info: NONBONDED TABLE R-SQUARED SPACING: 0.0625
Info: NONBONDED TABLE SIZE: 705 POINTS
TCL: Setting parameter alchLambda2 to 0.15000000000000002
Info: NONBONDED TABLE R-SQUARED SPACING: 0.0625
Info: NONBONDED TABLE SIZE: 705 POINTS
TCL: Running for 1500000 steps
ETITLE: TS BOND ANGLE DIHED IMPRP ELECT VDW BOUNDARY MISC KINETIC TOTAL TEMP POTENTIAL TOTALAVG TEMPAVG PRESSURE GPRESSURE VOLUME PRESSAVG GPRESSAVG
ENERGY: 0 4.5969 6.4582 2.9432 0.0000 -10596.4220 1360.8501 0.0000 0.0000 1731.8843 -7489.6893 291.9678 -9221.5736 -7489.6893 291.9678 -465.9040 -381.2574 30538.4591 -465.9040 -381.2574
ENERGY: 300000 2.5576 2.9437 1.2685 0.0000 -10854.4160 1429.4232 0.0000 0.0000 1800.3328 -7617.8901 303.5071 -9418.2229 -7541.0331 303.0317 -347.7162 -333.0526 30575.9905 -401.8177 -353.6758
ENERGY: 600000 1.3064 7.0131 2.5287 0.0000 -10820.9486 1483.7607 0.0000 0.0000 1754.5173 -7571.8224 295.7833 -9326.3397 -7551.1445 301.2676 68.2216 111.8079 31012.7469 -352.6347 -301.4093
ENERGY: 900000 3.2201 4.2835 1.3343 0.0000 -10850.7623 1518.6133 0.0000 0.0000 1727.8238 -7595.4874 291.2832 -9323.3111 -7559.3719 301.0387 270.8452 367.2681 30953.0156 -278.8292 -225.2952
ENERGY: 1200000 1.5008 4.1556 3.4454 0.0000 -10795.6002 1399.7227 0.0000 0.0000 1831.0379 -7555.7377 308.6835 -9386.7756 -7572.9004 301.6770 -496.4678 -432.8759 30530.5363 -334.8046 -275.7718
ENERGY: 1500000 2.6043 3.7058 0.9158 0.0000 -10766.2501 1450.6764 0.0000 0.0000 1729.6542 -7578.6936 291.5918 -9308.3478 -7568.6841 301.2230 93.1814 179.2238 30265.7972 -273.0223 -213.3306
TCL: Running FEP window   4: Lambda1 0.15000000000000002 Lambda2 0.2    [dLambda 0.04999999999999999]
TCL: Setting parameter firsttimestep to 0
TCL: Setting parameter alchLambda to 0.15000000000000002
Info: NONBONDED TABLE R-SQUARED SPACING: 0.0625
Info: NONBONDED TABLE SIZE: 705 POINTS
TCL: Setting parameter alchLambda2 to 0.2
Info: NONBONDED TABLE R-SQUARED SPACING: 0.0625
Info: NONBONDED TABLE SIZE: 705 POINTS
TCL: Running for 1500000 steps
ETITLE: TS BOND ANGLE DIHED IMPRP ELECT VDW BOUNDARY MISC KINETIC TOTAL TEMP POTENTIAL TOTALAVG TEMPAVG PRESSURE GPRESSURE VOLUME PRESSAVG GPRESSAVG
ENERGY: 0 2.6043 3.7058 0.9158 0.0000 -10766.2494 1453.2858 0.0000 0.0000 1728.7582 -7576.9795 291.4408 -9305.7377 -7576.9795 291.4408 96.6762 188.6506 30265.7972 96.6762 188.6506
ENERGY: 300000 3.3996 5.9939 1.6769 0.0000 -10810.5601 1419.4348 0.0000 0.0000 1777.1691 -7602.8859 299.6021 -9380.0549 -7578.2448 302.4523 -394.1658 -313.1658 30591.2928 3.1066 68.9908
ENERGY: 600000 6.0791 4.8380 0.6602 0.0000 -10937.2248 1481.0813 0.0000 0.0000 1769.0050 -7675.5612 298.2257 -9444.5662 -7599.4856 300.7545 109.4849 171.0815 30129.2189 229.9639 299.7181
ENERGY: 900000 1.8244 5.4179 3.3839 0.0000 -11025.2161 1546.8670 0.0000 0.0000 1787.6180 -7680.1050 301.3636 -9467.7230 -7594.6777 301.7598 816.8141 868.1462 29703.8848 262.2927 333.8871
ENERGY: 1200000 2.4156 5.1125 1.0952 0.0000 -10676.1595 1333.5287 0.0000 0.0000 1732.6997 -7601.3078 292.1052 -9334.0075 -7600.1575 300.1900 -926.3646 -888.6180 31045.1413 106.2588 179.5097
ENERGY: 1500000 2.0670 6.0451 1.8526 0.0000 -10821.9223 1391.6159 0.0000 0.0000 1776.0401 -7644.3017 299.4117 -9420.3417 -7605.2625 300.9279 -850.0446 -813.0502 31069.2678 42.6557 98.6018
TCL: Running FEP window   5: Lambda1 0.2    Lambda2 0.25   [dLambda 0.04999999999999999]
TCL: Setting parameter firsttimestep to 0
TCL: Setting parameter alchLambda to 0.2
Info: NONBONDED TABLE R-SQUARED SPACING: 0.0625
Info: NONBONDED TABLE SIZE: 705 POINTS
TCL: Setting parameter alchLambda2 to 0.25
Info: NONBONDED TABLE R-SQUARED SPACING: 0.0625
Info: NONBONDED TABLE SIZE: 705 POINTS
TCL: Running for 1500000 steps
ETITLE: TS BOND ANGLE DIHED IMPRP ELECT VDW BOUNDARY MISC KINETIC TOTAL TEMP POTENTIAL TOTALAVG TEMPAVG PRESSURE GPRESSURE VOLUME PRESSAVG GPRESSAVG
ENERGY: 0 2.0670 6.0451 1.8526 0.0000 -10821.9226 1392.5891 0.0000 0.0000 1775.1356 -7644.2332 299.2593 -9419.3688 -7644.2332 299.2593 -893.8431 -804.5840 31069.2678 -893.8431 -804.5840
ENERGY: 300000 1.5017 4.3378 1.9557 0.0000 -10714.8611 1410.7262 0.0000 0.0000 1802.4162 -7493.9235 303.8583 -9296.3397 -7572.7316 302.1681 -344.0530 -377.8159 30963.4015 -606.6741 -577.1470
ENERGY: 600000 5.3591 7.1410 0.8881 0.0000 -10725.5095 1407.4588 0.0000 0.0000 1815.7216 -7488.9410 306.1014 -9304.6625 -7568.4813 302.5443 -93.5783 -26.5623 30375.6767 -351.7706 -312.5846
ENERGY: 900000 2.4624 6.2809 3.2118 0.0000 -10792.8593 1450.7742 0.0000 0.0000 1736.2561 -7593.8739 292.7048 -9330.1300 -7582.1511 300.8495 -171.0941 -15.7286 30621.6501 -252.8196 -191.6139
ENERGY: 1200000 2.4596 4.6947 1.2399 0.0000 -10834.8189 1482.4073 0.0000 0.0000 1765.5763 -7578.4410 297.6477 -9344.0174 -7575.9907 300.6119 186.6779 239.1929 30601.2119 -225.6655 -161.5991
ENERGY: 1500000 1.4108 3.8525 2.1529 0.0000 -10795.4061 1472.1521 0.0000 0.0000 1801.2394 -7514.5985 303.6599 -9315.8379 -7578.8363 300.5821 167.3169 185.5245 30910.8738 -199.1974 -140.7705
TCL: Running FEP window   6: Lambda1 0.25   Lambda2 0.3    [dLambda 0.04999999999999999]
TCL: Setting parameter firsttimestep to 0
TCL: Setting parameter alchLambda to 0.25
Info: NONBONDED TABLE R-SQUARED SPACING: 0.0625
Info: NONBONDED TABLE SIZE: 705 POINTS
TCL: Setting parameter alchLambda2 to 0.3
Info: NONBONDED TABLE R-SQUARED SPACING: 0.0625
Info: NONBONDED TABLE SIZE: 705 POINTS
TCL: Running for 1500000 steps
ETITLE: TS BOND ANGLE DIHED IMPRP ELECT VDW BOUNDARY MISC KINETIC TOTAL TEMP POTENTIAL TOTALAVG TEMPAVG PRESSURE GPRESSURE VOLUME PRESSAVG GPRESSAVG
ENERGY: 0 1.4108 3.8525 2.1529 0.0000 -10795.4053 1472.8829 0.0000 0.0000 1800.3816 -7514.7245 303.5153 -9315.1062 -7514.7245 303.5153 121.6606 193.1282 30910.8738 121.6606 193.1282
ENERGY: 300000 2.4904 5.3582 2.5010 0.0000 -10744.1867 1446.0978 0.0000 0.0000 1744.8045 -7542.9348 294.1459 -9287.7393 -7564.7102 301.3613 -8.8745 139.9567 30848.5920 -95.3205 6.6435
ENERGY: 600000 5.0707 7.1916 2.2148 0.0000 -10753.0582 1421.2353 0.0000 0.0000 1819.4248 -7497.9209 306.7257 -9317.3457 -7571.1338 301.2540 -153.1175 -137.8250 31014.3370 -185.2240 -96.3717
ENERGY: 900000 2.0136 4.5869 3.6047 0.0000 -10734.7228 1450.3887 0.0000 0.0000 1816.2636 -7457.8653 306.1928 -9274.1289 -7556.2813 302.3964 343.8784 362.0439 30552.5232 -39.4557 22.4191
ENERGY: 1200000 4.9642 5.4918 5.3283 0.0000 -10938.0242 1486.4222 0.0000 0.0000 1785.2653 -7650.5523 300.9670 -9435.8177 -7563.8527 302.4592 -73.1125 20.8889 30472.1013 -99.1073 -33.0944
ENERGY: 1500000 2.6975 7.3174 3.6481 0.0000 -10732.7038 1432.0055 0.0000 0.0000 1764.9920 -7522.0432 297.5492 -9287.0352 -7561.6718 302.0625 6.4814 20.0135 31060.0223 -38.1251 20.9515
TCL: Running FEP window   7: Lambda1 0.3    Lambda2 0.35   [dLambda 0.04999999999999999]
TCL: Setting parameter firsttimestep to 0
TCL: Setting parameter alchLambda to 0.3
Info: NONBONDED TABLE R-SQUARED SPACING: 0.0625
Info: NONBONDED TABLE SIZE: 705 POINTS
TCL: Setting parameter alchLambda2 to 0.35
Info: NONBONDED TABLE R-SQUARED SPACING: 0.0625
Info: NONBONDED TABLE SIZE: 705 POINTS
TCL: Running for 1500000 steps
ETITLE: TS BOND ANGLE DIHED IMPRP ELECT VDW BOUNDARY MISC KINETIC TOTAL TEMP POTENTIAL TOTALAVG TEMPAVG PRESSURE GPRESSURE VOLUME PRESSAVG GPRESSAVG
ENERGY: 0 2.6975 7.3174 3.6481 0.0000 -10732.7040 1432.2568 0.0000 0.0000 1764.1174 -7522.6668 297.4018 -9286.7842 -7522.6668 297.4018 -48.1514 23.1961 31060.0223 -48.1514 23.1961
ENERGY: 300000 2.1865 4.5288 2.1031 0.0000 -10752.3199 1398.4834 0.0000 0.0000 1798.6688 -7546.3494 303.2266 -9345.0182 -7603.7542 299.4287 -514.6356 -455.4301 30668.3375 -73.0239 -20.7426
ENERGY: 600000 1.1371 5.7400 1.9954 0.0000 -10741.1282 1380.8546 0.0000 0.0000 1799.5056 -7551.8954 303.3676 -9351.4011 -7592.5928 299.6800 -500.0585 -438.1455 30926.9886 -112.7458 -52.7263
ENERGY: 900000 3.6100 3.0092 4.1492 0.0000 -10880.5560 1460.6785 0.0000 0.0000 1728.4248 -7680.6842 291.3846 -9409.1090 -7600.3523 298.8361 -264.9187 -167.4764 30554.3222 10.8757 74.0406
ENERGY: 1200000 1.2772 3.9792 2.3901 0.0000 -10799.4916 1383.0581 0.0000 0.0000 1744.8012 -7663.9857 294.1454 -9408.7870 -7599.7395 299.1699 -532.9895 -487.4719 30275.2875 -144.3735 -84.9316
ENERGY: 1500000 2.2710 5.4613 4.2116 0.0000 -10990.4433 1518.5600 0.0000 0.0000 1749.0979 -7710.8414 294.8697 -9459.9393 -7602.8403 299.3828 177.1159 287.5420 30186.0240 -77.7437 -7.4104
TCL: Running FEP window   8: Lambda1 0.35   Lambda2 0.39999999999999997 [dLambda 0.04999999999999999]
TCL: Setting parameter firsttimestep to 0
TCL: Setting parameter alchLambda to 0.35
Info: NONBONDED TABLE R-SQUARED SPACING: 0.0625
Info: NONBONDED TABLE SIZE: 705 POINTS
TCL: Setting parameter alchLambda2 to 0.39999999999999997
Info: NONBONDED TABLE R-SQUARED SPACING: 0.0625
Info: NONBONDED TABLE SIZE: 705 POINTS
TCL: Running for 1500000 steps
ETITLE: TS BOND ANGLE DIHED IMPRP ELECT VDW BOUNDARY MISC KINETIC TOTAL TEMP POTENTIAL TOTALAVG TEMPAVG PRESSURE GPRESSURE VOLUME PRESSAVG GPRESSAVG
ENERGY: 0 2.2710 5.4614 4.2116 0.0000 -10990.4431 1517.9601 0.0000 0.0000 1748.2547 -7712.2844 294.7276 -9460.5391 -7712.2844 294.7276 202.3349 288.2235 30186.0240 202.3349 288.2235
ENERGY: 300000 1.5510 4.0504 1.6437 0.0000 -10787.4808 1457.4119 0.0000 0.0000 1798.3986 -7524.4253 303.1810 -9322.8239 -7632.6764 298.6621 -124.7306 -137.7198 31104.4339 -84.0365 -26.9717
ENERGY: 600000 2.3489 3.6490 0.5330 0.0000 -10858.6484 1448.6862 0.0000 0.0000 1779.2651 -7624.1662 299.9554 -9403.4313 -7615.8556 300.3528 -401.0291 -301.5155 30783.6960 -244.7896 -177.8717
ENERGY: 900000 3.3265 9.0618 1.3788 0.0000 -10849.3353 1465.4951 0.0000 0.0000 1743.7883 -7626.2847 293.9746 -9370.0731 -7595.1937 300.4436 -24.3713 55.6417 31001.0836 -119.9717 -51.3134
ENERGY: 1200000 0.9567 5.6789 3.0561 0.0000 -10812.3740 1461.6978 0.0000 0.0000 1826.9907 -7513.9939 308.0012 -9340.9845 -7586.3065 301.4168 471.1775 540.0728 30139.3477 -12.8265 51.5696
ENERGY: 1500000 1.3750 3.0773 3.9672 0.0000 -10829.5414 1464.4885 0.0000 0.0000 1775.0629 -7581.5704 299.2470 -9356.6334 -7587.4236 300.9271 3.5283 29.2858 30841.2348 74.4253 137.1686
TCL: Running FEP window   9: Lambda1 0.39999999999999997 Lambda2 0.44999999999999996 [dLambda 0.04999999999999999]
TCL: Setting parameter firsttimestep to 0
TCL: Setting parameter alchLambda to 0.39999999999999997
Info: NONBONDED TABLE R-SQUARED SPACING: 0.0625
Info: NONBONDED TABLE SIZE: 705 POINTS
TCL: Setting parameter alchLambda2 to 0.44999999999999996
Info: NONBONDED TABLE R-SQUARED SPACING: 0.0625
Info: NONBONDED TABLE SIZE: 705 POINTS
TCL: Running for 1500000 steps
ETITLE: TS BOND ANGLE DIHED IMPRP ELECT VDW BOUNDARY MISC KINETIC TOTAL TEMP POTENTIAL TOTALAVG TEMPAVG PRESSURE GPRESSURE VOLUME PRESSAVG GPRESSAVG
ENERGY: 0 1.3750 3.0773 3.9672 0.0000 -10829.5423 1465.1615 0.0000 0.0000 1774.1484 -7581.8128 299.0928 -9355.9612 -7581.8128 299.0928 -40.4532 41.0144 30841.2348 -40.4532 41.0144
ENERGY: 300000 2.9953 6.1069 2.0114 0.0000 -10685.5521 1356.0265 0.0000 0.0000 1757.5084 -7560.9036 296.2876 -9318.4120 -7582.1733 300.1053 -733.7342 -655.7444 30498.8700 -60.3184 10.1365
ENERGY: 600000 7.0536 4.7522 2.3278 0.0000 -10823.3093 1463.2678 0.0000 0.0000 1752.0022 -7593.9056 295.3593 -9345.9078 -7570.4295 300.0817 296.7852 388.3384 30283.0468 35.0929 103.6554
ENERGY: 900000 0.8403 4.3575 3.1669 0.0000 -10873.1223 1474.9996 0.0000 0.0000 1723.3713 -7666.3867 290.5326 -9389.7581 -7588.8837 300.6959 11.2279 48.0422 30537.6821 83.5186 151.1057
ENERGY: 1200000 2.9418 2.8394 1.7202 0.0000 -10750.4861 1378.6596 0.0000 0.0000 1800.7917 -7563.5335 303.5845 -9364.3252 -7594.2444 299.3307 -471.3912 -444.1465 30557.4378 3.1034 70.2190
ENERGY: 1500000 3.6560 4.2103 3.1255 0.0000 -10949.0144 1471.4011 0.0000 0.0000 1825.8845 -7640.7371 307.8147 -9466.6216 -7594.1043 299.6928 226.4616 278.4008 30090.3239 -39.7600 21.3558
TCL: Running FEP window  10: Lambda1 0.44999999999999996 Lambda2 0.49999999999999994 [dLambda 0.04999999999999999]
TCL: Setting parameter firsttimestep to 0
TCL: Setting parameter alchLambda to 0.44999999999999996
Info: NONBONDED TABLE R-SQUARED SPACING: 0.0625
Info: NONBONDED TABLE SIZE: 705 POINTS
TCL: Setting parameter alchLambda2 to 0.49999999999999994
Info: NONBONDED TABLE R-SQUARED SPACING: 0.0625
Info: NONBONDED TABLE SIZE: 705 POINTS
TCL: Running for 1500000 steps
ETITLE: TS BOND ANGLE DIHED IMPRP ELECT VDW BOUNDARY MISC KINETIC TOTAL TEMP POTENTIAL TOTALAVG TEMPAVG PRESSURE GPRESSURE VOLUME PRESSAVG GPRESSAVG
ENERGY: 0 3.6560 4.2103 3.1255 0.0000 -10949.0133 1474.1507 0.0000 0.0000 1825.0081 -7638.8627 307.6670 -9463.8709 -7638.8627 307.6670 213.2387 306.6631 30090.3239 213.2387 306.6631
ENERGY: 300000 3.4518 6.8461 1.7339 0.0000 -10793.3492 1404.2852 0.0000 0.0000 1698.2468 -7678.7854 286.2970 -9377.0322 -7606.2458 298.6038 -791.7044 -708.4875 30845.9957 -175.5015 -92.1424
ENERGY: 600000 1.1218 10.0518 2.4537 0.0000 -10848.5391 1445.2261 0.0000 0.0000 1769.8410 -7619.8448 298.3667 -9389.6857 -7605.9730 298.6246 -291.8595 -195.9288 30770.0446 -334.7977 -258.3095
ENERGY: 900000 0.8403 4.3001 7.7959 0.0000 -10583.3428 1348.5772 0.0000 0.0000 1737.1970 -7484.6323 292.8634 -9221.8293 -7615.9060 296.9615 -769.3072 -739.3861 31541.2358 -327.8181 -251.2460
ENERGY: 1200000 2.1553 7.8125 0.6851 0.0000 -10726.1945 1420.2991 0.0000 0.0000 1735.0884 -7560.1542 292.5079 -9295.2426 -7597.3588 296.8544 -402.6598 -293.7456 31284.8776 -340.3660 -267.1669
ENERGY: 1500000 0.2343 4.6659 1.7499 0.0000 -10892.3459 1544.2667 0.0000 0.0000 1817.4322 -7523.9969 306.3898 -9341.4291 -7592.2180 297.8254 839.1886 882.0009 30753.1008 -179.2143 -117.8456
TCL: Running FEP window  11: Lambda1 0.49999999999999994 Lambda2 0.5499999999999999 [dLambda 0.04999999999999999]
TCL: Setting parameter firsttimestep to 0
TCL: Setting parameter alchLambda to 0.49999999999999994
Info: NONBONDED TABLE R-SQUARED SPACING: 0.0625
Info: NONBONDED TABLE SIZE: 705 POINTS
TCL: Setting parameter alchLambda2 to 0.5499999999999999
Info: NONBONDED TABLE R-SQUARED SPACING: 0.0625
Info: NONBONDED TABLE SIZE: 705 POINTS
TCL: Running for 1500000 steps
ETITLE: TS BOND ANGLE DIHED IMPRP ELECT VDW BOUNDARY MISC KINETIC TOTAL TEMP POTENTIAL TOTALAVG TEMPAVG PRESSURE GPRESSURE VOLUME PRESSAVG GPRESSAVG
ENERGY: 0 0.2343 4.6659 1.7499 0.0000 -10892.3480 1545.2711 0.0000 0.0000 1816.5732 -7523.8536 306.2450 -9340.4268 -7523.8536 306.2450 832.5651 899.5435 30753.1008 832.5651 899.5435
ENERGY: 300000 2.2352 5.3926 3.0623 0.0000 -10838.6672 1441.5866 0.0000 0.0000 1752.6478 -7633.7426 295.4682 -9386.3904 -7599.4341 297.3903 -368.6392 -311.0981 31013.9619 39.8645 95.8080
ENERGY: 600000 1.8574 4.5809 3.5283 0.0000 -10767.1079 1378.0254 0.0000 0.0000 1748.5415 -7630.5743 294.7759 -9379.1158 -7592.5497 296.9795 -531.2159 -479.5385 30597.5267 126.8637 176.8503
ENERGY: 900000 2.2872 6.2747 1.7305 0.0000 -10756.3343 1431.3716 0.0000 0.0000 1746.1996 -7568.4707 294.3811 -9314.6703 -7594.0980 297.7496 -320.5086 -259.5329 31192.2414 52.7213 106.7025
ENERGY: 1200000 1.3858 7.9823 1.7499 0.0000 -10700.9357 1408.1620 0.0000 0.0000 1773.4180 -7508.2376 298.9697 -9281.6557 -7585.8124 297.8550 -85.8841 -82.2809 30898.6368 111.3324 157.4086
ENERGY: 1500000 2.3416 12.4097 2.8227 0.0000 -10904.2568 1544.5804 0.0000 0.0000 1798.1802 -7543.9222 303.1442 -9342.1024 -7581.1948 298.5175 498.3650 632.9158 30900.2954 190.5058 240.2610
TCL: Running FEP window  12: Lambda1 0.5499999999999999 Lambda2 0.6    [dLambda 0.050000000000000044]
TCL: Setting parameter firsttimestep to 0
TCL: Setting parameter alchLambda to 0.5499999999999999
Info: NONBONDED TABLE R-SQUARED SPACING: 0.0625
Info: NONBONDED TABLE SIZE: 705 POINTS
TCL: Setting parameter alchLambda2 to 0.6
Info: NONBONDED TABLE R-SQUARED SPACING: 0.0625
Info: NONBONDED TABLE SIZE: 705 POINTS
TCL: Running for 1500000 steps
ETITLE: TS BOND ANGLE DIHED IMPRP ELECT VDW BOUNDARY MISC KINETIC TOTAL TEMP POTENTIAL TOTALAVG TEMPAVG PRESSURE GPRESSURE VOLUME PRESSAVG GPRESSAVG
ENERGY: 0 2.3416 12.4097 2.8227 0.0000 -10903.7254 1544.5383 0.0000 0.0000 1797.2832 -7544.3299 302.9930 -9341.6131 -7544.3299 302.9930 556.3765 640.0573 30900.2954 556.3765 640.0573
ENERGY: 300000 3.3692 5.8945 2.1826 0.0000 -10793.6849 1501.0656 0.0000 0.0000 1786.5608 -7494.6121 301.1854 -9281.1729 -7539.3634 300.5661 467.2134 487.9938 30883.7056 212.0872 264.7819
ENERGY: 600000 1.1847 8.1964 3.1517 0.0000 -10897.9847 1503.1822 0.0000 0.0000 1799.3990 -7582.8707 303.3497 -9382.2697 -7565.1101 301.4609 630.5115 684.1744 30240.6940 202.9932 252.8823
ENERGY: 900000 3.4265 4.0815 3.4509 0.0000 -10747.6702 1399.1375 0.0000 0.0000 1790.1265 -7547.4473 301.7865 -9337.5738 -7582.6925 299.9622 -4.6472 -27.2823 30455.5058 107.6622 160.3245
ENERGY: 1200000 2.5101 4.7691 1.9704 0.0000 -10958.3752 1606.1287 0.0000 0.0000 1724.0638 -7618.9331 290.6494 -9342.9969 -7574.8489 299.0415 1308.6583 1384.4650 30446.4882 170.5178 221.9744
ENERGY: 1500000 3.3211 7.1164 2.4815 0.0000 -10862.3947 1448.2649 0.0000 0.0000 1728.4907 -7672.7200 291.3957 -9401.2107 -7587.6963 299.0425 -424.5575 -349.4361 31168.0908 149.4180 205.7197
TCL: Running FEP window  13: Lambda1 0.6    Lambda2 0.65   [dLambda 0.050000000000000044]
TCL: Setting parameter firsttimestep to 0
TCL: Setting parameter alchLambda to 0.6
Info: NONBONDED TABLE R-SQUARED SPACING: 0.0625
Info: NONBONDED TABLE SIZE: 705 POINTS
TCL: Setting parameter alchLambda2 to 0.65
Info: NONBONDED TABLE R-SQUARED SPACING: 0.0625
Info: NONBONDED TABLE SIZE: 705 POINTS
TCL: Running for 1500000 steps
ETITLE: TS BOND ANGLE DIHED IMPRP ELECT VDW BOUNDARY MISC KINETIC TOTAL TEMP POTENTIAL TOTALAVG TEMPAVG PRESSURE GPRESSURE VOLUME PRESSAVG GPRESSAVG
ENERGY: 0 3.3211 7.1164 2.4815 0.0000 -10862.0825 1447.9688 0.0000 0.0000 1727.5815 -7673.6131 291.2424 -9401.1946 -7673.6131 291.2424 -445.9798 -348.2489 31168.0908 -445.9798 -348.2489
ENERGY: 300000 0.7364 4.8082 1.5548 0.0000 -10940.9274 1529.9895 0.0000 0.0000 1772.0141 -7631.8245 298.7330 -9403.8386 -7588.6863 298.1615 316.8072 377.0600 30930.6798 -460.9214 -375.8451
ENERGY: 600000 2.7045 5.4040 1.9559 0.0000 -10852.1081 1445.7106 0.0000 0.0000 1793.8669 -7602.4662 302.4171 -9396.3332 -7585.9547 299.0769 -260.6636 -115.3046 30515.5296 -361.7392 -269.4409
ENERGY: 900000 1.9609 8.2909 1.5353 0.0000 -10798.3905 1375.2870 0.0000 0.0000 1791.6801 -7619.6362 302.0484 -9411.3163 -7582.5681 299.0375 -992.6455 -937.2072 31414.8266 -216.3371 -139.2793
ENERGY: 1200000 2.0353 2.3606 2.6398 0.0000 -10981.6833 1536.7199 0.0000 0.0000 1700.6921 -7737.2355 286.7093 -9437.9276 -7592.3177 298.6729 488.6498 513.8596 30579.1781 -96.9463 -25.8742
ENERGY: 1500000 0.4024 6.4391 2.0369 0.0000 -10853.9736 1431.2641 0.0000 0.0000 1749.1409 -7664.6902 294.8770 -9413.8311 -7594.1937 297.8690 -327.3767 -291.0153 30905.8573 -121.7627 -50.7983
TCL: Running FEP window  14: Lambda1 0.65   Lambda2 0.7000000000000001 [dLambda 0.050000000000000044]
TCL: Setting parameter firsttimestep to 0
TCL: Setting parameter alchLambda to 0.65
Info: NONBONDED TABLE R-SQUARED SPACING: 0.0625
Info: NONBONDED TABLE SIZE: 705 POINTS
TCL: Setting parameter alchLambda2 to 0.7000000000000001
Info: NONBONDED TABLE R-SQUARED SPACING: 0.0625
Info: NONBONDED TABLE SIZE: 705 POINTS
TCL: Running for 1500000 steps
ETITLE: TS BOND ANGLE DIHED IMPRP ELECT VDW BOUNDARY MISC KINETIC TOTAL TEMP POTENTIAL TOTALAVG TEMPAVG PRESSURE GPRESSURE VOLUME PRESSAVG GPRESSAVG
ENERGY: 0 0.4024 6.4391 2.0369 0.0000 -10855.3924 1431.6726 0.0000 0.0000 1748.2388 -7666.6026 294.7249 -9414.8414 -7666.6026 294.7249 -352.5874 -280.9320 30905.8573 -352.5874 -280.9320
ENERGY: 300000 1.4380 4.6674 0.6599 0.0000 -10767.2308 1393.2912 0.0000 0.0000 1781.4873 -7585.6871 300.3300 -9367.1744 -7577.0869 300.7677 -356.8840 -315.2506 30904.9290 -68.7407 -2.3367
ENERGY: 600000 1.0971 5.5261 1.1836 0.0000 -10855.6150 1475.5892 0.0000 0.0000 1772.7141 -7599.5048 298.8510 -9372.2190 -7602.9994 300.0229 -48.8197 65.2107 30590.9943 -92.0432 -8.4048
ENERGY: 900000 2.7553 7.5283 2.4939 0.0000 -10871.8466 1537.4739 0.0000 0.0000 1796.9944 -7524.6007 302.9443 -9321.5951 -7597.6668 299.9857 766.9894 771.0297 30909.0904 83.8709 155.5446
ENERGY: 1200000 1.1832 6.6974 1.3963 0.0000 -10804.1862 1417.3447 0.0000 0.0000 1796.5868 -7580.9779 302.8756 -9377.5647 -7589.9743 299.4662 -77.8562 -22.0353 30260.4986 2.1231 79.2256
ENERGY: 1500000 2.1848 8.5957 2.7404 0.0000 -10846.1255 1459.6699 0.0000 0.0000 1783.4846 -7589.4502 300.6668 -9372.9348 -7589.9784 299.8988 -10.5769 -2.5379 30607.4308 41.4495 111.5280
TCL: Running FEP window  15: Lambda1 0.7000000000000001 Lambda2 0.7500000000000001 [dLambda 0.050000000000000044]
TCL: Setting parameter firsttimestep to 0
TCL: Setting parameter alchLambda to 0.7000000000000001
Info: NONBONDED TABLE R-SQUARED SPACING: 0.0625
Info: NONBONDED TABLE SIZE: 705 POINTS
TCL: Setting parameter alchLambda2 to 0.7500000000000001
Info: NONBONDED TABLE R-SQUARED SPACING: 0.0625
Info: NONBONDED TABLE SIZE: 705 POINTS
TCL: Running for 1500000 steps
ETITLE: TS BOND ANGLE DIHED IMPRP ELECT VDW BOUNDARY MISC KINETIC TOTAL TEMP POTENTIAL TOTALAVG TEMPAVG PRESSURE GPRESSURE VOLUME PRESSAVG GPRESSAVG
ENERGY: 0 2.1848 8.5956 2.7403 0.0000 -10846.3483 1459.4769 0.0000 0.0000 1782.5927 -7590.7579 300.5164 -9373.3505 -7590.7579 300.5164 -83.4522 5.4832 30607.4308 -83.4522 5.4832
ENERGY: 300000 1.2834 8.3890 8.7462 0.0000 -10880.4232 1462.8420 0.0000 0.0000 1804.0938 -7595.0687 304.1411 -9399.1626 -7574.6924 299.8901 -184.2331 -137.3286 30954.9413 -317.6010 -241.8333
ENERGY: 600000 2.0810 5.0058 5.1174 0.0000 -10828.7499 1457.9252 0.0000 0.0000 1774.0220 -7584.5985 299.0715 -9358.6204 -7589.9761 298.7121 136.8951 199.3592 30606.9358 -71.9662 11.0437
ENERGY: 900000 4.8356 6.4839 2.2077 0.0000 -10883.1454 1424.4760 0.0000 0.0000 1772.6330 -7672.5092 298.8374 -9445.1422 -7588.9824 300.0002 -577.8386 -469.6120 30871.3877 -200.6394 -124.5081
ENERGY: 1200000 3.6852 4.3241 2.4651 0.0000 -10769.6321 1399.7390 0.0000 0.0000 1800.7345 -7558.6841 303.5748 -9359.4186 -7588.0687 300.2887 -226.1185 -165.2681 30591.9863 -210.4664 -139.0834
ENERGY: 1500000 3.5192 3.9647 3.4045 0.0000 -10985.0207 1579.7497 0.0000 0.0000 1802.4587 -7591.9240 303.8655 -9394.3827 -7585.3252 300.5200 1137.2572 1227.4640 30427.6337 -90.6431 -24.0885
TCL: Running FEP window  16: Lambda1 0.7500000000000001 Lambda2 0.8000000000000002 [dLambda 0.050000000000000044]
TCL: Setting parameter firsttimestep to 0
TCL: Setting parameter alchLambda to 0.7500000000000001
Info: NONBONDED TABLE R-SQUARED SPACING: 0.0625
Info: NONBONDED TABLE SIZE: 705 POINTS
TCL: Setting parameter alchLambda2 to 0.8000000000000002
Info: NONBONDED TABLE R-SQUARED SPACING: 0.0625
Info: NONBONDED TABLE SIZE: 705 POINTS
TCL: Running for 1500000 steps
ETITLE: TS BOND ANGLE DIHED IMPRP ELECT VDW BOUNDARY MISC KINETIC TOTAL TEMP POTENTIAL TOTALAVG TEMPAVG PRESSURE GPRESSURE VOLUME PRESSAVG GPRESSAVG
ENERGY: 0 3.5192 3.9647 3.4045 0.0000 -10985.1414 1579.8911 0.0000 0.0000 1801.6100 -7592.7520 303.7224 -9394.3620 -7592.7520 303.7224 1164.5433 1237.6567 30427.6337 1164.5433 1237.6567
ENERGY: 300000 5.0589 3.8817 4.7930 0.0000 -10842.9757 1426.5199 0.0000 0.0000 1790.9712 -7611.7511 301.9289 -9402.7223 -7600.4810 300.7726 -316.9471 -255.4036 30735.8203 202.4200 252.4420
ENERGY: 600000 5.1138 7.4956 2.4038 0.0000 -10871.4653 1460.0117 0.0000 0.0000 1789.6425 -7606.7979 301.7049 -9396.4403 -7600.1693 300.3097 0.9680 57.2065 30696.7971 9.3056 66.6776
ENERGY: 900000 3.7632 7.8221 4.7620 0.0000 -10753.0411 1421.2369 0.0000 0.0000 1809.0144 -7506.4425 304.9707 -9315.4569 -7575.1280 301.7383 -154.6435 -98.4783 30806.7604 60.0090 127.9989
ENERGY: 1200000 3.2315 5.0520 3.7036 0.0000 -10778.1125 1376.9176 0.0000 0.0000 1819.0300 -7570.1778 306.6591 -9389.2078 -7568.8466 302.2745 -415.6518 -299.3527 30327.8946 16.0116 85.6532
ENERGY: 1500000 2.3015 4.8320 2.3820 0.0000 -10823.1472 1419.4013 0.0000 0.0000 1771.0760 -7623.1544 298.5749 -9394.2304 -7571.6142 301.6497 -256.8731 -182.1640 30722.1603 41.8397 105.4738
TCL: Running FEP window  17: Lambda1 0.8000000000000002 Lambda2 0.8500000000000002 [dLambda 0.050000000000000044]
TCL: Setting parameter firsttimestep to 0
TCL: Setting parameter alchLambda to 0.8000000000000002
Info: NONBONDED TABLE R-SQUARED SPACING: 0.0625
Info: NONBONDED TABLE SIZE: 705 POINTS
TCL: Setting parameter alchLambda2 to 0.8500000000000002
Info: NONBONDED TABLE R-SQUARED SPACING: 0.0625
Info: NONBONDED TABLE SIZE: 705 POINTS
TCL: Running for 1500000 steps
ETITLE: TS BOND ANGLE DIHED IMPRP ELECT VDW BOUNDARY MISC KINETIC TOTAL TEMP POTENTIAL TOTALAVG TEMPAVG PRESSURE GPRESSURE VOLUME PRESSAVG GPRESSAVG
ENERGY: 0 2.3015 4.8320 2.3820 0.0000 -10823.2014 1419.7585 0.0000 0.0000 1770.1636 -7623.7638 298.4210 -9393.9273 -7623.7638 298.4210 -256.0755 -164.9448 30722.1603 -256.0755 -164.9448
ENERGY: 300000 2.8692 5.4602 3.6130 0.0000 -10948.8784 1592.5161 0.0000 0.0000 1796.9845 -7547.4354 302.9426 -9344.4198 -7606.2677 301.9074 1171.0416 1237.4189 30651.8469 690.4744 759.1362
ENERGY: 600000 2.5934 7.7457 2.6278 0.0000 -10930.2265 1487.5589 0.0000 0.0000 1753.2285 -7676.4723 295.5661 -9429.7007 -7628.5339 300.3524 23.5039 25.0182 30761.5180 417.9763 483.8752
ENERGY: 900000 0.9186 8.5781 1.2856 0.0000 -10986.1826 1551.3065 0.0000 0.0000 1761.7053 -7662.3886 296.9951 -9424.0938 -7644.2479 298.9844 683.1556 739.9899 30370.9184 344.2363 409.4534
ENERGY: 1200000 2.6570 6.3716 2.8151 0.0000 -10899.7536 1493.6271 0.0000 0.0000 1745.4042 -7648.8787 294.2470 -9394.2828 -7633.3493 298.2271 373.2248 491.2321 30228.6235 228.1755 295.7097
ENERGY: 1500000 3.7014 7.8145 3.5449 0.0000 -10726.3781 1396.3926 0.0000 0.0000 1779.2752 -7535.6496 299.9571 -9314.9248 -7626.5309 298.0921 -164.9745 -113.7276 30610.4320 148.1061 213.9438
TCL: Running FEP window  18: Lambda1 0.8500000000000002 Lambda2 0.9000000000000002 [dLambda 0.050000000000000044]
TCL: Setting parameter firsttimestep to 0
TCL: Setting parameter alchLambda to 0.8500000000000002
Info: NONBONDED TABLE R-SQUARED SPACING: 0.0625
Info: NONBONDED TABLE SIZE: 705 POINTS
TCL: Setting parameter alchLambda2 to 0.9000000000000002
Info: NONBONDED TABLE R-SQUARED SPACING: 0.0625
Info: NONBONDED TABLE SIZE: 705 POINTS
TCL: Running for 1500000 steps
ETITLE: TS BOND ANGLE DIHED IMPRP ELECT VDW BOUNDARY MISC KINETIC TOTAL TEMP POTENTIAL TOTALAVG TEMPAVG PRESSURE GPRESSURE VOLUME PRESSAVG GPRESSAVG
ENERGY: 0 3.7014 7.8145 3.5449 0.0000 -10727.6243 1396.6443 0.0000 0.0000 1778.4318 -7537.4874 299.8149 -9315.9192 -7537.4874 299.8149 -188.7140 -104.6088 30610.4320 -188.7140 -104.6088
ENERGY: 300000 3.3879 7.9004 3.3395 0.0000 -10718.6714 1414.5223 0.0000 0.0000 1855.9249 -7433.5964 312.8790 -9289.5213 -7555.0671 302.4693 10.1772 14.3074 31019.3949 6.9493 53.3037
ENERGY: 600000 2.3143 6.9510 1.9153 0.0000 -10949.5158 1537.6712 0.0000 0.0000 1815.9048 -7584.7591 306.1323 -9400.6639 -7562.2832 303.1283 604.0710 665.3044 30681.5047 75.7256 129.3781
ENERGY: 900000 3.2611 4.9008 2.0654 0.0000 -10670.5524 1339.6126 0.0000 0.0000 1845.5689 -7475.1437 311.1332 -9320.7126 -7563.1750 302.6380 -739.9632 -630.4943 31005.1853 -28.5554 30.4025
ENERGY: 1200000 2.1547 5.4682 5.3745 0.0000 -10952.1529 1439.7181 0.0000 0.0000 1805.5484 -7693.8889 304.3864 -9499.4373 -7571.7099 302.2245 -358.5032 -249.1428 30303.0395 -40.4023 23.1945
ENERGY: 1500000 5.4963 5.1679 4.2288 0.0000 -10844.3057 1446.9908 0.0000 0.0000 1792.3259 -7590.0961 302.1573 -9382.4220 -7575.8375 302.1044 -206.5979 -152.7493 30839.2286 -36.7894 28.3125
TCL: Running FEP window  19: Lambda1 0.9000000000000002 Lambda2 0.9500000000000003 [dLambda 0.050000000000000044]
TCL: Setting parameter firsttimestep to 0
TCL: Setting parameter alchLambda to 0.9000000000000002
Info: NONBONDED TABLE R-SQUARED SPACING: 0.0625
Info: NONBONDED TABLE SIZE: 705 POINTS
TCL: Setting parameter alchLambda2 to 0.9500000000000003
Info: NONBONDED TABLE R-SQUARED SPACING: 0.0625
Info: NONBONDED TABLE SIZE: 705 POINTS
TCL: Running for 1500000 steps
ETITLE: TS BOND ANGLE DIHED IMPRP ELECT VDW BOUNDARY MISC KINETIC TOTAL TEMP POTENTIAL TOTALAVG TEMPAVG PRESSURE GPRESSURE VOLUME PRESSAVG GPRESSAVG
ENERGY: 0 5.4963 5.1679 4.2288 0.0000 -10845.4620 1448.0514 0.0000 0.0000 1791.4970 -7591.0206 302.0175 -9382.5176 -7591.0206 302.0175 -217.4277 -130.5512 30839.2286 -217.4277 -130.5512
ENERGY: 300000 1.0095 8.5880 2.9271 0.0000 -10737.5811 1380.7526 0.0000 0.0000 1770.6816 -7573.6223 298.5084 -9344.3039 -7589.1814 297.4531 -684.6567 -594.6686 31344.7843 -378.3770 -320.4180
ENERGY: 600000 2.2391 7.2120 1.3220 0.0000 -10797.0744 1425.0176 0.0000 0.0000 1744.8774 -7616.4062 294.1582 -9361.2836 -7586.2168 296.2721 -177.0857 -138.3267 30752.5821 -335.8739 -280.3544
ENERGY: 900000 5.7418 3.9394 2.9528 0.0000 -10764.0857 1436.1151 0.0000 0.0000 1820.6135 -7494.7231 306.9261 -9315.3365 -7569.5073 299.6089 -331.6930 -204.5477 31027.0627 -361.1163 -293.5304
ENERGY: 1200000 2.2421 8.7415 3.1209 0.0000 -10753.5636 1391.3662 0.0000 0.0000 1804.2115 -7543.8815 304.1610 -9348.0930 -7567.6189 300.5048 -607.5824 -528.2780 31245.1429 -363.1747 -292.3389
ENERGY: 1500000 3.0476 2.9431 0.6718 0.0000 -10912.1023 1467.3741 0.0000 0.0000 1770.8382 -7667.2275 298.5348 -9438.0657 -7581.4062 300.1988 190.1726 175.4650 30266.7294 -280.2186 -221.2773
TCL: Running FEP window  20: Lambda1 0.9500000000000003 Lambda2 1.0    [dLambda 0.04999999999999971]
TCL: Setting parameter firsttimestep to 0
TCL: Setting parameter alchLambda to 0.9500000000000003
Info: NONBONDED TABLE R-SQUARED SPACING: 0.0625
Info: NONBONDED TABLE SIZE: 705 POINTS
TCL: Setting parameter alchLambda2 to 1.0
Info: NONBONDED TABLE R-SQUARED SPACING: 0.0625
Info: NONBONDED TABLE SIZE: 705 POINTS
TCL: Running for 1500000 steps
ETITLE: TS BOND ANGLE DIHED IMPRP ELECT VDW BOUNDARY MISC KINETIC TOTAL TEMP POTENTIAL TOTALAVG TEMPAVG PRESSURE GPRESSURE VOLUME PRESSAVG GPRESSAVG
ENERGY: 0 3.0476 2.9431 0.6718 0.0000 -10913.1974 1467.4310 0.0000 0.0000 1769.9616 -7669.1424 298.3870 -9439.1040 -7669.1424 298.3870 98.6815 186.8632 30266.7294 98.6815 186.8632
ENERGY: 300000 0.7302 5.6311 1.9543 0.0000 -10753.6656 1342.9460 0.0000 0.0000 1730.2961 -7672.1079 291.7000 -9402.4040 -7658.8637 297.4616 -802.5989 -727.3834 30531.0417 -319.1536 -243.5811
ENERGY: 600000 1.3730 4.9926 3.7700 0.0000 -10721.9666 1371.0617 0.0000 0.0000 1767.6550 -7573.1144 297.9981 -9340.7693 -7643.6894 298.0719 -654.3843 -561.0856 30906.2219 -293.1877 -193.1639
ENERGY: 900000 1.8269 6.4311 1.2753 0.0000 -10805.0692 1367.1909 0.0000 0.0000 1722.4632 -7705.8816 290.3795 -9428.3448 -7647.1901 297.0152 -898.3528 -781.8809 30802.8824 -377.9249 -279.9772
ENERGY: 1200000 1.5415 5.1122 2.2206 0.0000 -10814.6978 1431.0664 0.0000 0.0000 1768.3039 -7606.4532 298.1075 -9374.7571 -7648.8025 297.5269 -111.7550 -39.1257 30639.0719 -364.2965 -272.8111
ENERGY: 1500000 1.9756 5.4265 2.3519 0.0000 -10866.4830 1450.3939 0.0000 0.0000 1781.3194 -7625.0158 300.3017 -9406.3351 -7635.5759 298.1603 -93.2871 -38.0292 30438.1466 -346.1266 -264.5858
TCL: Exiting due to exit command.
