Info: SIMULATION PARAMETERS:
Info: TIMESTEP               2
Info: NUMBER OF STEPS        0
Info: STEPS PER CYCLE        10
Info: PERIODIC CELL BASIS 1  31.8538 0 0
Info: PERIODIC CELL BASIS 2  0 31.4131 0
Info: PERIODIC CELL BASIS 3  0 0 30.2647
Info: PERIODIC CELL CENTER   0 0 0
Info: WRAPPING WATERS AROUND PERIODIC BOUNDARIES ON OUTPUT.
Info: WRAPPING ALL CLUSTERS AROUND PERIODIC BOUNDARIES ON OUTPUT.
Info: FIRST LDB TIMESTEP     50
Info: LAST LDB TIMESTEP     -1
Info: HOM BACKGROUND SCALING 1
Info: PME BACKGROUND SCALING 1
Info: MIN ATOMS PER PATCH    40
Info: EMPTY PATCH LOAD       40 ATOMS
Info: VELOCITY FILE          mobley_6091882_equil.vel
Info: CENTER OF MASS MOVING INITIALLY? NO
Info: DIELECTRIC             1
Info: EXCLUDE                SCALED ONE-FOUR
Info: 1-4 ELECTROSTATICS SCALED BY 0.833333
Info: MODIFIED 1-4 VDW PARAMETERS WILL BE USED
Info: DCD FILENAME           mobley_6091882_prod.dcd
Info: DCD FREQUENCY          100000
Info: DCD FIRST STEP         100000
Info: DCD FILE WILL CONTAIN UNIT CELL DATA
Info: XST FILENAME           mobley_6091882_prod.xst
Info: XST FREQUENCY          100000
Info: NO VELOCITY DCD OUTPUT
Info: NO FORCE DCD OUTPUT
Info: OUTPUT FILENAME        mobley_6091882_prod
Info: BINARY OUTPUT FILES WILL BE USED
Info: RESTART FILENAME       mobley_6091882_prod.restart
Info: RESTART FREQUENCY      100000
Info: BINARY RESTART FILES WILL BE USED
Info: CUTOFF                 9
Info: PAIRLIST DISTANCE      11
Info: PAIRLIST SHRINK RATE   0.01
Info: PAIRLIST GROW RATE     0.01
Info: PAIRLIST TRIGGER       0.3
Info: PAIRLISTS PER CYCLE    2
Info: PAIRLISTS ENABLED
Info: MARGIN                 2
Info: HYDROGEN GROUP CUTOFF  2.5
Info: PATCH DIMENSION        15.5
Info: ENERGY OUTPUT STEPS    100000
Info: ENERGY EVALUATION STEPS    100000
Info: OUTPUT ENERGY PRECISION 4
Info: CROSSTERM ENERGY INCLUDED IN DIHEDRAL
Info: TIMING OUTPUT STEPS    1000000
Info: PRESSURE OUTPUT STEPS  100000
Info: ALCHEMICAL FEP ON
Info: FEP CURRENT LAMBDA VALUE     1
Info: FEP COMPARISON LAMBDA VALUE  0.95
Info: FEP INTRA-ALCHEMICAL NON-BONDED INTERACTIONS WILL BE RETAINED
Info: FEP INTRA-ALCHEMICAL BONDED INTERACTIONS WILL BE RETAINED
Info: FEP VDW SHIFTING COEFFICIENT 5
Info: FEP ELEC. ACTIVE FOR ANNIHILATED PARTICLES BETWEEN LAMBDA = 0 AND LAMBDA = 0.5
Info: FEP ELEC. ACTIVE FOR EXNIHILATED PARTICLES BETWEEN LAMBDA = 0.5 AND LAMBDA = 1
Info: FEP VDW ACTIVE FOR ANNIHILATED PARTICLES BETWEEN LAMBDA = 0 AND LAMBDA = 1
Info: FEP VDW ACTIVE FOR EXNIHILATED PARTICLES BETWEEN LAMBDA = 0 AND LAMBDA = 1
Info: FEP BOND ACTIVE FOR ANNIHILATED PARTICLES BETWEEN LAMBDA = 1 AND LAMBDA = 1
Info: FEP BOND ACTIVE FOR EXNIHILATED PARTICLES BETWEEN LAMBDA = 0 AND LAMBDA = 0
Info: LANGEVIN DYNAMICS ACTIVE
Info: LANGEVIN TEMPERATURE   300
Info: LANGEVIN USING BBK INTEGRATOR
Info: LANGEVIN DAMPING COEFFICIENT IS 1 INVERSE PS
Info: LANGEVIN DYNAMICS APPLIED TO HYDROGENS
Info: LANGEVIN PISTON PRESSURE CONTROL ACTIVE
Info:        TARGET PRESSURE IS 1.01325 BAR
Info:     OSCILLATION PERIOD IS 50 FS
Info:             DECAY TIME IS 25 FS
Info:     PISTON TEMPERATURE IS 300 K
Info:       PRESSURE CONTROL IS GROUP-BASED
Info:    INITIAL STRAIN RATE IS -2.49593e-05 -2.49593e-05 -2.49593e-05
Info:       CELL FLUCTUATION IS ISOTROPIC
Info: PARTICLE MESH EWALD (PME) ACTIVE
Info: PME TOLERANCE               1e-06
Info: PME EWALD COEFFICIENT       0.348832
Info: PME INTERPOLATION ORDER     4
Info: PME GRID DIMENSIONS         32 32 32
Info: PME MAXIMUM GRID SPACING    1
Info: PME CALCULATION WILL BE PERFORMED ON GPU
Info: FULL ELECTROSTATIC EVALUATION FREQUENCY      2
Info: USING VERLET I (r-RESPA) MTS SCHEME.
Info: C1 SPLITTING OF LONG RANGE ELECTROSTATICS
Info: PLACING ATOMS IN PATCHES BY HYDROGEN GROUPS
Info: RIGID BONDS TO HYDROGEN : ALL
Info:         ERROR TOLERANCE : 1e-08
Info:          MAX ITERATIONS : 100
Info: RIGID WATER USING SETTLE ALGORITHM
Info: RANDOM NUMBER SEED     1743488313
Info: USE HYDROGEN BONDS?    NO
Info: Using AMBER format force field!
Info: AMBER PARM FILE        mobley_6091882.prmtop
Info: COORDINATE PDB         mobley_6091882.pdb
Info: Exclusions will be read from PARM file!
Info: SCNB (VDW SCALING)     2
Info: USING ARITHMETIC MEAN TO COMBINE L-J SIGMA PARAMETERS
Info: BINARY COORDINATES     mobley_6091882_equil.coor
Info: SUMMARY OF PARAMETERS:
Info: 4 BONDS
Info: 2 ANGLES
Info:   2 HARMONIC
Info:   0 COSINE-BASED
Info: 2 DIHEDRAL
Info: 0 IMPROPER
Info: 0 CROSSTERM
Info: 0 VDW
Info: 10 VDW_PAIRS
Info: 0 NBTHOLE_PAIRS
Info: To read alchdata from file: mobley_6091882.pdb
Info: To read alchflag data from column: 5
Info: STRUCTURE SUMMARY:
Info: 2946 ATOMS
Info: 2945 BONDS
Info: 6 ANGLES
Info: 6 DIHEDRALS
Info: 0 IMPROPERS
Info: 0 CROSSTERMS
Info: 2955 EXCLUSIONS
Info: 2944 RIGID BONDS
Info: ALCH: 0 ATOMS TO DISAPPEAR IN FINAL STATE
Info: ALCH: 6 ATOMS TO APPEAR IN FINAL STATE
Info: 5894 DEGREES OF FREEDOM
Info: 982 HYDROGEN GROUPS
Info: 3 ATOMS IN LARGEST HYDROGEN GROUP
Info: 982 MIGRATION GROUPS
Info: 3 ATOMS IN LARGEST MIGRATION GROUP
Info: TOTAL MASS = 17683.7 amu
Info: TOTAL CHARGE = 0.000100002 e
Info: MASS DENSITY = 0.969671 g/cm^3
Info: ATOM DENSITY = 0.09728 atoms/A^3
Info: ADDED 0 IMPLICIT EXCLUSIONS
Info: NONBONDED TABLE R-SQUARED SPACING: 0.0625
Info: NONBONDED TABLE SIZE: 705 POINTS
Info: REDUCING NUMBER OF PATCHES TO IMPROVE LOAD BALANCE
Info: REMOVING COM VELOCITY -0.166719 -0.00488003 0.0584446
Info: Use 3D box decompostion in PME FFT.
Info: Updated CUDA force table with 4096 elements.
Info: Updated CUDA LJ table with 4 x 4 elements.
Info: Found 9 unique exclusion lists needing 12 bytes
TCL: Running for 1500000 steps
ETITLE: TS BOND ANGLE DIHED IMPRP ELECT VDW BOUNDARY MISC KINETIC TOTAL TEMP POTENTIAL TOTALAVG TEMPAVG PRESSURE GPRESSURE VOLUME PRESSAVG GPRESSAVG
ENERGY: 0 0.8498 0.3686 1.6864 0.0000 -10572.2003 1332.4842 0.0000 0.0000 1771.1162 -7465.6951 302.4317 -9236.8113 -7465.6951 302.4317 -702.5759 -612.1830 30283.7017 -702.5759 -612.1830
ENERGY: 300000 0.0757 0.8299 1.0190 0.0000 -10751.8772 1509.7522 0.0000 0.0000 1749.2308 -7490.9695 298.6946 -9240.2003 -7478.4242 301.1814 626.0368 676.6713 30250.1054 324.5598 404.5814
ENERGY: 600000 0.0623 0.4407 0.2085 0.0000 -10757.3377 1550.5978 0.0000 0.0000 1763.6320 -7442.3964 301.1537 -9206.0284 -7473.7369 299.9534 959.7565 1051.7607 30145.0018 361.8679 431.3842
ENERGY: 900000 0.0554 0.4784 0.4323 0.0000 -10720.2840 1503.6105 0.0000 0.0000 1793.8327 -7421.8746 306.3107 -9215.7073 -7457.9423 301.6374 697.2326 746.2065 30316.9427 258.8610 332.6701
ENERGY: 1200000 0.6938 0.4395 0.4877 0.0000 -10649.5491 1362.3062 0.0000 0.0000 1692.2485 -7593.3733 288.9644 -9285.6218 -7488.9363 299.9223 -663.3040 -596.8551 30187.4545 137.1300 204.5094
ENERGY: 1500000 0.4344 2.1706 2.4661 0.0000 -10643.8739 1384.6688 0.0000 0.0000 1771.9705 -7482.1635 302.5776 -9254.1341 -7483.1871 300.6532 -633.6695 -560.0257 30750.9324 113.0450 185.8314
TCL: Running FEP window   2: Lambda1 0.95   Lambda2 0.8999999999999999 [dLambda -0.050000000000000044]
TCL: Setting parameter firsttimestep to 0
TCL: Setting parameter alchLambda to 0.95
Info: NONBONDED TABLE R-SQUARED SPACING: 0.0625
Info: NONBONDED TABLE SIZE: 705 POINTS
TCL: Setting parameter alchLambda2 to 0.8999999999999999
Info: NONBONDED TABLE R-SQUARED SPACING: 0.0625
Info: NONBONDED TABLE SIZE: 705 POINTS
TCL: Running for 1500000 steps
ETITLE: TS BOND ANGLE DIHED IMPRP ELECT VDW BOUNDARY MISC KINETIC TOTAL TEMP POTENTIAL TOTALAVG TEMPAVG PRESSURE GPRESSURE VOLUME PRESSAVG GPRESSAVG
ENERGY: 0 0.4344 2.1706 2.4661 0.0000 -10643.7121 1384.5059 0.0000 0.0000 1771.0837 -7483.0514 302.4262 -9254.1352 -7483.0514 302.4262 -651.9968 -567.4352 30750.9324 -651.9968 -567.4352
ENERGY: 300000 0.3313 0.7898 1.0318 0.0000 -10792.3147 1536.3421 0.0000 0.0000 1860.7080 -7393.1118 317.7302 -9253.8198 -7446.4134 301.8322 766.6221 822.1828 30415.4264 1.6504 59.0202
ENERGY: 600000 0.0919 0.4043 0.8429 0.0000 -10608.2073 1357.0868 0.0000 0.0000 1851.6336 -7398.1478 316.1807 -9249.7814 -7468.3933 302.7231 -363.0869 -270.4880 29986.2105 -70.8570 -14.3980
ENERGY: 900000 0.2381 1.5617 0.9161 0.0000 -10749.2058 1443.4890 0.0000 0.0000 1751.1884 -7551.8125 299.0289 -9303.0009 -7481.4090 300.8084 -33.3114 23.6088 30046.6789 -109.3461 -47.0148
ENERGY: 1200000 0.4531 1.5847 0.1553 0.0000 -10763.7014 1410.7138 0.0000 0.0000 1761.8694 -7588.9251 300.8527 -9350.7946 -7490.1629 300.2121 -714.3013 -699.1383 30788.2965 -153.7127 -97.0232
ENERGY: 1500000 0.0182 0.8041 1.4703 0.0000 -10607.1212 1396.7531 0.0000 0.0000 1700.1377 -7507.9379 290.3116 -9208.0756 -7490.2658 300.3021 -226.1382 -231.3046 30689.1241 -125.9523 -67.8703
TCL: Running FEP window   3: Lambda1 0.8999999999999999 Lambda2 0.8499999999999999 [dLambda -0.050000000000000044]
TCL: Setting parameter firsttimestep to 0
TCL: Setting parameter alchLambda to 0.8999999999999999
Info: NONBONDED TABLE R-SQUARED SPACING: 0.0625
Info: NONBONDED TABLE SIZE: 705 POINTS
TCL: Setting parameter alchLambda2 to 0.8499999999999999
Info: NONBONDED TABLE R-SQUARED SPACING: 0.0625
Info: NONBONDED TABLE SIZE: 705 POINTS
TCL: Running for 1500000 steps
ETITLE: TS BOND ANGLE DIHED IMPRP ELECT VDW BOUNDARY MISC KINETIC TOTAL TEMP POTENTIAL TOTALAVG TEMPAVG PRESSURE GPRESSURE VOLUME PRESSAVG GPRESSAVG
ENERGY: 0 0.0182 0.8041 1.4703 0.0000 -10607.1947 1396.7590 0.0000 0.0000 1699.2604 -7508.8827 290.1618 -9208.1431 -7508.8827 290.1618 -329.0919 -236.4332 30689.1241 -329.0919 -236.4332
ENERGY: 300000 0.0182 1.1171 0.5218 0.0000 -10531.7410 1328.7824 0.0000 0.0000 1682.9292 -7518.3722 287.3731 -9201.3015 -7515.0480 293.7464 -928.8574 -866.7596 30807.6237 -183.6076 -123.7427
ENERGY: 600000 0.8008 0.9264 0.9732 0.0000 -10569.9062 1365.9955 0.0000 0.0000 1695.6391 -7505.5712 289.5434 -9201.2103 -7537.7429 292.6915 -408.8428 -399.6002 30448.0683 -129.9179 -72.9151
ENERGY: 900000 0.0866 0.4872 0.2628 0.0000 -10882.5762 1503.6043 0.0000 0.0000 1778.8248 -7599.3105 303.7480 -9378.1353 -7537.9523 294.7078 117.2166 114.6029 30530.5041 -174.7144 -120.1040
ENERGY: 1200000 0.1734 0.8316 0.1976 0.0000 -10650.5686 1452.6732 0.0000 0.0000 1724.7790 -7471.9139 294.5193 -9196.6929 -7511.8659 296.3899 247.6251 269.2685 30312.7698 -89.5960 -40.5640
ENERGY: 1500000 0.0751 0.3870 0.9709 0.0000 -10658.9990 1416.2173 0.0000 0.0000 1757.9656 -7483.3831 300.1861 -9241.3487 -7511.2990 296.5602 -330.4552 -249.0429 30632.2621 -94.1235 -43.7205
TCL: Running FEP window   4: Lambda1 0.8499999999999999 Lambda2 0.7999999999999998 [dLambda -0.050000000000000044]
TCL: Setting parameter firsttimestep to 0
TCL: Setting parameter alchLambda to 0.8499999999999999
Info: NONBONDED TABLE R-SQUARED SPACING: 0.0625
Info: NONBONDED TABLE SIZE: 705 POINTS
TCL: Setting parameter alchLambda2 to 0.7999999999999998
Info: NONBONDED TABLE R-SQUARED SPACING: 0.0625
Info: NONBONDED TABLE SIZE: 705 POINTS
TCL: Running for 1500000 steps
ETITLE: TS BOND ANGLE DIHED IMPRP ELECT VDW BOUNDARY MISC KINETIC TOTAL TEMP POTENTIAL TOTALAVG TEMPAVG PRESSURE GPRESSURE VOLUME PRESSAVG GPRESSAVG
ENERGY: 0 0.0751 0.3870 0.9709 0.0000 -10659.0163 1416.2923 0.0000 0.0000 1757.0843 -7484.2067 300.0356 -9241.2910 -7484.2067 300.0356 -326.4605 -256.5198 30632.2621 -326.4605 -256.5198
ENERGY: 300000 0.7741 1.9310 0.5314 0.0000 -10711.7743 1482.3541 0.0000 0.0000 1746.9025 -7479.2812 298.2970 -9226.1837 -7452.7864 301.1778 343.0512 393.8763 30550.4455 65.3246 147.0948
ENERGY: 600000 0.4815 0.2329 0.0856 0.0000 -10731.2452 1505.8697 0.0000 0.0000 1746.3362 -7478.2393 298.2003 -9224.5755 -7476.5035 298.9943 660.4621 701.0119 30275.2214 47.3437 108.5041
ENERGY: 900000 0.0228 2.1416 1.6007 0.0000 -10688.3141 1420.1987 0.0000 0.0000 1721.6303 -7542.7200 293.9816 -9264.3504 -7485.6135 297.8365 -398.3805 -348.3386 30862.0252 -16.2226 39.4195
ENERGY: 1200000 0.0042 1.9407 0.1558 0.0000 -10760.5156 1479.8571 0.0000 0.0000 1787.7305 -7490.8273 305.2687 -9278.5578 -7493.1532 298.5425 59.2434 125.4382 30638.6872 64.6191 120.0945
ENERGY: 1500000 0.0024 0.4656 0.4049 0.0000 -10702.2941 1438.1587 0.0000 0.0000 1777.8425 -7485.4199 303.5803 -9263.2625 -7492.2178 298.7212 79.1512 60.2337 30317.9185 103.7457 152.1376
TCL: Running FEP window   5: Lambda1 0.7999999999999998 Lambda2 0.7499999999999998 [dLambda -0.050000000000000044]
TCL: Setting parameter firsttimestep to 0
TCL: Setting parameter alchLambda to 0.7999999999999998
Info: NONBONDED TABLE R-SQUARED SPACING: 0.0625
Info: NONBONDED TABLE SIZE: 705 POINTS
TCL: Setting parameter alchLambda2 to 0.7499999999999998
Info: NONBONDED TABLE R-SQUARED SPACING: 0.0625
Info: NONBONDED TABLE SIZE: 705 POINTS
TCL: Running for 1500000 steps
ETITLE: TS BOND ANGLE DIHED IMPRP ELECT VDW BOUNDARY MISC KINETIC TOTAL TEMP POTENTIAL TOTALAVG TEMPAVG PRESSURE GPRESSURE VOLUME PRESSAVG GPRESSAVG
ENERGY: 0 0.0024 0.4656 0.4049 0.0000 -10701.9315 1437.4577 0.0000 0.0000 1776.9576 -7486.6432 303.4292 -9263.6008 -7486.6432 303.4292 -16.9119 51.6236 30317.9185 -16.9119 51.6236
ENERGY: 300000 0.2505 1.0218 0.9077 0.0000 -10668.8418 1406.2693 0.0000 0.0000 1722.7554 -7537.6371 294.1737 -9260.3925 -7485.2722 302.7430 -438.0634 -381.1522 30594.6360 -297.7327 -222.1681
ENERGY: 600000 0.5811 0.6496 1.0799 0.0000 -10629.0110 1422.2663 0.0000 0.0000 1744.3310 -7460.1031 297.8579 -9204.4341 -7472.9562 301.8457 -28.4269 -5.8248 30443.6414 -226.2658 -160.4606
ENERGY: 900000 0.2238 0.9165 1.2530 0.0000 -10771.0151 1474.9514 0.0000 0.0000 1735.2735 -7558.3969 296.3113 -9293.6705 -7468.6452 301.5579 197.6428 249.1105 30299.4114 -109.2992 -53.3390
ENERGY: 1200000 0.0003 0.8344 1.0924 0.0000 -10742.9592 1451.2426 0.0000 0.0000 1790.9085 -7498.8810 305.8114 -9289.7894 -7473.8519 301.0402 133.6251 260.4038 30041.0412 -114.2724 -51.1535
ENERGY: 1500000 0.1014 2.5439 0.8174 0.0000 -10780.2254 1512.8374 0.0000 0.0000 1731.7911 -7532.1343 295.7166 -9263.9253 -7482.0568 300.9745 449.0133 580.9369 30222.6459 -99.9746 -30.6244
TCL: Running FEP window   6: Lambda1 0.7499999999999998 Lambda2 0.6999999999999997 [dLambda -0.050000000000000044]
TCL: Setting parameter firsttimestep to 0
TCL: Setting parameter alchLambda to 0.7499999999999998
Info: NONBONDED TABLE R-SQUARED SPACING: 0.0625
Info: NONBONDED TABLE SIZE: 705 POINTS
TCL: Setting parameter alchLambda2 to 0.6999999999999997
Info: NONBONDED TABLE R-SQUARED SPACING: 0.0625
Info: NONBONDED TABLE SIZE: 705 POINTS
TCL: Running for 1500000 steps
ETITLE: TS BOND ANGLE DIHED IMPRP ELECT VDW BOUNDARY MISC KINETIC TOTAL TEMP POTENTIAL TOTALAVG TEMPAVG PRESSURE GPRESSURE VOLUME PRESSAVG GPRESSAVG
ENERGY: 0 0.1014 2.5439 0.8174 0.0000 -10780.1730 1513.0504 0.0000 0.0000 1730.9185 -7532.7415 295.5676 -9263.6600 -7532.7415 295.5676 483.8166 578.4755 30222.6459 483.8166 578.4755
ENERGY: 300000 0.8231 2.1633 0.8101 0.0000 -10666.2131 1404.8149 0.0000 0.0000 1706.2173 -7551.3845 291.3497 -9257.6017 -7516.3266 297.5928 -182.2456 -105.6906 30268.3810 280.4098 350.2443
ENERGY: 600000 0.0002 3.6546 0.2936 0.0000 -10750.4251 1460.3304 0.0000 0.0000 1771.8474 -7514.2988 302.5566 -9286.1462 -7535.0866 298.2183 -82.0074 -15.4877 30700.5832 36.5378 99.1347
ENERGY: 900000 0.0290 0.3589 0.5170 0.0000 -10704.5797 1414.2318 0.0000 0.0000 1710.8666 -7578.5762 292.1436 -9289.4429 -7523.2259 298.4816 -107.8704 -52.4057 29937.1414 28.5946 80.8862
ENERGY: 1200000 0.0138 3.1478 0.6023 0.0000 -10764.8374 1451.6396 0.0000 0.0000 1784.2735 -7525.1604 304.6784 -9309.4339 -7522.1178 299.6623 -40.6165 3.0035 30122.6530 98.2465 150.2824
ENERGY: 1500000 0.4671 1.0193 0.1331 0.0000 -10531.0938 1353.6787 0.0000 0.0000 1756.0578 -7419.7378 299.8604 -9175.7956 -7518.9682 299.6629 -598.7811 -552.1017 30945.7411 33.4592 84.7555
TCL: Running FEP window   7: Lambda1 0.6999999999999997 Lambda2 0.6499999999999997 [dLambda -0.050000000000000044]
TCL: Setting parameter firsttimestep to 0
TCL: Setting parameter alchLambda to 0.6999999999999997
Info: NONBONDED TABLE R-SQUARED SPACING: 0.0625
Info: NONBONDED TABLE SIZE: 705 POINTS
TCL: Setting parameter alchLambda2 to 0.6499999999999997
Info: NONBONDED TABLE R-SQUARED SPACING: 0.0625
Info: NONBONDED TABLE SIZE: 705 POINTS
TCL: Running for 1500000 steps
ETITLE: TS BOND ANGLE DIHED IMPRP ELECT VDW BOUNDARY MISC KINETIC TOTAL TEMP POTENTIAL TOTALAVG TEMPAVG PRESSURE GPRESSURE VOLUME PRESSAVG GPRESSAVG
ENERGY: 0 0.4671 1.0193 0.1331 0.0000 -10530.9738 1353.5978 0.0000 0.0000 1755.1696 -7420.5870 299.7087 -9175.7565 -7420.5870 299.7087 -650.2239 -556.1947 30945.7411 -650.2239 -556.1947
ENERGY: 300000 0.2235 1.3112 0.3422 0.0000 -10606.9941 1373.1284 0.0000 0.0000 1749.2067 -7482.7821 298.6905 -9231.9888 -7481.5954 297.2727 -300.5201 -229.6818 30224.5966 -284.0949 -235.6354
ENERGY: 600000 0.0312 1.5571 0.7092 0.0000 -10677.5726 1490.0633 0.0000 0.0000 1760.1785 -7425.0333 300.5640 -9185.2118 -7487.5566 298.1655 614.2539 690.4228 30149.7028 -30.7339 32.2607
ENERGY: 900000 0.0099 0.3678 1.8094 0.0000 -10602.1306 1372.6703 0.0000 0.0000 1766.1886 -7461.0846 301.5903 -9227.2732 -7481.7594 298.7556 -199.2681 -116.6919 29838.9742 -105.5949 -56.3922
ENERGY: 1200000 0.7961 1.9790 1.1416 0.0000 -10757.1597 1476.9763 0.0000 0.0000 1737.3492 -7538.9175 296.6657 -9276.2667 -7487.9405 298.7007 255.0598 398.2315 30101.4322 -147.9582 -94.8908
ENERGY: 1500000 0.1173 0.9242 0.7745 0.0000 -10601.2649 1385.1661 0.0000 0.0000 1813.6027 -7400.6801 309.6866 -9214.2828 -7484.4571 299.9775 -370.2823 -286.8004 30527.5643 -190.6375 -129.9731
TCL: Running FEP window   8: Lambda1 0.6499999999999997 Lambda2 0.5999999999999996 [dLambda -0.050000000000000044]
TCL: Setting parameter firsttimestep to 0
TCL: Setting parameter alchLambda to 0.6499999999999997
Info: NONBONDED TABLE R-SQUARED SPACING: 0.0625
Info: NONBONDED TABLE SIZE: 705 POINTS
TCL: Setting parameter alchLambda2 to 0.5999999999999996
Info: NONBONDED TABLE R-SQUARED SPACING: 0.0625
Info: NONBONDED TABLE SIZE: 705 POINTS
TCL: Running for 1500000 steps
ETITLE: TS BOND ANGLE DIHED IMPRP ELECT VDW BOUNDARY MISC KINETIC TOTAL TEMP POTENTIAL TOTALAVG TEMPAVG PRESSURE GPRESSURE VOLUME PRESSAVG GPRESSAVG
ENERGY: 0 0.1173 0.9242 0.7745 0.0000 -10601.0671 1384.9097 0.0000 0.0000 1812.7495 -7401.5919 309.5409 -9214.3414 -7401.5919 309.5409 -379.1623 -293.9520 30527.5643 -379.1623 -293.9520
ENERGY: 300000 0.0012 0.7046 0.5839 0.0000 -10768.5053 1454.8342 0.0000 0.0000 1827.8993 -7484.4822 312.1278 -9312.3814 -7488.0407 305.5941 127.7881 87.5331 30106.2574 -587.6266 -524.8736
ENERGY: 600000 0.3358 0.5660 5.3874 0.0000 -10652.4753 1458.4294 0.0000 0.0000 1769.0116 -7418.7451 302.0723 -9187.7567 -7475.9475 303.0658 265.2977 301.3536 30793.6622 -370.9093 -325.7201
ENERGY: 900000 0.0036 0.8841 0.4856 0.0000 -10672.9814 1488.3882 0.0000 0.0000 1799.7124 -7383.5075 307.3147 -9183.2199 -7463.9114 303.3643 657.0953 674.7293 30253.3200 -164.2781 -125.0554
ENERGY: 1200000 0.0922 1.6260 0.7142 0.0000 -10617.9725 1361.0194 0.0000 0.0000 1737.1193 -7517.4014 296.6265 -9254.5207 -7473.6820 302.6025 -743.0867 -768.9723 30751.8031 -166.4101 -126.4765
ENERGY: 1500000 0.5713 3.7206 0.1243 0.0000 -10653.1089 1409.5892 0.0000 0.0000 1706.7924 -7532.3112 291.4479 -9239.1035 -7479.4061 301.8250 -483.1632 -426.0883 30663.0331 -121.2535 -76.9151
TCL: Running FEP window   9: Lambda1 0.5999999999999996 Lambda2 0.5499999999999996 [dLambda -0.050000000000000044]
TCL: Setting parameter firsttimestep to 0
TCL: Setting parameter alchLambda to 0.5999999999999996
Info: NONBONDED TABLE R-SQUARED SPACING: 0.0625
Info: NONBONDED TABLE SIZE: 705 POINTS
TCL: Setting parameter alchLambda2 to 0.5499999999999996
Info: NONBONDED TABLE R-SQUARED SPACING: 0.0625
Info: NONBONDED TABLE SIZE: 705 POINTS
TCL: Running for 1500000 steps
ETITLE: TS BOND ANGLE DIHED IMPRP ELECT VDW BOUNDARY MISC KINETIC TOTAL TEMP POTENTIAL TOTALAVG TEMPAVG PRESSURE GPRESSURE VOLUME PRESSAVG GPRESSAVG
ENERGY: 0 0.5713 3.7206 0.1243 0.0000 -10653.0803 1409.2317 0.0000 0.0000 1705.8947 -7533.5377 291.2946 -9239.4324 -7533.5377 291.2946 -509.2732 -434.5521 30663.0331 -509.2732 -434.5521
ENERGY: 300000 1.0261 1.1537 1.4193 0.0000 -10607.1254 1345.2333 0.0000 0.0000 1703.8171 -7554.4758 290.9399 -9258.2929 -7556.7465 293.7165 -791.9227 -708.7289 30550.5013 -107.0621 -48.7493
ENERGY: 600000 0.0859 1.3487 0.5593 0.0000 -10585.8597 1341.4064 0.0000 0.0000 1719.6102 -7522.8492 293.6367 -9242.4594 -7504.6765 297.8933 -1012.4769 -1004.2119 31036.5048 -100.5512 -40.3090
ENERGY: 900000 0.1451 0.3272 0.9148 0.0000 -10559.4782 1376.4245 0.0000 0.0000 1780.0292 -7401.6373 303.9537 -9181.6665 -7486.2856 298.5905 -531.0272 -459.6376 30967.7673 -70.2137 -1.4390
ENERGY: 1200000 0.5855 4.0198 2.2762 0.0000 -10657.2123 1434.9802 0.0000 0.0000 1720.7708 -7494.5797 293.8348 -9215.3506 -7484.5170 297.7325 126.4363 223.2671 30230.2638 -23.4286 48.9129
ENERGY: 1500000 0.2483 0.8850 2.6311 0.0000 -10710.5314 1423.6924 0.0000 0.0000 1773.4919 -7509.5827 302.8374 -9283.0746 -7489.1426 298.7333 -169.3707 -147.6397 30274.4826 11.5976 80.3728
TCL: Running FEP window  10: Lambda1 0.5499999999999996 Lambda2 0.4999999999999996 [dLambda -0.04999999999999999]
TCL: Setting parameter firsttimestep to 0
TCL: Setting parameter alchLambda to 0.5499999999999996
Info: NONBONDED TABLE R-SQUARED SPACING: 0.0625
Info: NONBONDED TABLE SIZE: 705 POINTS
TCL: Setting parameter alchLambda2 to 0.4999999999999996
Info: NONBONDED TABLE R-SQUARED SPACING: 0.0625
Info: NONBONDED TABLE SIZE: 705 POINTS
TCL: Running for 1500000 steps
ETITLE: TS BOND ANGLE DIHED IMPRP ELECT VDW BOUNDARY MISC KINETIC TOTAL TEMP POTENTIAL TOTALAVG TEMPAVG PRESSURE GPRESSURE VOLUME PRESSAVG GPRESSAVG
ENERGY: 0 0.2483 0.8850 2.6311 0.0000 -10710.3882 1423.2972 0.0000 0.0000 1772.6522 -7510.6743 302.6940 -9283.3265 -7510.6743 302.6940 -239.7493 -150.7782 30274.4826 -239.7493 -150.7782
ENERGY: 300000 0.0517 1.8380 1.4700 0.0000 -10821.1671 1473.9334 0.0000 0.0000 1747.7734 -7596.1006 298.4457 -9343.8740 -7521.0797 302.8654 -100.4535 33.0229 30222.2420 -115.1514 -18.8102
ENERGY: 600000 0.9905 0.4688 0.3949 0.0000 -10547.3809 1319.5075 0.0000 0.0000 1730.3715 -7495.6477 295.4742 -9226.0192 -7529.8073 300.5026 -1233.1862 -1183.5913 30881.1333 -162.9213 -79.9485
ENERGY: 900000 0.0063 1.0145 1.5842 0.0000 -10783.3262 1464.0010 0.0000 0.0000 1754.8260 -7561.8942 299.6500 -9316.7201 -7529.6633 299.8456 -8.8813 55.8227 30182.4365 -115.0223 -45.0609
ENERGY: 1200000 0.7472 2.3311 0.8486 0.0000 -10617.2226 1377.1514 0.0000 0.0000 1758.8771 -7477.2672 300.3418 -9236.1443 -7519.9347 300.0972 -313.4708 -248.3721 30000.2673 -100.8011 -33.8299
ENERGY: 1500000 0.0019 3.6705 0.3375 0.0000 -10577.6437 1407.5187 0.0000 0.0000 1757.7404 -7408.3748 300.1477 -9166.1152 -7517.0819 300.1889 -24.1823 22.9328 30308.8725 -98.2483 -41.8877
TCL: Running FEP window  11: Lambda1 0.4999999999999996 Lambda2 0.4499999999999996 [dLambda -0.04999999999999999]
TCL: Setting parameter firsttimestep to 0
TCL: Setting parameter alchLambda to 0.4999999999999996
Info: NONBONDED TABLE R-SQUARED SPACING: 0.0625
Info: NONBONDED TABLE SIZE: 705 POINTS
TCL: Setting parameter alchLambda2 to 0.4499999999999996
Info: NONBONDED TABLE R-SQUARED SPACING: 0.0625
Info: NONBONDED TABLE SIZE: 705 POINTS
TCL: Running for 1500000 steps
ETITLE: TS BOND ANGLE DIHED IMPRP ELECT VDW BOUNDARY MISC KINETIC TOTAL TEMP POTENTIAL TOTALAVG TEMPAVG PRESSURE GPRESSURE VOLUME PRESSAVG GPRESSAVG
ENERGY: 0 0.0019 3.6705 0.3375 0.0000 -10577.6326 1407.0732 0.0000 0.0000 1756.8834 -7409.6662 300.0013 -9166.5496 -7409.6662 300.0013 -86.7947 16.6999 30308.8725 -86.7947 16.6999
ENERGY: 300000 0.3345 1.0014 0.7456 0.0000 -10510.3025 1286.5860 0.0000 0.0000 1762.1043 -7459.5308 300.8928 -9221.6351 -7479.3080 298.1332 -1497.4321 -1434.1550 31165.2255 -618.2561 -546.0388
ENERGY: 600000 0.3803 2.3105 2.9706 0.0000 -10681.8838 1406.3365 0.0000 0.0000 1745.0341 -7524.8519 297.9780 -9269.8860 -7500.6378 299.8918 -469.9044 -392.2651 30483.7033 -526.6774 -450.3265
ENERGY: 900000 0.5811 1.4709 0.4266 0.0000 -10713.4286 1441.3802 0.0000 0.0000 1767.1471 -7502.4227 301.7539 -9269.5699 -7504.3406 300.2557 -576.5149 -471.6522 30977.6682 -397.9936 -322.6228
ENERGY: 1200000 0.2769 1.0876 1.6526 0.0000 -10644.5898 1440.9259 0.0000 0.0000 1733.6230 -7467.0238 296.0295 -9200.6468 -7493.5159 299.6408 -14.2546 1.9862 30602.9157 -373.4105 -310.0122
ENERGY: 1500000 0.2185 0.1518 1.1883 0.0000 -10700.4128 1409.8204 0.0000 0.0000 1723.9428 -7565.0910 294.3765 -9289.0337 -7499.0058 299.1368 -627.9320 -540.8644 30933.1254 -360.0655 -301.5319
TCL: Running FEP window  12: Lambda1 0.4499999999999996 Lambda2 0.39999999999999963 [dLambda -0.04999999999999999]
TCL: Setting parameter firsttimestep to 0
TCL: Setting parameter alchLambda to 0.4499999999999996
Info: NONBONDED TABLE R-SQUARED SPACING: 0.0625
Info: NONBONDED TABLE SIZE: 705 POINTS
TCL: Setting parameter alchLambda2 to 0.39999999999999963
Info: NONBONDED TABLE R-SQUARED SPACING: 0.0625
Info: NONBONDED TABLE SIZE: 705 POINTS
TCL: Running for 1500000 steps
ETITLE: TS BOND ANGLE DIHED IMPRP ELECT VDW BOUNDARY MISC KINETIC TOTAL TEMP POTENTIAL TOTALAVG TEMPAVG PRESSURE GPRESSURE VOLUME PRESSAVG GPRESSAVG
ENERGY: 0 0.2185 0.1518 1.1883 0.0000 -10700.4119 1409.7463 0.0000 0.0000 1723.0787 -7566.0282 294.2289 -9289.1069 -7566.0282 294.2289 -637.0107 -543.3894 30933.1254 -637.0107 -543.3894
ENERGY: 300000 0.5796 1.2703 1.5418 0.0000 -10656.9126 1423.0732 0.0000 0.0000 1731.6476 -7498.8001 295.6921 -9230.4477 -7529.8476 297.5274 -119.5913 -65.8886 30272.5803 -214.7555 -144.8126
ENERGY: 600000 0.1709 1.2089 0.9406 0.0000 -10614.8089 1376.5364 0.0000 0.0000 1735.2358 -7500.7162 296.3048 -9235.9520 -7532.5527 298.5867 -353.1988 -320.1791 30257.3876 -278.2067 -221.7404
ENERGY: 900000 0.0747 0.5100 0.0089 0.0000 -10788.2543 1495.4691 0.0000 0.0000 1798.1095 -7494.0822 307.0410 -9292.1917 -7528.4732 298.9377 436.0621 454.5139 30072.2882 -77.3564 -21.7027
ENERGY: 1200000 0.0405 1.8497 0.9488 0.0000 -10730.2200 1447.7972 0.0000 0.0000 1787.6038 -7491.9799 305.2471 -9279.5838 -7515.0347 300.8496 0.4823 20.1469 30083.5006 -103.8495 -48.0282
ENERGY: 1500000 0.2644 0.5281 0.2986 0.0000 -10623.2411 1351.0413 0.0000 0.0000 1785.1254 -7485.9835 304.8239 -9271.1088 -7518.2882 301.0387 -797.7207 -756.0607 30253.9641 -161.0897 -104.8076
TCL: Running FEP window  13: Lambda1 0.39999999999999963 Lambda2 0.34999999999999964 [dLambda -0.04999999999999999]
TCL: Setting parameter firsttimestep to 0
TCL: Setting parameter alchLambda to 0.39999999999999963
Info: NONBONDED TABLE R-SQUARED SPACING: 0.0625
Info: NONBONDED TABLE SIZE: 705 POINTS
TCL: Setting parameter alchLambda2 to 0.34999999999999964
Info: NONBONDED TABLE R-SQUARED SPACING: 0.0625
Info: NONBONDED TABLE SIZE: 705 POINTS
TCL: Running for 1500000 steps
ETITLE: TS BOND ANGLE DIHED IMPRP ELECT VDW BOUNDARY MISC KINETIC TOTAL TEMP POTENTIAL TOTALAVG TEMPAVG PRESSURE GPRESSURE VOLUME PRESSAVG GPRESSAVG
ENERGY: 0 0.2644 0.5281 0.2986 0.0000 -10623.2399 1351.1514 0.0000 0.0000 1784.2502 -7486.7472 304.6744 -9270.9974 -7486.7472 304.6744 -856.4719 -760.1995 30253.9641 -856.4719 -760.1995
ENERGY: 300000 0.0497 0.9791 0.2160 0.0000 -10736.1366 1464.8020 0.0000 0.0000 1753.9655 -7516.1243 299.5031 -9270.0898 -7513.5697 301.9621 -10.3043 -6.5367 30500.8863 -366.0751 -287.6142
ENERGY: 600000 0.0099 0.5951 0.3984 0.0000 -10584.3126 1418.0077 0.0000 0.0000 1790.0107 -7375.2907 305.6581 -9165.3014 -7492.7202 301.0770 288.4824 376.7656 30042.5778 -263.0132 -176.4584
ENERGY: 900000 0.3284 1.5669 0.7182 0.0000 -10755.4076 1469.9548 0.0000 0.0000 1772.6572 -7510.1821 302.6948 -9282.8393 -7495.9640 301.5236 -66.0675 51.2711 30516.1817 -214.8142 -131.8250
ENERGY: 1200000 0.0022 1.0526 0.7718 0.0000 -10802.1464 1494.0151 0.0000 0.0000 1814.5290 -7491.7758 309.8448 -9306.3047 -7490.8218 301.6877 330.7393 397.1048 30124.4673 -146.2562 -60.2994
ENERGY: 1500000 0.0134 3.1956 0.2038 0.0000 -10593.3736 1369.6925 0.0000 0.0000 1785.5109 -7434.7575 304.8897 -9220.2684 -7486.2680 302.2241 -372.9885 -346.8500 30384.9258 -208.6639 -124.8953
TCL: Running FEP window  14: Lambda1 0.34999999999999964 Lambda2 0.29999999999999966 [dLambda -0.04999999999999999]
TCL: Setting parameter firsttimestep to 0
TCL: Setting parameter alchLambda to 0.34999999999999964
Info: NONBONDED TABLE R-SQUARED SPACING: 0.0625
Info: NONBONDED TABLE SIZE: 705 POINTS
TCL: Setting parameter alchLambda2 to 0.29999999999999966
Info: NONBONDED TABLE R-SQUARED SPACING: 0.0625
Info: NONBONDED TABLE SIZE: 705 POINTS
TCL: Running for 1500000 steps
ETITLE: TS BOND ANGLE DIHED IMPRP ELECT VDW BOUNDARY MISC KINETIC TOTAL TEMP POTENTIAL TOTALAVG TEMPAVG PRESSURE GPRESSURE VOLUME PRESSAVG GPRESSAVG
ENERGY: 0 0.0134 3.1956 0.2038 0.0000 -10593.3744 1369.4607 0.0000 0.0000 1784.6211 -7435.8798 304.7378 -9220.5009 -7435.8798 304.7378 -457.3629 -351.1924 30384.9258 -457.3629 -351.1924
ENERGY: 300000 0.0059 1.1546 0.6928 0.0000 -10815.7874 1491.2339 0.0000 0.0000 1749.6229 -7573.0773 298.7615 -9322.7002 -7485.0048 305.5093 72.1067 168.2398 30117.0870 187.8692 265.4260
ENERGY: 600000 0.5361 2.1070 0.1453 0.0000 -10702.5690 1384.2808 0.0000 0.0000 1790.3803 -7525.1194 305.7212 -9315.4997 -7509.2358 302.6941 -514.2106 -455.3558 29943.2424 -15.3593 52.3356
ENERGY: 900000 0.3937 1.3925 0.2466 0.0000 -10601.6258 1359.6977 0.0000 0.0000 1708.0618 -7531.8336 291.6647 -9239.8954 -7512.3455 300.0081 -724.6720 -626.6135 30333.0193 -59.2870 5.2909
ENERGY: 1200000 0.7012 0.2289 0.6322 0.0000 -10719.3427 1470.9760 0.0000 0.0000 1754.8306 -7491.9738 299.6508 -9246.8044 -7514.8464 299.4539 164.3736 206.2155 30375.0932 -103.4856 -46.1235
ENERGY: 1500000 0.5199 0.9929 0.1060 0.0000 -10717.9175 1486.4674 0.0000 0.0000 1789.7123 -7440.1189 305.6071 -9229.8312 -7504.1703 300.3290 386.5435 438.0173 30486.6855 -42.9851 13.6881
TCL: Running FEP window  15: Lambda1 0.29999999999999966 Lambda2 0.24999999999999967 [dLambda -0.04999999999999999]
TCL: Setting parameter firsttimestep to 0
TCL: Setting parameter alchLambda to 0.29999999999999966
Info: NONBONDED TABLE R-SQUARED SPACING: 0.0625
Info: NONBONDED TABLE SIZE: 705 POINTS
TCL: Setting parameter alchLambda2 to 0.24999999999999967
Info: NONBONDED TABLE R-SQUARED SPACING: 0.0625
Info: NONBONDED TABLE SIZE: 705 POINTS
TCL: Running for 1500000 steps
ETITLE: TS BOND ANGLE DIHED IMPRP ELECT VDW BOUNDARY MISC KINETIC TOTAL TEMP POTENTIAL TOTALAVG TEMPAVG PRESSURE GPRESSURE VOLUME PRESSAVG GPRESSAVG
ENERGY: 0 0.5199 0.9929 0.1060 0.0000 -10717.9175 1486.1555 0.0000 0.0000 1788.8132 -7441.3299 305.4536 -9230.1431 -7441.3299 305.4536 361.4244 435.9873 30486.6855 361.4244 435.9873
ENERGY: 300000 0.5623 0.8926 0.8756 0.0000 -10724.3026 1414.9295 0.0000 0.0000 1768.7214 -7538.3213 302.0228 -9307.0427 -7497.8805 302.6430 -326.6440 -259.0852 30424.5903 310.6703 374.2932
ENERGY: 600000 0.1404 1.0250 0.1378 0.0000 -10686.2068 1439.8567 0.0000 0.0000 1738.2556 -7506.7914 296.8205 -9245.0469 -7496.7829 301.7627 68.1885 197.0930 30310.5206 277.9708 335.9018
ENERGY: 900000 0.3575 0.3203 0.5521 0.0000 -10613.7473 1359.0756 0.0000 0.0000 1773.6690 -7479.7728 302.8676 -9253.4418 -7502.8281 299.8585 -734.1671 -702.4762 30378.6604 22.9880 71.1147
ENERGY: 1200000 0.0115 1.1666 0.6261 0.0000 -10570.9256 1382.0244 0.0000 0.0000 1770.8518 -7416.2451 302.3865 -9187.0969 -7501.0545 299.0348 -440.0350 -397.0238 30572.9144 -39.0630 11.3099
ENERGY: 1500000 0.1708 3.4623 1.7852 0.0000 -10735.1922 1519.2845 0.0000 0.0000 1760.9266 -7449.5627 300.6917 -9210.4893 -7498.1767 299.3692 1044.4871 1052.2367 30027.0843 73.9615 124.2054
TCL: Running FEP window  16: Lambda1 0.24999999999999967 Lambda2 0.19999999999999968 [dLambda -0.04999999999999999]
TCL: Setting parameter firsttimestep to 0
TCL: Setting parameter alchLambda to 0.24999999999999967
Info: NONBONDED TABLE R-SQUARED SPACING: 0.0625
Info: NONBONDED TABLE SIZE: 705 POINTS
TCL: Setting parameter alchLambda2 to 0.19999999999999968
Info: NONBONDED TABLE R-SQUARED SPACING: 0.0625
Info: NONBONDED TABLE SIZE: 705 POINTS
TCL: Running for 1500000 steps
ETITLE: TS BOND ANGLE DIHED IMPRP ELECT VDW BOUNDARY MISC KINETIC TOTAL TEMP POTENTIAL TOTALAVG TEMPAVG PRESSURE GPRESSURE VOLUME PRESSAVG GPRESSAVG
ENERGY: 0 0.1708 3.4623 1.7852 0.0000 -10735.1914 1519.4514 0.0000 0.0000 1760.0407 -7450.2808 300.5405 -9210.3216 -7450.2808 300.5405 980.9372 1050.5468 30027.0843 980.9372 1050.5468
ENERGY: 300000 0.0000 1.1832 0.5561 0.0000 -10605.9053 1382.4593 0.0000 0.0000 1771.9316 -7449.7750 302.5709 -9221.7066 -7452.1752 301.6854 -424.3140 -421.2125 30378.8317 198.5082 225.6272
ENERGY: 600000 0.0165 0.6415 1.5457 0.0000 -10711.7908 1486.3632 0.0000 0.0000 1714.1134 -7509.1104 292.6980 -9223.2239 -7486.6601 298.5130 344.5414 378.1703 30300.0374 28.5234 63.6206
ENERGY: 900000 0.5906 0.6310 1.8665 0.0000 -10507.3827 1332.9608 0.0000 0.0000 1748.6314 -7422.7025 298.5922 -9171.3339 -7488.2667 299.4650 -540.9797 -530.7051 30439.7335 -105.1504 -73.0048
ENERGY: 1200000 0.1000 0.8033 0.2855 0.0000 -10719.0488 1409.8507 0.0000 0.0000 1791.1517 -7516.8577 305.8529 -9308.0094 -7491.8150 300.2597 -370.1951 -221.8432 30346.6174 -166.7608 -112.2078
ENERGY: 1500000 0.0332 0.7374 0.9844 0.0000 -10745.5306 1438.7483 0.0000 0.0000 1750.1602 -7554.8671 298.8533 -9305.0273 -7500.1447 299.5166 -118.7331 -47.6175 30046.8224 -177.9078 -116.9803
TCL: Running FEP window  17: Lambda1 0.19999999999999968 Lambda2 0.1499999999999997 [dLambda -0.04999999999999999]
TCL: Setting parameter firsttimestep to 0
TCL: Setting parameter alchLambda to 0.19999999999999968
Info: NONBONDED TABLE R-SQUARED SPACING: 0.0625
Info: NONBONDED TABLE SIZE: 705 POINTS
TCL: Setting parameter alchLambda2 to 0.1499999999999997
Info: NONBONDED TABLE R-SQUARED SPACING: 0.0625
Info: NONBONDED TABLE SIZE: 705 POINTS
TCL: Running for 1500000 steps
ETITLE: TS BOND ANGLE DIHED IMPRP ELECT VDW BOUNDARY MISC KINETIC TOTAL TEMP POTENTIAL TOTALAVG TEMPAVG PRESSURE GPRESSURE VOLUME PRESSAVG GPRESSAVG
ENERGY: 0 0.0332 0.7374 0.9844 0.0000 -10745.5309 1438.7006 0.0000 0.0000 1749.2745 -7555.8008 298.7021 -9305.0753 -7555.8008 298.7021 -143.1194 -50.0970 30046.8224 -143.1194 -50.0970
ENERGY: 300000 0.2705 0.3815 0.8467 0.0000 -10718.2387 1462.0914 0.0000 0.0000 1709.4483 -7545.2002 291.9014 -9254.6486 -7474.2851 301.1876 274.6556 367.3634 29883.9697 148.7922 241.9056
ENERGY: 600000 0.5469 1.9150 0.2382 0.0000 -10500.8228 1320.3758 0.0000 0.0000 1742.4335 -7435.3133 297.5339 -9177.7468 -7477.3599 299.8901 -825.8163 -811.3702 30824.2295 -82.5579 -2.1336
ENERGY: 900000 0.4767 0.6105 2.3901 0.0000 -10746.4078 1440.9462 0.0000 0.0000 1792.8439 -7509.1404 306.1419 -9301.9843 -7490.8097 299.9373 -76.4948 -8.3731 30042.1113 13.0112 91.8070
ENERGY: 1200000 0.5557 0.4496 1.2058 0.0000 -10636.1333 1363.4808 0.0000 0.0000 1785.0026 -7485.4388 304.8029 -9270.4414 -7496.8860 300.0042 -538.9867 -406.3702 30104.6996 -127.0436 -49.3482
ENERGY: 1500000 0.1077 1.6814 0.6305 0.0000 -10648.4102 1493.2406 0.0000 0.0000 1777.8844 -7374.8656 303.5874 -9152.7500 -7481.8725 300.7759 716.7164 799.9813 30258.3226 -63.9749 10.5410
TCL: Running FEP window  18: Lambda1 0.1499999999999997 Lambda2 0.09999999999999969 [dLambda -0.05 ]
TCL: Setting parameter firsttimestep to 0
TCL: Setting parameter alchLambda to 0.1499999999999997
Info: NONBONDED TABLE R-SQUARED SPACING: 0.0625
Info: NONBONDED TABLE SIZE: 705 POINTS
TCL: Setting parameter alchLambda2 to 0.09999999999999969
Info: NONBONDED TABLE R-SQUARED SPACING: 0.0625
Info: NONBONDED TABLE SIZE: 705 POINTS
TCL: Running for 1500000 steps
ETITLE: TS BOND ANGLE DIHED IMPRP ELECT VDW BOUNDARY MISC KINETIC TOTAL TEMP POTENTIAL TOTALAVG TEMPAVG PRESSURE GPRESSURE VOLUME PRESSAVG GPRESSAVG
ENERGY: 0 0.1077 1.6814 0.6305 0.0000 -10648.4103 1493.0689 0.0000 0.0000 1777.0059 -7375.9159 303.4374 -9152.9218 -7375.9159 303.4374 713.6656 797.3023 30258.3226 713.6656 797.3023
ENERGY: 300000 0.0777 0.3989 1.6014 0.0000 -10835.8426 1535.4530 0.0000 0.0000 1787.9535 -7510.3581 305.3068 -9298.3116 -7477.3087 301.7453 683.1128 692.6913 30196.1222 89.5125 146.3690
ENERGY: 600000 1.2296 1.2453 0.4328 0.0000 -10788.3267 1460.0031 0.0000 0.0000 1709.8091 -7615.6067 291.9630 -9325.4159 -7525.4063 298.8602 -30.0879 -30.4575 30502.9100 -6.8296 31.7840
ENERGY: 900000 0.0003 3.6479 0.4413 0.0000 -10734.1724 1464.3373 0.0000 0.0000 1751.0300 -7514.7155 299.0018 -9265.7455 -7513.7609 299.7381 -32.4909 57.6303 30450.4964 130.0737 161.9903
ENERGY: 1200000 0.5630 0.8576 1.1891 0.0000 -10677.9505 1466.2518 0.0000 0.0000 1723.9570 -7485.1321 294.3789 -9209.0891 -7512.9950 299.7848 257.1793 369.0295 30412.7792 154.3930 200.9196
ENERGY: 1500000 0.1779 1.3135 0.6142 0.0000 -10632.3430 1403.5452 0.0000 0.0000 1743.6893 -7483.0029 297.7483 -9226.6922 -7505.1876 300.1956 -447.5700 -414.1080 30710.2006 54.8386 102.8048
TCL: Running FEP window  19: Lambda1 0.09999999999999969 Lambda2 0.049999999999999684 [dLambda -0.05 ]
TCL: Setting parameter firsttimestep to 0
TCL: Setting parameter alchLambda to 0.09999999999999969
Info: NONBONDED TABLE R-SQUARED SPACING: 0.0625
Info: NONBONDED TABLE SIZE: 705 POINTS
TCL: Setting parameter alchLambda2 to 0.049999999999999684
Info: NONBONDED TABLE R-SQUARED SPACING: 0.0625
Info: NONBONDED TABLE SIZE: 705 POINTS
TCL: Running for 1500000 steps
ETITLE: TS BOND ANGLE DIHED IMPRP ELECT VDW BOUNDARY MISC KINETIC TOTAL TEMP POTENTIAL TOTALAVG TEMPAVG PRESSURE GPRESSURE VOLUME PRESSAVG GPRESSAVG
ENERGY: 0 0.1779 1.3135 0.6142 0.0000 -10632.3436 1402.9382 0.0000 0.0000 1742.7806 -7484.5191 297.5932 -9227.2997 -7484.5191 297.5932 -502.4646 -416.9141 30710.2006 -502.4646 -416.9141
ENERGY: 300000 0.0077 2.8148 2.0543 0.0000 -10695.1444 1415.1501 0.0000 0.0000 1757.4328 -7517.6847 300.0952 -9275.1175 -7517.8731 295.3692 -192.5043 -157.0087 30073.2498 -150.9146 -75.7334
ENERGY: 600000 0.3137 0.5995 0.9616 0.0000 -10673.5028 1433.1171 0.0000 0.0000 1748.2492 -7490.2617 298.5270 -9238.5109 -7478.7421 300.3112 -5.3509 120.7606 30083.1969 -133.2005 -51.2247
ENERGY: 900000 0.1136 0.9148 1.0999 0.0000 -10856.6747 1608.8186 0.0000 0.0000 1767.8884 -7477.8394 301.8805 -9245.7278 -7481.4442 300.1145 1409.3494 1443.4047 29946.7609 -74.9460 1.2603
ENERGY: 1200000 0.3057 0.6718 1.1337 0.0000 -10635.7027 1408.7179 0.0000 0.0000 1786.4589 -7438.4148 305.0516 -9224.8736 -7483.5861 300.8701 -282.9487 -207.5827 30446.2882 -120.1655 -44.3693
ENERGY: 1500000 0.0303 0.8855 0.4652 0.0000 -10684.0756 1407.2715 0.0000 0.0000 1743.4813 -7531.9418 297.7128 -9275.4231 -7487.7906 301.0351 -430.6510 -452.1612 30598.5428 -161.5078 -89.3198
TCL: Running FEP window  20: Lambda1 0.049999999999999684 Lambda2 0.0    [dLambda -0.049999999999999684]
TCL: Setting parameter firsttimestep to 0
TCL: Setting parameter alchLambda to 0.049999999999999684
Info: NONBONDED TABLE R-SQUARED SPACING: 0.0625
Info: NONBONDED TABLE SIZE: 705 POINTS
TCL: Setting parameter alchLambda2 to 0.0
Info: NONBONDED TABLE R-SQUARED SPACING: 0.0625
Info: NONBONDED TABLE SIZE: 705 POINTS
TCL: Running for 1500000 steps
ETITLE: TS BOND ANGLE DIHED IMPRP ELECT VDW BOUNDARY MISC KINETIC TOTAL TEMP POTENTIAL TOTALAVG TEMPAVG PRESSURE GPRESSURE VOLUME PRESSAVG GPRESSAVG
ENERGY: 0 0.0303 0.8855 0.4652 0.0000 -10684.0767 1407.4197 0.0000 0.0000 1742.6325 -7532.6434 297.5679 -9275.2759 -7532.6434 297.5679 -543.0339 -453.8486 30598.5428 -543.0339 -453.8486
ENERGY: 300000 0.0404 0.7612 1.4437 0.0000 -10653.6961 1324.6269 0.0000 0.0000 1772.0336 -7554.7903 302.5884 -9326.8240 -7501.2844 302.0601 -1183.8446 -1136.7198 30397.5721 -301.3055 -219.8156
ENERGY: 600000 0.0921 1.1393 0.6478 0.0000 -10661.0980 1399.7392 0.0000 0.0000 1799.0036 -7460.4759 307.1937 -9259.4795 -7498.4497 301.4526 -498.0701 -388.6965 30502.8916 -220.6112 -146.3032
ENERGY: 900000 0.1656 0.2662 0.3126 0.0000 -10651.4479 1402.7933 0.0000 0.0000 1694.4551 -7553.4552 289.3412 -9247.9103 -7507.6553 300.7187 -387.1339 -318.1025 30456.9575 -108.0990 -32.7178
ENERGY: 1200000 1.0533 0.9120 0.5227 0.0000 -10524.3670 1354.7543 0.0000 0.0000 1805.2827 -7361.8421 308.2659 -9167.1248 -7498.0380 300.8586 -445.3038 -340.9471 30116.6862 -229.7809 -153.9406
ENERGY: 1500000 1.3334 1.2740 3.2892 0.0000 -10787.9942 1494.0750 0.0000 0.0000 1761.6590 -7526.3636 300.8168 -9288.0226 -7495.7533 300.6801 302.0275 467.1028 29864.0756 -202.3076 -122.3723
TCL: Exiting due to exit command.
