Info: SIMULATION PARAMETERS:
Info: TIMESTEP               2
Info: NUMBER OF STEPS        0
Info: STEPS PER CYCLE        10
Info: PERIODIC CELL BASIS 1  32.3037 0 0
Info: PERIODIC CELL BASIS 2  0 31.586 0
Info: PERIODIC CELL BASIS 3  0 0 30.4313
Info: PERIODIC CELL CENTER   0 0 0
Info: WRAPPING WATERS AROUND PERIODIC BOUNDARIES ON OUTPUT.
Info: WRAPPING ALL CLUSTERS AROUND PERIODIC BOUNDARIES ON OUTPUT.
Info: FIRST LDB TIMESTEP     50
Info: LAST LDB TIMESTEP     -1
Info: HOM BACKGROUND SCALING 1
Info: PME BACKGROUND SCALING 1
Info: MIN ATOMS PER PATCH    40
Info: EMPTY PATCH LOAD       40 ATOMS
Info: VELOCITY FILE          mobley_3211679_equil.vel
Info: CENTER OF MASS MOVING INITIALLY? NO
Info: DIELECTRIC             1
Info: EXCLUDE                SCALED ONE-FOUR
Info: 1-4 ELECTROSTATICS SCALED BY 0.833333
Info: MODIFIED 1-4 VDW PARAMETERS WILL BE USED
Info: DCD FILENAME           mobley_3211679_prod.dcd
Info: DCD FREQUENCY          100000
Info: DCD FIRST STEP         100000
Info: DCD FILE WILL CONTAIN UNIT CELL DATA
Info: XST FILENAME           mobley_3211679_prod.xst
Info: XST FREQUENCY          100000
Info: NO VELOCITY DCD OUTPUT
Info: NO FORCE DCD OUTPUT
Info: OUTPUT FILENAME        mobley_3211679_prod
Info: BINARY OUTPUT FILES WILL BE USED
Info: RESTART FILENAME       mobley_3211679_prod.restart
Info: RESTART FREQUENCY      100000
Info: BINARY RESTART FILES WILL BE USED
Info: CUTOFF                 9
Info: PAIRLIST DISTANCE      11
Info: PAIRLIST SHRINK RATE   0.01
Info: PAIRLIST GROW RATE     0.01
Info: PAIRLIST TRIGGER       0.3
Info: PAIRLISTS PER CYCLE    2
Info: PAIRLISTS ENABLED
Info: MARGIN                 2
Info: HYDROGEN GROUP CUTOFF  2.5
Info: PATCH DIMENSION        15.5
Info: ENERGY OUTPUT STEPS    100000
Info: ENERGY EVALUATION STEPS    100000
Info: OUTPUT ENERGY PRECISION 4
Info: CROSSTERM ENERGY INCLUDED IN DIHEDRAL
Info: TIMING OUTPUT STEPS    1000000
Info: PRESSURE OUTPUT STEPS  100000
Info: ALCHEMICAL FEP ON
Info: FEP CURRENT LAMBDA VALUE     1
Info: FEP COMPARISON LAMBDA VALUE  0.95
Info: FEP INTRA-ALCHEMICAL NON-BONDED INTERACTIONS WILL BE RETAINED
Info: FEP INTRA-ALCHEMICAL BONDED INTERACTIONS WILL BE RETAINED
Info: FEP VDW SHIFTING COEFFICIENT 5
Info: FEP ELEC. ACTIVE FOR ANNIHILATED PARTICLES BETWEEN LAMBDA = 0 AND LAMBDA = 0.5
Info: FEP ELEC. ACTIVE FOR EXNIHILATED PARTICLES BETWEEN LAMBDA = 0.5 AND LAMBDA = 1
Info: FEP VDW ACTIVE FOR ANNIHILATED PARTICLES BETWEEN LAMBDA = 0 AND LAMBDA = 1
Info: FEP VDW ACTIVE FOR EXNIHILATED PARTICLES BETWEEN LAMBDA = 0 AND LAMBDA = 1
Info: FEP BOND ACTIVE FOR ANNIHILATED PARTICLES BETWEEN LAMBDA = 1 AND LAMBDA = 1
Info: FEP BOND ACTIVE FOR EXNIHILATED PARTICLES BETWEEN LAMBDA = 0 AND LAMBDA = 0
Info: LANGEVIN DYNAMICS ACTIVE
Info: LANGEVIN TEMPERATURE   300
Info: LANGEVIN USING BBK INTEGRATOR
Info: LANGEVIN DAMPING COEFFICIENT IS 1 INVERSE PS
Info: LANGEVIN DYNAMICS APPLIED TO HYDROGENS
Info: LANGEVIN PISTON PRESSURE CONTROL ACTIVE
Info:        TARGET PRESSURE IS 1.01325 BAR
Info:     OSCILLATION PERIOD IS 50 FS
Info:             DECAY TIME IS 25 FS
Info:     PISTON TEMPERATURE IS 300 K
Info:       PRESSURE CONTROL IS GROUP-BASED
Info:    INITIAL STRAIN RATE IS 0.000449668 0.000449668 0.000449668
Info:       CELL FLUCTUATION IS ISOTROPIC
Info: PARTICLE MESH EWALD (PME) ACTIVE
Info: PME TOLERANCE               1e-06
Info: PME EWALD COEFFICIENT       0.348832
Info: PME INTERPOLATION ORDER     4
Info: PME GRID DIMENSIONS         36 32 32
Info: PME MAXIMUM GRID SPACING    1
Info: PME CALCULATION WILL BE PERFORMED ON GPU
Info: FULL ELECTROSTATIC EVALUATION FREQUENCY      2
Info: USING VERLET I (r-RESPA) MTS SCHEME.
Info: C1 SPLITTING OF LONG RANGE ELECTROSTATICS
Info: PLACING ATOMS IN PATCHES BY HYDROGEN GROUPS
Info: RIGID BONDS TO HYDROGEN : ALL
Info:         ERROR TOLERANCE : 1e-08
Info:          MAX ITERATIONS : 100
Info: RIGID WATER USING SETTLE ALGORITHM
Info: RANDOM NUMBER SEED     1743595894
Info: USE HYDROGEN BONDS?    NO
Info: Using AMBER format force field!
Info: AMBER PARM FILE        mobley_3211679.prmtop
Info: COORDINATE PDB         mobley_3211679.pdb
Info: Exclusions will be read from PARM file!
Info: SCNB (VDW SCALING)     2
Info: USING ARITHMETIC MEAN TO COMBINE L-J SIGMA PARAMETERS
Info: BINARY COORDINATES     mobley_3211679_equil.coor
Info: SUMMARY OF PARAMETERS:
Info: 7 BONDS
Info: 8 ANGLES
Info:   8 HARMONIC
Info:   0 COSINE-BASED
Info: 12 DIHEDRAL
Info: 0 IMPROPER
Info: 0 CROSSTERM
Info: 0 VDW
Info: 21 VDW_PAIRS
Info: 0 NBTHOLE_PAIRS
Info: To read alchdata from file: mobley_3211679.pdb
Info: To read alchflag data from column: 5
Info: STRUCTURE SUMMARY:
Info: 2983 ATOMS
Info: 2983 BONDS
Info: 30 ANGLES
Info: 56 DIHEDRALS
Info: 0 IMPROPERS
Info: 0 CROSSTERMS
Info: 3053 EXCLUSIONS
Info: 2977 RIGID BONDS
Info: ALCH: 0 ATOMS TO DISAPPEAR IN FINAL STATE
Info: ALCH: 16 ATOMS TO APPEAR IN FINAL STATE
Info: 5972 DEGREES OF FREEDOM
Info: 995 HYDROGEN GROUPS
Info: 3 ATOMS IN LARGEST HYDROGEN GROUP
Info: 995 MIGRATION GROUPS
Info: 3 ATOMS IN LARGEST MIGRATION GROUP
Info: TOTAL MASS = 17900 amu
Info: TOTAL CHARGE = -0.000200011 e
Info: MASS DENSITY = 0.957292 g/cm^3
Info: ATOM DENSITY = 0.0960696 atoms/A^3
Info: ADDED 0 IMPLICIT EXCLUSIONS
Info: NONBONDED TABLE R-SQUARED SPACING: 0.0625
Info: NONBONDED TABLE SIZE: 705 POINTS
Info: REDUCING NUMBER OF PATCHES TO IMPROVE LOAD BALANCE
Info: REMOVING COM VELOCITY 0.192769 0.160823 0.0503464
Info: Use 3D box decompostion in PME FFT.
Info: Updated CUDA force table with 4096 elements.
Info: Updated CUDA LJ table with 6 x 6 elements.
Info: Found 18 unique exclusion lists needing 44 bytes
TCL: Running for 1500000 steps
ETITLE: TS BOND ANGLE DIHED IMPRP ELECT VDW BOUNDARY MISC KINETIC TOTAL TEMP POTENTIAL TOTALAVG TEMPAVG PRESSURE GPRESSURE VOLUME PRESSAVG GPRESSAVG
ENERGY: 0 1.1940 5.9681 5.1609 0.0000 -10675.8992 1306.5000 0.0000 0.0000 1761.9058 -7595.1704 296.9294 -9357.0762 -7595.1704 296.9294 -1385.4548 -1309.2389 31050.3997 -1385.4548 -1309.2389
ENERGY: 300000 1.3728 6.6144 5.4914 0.0000 -10864.5892 1474.8276 0.0000 0.0000 1812.5082 -7563.7749 305.4573 -9376.2831 -7559.1196 301.5635 169.1679 221.8897 30507.7108 -405.7552 -343.3257
ENERGY: 600000 0.7774 4.7034 4.3519 0.0000 -10858.7077 1448.8141 0.0000 0.0000 1774.1489 -7625.9120 298.9927 -9400.0609 -7557.8783 302.0385 -107.1663 -26.6717 30279.5382 -210.7907 -152.8082
ENERGY: 900000 4.6995 5.4170 6.1545 0.0000 -10915.3220 1541.2147 0.0000 0.0000 1817.9903 -7539.8460 306.3812 -9357.8362 -7558.1629 301.3813 532.7667 627.0123 30584.8404 -150.1012 -81.2331
ENERGY: 1200000 0.6813 4.2678 5.4789 0.0000 -10854.0158 1530.0370 0.0000 0.0000 1706.1633 -7607.3876 287.5353 -9313.5509 -7558.9173 300.3047 409.0598 497.2684 30825.2045 -64.2672 -4.0508
ENERGY: 1500000 1.2527 7.1604 5.8724 0.0000 -10674.5039 1347.2048 0.0000 0.0000 1821.7132 -7491.3003 307.0086 -9313.0136 -7550.3659 301.2506 -621.8302 -531.7334 30776.5935 -82.0183 -13.9574
TCL: Running FEP window   2: Lambda1 0.95   Lambda2 0.8999999999999999 [dLambda -0.050000000000000044]
TCL: Setting parameter firsttimestep to 0
TCL: Setting parameter alchLambda to 0.95
Info: NONBONDED TABLE R-SQUARED SPACING: 0.0625
Info: NONBONDED TABLE SIZE: 705 POINTS
TCL: Setting parameter alchLambda2 to 0.8999999999999999
Info: NONBONDED TABLE R-SQUARED SPACING: 0.0625
Info: NONBONDED TABLE SIZE: 705 POINTS
TCL: Running for 1500000 steps
ETITLE: TS BOND ANGLE DIHED IMPRP ELECT VDW BOUNDARY MISC KINETIC TOTAL TEMP POTENTIAL TOTALAVG TEMPAVG PRESSURE GPRESSURE VOLUME PRESSAVG GPRESSAVG
ENERGY: 0 1.2527 7.1604 5.8724 0.0000 -10674.4036 1347.3239 0.0000 0.0000 1820.8002 -7491.9940 306.8548 -9312.7942 -7491.9940 306.8548 -606.1390 -538.4322 30776.5935 -606.1390 -538.4322
ENERGY: 300000 3.2455 6.9334 5.7217 0.0000 -10724.3478 1429.1407 0.0000 0.0000 1793.3215 -7485.9849 302.2239 -9279.3064 -7510.8603 305.0101 323.5801 347.8420 30436.1870 95.0021 144.5267
ENERGY: 600000 0.2860 9.1595 4.5718 0.0000 -10733.7022 1430.5738 0.0000 0.0000 1794.5091 -7494.6020 302.4240 -9289.1111 -7510.3599 303.5493 -82.9795 -27.7148 30904.3188 110.0630 161.3925
ENERGY: 900000 0.8451 5.6379 5.7109 0.0000 -10791.1066 1414.0822 0.0000 0.0000 1788.3260 -7576.5045 301.3820 -9364.8305 -7539.3431 302.1116 -284.8738 -236.2378 30637.9073 21.0461 73.0575
ENERGY: 1200000 1.3502 3.7069 5.1977 0.0000 -10865.9745 1470.0098 0.0000 0.0000 1756.3411 -7629.3689 295.9916 -9385.7099 -7544.4770 301.3811 238.0111 256.6517 30309.6929 -11.8283 36.8592
ENERGY: 1500000 1.1915 4.3421 4.3286 0.0000 -10771.7317 1416.4568 0.0000 0.0000 1768.5648 -7576.8479 298.0517 -9345.4127 -7546.9353 301.6287 -501.1386 -457.3488 31314.1609 -32.4287 22.5260
TCL: Running FEP window   3: Lambda1 0.8999999999999999 Lambda2 0.8499999999999999 [dLambda -0.050000000000000044]
TCL: Setting parameter firsttimestep to 0
TCL: Setting parameter alchLambda to 0.8999999999999999
Info: NONBONDED TABLE R-SQUARED SPACING: 0.0625
Info: NONBONDED TABLE SIZE: 705 POINTS
TCL: Setting parameter alchLambda2 to 0.8499999999999999
Info: NONBONDED TABLE R-SQUARED SPACING: 0.0625
Info: NONBONDED TABLE SIZE: 705 POINTS
TCL: Running for 1500000 steps
ETITLE: TS BOND ANGLE DIHED IMPRP ELECT VDW BOUNDARY MISC KINETIC TOTAL TEMP POTENTIAL TOTALAVG TEMPAVG PRESSURE GPRESSURE VOLUME PRESSAVG GPRESSAVG
ENERGY: 0 1.1915 4.3421 4.3286 0.0000 -10771.3090 1416.3794 0.0000 0.0000 1767.6766 -7577.3907 297.9020 -9345.0674 -7577.3907 297.9020 -556.6557 -469.1850 31314.1609 -556.6557 -469.1850
ENERGY: 300000 1.7540 8.4391 6.1250 0.0000 -10733.7902 1388.8291 0.0000 0.0000 1766.4472 -7562.1957 297.6948 -9328.6429 -7566.9678 302.5376 -637.4288 -568.7173 31249.0066 -136.8431 -74.8766
ENERGY: 600000 3.3965 9.6411 4.6223 0.0000 -10661.3960 1363.4673 0.0000 0.0000 1792.9087 -7487.3601 302.1543 -9280.2688 -7539.7421 302.7035 -624.2355 -537.7869 30662.5650 -184.5468 -124.5447
ENERGY: 900000 3.1587 7.7441 5.0015 0.0000 -10750.5850 1414.7778 0.0000 0.0000 1787.6750 -7532.2279 301.2723 -9319.9028 -7545.8868 301.3850 -166.9698 -192.8535 30860.8454 -188.8735 -140.6957
ENERGY: 1200000 2.4572 7.4796 5.0429 0.0000 -10844.2259 1431.7850 0.0000 0.0000 1775.3501 -7622.1111 299.1952 -9397.4612 -7559.6723 300.1104 -529.3733 -389.6954 30721.4176 -202.0971 -142.5497
ENERGY: 1500000 0.6322 6.7081 4.9953 0.0000 -10916.3844 1503.6309 0.0000 0.0000 1744.4870 -7655.9310 293.9939 -9400.4180 -7558.9014 299.2893 267.7232 407.6336 30290.7806 -142.6350 -79.5895
TCL: Running FEP window   4: Lambda1 0.8499999999999999 Lambda2 0.7999999999999998 [dLambda -0.050000000000000044]
TCL: Setting parameter firsttimestep to 0
TCL: Setting parameter alchLambda to 0.8499999999999999
Info: NONBONDED TABLE R-SQUARED SPACING: 0.0625
Info: NONBONDED TABLE SIZE: 705 POINTS
TCL: Setting parameter alchLambda2 to 0.7999999999999998
Info: NONBONDED TABLE R-SQUARED SPACING: 0.0625
Info: NONBONDED TABLE SIZE: 705 POINTS
TCL: Running for 1500000 steps
ETITLE: TS BOND ANGLE DIHED IMPRP ELECT VDW BOUNDARY MISC KINETIC TOTAL TEMP POTENTIAL TOTALAVG TEMPAVG PRESSURE GPRESSURE VOLUME PRESSAVG GPRESSAVG
ENERGY: 0 0.6322 6.7081 4.9953 0.0000 -10916.2307 1503.1592 0.0000 0.0000 1743.6051 -7657.1308 293.8453 -9400.7360 -7657.1308 293.8453 301.2026 392.1158 30290.7806 301.2026 392.1158
ENERGY: 300000 2.9261 10.8036 4.9991 0.0000 -10864.1562 1415.8332 0.0000 0.0000 1762.3247 -7667.2696 297.0000 -9429.5943 -7615.8141 298.0424 -494.6277 -452.3417 30699.1595 -322.9610 -272.0656
ENERGY: 600000 1.9009 5.7923 4.7473 0.0000 -10753.0016 1446.8329 0.0000 0.0000 1771.7930 -7521.9352 298.5957 -9293.7282 -7590.0493 298.4982 185.5619 272.1535 30622.3354 -53.4235 -0.3756
ENERGY: 900000 1.6826 8.0745 4.5833 0.0000 -10946.5100 1495.1046 0.0000 0.0000 1813.6885 -7623.3766 305.6562 -9437.0651 -7584.0647 299.8516 -20.2448 -50.1944 30770.5074 -100.3972 -56.7367
ENERGY: 1200000 1.9352 6.9933 5.6932 0.0000 -10865.4668 1507.5913 0.0000 0.0000 1772.8053 -7570.4486 298.7663 -9343.2538 -7580.3209 298.4239 440.6610 494.6517 30581.9432 -57.6463 -7.2239
ENERGY: 1500000 0.9319 7.5948 5.0693 0.0000 -10883.0429 1509.0024 0.0000 0.0000 1810.6817 -7549.7628 305.1495 -9360.4444 -7578.6842 298.9606 534.2518 672.9414 30434.9918 3.1122 58.7736
TCL: Running FEP window   5: Lambda1 0.7999999999999998 Lambda2 0.7499999999999998 [dLambda -0.050000000000000044]
TCL: Setting parameter firsttimestep to 0
TCL: Setting parameter alchLambda to 0.7999999999999998
Info: NONBONDED TABLE R-SQUARED SPACING: 0.0625
Info: NONBONDED TABLE SIZE: 705 POINTS
TCL: Setting parameter alchLambda2 to 0.7499999999999998
Info: NONBONDED TABLE R-SQUARED SPACING: 0.0625
Info: NONBONDED TABLE SIZE: 705 POINTS
TCL: Running for 1500000 steps
ETITLE: TS BOND ANGLE DIHED IMPRP ELECT VDW BOUNDARY MISC KINETIC TOTAL TEMP POTENTIAL TOTALAVG TEMPAVG PRESSURE GPRESSURE VOLUME PRESSAVG GPRESSAVG
ENERGY: 0 0.9319 7.5948 5.0693 0.0000 -10882.6736 1509.4506 0.0000 0.0000 1809.8473 -7549.7797 305.0089 -9359.6269 -7549.7797 305.0089 592.2484 670.3773 30434.9918 592.2484 670.3773
ENERGY: 300000 2.2229 6.1706 5.9168 0.0000 -10568.2115 1349.3955 0.0000 0.0000 1802.4065 -7402.0992 303.7549 -9204.5057 -7494.9937 300.1976 -378.4856 -332.9397 30780.9794 -96.9080 -53.9788
ENERGY: 600000 1.0680 5.6269 5.3407 0.0000 -10600.1364 1310.1458 0.0000 0.0000 1751.6937 -7526.2614 295.2084 -9277.9551 -7517.2222 298.6282 -1069.6375 -987.9122 31110.8997 -179.0961 -120.9673
ENERGY: 900000 1.7255 8.7623 6.2134 0.0000 -10970.9264 1517.4035 0.0000 0.0000 1732.5865 -7704.2353 291.9883 -9436.8218 -7520.9573 299.5809 37.9722 120.2373 30686.8086 -68.9057 -16.9746
ENERGY: 1200000 1.7057 9.8115 5.0724 0.0000 -10888.6128 1493.7165 0.0000 0.0000 1758.7143 -7619.5925 296.3916 -9378.3067 -7521.2710 299.1732 235.4555 369.1762 30476.0111 34.3732 87.5720
ENERGY: 1500000 0.2546 10.1623 5.9822 0.0000 -10854.1925 1436.3281 0.0000 0.0000 1787.1923 -7614.2729 301.1909 -9401.4652 -7527.6278 300.4802 -362.2113 -275.3187 30779.5990 72.5874 125.4507
TCL: Running FEP window   6: Lambda1 0.7499999999999998 Lambda2 0.6999999999999997 [dLambda -0.050000000000000044]
TCL: Setting parameter firsttimestep to 0
TCL: Setting parameter alchLambda to 0.7499999999999998
Info: NONBONDED TABLE R-SQUARED SPACING: 0.0625
Info: NONBONDED TABLE SIZE: 705 POINTS
TCL: Setting parameter alchLambda2 to 0.6999999999999997
Info: NONBONDED TABLE R-SQUARED SPACING: 0.0625
Info: NONBONDED TABLE SIZE: 705 POINTS
TCL: Running for 1500000 steps
ETITLE: TS BOND ANGLE DIHED IMPRP ELECT VDW BOUNDARY MISC KINETIC TOTAL TEMP POTENTIAL TOTALAVG TEMPAVG PRESSURE GPRESSURE VOLUME PRESSAVG GPRESSAVG
ENERGY: 0 0.2546 10.1623 5.9822 0.0000 -10853.9034 1436.6319 0.0000 0.0000 1786.3143 -7614.5581 301.0430 -9400.8724 -7614.5581 301.0430 -362.1251 -276.5438 30779.5990 -362.1251 -276.5438
ENERGY: 300000 2.1974 5.6618 4.6359 0.0000 -10840.3276 1457.0646 0.0000 0.0000 1763.7820 -7606.9859 297.2456 -9370.7679 -7577.8713 301.0359 -73.9183 -44.9437 30597.0005 -17.3586 31.8128
ENERGY: 600000 2.1320 4.9323 4.2180 0.0000 -10915.4114 1462.3698 0.0000 0.0000 1779.6272 -7662.1320 299.9160 -9441.7592 -7599.4750 301.1812 84.4144 187.7181 30017.9182 119.5916 201.3796
ENERGY: 900000 1.0576 12.0427 5.9749 0.0000 -10681.4036 1357.4625 0.0000 0.0000 1799.0360 -7505.8299 303.1869 -9304.8659 -7585.6442 301.1528 -792.5424 -739.0090 31127.5754 33.4830 110.7024
ENERGY: 1200000 2.8798 5.2797 4.0266 0.0000 -10838.4964 1458.2664 0.0000 0.0000 1746.3504 -7621.6934 294.3079 -9368.0438 -7578.8625 300.7582 32.1916 106.6608 30271.8442 0.4890 72.3245
ENERGY: 1500000 0.7951 4.7067 4.4937 0.0000 -10741.8210 1383.5119 0.0000 0.0000 1848.0000 -7500.3138 311.4387 -9348.3138 -7550.9744 302.5417 -689.5116 -594.3460 30887.9267 -86.2803 -19.8144
TCL: Running FEP window   7: Lambda1 0.6999999999999997 Lambda2 0.6499999999999997 [dLambda -0.050000000000000044]
TCL: Setting parameter firsttimestep to 0
TCL: Setting parameter alchLambda to 0.6999999999999997
Info: NONBONDED TABLE R-SQUARED SPACING: 0.0625
Info: NONBONDED TABLE SIZE: 705 POINTS
TCL: Setting parameter alchLambda2 to 0.6499999999999997
Info: NONBONDED TABLE R-SQUARED SPACING: 0.0625
Info: NONBONDED TABLE SIZE: 705 POINTS
TCL: Running for 1500000 steps
ETITLE: TS BOND ANGLE DIHED IMPRP ELECT VDW BOUNDARY MISC KINETIC TOTAL TEMP POTENTIAL TOTALAVG TEMPAVG PRESSURE GPRESSURE VOLUME PRESSAVG GPRESSAVG
ENERGY: 0 0.7951 4.7067 4.4937 0.0000 -10741.8793 1383.7725 0.0000 0.0000 1847.0837 -7501.0277 311.2843 -9348.1114 -7501.0277 311.2843 -683.7496 -596.3325 30887.9267 -683.7496 -596.3325
ENERGY: 300000 1.3567 8.4446 7.1338 0.0000 -10809.3236 1489.7056 0.0000 0.0000 1799.0936 -7503.5893 303.1966 -9302.6829 -7542.9173 303.5147 388.5708 463.7169 30450.7301 -284.4280 -221.2012
ENERGY: 600000 2.4174 7.1189 5.8823 0.0000 -10834.9972 1430.5574 0.0000 0.0000 1771.1008 -7617.9203 298.4791 -9389.0211 -7562.9748 301.4803 -359.4906 -324.7689 30888.9465 -213.6972 -163.6809
ENERGY: 900000 1.6694 7.6182 5.2330 0.0000 -10849.1250 1464.4683 0.0000 0.0000 1818.5630 -7551.5730 306.4777 -9370.1360 -7552.6007 302.6907 432.1400 563.6060 30041.0423 -92.6255 -33.3384
ENERGY: 1200000 0.5208 9.2332 4.5516 0.0000 -10794.1970 1435.8662 0.0000 0.0000 1771.2830 -7572.7422 298.5098 -9344.0252 -7549.0531 301.8023 -585.7133 -490.8476 31220.9711 -163.9434 -105.6220
ENERGY: 1500000 3.1357 5.9480 6.1448 0.0000 -10728.9062 1433.2752 0.0000 0.0000 1813.6377 -7466.7647 305.6477 -9280.4025 -7546.2845 301.9779 -108.0027 -30.4272 30801.8898 -212.6113 -148.0186
TCL: Running FEP window   8: Lambda1 0.6499999999999997 Lambda2 0.5999999999999996 [dLambda -0.050000000000000044]
TCL: Setting parameter firsttimestep to 0
TCL: Setting parameter alchLambda to 0.6499999999999997
Info: NONBONDED TABLE R-SQUARED SPACING: 0.0625
Info: NONBONDED TABLE SIZE: 705 POINTS
TCL: Setting parameter alchLambda2 to 0.5999999999999996
Info: NONBONDED TABLE R-SQUARED SPACING: 0.0625
Info: NONBONDED TABLE SIZE: 705 POINTS
TCL: Running for 1500000 steps
ETITLE: TS BOND ANGLE DIHED IMPRP ELECT VDW BOUNDARY MISC KINETIC TOTAL TEMP POTENTIAL TOTALAVG TEMPAVG PRESSURE GPRESSURE VOLUME PRESSAVG GPRESSAVG
ENERGY: 0 3.1357 5.9480 6.1448 0.0000 -10729.0102 1433.4121 0.0000 0.0000 1812.7427 -7467.6268 305.4969 -9280.3695 -7467.6268 305.4969 -112.4211 -36.7882 30801.8898 -112.4211 -36.7882
ENERGY: 300000 4.6676 6.1169 5.0000 0.0000 -10786.4979 1385.8238 0.0000 0.0000 1776.6922 -7608.1974 299.4214 -9384.8896 -7525.3290 299.7772 -797.7300 -777.9852 31046.6353 -218.1679 -146.4864
ENERGY: 600000 1.9144 4.5151 5.7785 0.0000 -10864.3165 1472.3675 0.0000 0.0000 1758.4719 -7621.2690 296.3507 -9379.7409 -7527.3289 300.4557 -68.9829 52.3288 30409.8642 -30.7421 44.9213
ENERGY: 900000 1.5614 9.4441 4.7056 0.0000 -10803.7980 1421.2974 0.0000 0.0000 1786.5615 -7580.2281 301.0846 -9366.7896 -7540.6505 299.7288 -442.9834 -436.6115 30813.0295 -190.2287 -119.0212
ENERGY: 1200000 1.7414 5.4007 4.4744 0.0000 -10848.9267 1459.6676 0.0000 0.0000 1733.9425 -7643.7002 292.2169 -9377.6426 -7547.7798 298.5208 -170.9326 -108.7924 30710.7817 -180.0628 -110.5225
ENERGY: 1500000 1.9648 7.2121 4.7509 0.0000 -10879.5782 1465.9246 0.0000 0.0000 1848.2733 -7551.4525 311.4847 -9399.7258 -7541.0596 299.3473 -151.5914 -47.3169 30803.6295 -167.1528 -96.6073
TCL: Running FEP window   9: Lambda1 0.5999999999999996 Lambda2 0.5499999999999996 [dLambda -0.050000000000000044]
TCL: Setting parameter firsttimestep to 0
TCL: Setting parameter alchLambda to 0.5999999999999996
Info: NONBONDED TABLE R-SQUARED SPACING: 0.0625
Info: NONBONDED TABLE SIZE: 705 POINTS
TCL: Setting parameter alchLambda2 to 0.5499999999999996
Info: NONBONDED TABLE R-SQUARED SPACING: 0.0625
Info: NONBONDED TABLE SIZE: 705 POINTS
TCL: Running for 1500000 steps
ETITLE: TS BOND ANGLE DIHED IMPRP ELECT VDW BOUNDARY MISC KINETIC TOTAL TEMP POTENTIAL TOTALAVG TEMPAVG PRESSURE GPRESSURE VOLUME PRESSAVG GPRESSAVG
ENERGY: 0 1.9648 7.2121 4.7509 0.0000 -10879.4622 1466.4748 0.0000 0.0000 1847.3848 -7551.6748 311.3350 -9399.0596 -7551.6748 311.3350 -131.5575 -50.0008 30803.6295 -131.5575 -50.0008
ENERGY: 300000 1.1686 8.4760 4.7571 0.0000 -10809.3849 1473.3990 0.0000 0.0000 1781.6630 -7539.9211 300.2591 -9321.5841 -7543.6355 303.5370 125.4134 209.3267 30376.6949 -75.3228 -5.5843
ENERGY: 600000 0.9584 5.5528 5.2868 0.0000 -10799.2837 1505.7215 0.0000 0.0000 1855.6636 -7426.1007 312.7302 -9281.7643 -7538.7423 302.5513 620.8635 674.7021 30745.8906 -36.3454 32.2190
ENERGY: 900000 3.2247 7.5108 8.1211 0.0000 -10768.6233 1373.6180 0.0000 0.0000 1795.0010 -7581.1478 302.5069 -9376.1487 -7537.2960 302.5008 -527.4638 -476.3283 30503.2406 -38.7583 25.0212
ENERGY: 1200000 2.1668 5.8972 4.6906 0.0000 -10802.9663 1432.3779 0.0000 0.0000 1777.3654 -7580.4683 299.5348 -9357.8337 -7552.1748 301.1775 -340.2891 -291.9819 30794.5350 -115.3528 -57.4259
ENERGY: 1500000 1.1503 6.9946 7.0994 0.0000 -10860.2694 1448.1277 0.0000 0.0000 1796.2012 -7600.6961 302.7092 -9396.8973 -7554.8049 300.5890 -107.8525 -49.6975 30645.3823 -151.9660 -89.0037
TCL: Running FEP window  10: Lambda1 0.5499999999999996 Lambda2 0.4999999999999996 [dLambda -0.04999999999999999]
TCL: Setting parameter firsttimestep to 0
TCL: Setting parameter alchLambda to 0.5499999999999996
Info: NONBONDED TABLE R-SQUARED SPACING: 0.0625
Info: NONBONDED TABLE SIZE: 705 POINTS
TCL: Setting parameter alchLambda2 to 0.4999999999999996
Info: NONBONDED TABLE R-SQUARED SPACING: 0.0625
Info: NONBONDED TABLE SIZE: 705 POINTS
TCL: Running for 1500000 steps
ETITLE: TS BOND ANGLE DIHED IMPRP ELECT VDW BOUNDARY MISC KINETIC TOTAL TEMP POTENTIAL TOTALAVG TEMPAVG PRESSURE GPRESSURE VOLUME PRESSAVG GPRESSAVG
ENERGY: 0 1.1503 6.9946 7.0994 0.0000 -10860.2384 1448.3633 0.0000 0.0000 1795.3562 -7601.2746 302.5668 -9396.6308 -7601.2746 302.5668 -115.6163 -51.1768 30645.3823 -115.6163 -51.1768
ENERGY: 300000 2.6561 6.4240 5.2605 0.0000 -10873.0075 1530.3302 0.0000 0.0000 1810.9747 -7517.3619 305.1989 -9328.3366 -7554.3404 302.4068 606.6806 703.5884 30357.0517 -150.0396 -77.0782
ENERGY: 600000 5.5719 4.9833 4.5497 0.0000 -10786.2554 1450.0318 0.0000 0.0000 1739.0606 -7582.0581 293.0794 -9321.1188 -7570.0929 300.6573 -106.7819 -61.6792 30712.8408 -35.8571 33.8757
ENERGY: 900000 0.7391 4.5129 6.9726 0.0000 -10891.0068 1442.3214 0.0000 0.0000 1750.7050 -7685.7557 295.0418 -9436.4608 -7570.7981 300.0335 -344.1385 -287.8450 30880.7915 -167.5923 -102.5777
ENERGY: 1200000 1.7229 6.5343 5.6858 0.0000 -10733.5975 1383.8732 0.0000 0.0000 1800.2144 -7535.5668 303.3855 -9335.7812 -7553.3401 301.7219 -664.4067 -570.0646 30809.7309 -155.0985 -94.0190
ENERGY: 1500000 4.7148 5.0710 5.6636 0.0000 -10803.1876 1429.5286 0.0000 0.0000 1754.7093 -7603.5002 295.7166 -9358.2095 -7552.3682 301.2360 -346.9177 -195.7642 30511.7534 -152.4010 -86.0632
TCL: Running FEP window  11: Lambda1 0.4999999999999996 Lambda2 0.4499999999999996 [dLambda -0.04999999999999999]
TCL: Setting parameter firsttimestep to 0
TCL: Setting parameter alchLambda to 0.4999999999999996
Info: NONBONDED TABLE R-SQUARED SPACING: 0.0625
Info: NONBONDED TABLE SIZE: 705 POINTS
TCL: Setting parameter alchLambda2 to 0.4499999999999996
Info: NONBONDED TABLE R-SQUARED SPACING: 0.0625
Info: NONBONDED TABLE SIZE: 705 POINTS
TCL: Running for 1500000 steps
ETITLE: TS BOND ANGLE DIHED IMPRP ELECT VDW BOUNDARY MISC KINETIC TOTAL TEMP POTENTIAL TOTALAVG TEMPAVG PRESSURE GPRESSURE VOLUME PRESSAVG GPRESSAVG
ENERGY: 0 4.7148 5.0710 5.6636 0.0000 -10803.1763 1429.6110 0.0000 0.0000 1753.8159 -7604.3000 295.5661 -9358.1159 -7604.3000 295.5661 -285.0786 -200.6205 30511.7534 -285.0786 -200.6205
ENERGY: 300000 2.5907 8.2553 5.4974 0.0000 -10827.4153 1449.4940 0.0000 0.0000 1790.5123 -7571.0656 301.7504 -9361.5779 -7571.3505 301.3993 -30.0381 -2.4300 30604.3674 173.2063 238.3611
ENERGY: 600000 0.7003 3.7572 4.9340 0.0000 -10811.0974 1519.3610 0.0000 0.0000 1773.4354 -7508.9094 298.8725 -9282.3448 -7563.2088 299.4809 573.1522 593.8309 30916.2177 177.1713 239.7318
ENERGY: 900000 0.9572 7.8981 6.8189 0.0000 -10790.0729 1454.2724 0.0000 0.0000 1769.1647 -7550.9617 298.1528 -9320.1264 -7561.5305 298.5485 254.2351 270.7369 30394.3744 137.9512 194.2630
ENERGY: 1200000 0.6116 5.9940 5.5194 0.0000 -10909.8101 1509.2361 0.0000 0.0000 1737.7869 -7650.6621 292.8648 -9388.4490 -7560.5063 299.3101 296.1457 338.2247 30625.1483 93.3666 147.9955
ENERGY: 1500000 1.7632 5.6834 4.9148 0.0000 -11003.7787 1633.7916 0.0000 0.0000 1785.6120 -7572.0137 300.9246 -9357.6257 -7557.3682 298.9686 1378.4666 1476.0222 30532.0721 144.1377 202.6478
TCL: Running FEP window  12: Lambda1 0.4499999999999996 Lambda2 0.39999999999999963 [dLambda -0.04999999999999999]
TCL: Setting parameter firsttimestep to 0
TCL: Setting parameter alchLambda to 0.4499999999999996
Info: NONBONDED TABLE R-SQUARED SPACING: 0.0625
Info: NONBONDED TABLE SIZE: 705 POINTS
TCL: Setting parameter alchLambda2 to 0.39999999999999963
Info: NONBONDED TABLE R-SQUARED SPACING: 0.0625
Info: NONBONDED TABLE SIZE: 705 POINTS
TCL: Running for 1500000 steps
ETITLE: TS BOND ANGLE DIHED IMPRP ELECT VDW BOUNDARY MISC KINETIC TOTAL TEMP POTENTIAL TOTALAVG TEMPAVG PRESSURE GPRESSURE VOLUME PRESSAVG GPRESSAVG
ENERGY: 0 1.7632 5.6834 4.9148 0.0000 -11003.7794 1633.8132 0.0000 0.0000 1784.7574 -7572.8475 300.7806 -9357.6048 -7572.8475 300.7806 1381.4648 1471.8131 30532.0721 1381.4648 1471.8131
ENERGY: 300000 2.6808 4.8002 4.7464 0.0000 -10870.2177 1540.5819 0.0000 0.0000 1770.8317 -7546.5766 298.4337 -9317.4083 -7557.1074 299.0298 859.7661 932.2640 30543.2977 414.6456 471.2226
ENERGY: 600000 3.1099 5.8630 5.3975 0.0000 -10832.4070 1484.1371 0.0000 0.0000 1773.0939 -7560.8055 298.8150 -9333.8994 -7549.0991 298.9290 58.8992 115.6219 30743.8619 151.2885 213.0467
ENERGY: 900000 1.7788 8.6014 6.1241 0.0000 -10900.1158 1507.3022 0.0000 0.0000 1756.6916 -7619.6176 296.0507 -9376.3092 -7556.5449 298.6623 161.7658 238.3331 30537.8965 65.4934 130.8417
ENERGY: 1200000 1.4386 4.3950 4.3155 0.0000 -10753.5087 1438.7167 0.0000 0.0000 1817.6151 -7487.0279 306.3180 -9304.6430 -7550.8927 299.2552 -76.2068 64.2523 30433.7945 44.8896 121.6372
ENERGY: 1500000 1.4053 6.3940 5.1161 0.0000 -10645.6689 1406.1302 0.0000 0.0000 1776.0845 -7450.5387 299.3189 -9226.6232 -7548.9795 298.8755 26.4020 49.9023 30583.3261 21.5899 95.4898
TCL: Running FEP window  13: Lambda1 0.39999999999999963 Lambda2 0.34999999999999964 [dLambda -0.04999999999999999]
TCL: Setting parameter firsttimestep to 0
TCL: Setting parameter alchLambda to 0.39999999999999963
Info: NONBONDED TABLE R-SQUARED SPACING: 0.0625
Info: NONBONDED TABLE SIZE: 705 POINTS
TCL: Setting parameter alchLambda2 to 0.34999999999999964
Info: NONBONDED TABLE R-SQUARED SPACING: 0.0625
Info: NONBONDED TABLE SIZE: 705 POINTS
TCL: Running for 1500000 steps
ETITLE: TS BOND ANGLE DIHED IMPRP ELECT VDW BOUNDARY MISC KINETIC TOTAL TEMP POTENTIAL TOTALAVG TEMPAVG PRESSURE GPRESSURE VOLUME PRESSAVG GPRESSAVG
ENERGY: 0 1.4053 6.3940 5.1161 0.0000 -10645.6694 1406.5524 0.0000 0.0000 1775.1872 -7451.0144 299.1677 -9226.2016 -7451.0144 299.1677 -25.8330 45.3451 30583.3261 -25.8330 45.3451
ENERGY: 300000 0.4022 5.1358 5.5360 0.0000 -10823.5675 1475.3953 0.0000 0.0000 1806.9116 -7530.1866 304.5142 -9337.0981 -7521.1273 301.1808 546.4564 612.9710 30121.2379 -50.9077 32.1702
ENERGY: 600000 1.1129 6.8909 5.7233 0.0000 -10769.3239 1437.3138 0.0000 0.0000 1750.2875 -7567.9955 294.9714 -9318.2831 -7544.8057 300.5799 167.8373 256.0073 29916.7074 -32.6118 42.4508
ENERGY: 900000 2.7665 11.4348 4.9231 0.0000 -10767.6627 1529.3520 0.0000 0.0000 1821.3836 -7397.8029 306.9531 -9219.1864 -7529.9635 301.7499 943.7062 976.4729 30405.8185 88.5219 157.5069
ENERGY: 1200000 1.9218 6.0479 4.5124 0.0000 -10728.8711 1382.6731 0.0000 0.0000 1746.2130 -7587.5028 294.2848 -9333.7159 -7530.4753 300.8503 -603.2006 -544.1334 30476.8995 45.0493 112.7154
ENERGY: 1500000 0.8194 6.2566 4.9723 0.0000 -10750.6337 1408.1172 0.0000 0.0000 1797.2874 -7533.1809 302.8922 -9330.4682 -7537.8880 301.0965 -490.1542 -449.1584 31047.0150 -4.2328 61.0402
TCL: Running FEP window  14: Lambda1 0.34999999999999964 Lambda2 0.29999999999999966 [dLambda -0.04999999999999999]
TCL: Setting parameter firsttimestep to 0
TCL: Setting parameter alchLambda to 0.34999999999999964
Info: NONBONDED TABLE R-SQUARED SPACING: 0.0625
Info: NONBONDED TABLE SIZE: 705 POINTS
TCL: Setting parameter alchLambda2 to 0.29999999999999966
Info: NONBONDED TABLE R-SQUARED SPACING: 0.0625
Info: NONBONDED TABLE SIZE: 705 POINTS
TCL: Running for 1500000 steps
ETITLE: TS BOND ANGLE DIHED IMPRP ELECT VDW BOUNDARY MISC KINETIC TOTAL TEMP POTENTIAL TOTALAVG TEMPAVG PRESSURE GPRESSURE VOLUME PRESSAVG GPRESSAVG
ENERGY: 0 0.8194 6.2566 4.9723 0.0000 -10750.6356 1408.3468 0.0000 0.0000 1796.4111 -7533.8294 302.7445 -9330.2405 -7533.8294 302.7445 -542.2157 -453.1970 31047.0150 -542.2157 -453.1970
ENERGY: 300000 1.1142 4.9990 5.1775 0.0000 -10812.1027 1444.7670 0.0000 0.0000 1801.3434 -7554.7016 303.5758 -9356.0450 -7556.5048 300.1142 -202.3943 -182.1805 30517.5479 -5.4172 48.4566
ENERGY: 600000 0.8499 9.7181 5.2332 0.0000 -10589.8260 1319.0631 0.0000 0.0000 1747.7769 -7507.1848 294.5483 -9254.9617 -7502.3375 301.1820 -987.8617 -912.2797 30886.4321 -110.2412 -54.3020
ENERGY: 900000 1.7025 5.7634 4.7924 0.0000 -10738.4271 1383.6587 0.0000 0.0000 1752.7734 -7589.7368 295.3904 -9342.5102 -7527.1888 298.7508 -513.5873 -475.3118 30461.6475 -236.6816 -172.6939
ENERGY: 1200000 0.4987 4.9790 5.1890 0.0000 -10602.8028 1349.2758 0.0000 0.0000 1768.4931 -7474.3672 298.0396 -9242.8603 -7531.0677 299.7360 -511.7125 -460.4787 30844.9962 -222.4929 -160.5020
ENERGY: 1500000 0.9687 8.3522 6.4904 0.0000 -10651.2083 1359.4566 0.0000 0.0000 1811.4765 -7464.4639 305.2835 -9275.9404 -7526.9091 300.3140 -630.9417 -604.4266 30814.4928 -193.3693 -137.5040
TCL: Running FEP window  15: Lambda1 0.29999999999999966 Lambda2 0.24999999999999967 [dLambda -0.04999999999999999]
TCL: Setting parameter firsttimestep to 0
TCL: Setting parameter alchLambda to 0.29999999999999966
Info: NONBONDED TABLE R-SQUARED SPACING: 0.0625
Info: NONBONDED TABLE SIZE: 705 POINTS
TCL: Setting parameter alchLambda2 to 0.24999999999999967
Info: NONBONDED TABLE R-SQUARED SPACING: 0.0625
Info: NONBONDED TABLE SIZE: 705 POINTS
TCL: Running for 1500000 steps
ETITLE: TS BOND ANGLE DIHED IMPRP ELECT VDW BOUNDARY MISC KINETIC TOTAL TEMP POTENTIAL TOTALAVG TEMPAVG PRESSURE GPRESSURE VOLUME PRESSAVG GPRESSAVG
ENERGY: 0 0.9687 8.3521 6.4904 0.0000 -10651.2067 1359.9116 0.0000 0.0000 1810.5751 -7464.9087 305.1316 -9275.4838 -7464.9087 305.1316 -694.3081 -605.5874 30814.4928 -694.3081 -605.5874
ENERGY: 300000 4.6775 4.8908 5.3987 0.0000 -10768.5832 1410.9703 0.0000 0.0000 1751.0855 -7591.5604 295.1059 -9342.6459 -7520.0942 300.5884 -532.2149 -462.9470 30627.9860 -316.6071 -228.8607
ENERGY: 600000 5.2381 6.0833 7.7162 0.0000 -10661.6846 1393.3493 0.0000 0.0000 1776.0134 -7473.2843 299.3070 -9249.2978 -7507.8989 300.8196 -668.4562 -590.6640 31058.9302 -41.6495 39.0150
ENERGY: 900000 9.1022 6.3460 7.0808 0.0000 -10645.3113 1406.4328 0.0000 0.0000 1807.1987 -7409.1507 304.5625 -9216.3494 -7490.3879 303.2693 -425.6725 -253.9515 30997.3170 27.6533 112.5241
ENERGY: 1200000 1.5287 4.6799 5.7534 0.0000 -10744.8981 1460.0613 0.0000 0.0000 1803.1358 -7469.7390 303.8778 -9272.8748 -7500.6389 303.2232 208.2568 254.3073 30653.9788 142.0554 220.9291
ENERGY: 1500000 0.9004 7.4827 5.6150 0.0000 -10757.9591 1447.1793 0.0000 0.0000 1796.6979 -7500.0837 302.7929 -9296.7816 -7508.9850 302.4900 -145.8443 -107.3960 31059.0918 107.0184 185.1662
TCL: Running FEP window  16: Lambda1 0.24999999999999967 Lambda2 0.19999999999999968 [dLambda -0.04999999999999999]
TCL: Setting parameter firsttimestep to 0
TCL: Setting parameter alchLambda to 0.24999999999999967
Info: NONBONDED TABLE R-SQUARED SPACING: 0.0625
Info: NONBONDED TABLE SIZE: 705 POINTS
TCL: Setting parameter alchLambda2 to 0.19999999999999968
Info: NONBONDED TABLE R-SQUARED SPACING: 0.0625
Info: NONBONDED TABLE SIZE: 705 POINTS
TCL: Running for 1500000 steps
ETITLE: TS BOND ANGLE DIHED IMPRP ELECT VDW BOUNDARY MISC KINETIC TOTAL TEMP POTENTIAL TOTALAVG TEMPAVG PRESSURE GPRESSURE VOLUME PRESSAVG GPRESSAVG
ENERGY: 0 0.9004 7.4827 5.6150 0.0000 -10757.9599 1447.6836 0.0000 0.0000 1795.8265 -7500.4516 302.6460 -9296.2781 -7500.4516 302.6460 -193.1650 -106.7747 31059.0918 -193.1650 -106.7747
ENERGY: 300000 1.3794 8.2855 5.5778 0.0000 -10686.8950 1372.3302 0.0000 0.0000 1770.4856 -7528.8363 298.3754 -9299.3220 -7530.9497 299.0468 -402.5602 -335.2778 30235.8864 -177.3611 -99.8793
ENERGY: 600000 2.7170 5.3072 4.7110 0.0000 -10595.7872 1340.8474 0.0000 0.0000 1825.8215 -7416.3832 307.7010 -9242.2047 -7527.5563 298.2734 -751.2148 -693.3410 30655.2891 -342.6704 -272.0718
ENERGY: 900000 2.7289 5.0882 6.9818 0.0000 -10800.1917 1484.5471 0.0000 0.0000 1823.1011 -7477.7445 307.2425 -9300.8456 -7520.9364 300.6929 89.1267 167.5065 30860.1223 -256.5422 -184.5517
ENERGY: 1200000 2.4306 5.2454 5.0789 0.0000 -10797.8710 1414.6546 0.0000 0.0000 1786.8108 -7583.6507 301.1266 -9370.4615 -7538.9085 300.9273 -460.8408 -402.6500 30900.2088 -258.4794 -181.4612
ENERGY: 1500000 3.2371 4.9115 5.4285 0.0000 -10670.6203 1375.1161 0.0000 0.0000 1749.2692 -7532.6579 294.7998 -9281.9271 -7539.7468 300.5024 -448.2167 -420.8256 30459.8192 -246.7253 -170.6950
TCL: Running FEP window  17: Lambda1 0.19999999999999968 Lambda2 0.1499999999999997 [dLambda -0.04999999999999999]
TCL: Setting parameter firsttimestep to 0
TCL: Setting parameter alchLambda to 0.19999999999999968
Info: NONBONDED TABLE R-SQUARED SPACING: 0.0625
Info: NONBONDED TABLE SIZE: 705 POINTS
TCL: Setting parameter alchLambda2 to 0.1499999999999997
Info: NONBONDED TABLE R-SQUARED SPACING: 0.0625
Info: NONBONDED TABLE SIZE: 705 POINTS
TCL: Running for 1500000 steps
ETITLE: TS BOND ANGLE DIHED IMPRP ELECT VDW BOUNDARY MISC KINETIC TOTAL TEMP POTENTIAL TOTALAVG TEMPAVG PRESSURE GPRESSURE VOLUME PRESSAVG GPRESSAVG
ENERGY: 0 3.2371 4.9115 5.4285 0.0000 -10670.6201 1375.0894 0.0000 0.0000 1748.3786 -7533.5750 294.6497 -9281.9535 -7533.5750 294.6497 -510.1167 -425.5775 30459.8192 -510.1167 -425.5775
ENERGY: 300000 1.7438 6.8864 6.8464 0.0000 -10909.5052 1526.9019 0.0000 0.0000 1752.2188 -7614.9078 295.2969 -9367.1266 -7566.8582 297.0803 585.2190 669.9889 30392.3266 -131.1562 -59.2451
ENERGY: 600000 2.2853 6.4464 5.7091 0.0000 -10897.9729 1518.9980 0.0000 0.0000 1810.3863 -7554.1478 305.0997 -9364.5341 -7545.7437 298.8325 492.9831 558.5374 30452.6829 -133.2388 -58.5370
ENERGY: 900000 1.2456 3.9435 4.8846 0.0000 -10672.3439 1409.3740 0.0000 0.0000 1821.6942 -7431.2019 307.0054 -9252.8961 -7525.9339 299.3721 -180.6775 -173.3299 30855.5979 -87.2026 -23.8958
ENERGY: 1200000 1.6003 4.0525 5.4169 0.0000 -10836.7993 1540.1894 0.0000 0.0000 1768.1025 -7517.4376 297.9738 -9285.5401 -7523.5927 299.4324 579.4258 648.9563 30724.3074 -20.4628 37.5752
ENERGY: 1500000 3.6954 4.3599 5.9828 0.0000 -10734.1617 1383.6652 0.0000 0.0000 1831.6296 -7504.8289 308.6798 -9336.4585 -7525.2712 299.8203 -368.6270 -295.4613 30260.7331 -19.5959 41.1970
TCL: Running FEP window  18: Lambda1 0.1499999999999997 Lambda2 0.09999999999999969 [dLambda -0.05 ]
TCL: Setting parameter firsttimestep to 0
TCL: Setting parameter alchLambda to 0.1499999999999997
Info: NONBONDED TABLE R-SQUARED SPACING: 0.0625
Info: NONBONDED TABLE SIZE: 705 POINTS
TCL: Setting parameter alchLambda2 to 0.09999999999999969
Info: NONBONDED TABLE R-SQUARED SPACING: 0.0625
Info: NONBONDED TABLE SIZE: 705 POINTS
TCL: Running for 1500000 steps
ETITLE: TS BOND ANGLE DIHED IMPRP ELECT VDW BOUNDARY MISC KINETIC TOTAL TEMP POTENTIAL TOTALAVG TEMPAVG PRESSURE GPRESSURE VOLUME PRESSAVG GPRESSAVG
ENERGY: 0 3.6954 4.3599 5.9828 0.0000 -10734.1611 1383.6821 0.0000 0.0000 1830.7342 -7505.7067 308.5289 -9336.4410 -7505.7067 308.5289 -391.9647 -301.5067 30260.7331 -391.9647 -301.5067
ENERGY: 300000 1.8695 3.9593 7.9939 0.0000 -10852.2277 1434.7117 0.0000 0.0000 1757.4769 -7646.2164 296.1831 -9403.6933 -7533.2911 302.9605 -418.5534 -345.2347 30519.4840 -69.9098 6.2477
ENERGY: 600000 1.8345 6.9290 6.4998 0.0000 -10788.8324 1404.0747 0.0000 0.0000 1738.3411 -7631.1532 292.9581 -9369.4943 -7551.2567 302.0779 -550.7961 -500.3074 30469.8210 -104.9205 -42.3767
ENERGY: 900000 1.0764 7.2761 4.3899 0.0000 -10995.8615 1534.7430 0.0000 0.0000 1745.9232 -7702.4529 294.2359 -9448.3762 -7558.7685 300.5552 165.3055 254.8653 30283.5393 -97.0148 -27.8736
ENERGY: 1200000 1.3145 3.2374 4.9899 0.0000 -10690.6110 1408.6765 0.0000 0.0000 1706.7069 -7565.6858 287.6269 -9272.3927 -7551.7329 299.9281 -564.5111 -490.7115 31031.4471 -147.5884 -72.0647
ENERGY: 1500000 1.0965 3.8586 5.2671 0.0000 -10801.3169 1501.6994 0.0000 0.0000 1776.3061 -7513.0893 299.3563 -9289.3953 -7545.0193 300.4913 36.5596 100.2768 31410.8642 -68.7292 2.3909
TCL: Running FEP window  19: Lambda1 0.09999999999999969 Lambda2 0.049999999999999684 [dLambda -0.05 ]
TCL: Setting parameter firsttimestep to 0
TCL: Setting parameter alchLambda to 0.09999999999999969
Info: NONBONDED TABLE R-SQUARED SPACING: 0.0625
Info: NONBONDED TABLE SIZE: 705 POINTS
TCL: Setting parameter alchLambda2 to 0.049999999999999684
Info: NONBONDED TABLE R-SQUARED SPACING: 0.0625
Info: NONBONDED TABLE SIZE: 705 POINTS
TCL: Running for 1500000 steps
ETITLE: TS BOND ANGLE DIHED IMPRP ELECT VDW BOUNDARY MISC KINETIC TOTAL TEMP POTENTIAL TOTALAVG TEMPAVG PRESSURE GPRESSURE VOLUME PRESSAVG GPRESSAVG
ENERGY: 0 1.0965 3.8586 5.2671 0.0000 -10801.3164 1501.8521 0.0000 0.0000 1775.3972 -7513.8449 299.2031 -9289.2421 -7513.8449 299.2031 4.9085 96.4909 31410.8642 4.9085 96.4909
ENERGY: 300000 1.4458 4.2475 6.8836 0.0000 -10786.9976 1506.3781 0.0000 0.0000 1737.1658 -7530.8768 292.7601 -9268.0426 -7524.0148 297.3091 583.6999 635.9495 30644.1458 -102.0157 -46.7108
ENERGY: 600000 4.9187 5.4829 4.1856 0.0000 -10802.7671 1461.4865 0.0000 0.0000 1884.3515 -7442.3419 317.5649 -9326.6934 -7522.2487 299.7763 36.3465 177.6682 30489.7102 -129.7187 -60.9718
ENERGY: 900000 4.8300 6.0627 4.6385 0.0000 -10884.9668 1528.6796 0.0000 0.0000 1761.2547 -7579.5014 296.8197 -9340.7560 -7518.9897 300.1564 504.1867 609.5859 30534.4578 -59.0578 16.9514
ENERGY: 1200000 2.6149 5.7777 4.5563 0.0000 -10763.7323 1439.3369 0.0000 0.0000 1813.1668 -7498.2797 305.5683 -9311.4465 -7517.6170 301.2089 -39.9289 -6.0083 30591.4859 -59.9260 6.2566
ENERGY: 1500000 1.8952 4.6791 6.2949 0.0000 -10718.6717 1409.2041 0.0000 0.0000 1800.3384 -7496.2600 303.4064 -9296.5984 -7521.2742 299.8434 -408.6903 -306.4084 30832.8125 -125.8731 -55.3463
TCL: Running FEP window  20: Lambda1 0.049999999999999684 Lambda2 0.0    [dLambda -0.049999999999999684]
TCL: Setting parameter firsttimestep to 0
TCL: Setting parameter alchLambda to 0.049999999999999684
Info: NONBONDED TABLE R-SQUARED SPACING: 0.0625
Info: NONBONDED TABLE SIZE: 705 POINTS
TCL: Setting parameter alchLambda2 to 0.0
Info: NONBONDED TABLE R-SQUARED SPACING: 0.0625
Info: NONBONDED TABLE SIZE: 705 POINTS
TCL: Running for 1500000 steps
ETITLE: TS BOND ANGLE DIHED IMPRP ELECT VDW BOUNDARY MISC KINETIC TOTAL TEMP POTENTIAL TOTALAVG TEMPAVG PRESSURE GPRESSURE VOLUME PRESSAVG GPRESSAVG
ENERGY: 0 1.8952 4.6791 6.2949 0.0000 -10718.6725 1409.0569 0.0000 0.0000 1799.4514 -7497.2950 303.2569 -9296.7464 -7497.2950 303.2569 -412.5572 -307.6538 30832.8125 -412.5572 -307.6538
ENERGY: 300000 1.1847 5.2202 4.7969 0.0000 -10799.9517 1496.1262 0.0000 0.0000 1799.9360 -7492.6877 303.3386 -9292.6237 -7516.3355 304.9929 278.5868 381.6800 30520.0876 -144.6658 -50.6424
ENERGY: 600000 1.4018 6.9436 6.6401 0.0000 -10726.8414 1432.8470 0.0000 0.0000 1766.9932 -7512.0157 297.7868 -9279.0090 -7520.0425 304.9712 -170.7397 -64.4918 30595.5625 -178.1892 -82.9940
ENERGY: 900000 0.8775 4.8444 5.9748 0.0000 -10656.0853 1386.3926 0.0000 0.0000 1750.4901 -7507.5059 295.0056 -9257.9960 -7524.3761 302.5417 -540.1876 -377.4284 30967.9629 -115.5927 -22.5831
ENERGY: 1200000 2.4988 6.2545 4.8284 0.0000 -10871.8999 1491.4266 0.0000 0.0000 1769.0500 -7597.8416 298.1334 -9366.8916 -7532.7090 301.9331 156.8022 223.6363 30356.0196 -26.0441 62.8971
ENERGY: 1500000 0.9543 7.9217 5.0765 0.0000 -10802.4131 1488.8106 0.0000 0.0000 1764.4849 -7535.1651 297.3641 -9299.6500 -7534.9194 301.8790 453.7341 510.2256 30358.0730 -25.9994 56.8337
TCL: Exiting due to exit command.
