Info: SIMULATION PARAMETERS:
Info: TIMESTEP               2
Info: NUMBER OF STEPS        0
Info: STEPS PER CYCLE        10
Info: PERIODIC CELL BASIS 1  31.6473 0 0
Info: PERIODIC CELL BASIS 2  0 30.1135 0
Info: PERIODIC CELL BASIS 3  0 0 31.5163
Info: PERIODIC CELL CENTER   0 0 0
Info: WRAPPING WATERS AROUND PERIODIC BOUNDARIES ON OUTPUT.
Info: WRAPPING ALL CLUSTERS AROUND PERIODIC BOUNDARIES ON OUTPUT.
Info: FIRST LDB TIMESTEP     50
Info: LAST LDB TIMESTEP     -1
Info: HOM BACKGROUND SCALING 1
Info: PME BACKGROUND SCALING 1
Info: MIN ATOMS PER PATCH    40
Info: EMPTY PATCH LOAD       40 ATOMS
Info: VELOCITY FILE          mobley_1821184_equil.vel
Info: CENTER OF MASS MOVING INITIALLY? NO
Info: DIELECTRIC             1
Info: EXCLUDE                SCALED ONE-FOUR
Info: 1-4 ELECTROSTATICS SCALED BY 0.833333
Info: MODIFIED 1-4 VDW PARAMETERS WILL BE USED
Info: DCD FILENAME           mobley_1821184_prod.dcd
Info: DCD FREQUENCY          100000
Info: DCD FIRST STEP         100000
Info: DCD FILE WILL CONTAIN UNIT CELL DATA
Info: XST FILENAME           mobley_1821184_prod.xst
Info: XST FREQUENCY          100000
Info: NO VELOCITY DCD OUTPUT
Info: NO FORCE DCD OUTPUT
Info: OUTPUT FILENAME        mobley_1821184_prod
Info: BINARY OUTPUT FILES WILL BE USED
Info: RESTART FILENAME       mobley_1821184_prod.restart
Info: RESTART FREQUENCY      100000
Info: BINARY RESTART FILES WILL BE USED
Info: CUTOFF                 9
Info: PAIRLIST DISTANCE      11
Info: PAIRLIST SHRINK RATE   0.01
Info: PAIRLIST GROW RATE     0.01
Info: PAIRLIST TRIGGER       0.3
Info: PAIRLISTS PER CYCLE    2
Info: PAIRLISTS ENABLED
Info: MARGIN                 2
Info: HYDROGEN GROUP CUTOFF  2.5
Info: PATCH DIMENSION        15.5
Info: ENERGY OUTPUT STEPS    100000
Info: ENERGY EVALUATION STEPS    100000
Info: OUTPUT ENERGY PRECISION 4
Info: CROSSTERM ENERGY INCLUDED IN DIHEDRAL
Info: TIMING OUTPUT STEPS    1000000
Info: PRESSURE OUTPUT STEPS  100000
Info: ALCHEMICAL FEP ON
Info: FEP CURRENT LAMBDA VALUE     1
Info: FEP COMPARISON LAMBDA VALUE  0.95
Info: FEP INTRA-ALCHEMICAL NON-BONDED INTERACTIONS WILL BE RETAINED
Info: FEP INTRA-ALCHEMICAL BONDED INTERACTIONS WILL BE RETAINED
Info: FEP VDW SHIFTING COEFFICIENT 5
Info: FEP ELEC. ACTIVE FOR ANNIHILATED PARTICLES BETWEEN LAMBDA = 0 AND LAMBDA = 0.5
Info: FEP ELEC. ACTIVE FOR EXNIHILATED PARTICLES BETWEEN LAMBDA = 0.5 AND LAMBDA = 1
Info: FEP VDW ACTIVE FOR ANNIHILATED PARTICLES BETWEEN LAMBDA = 0 AND LAMBDA = 1
Info: FEP VDW ACTIVE FOR EXNIHILATED PARTICLES BETWEEN LAMBDA = 0 AND LAMBDA = 1
Info: FEP BOND ACTIVE FOR ANNIHILATED PARTICLES BETWEEN LAMBDA = 1 AND LAMBDA = 1
Info: FEP BOND ACTIVE FOR EXNIHILATED PARTICLES BETWEEN LAMBDA = 0 AND LAMBDA = 0
Info: LANGEVIN DYNAMICS ACTIVE
Info: LANGEVIN TEMPERATURE   300
Info: LANGEVIN USING BBK INTEGRATOR
Info: LANGEVIN DAMPING COEFFICIENT IS 1 INVERSE PS
Info: LANGEVIN DYNAMICS APPLIED TO HYDROGENS
Info: LANGEVIN PISTON PRESSURE CONTROL ACTIVE
Info:        TARGET PRESSURE IS 1.01325 BAR
Info:     OSCILLATION PERIOD IS 50 FS
Info:             DECAY TIME IS 25 FS
Info:     PISTON TEMPERATURE IS 300 K
Info:       PRESSURE CONTROL IS GROUP-BASED
Info:    INITIAL STRAIN RATE IS 0.000427367 0.000427367 0.000427367
Info:       CELL FLUCTUATION IS ISOTROPIC
Info: PARTICLE MESH EWALD (PME) ACTIVE
Info: PME TOLERANCE               1e-06
Info: PME EWALD COEFFICIENT       0.348832
Info: PME INTERPOLATION ORDER     4
Info: PME GRID DIMENSIONS         32 32 32
Info: PME MAXIMUM GRID SPACING    1
Info: PME CALCULATION WILL BE PERFORMED ON GPU
Info: FULL ELECTROSTATIC EVALUATION FREQUENCY      2
Info: USING VERLET I (r-RESPA) MTS SCHEME.
Info: C1 SPLITTING OF LONG RANGE ELECTROSTATICS
Info: PLACING ATOMS IN PATCHES BY HYDROGEN GROUPS
Info: RIGID BONDS TO HYDROGEN : ALL
Info:         ERROR TOLERANCE : 1e-08
Info:          MAX ITERATIONS : 100
Info: RIGID WATER USING SETTLE ALGORITHM
Info: RANDOM NUMBER SEED     1743620805
Info: USE HYDROGEN BONDS?    NO
Info: Using AMBER format force field!
Info: AMBER PARM FILE        mobley_1821184.prmtop
Info: COORDINATE PDB         mobley_1821184.pdb
Info: Exclusions will be read from PARM file!
Info: SCNB (VDW SCALING)     2
Info: USING ARITHMETIC MEAN TO COMBINE L-J SIGMA PARAMETERS
Info: BINARY COORDINATES     mobley_1821184_equil.coor
Info: SUMMARY OF PARAMETERS:
Info: 12 BONDS
Info: 15 ANGLES
Info:   15 HARMONIC
Info:   0 COSINE-BASED
Info: 7 DIHEDRAL
Info: 0 IMPROPER
Info: 0 CROSSTERM
Info: 0 VDW
Info: 45 VDW_PAIRS
Info: 0 NBTHOLE_PAIRS
Info: To read alchdata from file: mobley_1821184.pdb
Info: To read alchflag data from column: 5
Info: STRUCTURE SUMMARY:
Info: 2932 ATOMS
Info: 2933 BONDS
Info: 33 ANGLES
Info: 55 DIHEDRALS
Info: 0 IMPROPERS
Info: 0 CROSSTERMS
Info: 3004 EXCLUSIONS
Info: 2922 RIGID BONDS
Info: ALCH: 0 ATOMS TO DISAPPEAR IN FINAL STATE
Info: ALCH: 19 ATOMS TO APPEAR IN FINAL STATE
Info: 5874 DEGREES OF FREEDOM
Info: 981 HYDROGEN GROUPS
Info: 4 ATOMS IN LARGEST HYDROGEN GROUP
Info: 981 MIGRATION GROUPS
Info: 4 ATOMS IN LARGEST MIGRATION GROUP
Info: TOTAL MASS = 17624.7 amu
Info: TOTAL CHARGE = 9.99868e-05 e
Info: MASS DENSITY = 0.974425 g/cm^3
Info: ATOM DENSITY = 0.0976183 atoms/A^3
Info: ADDED 0 IMPLICIT EXCLUSIONS
Info: NONBONDED TABLE R-SQUARED SPACING: 0.0625
Info: NONBONDED TABLE SIZE: 705 POINTS
Info: REMOVING COM VELOCITY 0.180353 0.173325 0.138648
Info: Use 3D box decompostion in PME FFT.
Info: Updated CUDA force table with 4096 elements.
Info: Updated CUDA LJ table with 9 x 9 elements.
Info: Found 19 unique exclusion lists needing 52 bytes
TCL: Running for 1500000 steps
ETITLE: TS BOND ANGLE DIHED IMPRP ELECT VDW BOUNDARY MISC KINETIC TOTAL TEMP POTENTIAL TOTALAVG TEMPAVG PRESSURE GPRESSURE VOLUME PRESSAVG GPRESSAVG
ENERGY: 0 3.3712 19.9045 6.4240 0.0000 -10692.2334 1454.9649 0.0000 0.0000 1757.8627 -7449.7061 301.1906 -9207.5688 -7449.7061 301.1906 251.9588 336.8388 30035.3407 251.9588 336.8388
ENERGY: 300000 3.5624 18.5102 4.4828 0.0000 -10633.8400 1416.9739 0.0000 0.0000 1774.6446 -7415.6661 304.0660 -9190.3107 -7415.6859 302.0074 9.0560 57.0700 29963.6013 124.1454 211.0437
ENERGY: 600000 4.7988 16.4179 3.4539 0.0000 -10567.5510 1386.5414 0.0000 0.0000 1773.9280 -7382.4110 303.9432 -9156.3390 -7423.9934 299.7375 -11.6722 54.4705 29889.2244 44.4008 124.7566
ENERGY: 900000 5.1156 14.4293 4.3736 0.0000 -10837.2886 1488.0058 0.0000 0.0000 1824.9884 -7500.3760 312.6918 -9325.3644 -7422.6316 301.5634 423.8831 429.8566 29686.4444 12.9570 70.7096
ENERGY: 1200000 6.6271 17.7287 3.6164 0.0000 -10509.9849 1318.3799 0.0000 0.0000 1721.3947 -7442.2381 294.9422 -9163.6328 -7427.6140 300.1118 -803.1440 -785.4548 30150.4589 28.4497 86.9115
ENERGY: 1500000 3.9956 15.8051 5.9885 0.0000 -10545.0477 1374.1778 0.0000 0.0000 1728.0549 -7417.0258 296.0833 -9145.0807 -7420.4397 300.0492 -236.9985 -229.5177 30140.2693 -60.2446 -0.9023
TCL: Running FEP window   2: Lambda1 0.95   Lambda2 0.8999999999999999 [dLambda -0.050000000000000044]
TCL: Setting parameter firsttimestep to 0
TCL: Setting parameter alchLambda to 0.95
Info: NONBONDED TABLE R-SQUARED SPACING: 0.0625
Info: NONBONDED TABLE SIZE: 705 POINTS
TCL: Setting parameter alchLambda2 to 0.8999999999999999
Info: NONBONDED TABLE R-SQUARED SPACING: 0.0625
Info: NONBONDED TABLE SIZE: 705 POINTS
TCL: Running for 1500000 steps
ETITLE: TS BOND ANGLE DIHED IMPRP ELECT VDW BOUNDARY MISC KINETIC TOTAL TEMP POTENTIAL TOTALAVG TEMPAVG PRESSURE GPRESSURE VOLUME PRESSAVG GPRESSAVG
ENERGY: 0 3.9956 15.8051 5.9885 0.0000 -10542.4731 1373.8682 0.0000 0.0000 1727.1667 -7415.6489 295.9312 -9142.8156 -7415.6489 295.9312 -318.6312 -244.0631 30140.2693 -318.6312 -244.0631
ENERGY: 300000 5.5183 16.1798 4.1324 0.0000 -10779.6339 1508.5759 0.0000 0.0000 1752.5867 -7492.6408 300.2866 -9245.2276 -7475.8819 298.1314 391.2175 505.8702 30149.7563 -132.9443 -54.1047
ENERGY: 600000 5.6866 19.1596 6.5942 0.0000 -10646.9261 1437.6195 0.0000 0.0000 1784.2641 -7393.6022 305.7142 -9177.8663 -7439.3136 301.1515 393.1257 540.0429 29580.2239 -67.6997 25.3568
ENERGY: 900000 7.1183 14.1601 3.6698 0.0000 -10564.1434 1408.1374 0.0000 0.0000 1712.8338 -7418.2240 293.4754 -9131.0578 -7435.2740 300.3261 -312.0778 -229.3504 30416.3900 -148.5683 -60.9227
ENERGY: 1200000 4.1128 14.7424 4.9673 0.0000 -10465.5738 1343.1201 0.0000 0.0000 1791.6978 -7306.9333 306.9879 -9098.6312 -7425.9762 300.4913 -362.3588 -316.8872 30445.5213 -175.3346 -93.0638
ENERGY: 1500000 3.7341 18.8411 4.1774 0.0000 -10548.5574 1444.5970 0.0000 0.0000 1821.7336 -7255.4742 312.1342 -9077.2078 -7420.0226 301.1322 20.9364 100.1187 30884.0378 -97.2430 -13.5370
TCL: Running FEP window   3: Lambda1 0.8999999999999999 Lambda2 0.8499999999999999 [dLambda -0.050000000000000044]
TCL: Setting parameter firsttimestep to 0
TCL: Setting parameter alchLambda to 0.8999999999999999
Info: NONBONDED TABLE R-SQUARED SPACING: 0.0625
Info: NONBONDED TABLE SIZE: 705 POINTS
TCL: Setting parameter alchLambda2 to 0.8499999999999999
Info: NONBONDED TABLE R-SQUARED SPACING: 0.0625
Info: NONBONDED TABLE SIZE: 705 POINTS
TCL: Running for 1500000 steps
ETITLE: TS BOND ANGLE DIHED IMPRP ELECT VDW BOUNDARY MISC KINETIC TOTAL TEMP POTENTIAL TOTALAVG TEMPAVG PRESSURE GPRESSURE VOLUME PRESSAVG GPRESSAVG
ENERGY: 0 3.7341 18.8411 4.1774 0.0000 -10546.8080 1444.4933 0.0000 0.0000 1820.8744 -7254.6877 311.9870 -9075.5621 -7254.6877 311.9870 10.2511 89.0457 30884.0378 10.2511 89.0457
ENERGY: 300000 1.7258 18.9221 3.2415 0.0000 -10668.8308 1428.8126 0.0000 0.0000 1772.2395 -7443.8894 303.6539 -9216.1289 -7404.4362 302.0123 42.8344 59.5409 29891.5951 -48.2182 6.7208
ENERGY: 600000 6.2799 14.7023 4.0338 0.0000 -10552.0698 1297.0641 0.0000 0.0000 1779.8457 -7450.1441 304.9571 -9229.9899 -7403.9838 302.3873 -1163.7317 -1118.9842 29899.4388 -343.3671 -284.1368
ENERGY: 900000 6.8831 15.2941 2.5380 0.0000 -10862.0720 1586.7138 0.0000 0.0000 1819.7615 -7430.8813 311.7963 -9250.6428 -7414.3152 302.4930 1584.4524 1547.0433 29865.0320 -178.3385 -121.4508
ENERGY: 1200000 1.8983 20.0682 2.0945 0.0000 -10557.6798 1352.2552 0.0000 0.0000 1733.4517 -7447.9120 297.0080 -9181.3636 -7426.7729 300.8891 -362.7954 -270.4565 29646.8832 -139.8036 -81.4340
ENERGY: 1500000 3.1471 15.1587 3.1062 0.0000 -10664.6631 1470.2879 0.0000 0.0000 1745.8954 -7427.0678 299.1401 -9172.9632 -7433.3259 299.7855 297.8104 329.9393 30350.3662 -146.6707 -86.0415
TCL: Running FEP window   4: Lambda1 0.8499999999999999 Lambda2 0.7999999999999998 [dLambda -0.050000000000000044]
TCL: Setting parameter firsttimestep to 0
TCL: Setting parameter alchLambda to 0.8499999999999999
Info: NONBONDED TABLE R-SQUARED SPACING: 0.0625
Info: NONBONDED TABLE SIZE: 705 POINTS
TCL: Setting parameter alchLambda2 to 0.7999999999999998
Info: NONBONDED TABLE R-SQUARED SPACING: 0.0625
Info: NONBONDED TABLE SIZE: 705 POINTS
TCL: Running for 1500000 steps
ETITLE: TS BOND ANGLE DIHED IMPRP ELECT VDW BOUNDARY MISC KINETIC TOTAL TEMP POTENTIAL TOTALAVG TEMPAVG PRESSURE GPRESSURE VOLUME PRESSAVG GPRESSAVG
ENERGY: 0 3.1471 15.1587 3.1062 0.0000 -10662.3272 1469.9237 0.0000 0.0000 1744.9863 -7426.0052 298.9844 -9170.9915 -7426.0052 298.9844 227.8761 317.9879 30350.3662 227.8761 317.9879
ENERGY: 300000 4.7744 14.9675 2.9979 0.0000 -10684.4948 1460.4217 0.0000 0.0000 1765.8132 -7435.5201 302.5528 -9201.3333 -7426.3213 301.1046 299.9353 342.4242 29894.7003 290.1437 364.0992
ENERGY: 600000 7.9612 13.9486 2.7208 0.0000 -10689.4929 1423.3970 0.0000 0.0000 1760.1281 -7481.3372 301.5787 -9241.4653 -7437.2961 300.2323 -43.9904 5.3078 30144.3297 82.5454 156.9340
ENERGY: 900000 3.1134 16.3615 2.1375 0.0000 -10652.3831 1456.3256 0.0000 0.0000 1765.5623 -7408.8827 302.5098 -9174.4450 -7439.1540 299.7378 10.3530 133.0100 30339.9111 2.8473 75.0061
ENERGY: 1200000 7.6594 14.7171 7.0983 0.0000 -10723.7496 1481.7884 0.0000 0.0000 1767.7773 -7444.7091 302.8893 -9212.4864 -7434.7347 300.4091 104.7599 149.7540 30448.4919 15.5357 80.2078
ENERGY: 1500000 6.6420 15.5491 2.8460 0.0000 -10455.3370 1292.7937 0.0000 0.0000 1755.8579 -7381.6483 300.8471 -9137.5062 -7434.1071 299.7221 -1096.6215 -993.8240 30231.2793 -135.0855 -76.6715
TCL: Running FEP window   5: Lambda1 0.7999999999999998 Lambda2 0.7499999999999998 [dLambda -0.050000000000000044]
TCL: Setting parameter firsttimestep to 0
TCL: Setting parameter alchLambda to 0.7999999999999998
Info: NONBONDED TABLE R-SQUARED SPACING: 0.0625
Info: NONBONDED TABLE SIZE: 705 POINTS
TCL: Setting parameter alchLambda2 to 0.7499999999999998
Info: NONBONDED TABLE R-SQUARED SPACING: 0.0625
Info: NONBONDED TABLE SIZE: 705 POINTS
TCL: Running for 1500000 steps
ETITLE: TS BOND ANGLE DIHED IMPRP ELECT VDW BOUNDARY MISC KINETIC TOTAL TEMP POTENTIAL TOTALAVG TEMPAVG PRESSURE GPRESSURE VOLUME PRESSAVG GPRESSAVG
ENERGY: 0 6.6420 15.5491 2.8460 0.0000 -10452.7731 1292.4130 0.0000 0.0000 1755.0012 -7380.3219 300.7003 -9135.3231 -7380.3219 300.7003 -1101.9393 -1006.8438 30231.2793 -1101.9393 -1006.8438
ENERGY: 300000 5.6355 13.8560 3.4940 0.0000 -10634.8561 1412.8350 0.0000 0.0000 1734.1598 -7464.8758 297.1294 -9199.0356 -7443.2508 294.2395 -190.4284 -152.7636 29956.2259 -252.4387 -182.4950
ENERGY: 600000 4.2832 14.3658 4.8097 0.0000 -10724.8724 1459.1766 0.0000 0.0000 1730.1675 -7512.0696 296.4453 -9242.2372 -7446.0068 296.6495 183.2451 190.8982 29874.9893 -97.2148 -33.3080
ENERGY: 900000 4.8048 12.8052 1.6639 0.0000 -10557.7451 1394.6123 0.0000 0.0000 1771.1700 -7372.6890 303.4706 -9143.8590 -7444.8006 297.6245 -434.8900 -335.4496 30623.5875 -143.1753 -75.0447
ENERGY: 1200000 2.4088 15.3562 2.9670 0.0000 -10528.6328 1406.7991 0.0000 0.0000 1795.9253 -7305.1764 307.7122 -9101.1017 -7437.5172 298.1524 -226.1910 -151.1022 30638.5922 -92.4686 -25.2585
ENERGY: 1500000 3.1225 17.3953 4.7714 0.0000 -10656.6340 1433.6244 0.0000 0.0000 1765.0594 -7432.6609 302.4237 -9197.7203 -7427.0103 300.4956 316.7329 397.9395 29602.3194 -12.0294 56.9233
TCL: Running FEP window   6: Lambda1 0.7499999999999998 Lambda2 0.6999999999999997 [dLambda -0.050000000000000044]
TCL: Setting parameter firsttimestep to 0
TCL: Setting parameter alchLambda to 0.7499999999999998
Info: NONBONDED TABLE R-SQUARED SPACING: 0.0625
Info: NONBONDED TABLE SIZE: 705 POINTS
TCL: Setting parameter alchLambda2 to 0.6999999999999997
Info: NONBONDED TABLE R-SQUARED SPACING: 0.0625
Info: NONBONDED TABLE SIZE: 705 POINTS
TCL: Running for 1500000 steps
ETITLE: TS BOND ANGLE DIHED IMPRP ELECT VDW BOUNDARY MISC KINETIC TOTAL TEMP POTENTIAL TOTALAVG TEMPAVG PRESSURE GPRESSURE VOLUME PRESSAVG GPRESSAVG
ENERGY: 0 3.1225 17.3953 4.7714 0.0000 -10654.6474 1432.8213 0.0000 0.0000 1764.1591 -7432.3778 302.2694 -9196.5369 -7432.3778 302.2694 293.6241 379.4881 29602.3194 293.6241 379.4881
ENERGY: 300000 2.6247 16.2408 4.1179 0.0000 -10617.6536 1432.8641 0.0000 0.0000 1747.5378 -7414.2683 299.4215 -9161.8061 -7429.5147 301.0667 141.3450 231.2954 29963.0648 239.7160 308.7073
ENERGY: 600000 2.6953 14.9080 8.3411 0.0000 -10804.2877 1545.4248 0.0000 0.0000 1773.5719 -7459.3465 303.8822 -9232.9185 -7425.6360 302.6742 850.7517 919.9516 29936.0927 253.6735 329.3691
ENERGY: 900000 1.8240 17.2676 3.0026 0.0000 -10629.4031 1465.5052 0.0000 0.0000 1760.5268 -7381.2769 301.6470 -9141.8037 -7418.9474 301.3243 408.5910 476.8866 30113.6960 162.7439 233.0818
ENERGY: 1200000 4.7655 14.5482 2.5240 0.0000 -10577.4743 1395.7907 0.0000 0.0000 1751.8634 -7407.9825 300.1627 -9159.8460 -7412.6815 301.0760 -124.6371 -55.6655 29696.0384 158.3787 228.2522
ENERGY: 1500000 6.4120 19.1088 3.8390 0.0000 -10718.7524 1524.3418 0.0000 0.0000 1766.3185 -7398.7323 302.6394 -9165.0509 -7412.5053 301.2751 1059.0473 1089.6629 29874.9218 113.1640 179.8909
TCL: Running FEP window   7: Lambda1 0.6999999999999997 Lambda2 0.6499999999999997 [dLambda -0.050000000000000044]
TCL: Setting parameter firsttimestep to 0
TCL: Setting parameter alchLambda to 0.6999999999999997
Info: NONBONDED TABLE R-SQUARED SPACING: 0.0625
Info: NONBONDED TABLE SIZE: 705 POINTS
TCL: Setting parameter alchLambda2 to 0.6499999999999997
Info: NONBONDED TABLE R-SQUARED SPACING: 0.0625
Info: NONBONDED TABLE SIZE: 705 POINTS
TCL: Running for 1500000 steps
ETITLE: TS BOND ANGLE DIHED IMPRP ELECT VDW BOUNDARY MISC KINETIC TOTAL TEMP POTENTIAL TOTALAVG TEMPAVG PRESSURE GPRESSURE VOLUME PRESSAVG GPRESSAVG
ENERGY: 0 6.4120 19.1088 3.8390 0.0000 -10717.1568 1524.5415 0.0000 0.0000 1765.4399 -7397.8156 302.4889 -9163.2555 -7397.8156 302.4889 1016.6806 1084.5646 29874.9218 1016.6806 1084.5646
ENERGY: 300000 3.3488 16.2889 4.0928 0.0000 -10548.2026 1424.4459 0.0000 0.0000 1823.5717 -7276.4543 312.4491 -9100.0261 -7342.3750 306.7342 321.5091 388.3502 30304.2667 201.0325 254.1347
ENERGY: 600000 4.0563 14.3392 1.3883 0.0000 -10613.9068 1421.5788 0.0000 0.0000 1776.7176 -7395.8266 304.4212 -9172.5442 -7380.9764 304.0023 -3.8565 43.0817 30354.6291 180.2552 226.9953
ENERGY: 900000 3.8401 17.8942 4.6485 0.0000 -10480.3430 1338.3824 0.0000 0.0000 1792.4473 -7323.1305 307.1163 -9115.5778 -7383.8260 303.6722 -354.1023 -331.6030 30382.3672 223.5827 271.5029
ENERGY: 1200000 2.6895 16.4300 2.7435 0.0000 -10624.2926 1399.1041 0.0000 0.0000 1747.4485 -7455.8770 299.4062 -9203.3255 -7384.6172 302.4032 -462.2631 -485.3444 30491.0494 117.5078 161.4295
ENERGY: 1500000 6.9458 18.0087 4.7918 0.0000 -10727.9973 1519.6868 0.0000 0.0000 1739.6042 -7438.9599 298.0622 -9178.5641 -7393.0574 301.1360 630.4445 676.4949 30048.8080 105.4434 156.0863
TCL: Running FEP window   8: Lambda1 0.6499999999999997 Lambda2 0.5999999999999996 [dLambda -0.050000000000000044]
TCL: Setting parameter firsttimestep to 0
TCL: Setting parameter alchLambda to 0.6499999999999997
Info: NONBONDED TABLE R-SQUARED SPACING: 0.0625
Info: NONBONDED TABLE SIZE: 705 POINTS
TCL: Setting parameter alchLambda2 to 0.5999999999999996
Info: NONBONDED TABLE R-SQUARED SPACING: 0.0625
Info: NONBONDED TABLE SIZE: 705 POINTS
TCL: Running for 1500000 steps
ETITLE: TS BOND ANGLE DIHED IMPRP ELECT VDW BOUNDARY MISC KINETIC TOTAL TEMP POTENTIAL TOTALAVG TEMPAVG PRESSURE GPRESSURE VOLUME PRESSAVG GPRESSAVG
ENERGY: 0 6.9458 18.0087 4.7918 0.0000 -10725.7763 1519.6085 0.0000 0.0000 1738.7223 -7437.6993 297.9111 -9176.4215 -7437.6993 297.9111 586.4736 669.4120 30048.8080 586.4736 669.4120
ENERGY: 300000 6.1902 17.6474 4.6238 0.0000 -10579.9250 1403.2192 0.0000 0.0000 1738.7153 -7409.5290 297.9099 -9148.2443 -7440.6869 295.8953 -655.3758 -543.9594 30905.0304 -2.4606 65.8556
ENERGY: 600000 7.0370 17.7254 4.8038 0.0000 -10629.5281 1431.5903 0.0000 0.0000 1802.3423 -7366.0292 308.8117 -9168.3715 -7416.3896 298.8744 -179.1368 -123.0156 30565.9014 45.6214 103.3445
ENERGY: 900000 4.2586 15.7135 4.7656 0.0000 -10692.7592 1458.7104 0.0000 0.0000 1701.7826 -7507.5285 291.5819 -9209.3110 -7403.9019 299.4595 73.1184 160.3626 29918.4387 0.7867 62.6558
ENERGY: 1200000 5.0403 14.2583 3.4054 0.0000 -10661.0101 1470.5205 0.0000 0.0000 1799.9555 -7367.8301 308.4027 -9167.7856 -7408.1692 299.7899 339.2500 370.6850 29906.8495 -1.4164 51.3567
ENERGY: 1500000 4.6991 18.4399 3.6550 0.0000 -10537.3084 1407.7683 0.0000 0.0000 1753.4941 -7349.2519 300.4421 -9102.7461 -7402.7959 299.6885 6.0120 77.3286 30124.5584 10.9913 68.1290
TCL: Running FEP window   9: Lambda1 0.5999999999999996 Lambda2 0.5499999999999996 [dLambda -0.050000000000000044]
TCL: Setting parameter firsttimestep to 0
TCL: Setting parameter alchLambda to 0.5999999999999996
Info: NONBONDED TABLE R-SQUARED SPACING: 0.0625
Info: NONBONDED TABLE SIZE: 705 POINTS
TCL: Setting parameter alchLambda2 to 0.5499999999999996
Info: NONBONDED TABLE R-SQUARED SPACING: 0.0625
Info: NONBONDED TABLE SIZE: 705 POINTS
TCL: Running for 1500000 steps
ETITLE: TS BOND ANGLE DIHED IMPRP ELECT VDW BOUNDARY MISC KINETIC TOTAL TEMP POTENTIAL TOTALAVG TEMPAVG PRESSURE GPRESSURE VOLUME PRESSAVG GPRESSAVG
ENERGY: 0 4.6991 18.4399 3.6550 0.0000 -10536.3525 1408.1991 0.0000 0.0000 1752.6051 -7348.7543 300.2898 -9101.3594 -7348.7543 300.2898 -11.5566 74.6420 30124.5584 -11.5566 74.6420
ENERGY: 300000 5.0015 13.4583 3.2112 0.0000 -10665.8579 1416.4023 0.0000 0.0000 1763.2413 -7464.5434 302.1121 -9227.7847 -7400.5121 301.2721 -179.4864 -114.5921 30005.0628 -287.7930 -224.9276
ENERGY: 600000 7.1168 16.7194 3.3481 0.0000 -10584.2341 1435.1502 0.0000 0.0000 1792.3619 -7329.5376 307.1017 -9121.8995 -7372.5268 302.0103 -121.9649 -33.4473 30304.0680 -306.7120 -238.7908
ENERGY: 900000 7.8387 13.8838 3.1408 0.0000 -10497.6054 1335.6592 0.0000 0.0000 1774.1079 -7362.9750 303.9740 -9137.0830 -7380.8225 301.9960 -655.7874 -605.7276 30408.6325 -388.3298 -317.3433
ENERGY: 1200000 7.4533 15.4013 3.0314 0.0000 -10528.4866 1392.3657 0.0000 0.0000 1716.6369 -7393.5980 294.1270 -9110.2349 -7376.1436 301.1680 -285.1401 -248.3737 30154.5820 -262.9387 -202.3141
ENERGY: 1500000 5.3019 22.1887 5.6990 0.0000 -10632.8383 1426.4180 0.0000 0.0000 1716.6768 -7456.5540 294.1338 -9173.2307 -7383.8779 300.4992 -187.8106 -59.3102 30186.6947 -216.9963 -155.9257
TCL: Running FEP window  10: Lambda1 0.5499999999999996 Lambda2 0.4999999999999996 [dLambda -0.04999999999999999]
TCL: Setting parameter firsttimestep to 0
TCL: Setting parameter alchLambda to 0.5499999999999996
Info: NONBONDED TABLE R-SQUARED SPACING: 0.0625
Info: NONBONDED TABLE SIZE: 705 POINTS
TCL: Setting parameter alchLambda2 to 0.4999999999999996
Info: NONBONDED TABLE R-SQUARED SPACING: 0.0625
Info: NONBONDED TABLE SIZE: 705 POINTS
TCL: Running for 1500000 steps
ETITLE: TS BOND ANGLE DIHED IMPRP ELECT VDW BOUNDARY MISC KINETIC TOTAL TEMP POTENTIAL TOTALAVG TEMPAVG PRESSURE GPRESSURE VOLUME PRESSAVG GPRESSAVG
ENERGY: 0 5.3019 22.1887 5.6990 0.0000 -10631.9980 1426.6648 0.0000 0.0000 1715.8113 -7456.3324 293.9855 -9172.1436 -7456.3324 293.9855 -174.0052 -65.9993 30186.6947 -174.0052 -65.9993
ENERGY: 300000 4.4242 15.1740 1.6901 0.0000 -10637.4169 1415.6498 0.0000 0.0000 1770.7949 -7429.6838 303.4064 -9200.4787 -7413.5211 301.3330 46.3677 107.1179 29850.5291 -228.7231 -164.5157
ENERGY: 600000 4.2356 18.8232 2.4086 0.0000 -10471.0740 1329.9854 0.0000 0.0000 1757.7451 -7357.8761 301.1704 -9115.6212 -7417.1057 300.5559 -972.2175 -966.9521 30986.8034 -491.7123 -441.1065
ENERGY: 900000 6.3961 14.8352 3.6607 0.0000 -10564.0210 1409.9467 0.0000 0.0000 1790.0264 -7339.1559 306.7015 -9129.1823 -7405.7426 301.0275 -88.6507 -2.4451 30041.1747 -288.5366 -235.4280
ENERGY: 1200000 4.9888 17.1183 2.8284 0.0000 -10621.2832 1461.0799 0.0000 0.0000 1745.8896 -7389.3783 299.1391 -9135.2679 -7414.4003 299.1328 323.7833 430.7262 30026.9882 -157.0995 -97.4291
ENERGY: 1500000 5.9696 13.3155 5.6675 0.0000 -10617.4516 1431.5301 0.0000 0.0000 1735.4971 -7425.4718 297.3585 -9160.9689 -7411.3912 299.4786 -93.2735 -40.2665 30058.9325 -95.3609 -29.8250
TCL: Running FEP window  11: Lambda1 0.4999999999999996 Lambda2 0.4499999999999996 [dLambda -0.04999999999999999]
TCL: Setting parameter firsttimestep to 0
TCL: Setting parameter alchLambda to 0.4999999999999996
Info: NONBONDED TABLE R-SQUARED SPACING: 0.0625
Info: NONBONDED TABLE SIZE: 705 POINTS
TCL: Setting parameter alchLambda2 to 0.4499999999999996
Info: NONBONDED TABLE R-SQUARED SPACING: 0.0625
Info: NONBONDED TABLE SIZE: 705 POINTS
TCL: Running for 1500000 steps
ETITLE: TS BOND ANGLE DIHED IMPRP ELECT VDW BOUNDARY MISC KINETIC TOTAL TEMP POTENTIAL TOTALAVG TEMPAVG PRESSURE GPRESSURE VOLUME PRESSAVG GPRESSAVG
ENERGY: 0 5.9696 13.3155 5.6675 0.0000 -10617.1253 1431.9982 0.0000 0.0000 1734.5983 -7425.5762 297.2045 -9160.1745 -7425.5762 297.2045 -119.6428 -44.8300 30058.9325 -119.6428 -44.8300
ENERGY: 300000 4.0741 17.8215 4.1859 0.0000 -10614.8796 1411.7145 0.0000 0.0000 1800.3654 -7376.7181 308.4730 -9177.0835 -7382.6404 304.1220 -175.9061 -169.2514 30026.1578 -245.7755 -185.3830
ENERGY: 600000 5.1177 16.6359 7.6612 0.0000 -10570.6127 1352.2683 0.0000 0.0000 1832.2212 -7356.7083 313.9311 -9188.9295 -7369.9865 306.1228 -500.9853 -466.2933 30279.6427 -349.6396 -301.1691
ENERGY: 900000 2.7856 18.1370 1.2977 0.0000 -10521.1511 1351.0825 0.0000 0.0000 1787.3239 -7360.5242 306.2384 -9147.8482 -7388.9630 303.7245 -520.3857 -421.3923 30113.8057 -325.1794 -270.1838
ENERGY: 1200000 4.9713 12.8652 5.2713 0.0000 -10715.6113 1513.0970 0.0000 0.0000 1726.6398 -7452.7667 295.8409 -9179.4064 -7405.7471 302.4362 818.6794 857.8380 29608.3343 -191.4716 -136.7412
ENERGY: 1500000 2.8448 17.9153 6.2363 0.0000 -10653.7497 1437.8493 0.0000 0.0000 1770.7168 -7418.1872 303.3930 -9188.9041 -7404.2838 303.1231 -105.3063 -10.0714 30152.9810 -214.8200 -151.7802
TCL: Running FEP window  12: Lambda1 0.4499999999999996 Lambda2 0.39999999999999963 [dLambda -0.04999999999999999]
TCL: Setting parameter firsttimestep to 0
TCL: Setting parameter alchLambda to 0.4499999999999996
Info: NONBONDED TABLE R-SQUARED SPACING: 0.0625
Info: NONBONDED TABLE SIZE: 705 POINTS
TCL: Setting parameter alchLambda2 to 0.39999999999999963
Info: NONBONDED TABLE R-SQUARED SPACING: 0.0625
Info: NONBONDED TABLE SIZE: 705 POINTS
TCL: Running for 1500000 steps
ETITLE: TS BOND ANGLE DIHED IMPRP ELECT VDW BOUNDARY MISC KINETIC TOTAL TEMP POTENTIAL TOTALAVG TEMPAVG PRESSURE GPRESSURE VOLUME PRESSAVG GPRESSAVG
ENERGY: 0 2.8448 17.9153 6.2363 0.0000 -10653.7480 1437.9853 0.0000 0.0000 1769.8562 -7418.9101 303.2455 -9188.7664 -7418.9101 303.2455 -103.6899 -15.0123 30152.9810 -103.6899 -15.0123
ENERGY: 300000 3.8232 16.9013 5.1621 0.0000 -10472.5889 1376.5241 0.0000 0.0000 1822.1349 -7248.0434 312.2029 -9070.1782 -7369.0689 304.3946 173.0795 158.0933 29981.3902 -28.6167 21.6380
ENERGY: 600000 7.9881 16.3631 5.3881 0.0000 -10752.9539 1513.9775 0.0000 0.0000 1766.7058 -7442.5313 302.7058 -9209.2371 -7390.3496 301.7782 600.5667 620.4725 29766.2793 -4.2622 49.0832
ENERGY: 900000 6.3774 17.3736 3.6019 0.0000 -10523.8476 1389.5453 0.0000 0.0000 1747.9641 -7358.9852 299.4946 -9106.9493 -7393.2148 301.6410 -134.4550 -34.8372 30179.6503 80.3549 138.4552
ENERGY: 1200000 5.4582 19.0078 2.9396 0.0000 -10451.0980 1368.8574 0.0000 0.0000 1757.3312 -7297.5038 301.0995 -9054.8350 -7395.6955 301.5098 -126.4239 -64.9275 30238.6925 -17.9701 38.2315
ENERGY: 1500000 2.8175 19.2745 1.7285 0.0000 -10664.9169 1426.5165 0.0000 0.0000 1732.6130 -7481.9669 296.8643 -9214.5799 -7402.6589 301.1633 -19.7611 -32.4033 29851.8692 -23.4503 27.5286
TCL: Running FEP window  13: Lambda1 0.39999999999999963 Lambda2 0.34999999999999964 [dLambda -0.04999999999999999]
TCL: Setting parameter firsttimestep to 0
TCL: Setting parameter alchLambda to 0.39999999999999963
Info: NONBONDED TABLE R-SQUARED SPACING: 0.0625
Info: NONBONDED TABLE SIZE: 705 POINTS
TCL: Setting parameter alchLambda2 to 0.34999999999999964
Info: NONBONDED TABLE R-SQUARED SPACING: 0.0625
Info: NONBONDED TABLE SIZE: 705 POINTS
TCL: Running for 1500000 steps
ETITLE: TS BOND ANGLE DIHED IMPRP ELECT VDW BOUNDARY MISC KINETIC TOTAL TEMP POTENTIAL TOTALAVG TEMPAVG PRESSURE GPRESSURE VOLUME PRESSAVG GPRESSAVG
ENERGY: 0 2.8175 19.2745 1.7285 0.0000 -10664.9178 1426.6960 0.0000 0.0000 1731.7344 -7482.6671 296.7138 -9214.4014 -7482.6671 296.7138 -112.3777 -38.3052 29851.8692 -112.3777 -38.3052
ENERGY: 300000 2.5181 19.8175 4.4943 0.0000 -10663.6490 1425.3567 0.0000 0.0000 1759.9069 -7451.5554 301.5408 -9211.4623 -7451.8282 299.1292 -78.1337 -1.0817 30106.4350 38.3757 107.0770
ENERGY: 600000 2.9688 15.6905 6.6579 0.0000 -10697.3486 1498.5405 0.0000 0.0000 1697.4308 -7476.0600 290.8362 -9173.4908 -7447.0322 297.7307 719.5704 711.8999 29725.4348 148.6882 205.4631
ENERGY: 900000 2.7031 18.3462 3.4501 0.0000 -10584.7874 1417.4227 0.0000 0.0000 1766.3358 -7376.5295 302.6424 -9142.8654 -7441.0011 298.7718 -46.6359 3.6228 30084.7585 78.9387 132.2073
ENERGY: 1200000 3.9157 16.7772 6.8035 0.0000 -10639.3217 1452.5765 0.0000 0.0000 1769.2530 -7389.9957 303.1422 -9159.2488 -7432.3789 299.4354 273.9909 354.3861 29792.5704 34.0508 96.5006
ENERGY: 1500000 3.8353 19.5057 2.7684 0.0000 -10709.4791 1400.8789 0.0000 0.0000 1696.8418 -7585.6489 290.7353 -9282.4908 -7430.7051 299.8005 -690.5130 -638.8081 30164.7412 -57.5311 10.7012
TCL: Running FEP window  14: Lambda1 0.34999999999999964 Lambda2 0.29999999999999966 [dLambda -0.04999999999999999]
TCL: Setting parameter firsttimestep to 0
TCL: Setting parameter alchLambda to 0.34999999999999964
Info: NONBONDED TABLE R-SQUARED SPACING: 0.0625
Info: NONBONDED TABLE SIZE: 705 POINTS
TCL: Setting parameter alchLambda2 to 0.29999999999999966
Info: NONBONDED TABLE R-SQUARED SPACING: 0.0625
Info: NONBONDED TABLE SIZE: 705 POINTS
TCL: Running for 1500000 steps
ETITLE: TS BOND ANGLE DIHED IMPRP ELECT VDW BOUNDARY MISC KINETIC TOTAL TEMP POTENTIAL TOTALAVG TEMPAVG PRESSURE GPRESSURE VOLUME PRESSAVG GPRESSAVG
ENERGY: 0 3.8353 19.5057 2.7684 0.0000 -10709.4800 1400.8940 0.0000 0.0000 1695.9571 -7586.5196 290.5837 -9282.4766 -7586.5196 290.5837 -729.4168 -645.7849 30164.7412 -729.4168 -645.7849
ENERGY: 300000 6.4044 15.8589 4.4264 0.0000 -10724.0169 1507.4484 0.0000 0.0000 1713.4015 -7476.4772 293.5726 -9189.8787 -7494.2560 294.2476 457.1875 474.4728 29631.0676 -29.4547 9.9216
ENERGY: 600000 7.6903 14.8108 4.8434 0.0000 -10751.0544 1488.7012 0.0000 0.0000 1784.8383 -7450.1704 305.8126 -9235.0086 -7459.9495 298.0587 190.5552 228.9587 29779.5050 -138.8077 -82.3916
ENERGY: 900000 3.9669 16.9343 3.6733 0.0000 -10677.3955 1490.4434 0.0000 0.0000 1741.6103 -7420.7674 298.4059 -9162.3777 -7453.1083 298.8507 593.6516 675.7739 29868.8901 -61.7574 -7.2357
ENERGY: 1200000 4.2019 20.3466 4.0118 0.0000 -10498.6028 1457.1615 0.0000 0.0000 1796.6637 -7216.2172 307.8387 -9012.8809 -7433.1104 299.7578 660.9615 724.3599 30296.6939 -21.9949 30.5652
ENERGY: 1500000 3.5558 15.7487 4.7678 0.0000 -10690.7593 1471.5766 0.0000 0.0000 1779.0911 -7416.0192 304.8278 -9195.1104 -7429.6149 300.6698 358.7804 429.5553 30056.0504 49.9879 106.7411
TCL: Running FEP window  15: Lambda1 0.29999999999999966 Lambda2 0.24999999999999967 [dLambda -0.04999999999999999]
TCL: Setting parameter firsttimestep to 0
TCL: Setting parameter alchLambda to 0.29999999999999966
Info: NONBONDED TABLE R-SQUARED SPACING: 0.0625
Info: NONBONDED TABLE SIZE: 705 POINTS
TCL: Setting parameter alchLambda2 to 0.24999999999999967
Info: NONBONDED TABLE R-SQUARED SPACING: 0.0625
Info: NONBONDED TABLE SIZE: 705 POINTS
TCL: Running for 1500000 steps
ETITLE: TS BOND ANGLE DIHED IMPRP ELECT VDW BOUNDARY MISC KINETIC TOTAL TEMP POTENTIAL TOTALAVG TEMPAVG PRESSURE GPRESSURE VOLUME PRESSAVG GPRESSAVG
ENERGY: 0 3.5558 15.7487 4.7678 0.0000 -10690.7606 1471.9832 0.0000 0.0000 1778.2175 -7416.4877 304.6782 -9194.7052 -7416.4877 304.6782 331.3162 427.8503 30056.0504 331.3162 427.8503
ENERGY: 300000 7.0978 16.8511 4.7891 0.0000 -10621.2956 1402.4440 0.0000 0.0000 1707.8083 -7482.3053 292.6143 -9190.1136 -7439.4376 297.8401 -197.0327 -124.5964 29998.2277 69.0037 140.3352
ENERGY: 600000 2.6857 17.4161 3.5233 0.0000 -10691.7900 1445.9668 0.0000 0.0000 1689.6940 -7532.5041 289.5106 -9222.1981 -7440.6657 296.6708 -262.9224 -203.2503 30168.2296 -57.6846 -1.3674
ENERGY: 900000 2.2988 14.1640 2.2018 0.0000 -10663.0378 1418.4723 0.0000 0.0000 1691.4706 -7534.4304 289.8150 -9225.9009 -7444.7218 296.2725 -283.5392 -245.3630 30085.7424 -20.4088 31.3904
ENERGY: 1200000 6.6552 17.2345 3.0919 0.0000 -10523.4366 1397.0374 0.0000 0.0000 1673.2549 -7426.1628 286.6940 -9099.4176 -7438.2740 296.2684 -138.7321 -140.5639 30320.8341 -85.7142 -45.7813
ENERGY: 1500000 3.8729 21.2438 3.2086 0.0000 -10611.4343 1473.7430 0.0000 0.0000 1731.6245 -7377.7415 296.6950 -9109.3660 -7427.1951 297.2354 279.4090 364.5099 30331.1178 -86.3432 -40.3315
TCL: Running FEP window  16: Lambda1 0.24999999999999967 Lambda2 0.19999999999999968 [dLambda -0.04999999999999999]
TCL: Setting parameter firsttimestep to 0
TCL: Setting parameter alchLambda to 0.24999999999999967
Info: NONBONDED TABLE R-SQUARED SPACING: 0.0625
Info: NONBONDED TABLE SIZE: 705 POINTS
TCL: Setting parameter alchLambda2 to 0.19999999999999968
Info: NONBONDED TABLE R-SQUARED SPACING: 0.0625
Info: NONBONDED TABLE SIZE: 705 POINTS
TCL: Running for 1500000 steps
ETITLE: TS BOND ANGLE DIHED IMPRP ELECT VDW BOUNDARY MISC KINETIC TOTAL TEMP POTENTIAL TOTALAVG TEMPAVG PRESSURE GPRESSURE VOLUME PRESSAVG GPRESSAVG
ENERGY: 0 3.8729 21.2438 3.2086 0.0000 -10611.4345 1473.6874 0.0000 0.0000 1730.6778 -7378.7440 296.5327 -9109.4218 -7378.7440 296.5327 270.7531 360.7337 30331.1178 270.7531 360.7337
ENERGY: 300000 5.1928 20.8540 2.9000 0.0000 -10532.7502 1456.1982 0.0000 0.0000 1707.4892 -7340.1160 292.5596 -9047.6052 -7420.6867 295.2759 499.0001 497.6056 30257.2757 359.3177 399.4849
ENERGY: 600000 5.2584 20.9132 4.6826 0.0000 -10665.9447 1457.6974 0.0000 0.0000 1752.8993 -7424.4938 300.3402 -9177.3931 -7419.0390 296.7988 42.4465 83.5720 29817.0681 301.3216 336.6370
ENERGY: 900000 5.2880 15.1652 3.3314 0.0000 -10532.4525 1449.6224 0.0000 0.0000 1761.2569 -7297.7885 301.7721 -9059.0454 -7401.7148 297.7006 191.5253 340.8963 30331.1698 316.2801 364.9480
ENERGY: 1200000 3.5651 16.9500 1.4919 0.0000 -10757.6166 1525.3318 0.0000 0.0000 1781.0848 -7429.1930 305.1694 -9210.2778 -7402.9248 299.1402 655.2862 762.2965 29929.8825 359.3568 419.5984
ENERGY: 1500000 4.0480 19.1558 5.3469 0.0000 -10665.7666 1488.4791 0.0000 0.0000 1739.8906 -7408.8463 298.1113 -9148.7369 -7405.8232 298.8933 479.9531 516.1512 30048.4514 302.0957 360.9431
TCL: Running FEP window  17: Lambda1 0.19999999999999968 Lambda2 0.1499999999999997 [dLambda -0.04999999999999999]
TCL: Setting parameter firsttimestep to 0
TCL: Setting parameter alchLambda to 0.19999999999999968
Info: NONBONDED TABLE R-SQUARED SPACING: 0.0625
Info: NONBONDED TABLE SIZE: 705 POINTS
TCL: Setting parameter alchLambda2 to 0.1499999999999997
Info: NONBONDED TABLE R-SQUARED SPACING: 0.0625
Info: NONBONDED TABLE SIZE: 705 POINTS
TCL: Running for 1500000 steps
ETITLE: TS BOND ANGLE DIHED IMPRP ELECT VDW BOUNDARY MISC KINETIC TOTAL TEMP POTENTIAL TOTALAVG TEMPAVG PRESSURE GPRESSURE VOLUME PRESSAVG GPRESSAVG
ENERGY: 0 4.0480 19.1558 5.3469 0.0000 -10665.7677 1487.8551 0.0000 0.0000 1738.9772 -7410.3847 297.9548 -9149.3619 -7410.3847 297.9548 424.3879 510.0689 30048.4514 424.3879 510.0689
ENERGY: 300000 3.0495 22.9295 3.4611 0.0000 -10553.7008 1412.4407 0.0000 0.0000 1687.4000 -7424.4199 289.1176 -9111.8200 -7409.5582 298.4748 -204.1963 -123.4768 30025.7267 24.1002 63.5268
ENERGY: 600000 6.0568 23.8354 3.7973 0.0000 -10589.1129 1407.1665 0.0000 0.0000 1779.6828 -7368.5742 304.9292 -9148.2570 -7415.0706 299.8548 -202.8231 -70.8616 30199.1451 -22.4676 39.5943
ENERGY: 900000 3.0354 17.8316 6.6187 0.0000 -10529.2113 1418.7047 0.0000 0.0000 1781.4700 -7301.5508 305.2354 -9083.0209 -7391.9001 300.0652 -54.9771 -56.1057 30408.7487 66.3222 125.2913
ENERGY: 1200000 2.0179 19.2454 2.8886 0.0000 -10652.1181 1404.6978 0.0000 0.0000 1769.1618 -7454.1066 303.1266 -9223.2683 -7403.2851 300.6744 -465.8332 -339.2873 29996.5308 -10.9347 56.8284
ENERGY: 1500000 4.0493 20.2692 8.6929 0.0000 -10610.5160 1406.2104 0.0000 0.0000 1764.6752 -7406.6189 302.3578 -9171.2942 -7395.7177 301.3392 -282.5003 -216.7570 30226.1290 -13.7987 54.3946
TCL: Running FEP window  18: Lambda1 0.1499999999999997 Lambda2 0.09999999999999969 [dLambda -0.05 ]
TCL: Setting parameter firsttimestep to 0
TCL: Setting parameter alchLambda to 0.1499999999999997
Info: NONBONDED TABLE R-SQUARED SPACING: 0.0625
Info: NONBONDED TABLE SIZE: 705 POINTS
TCL: Setting parameter alchLambda2 to 0.09999999999999969
Info: NONBONDED TABLE R-SQUARED SPACING: 0.0625
Info: NONBONDED TABLE SIZE: 705 POINTS
TCL: Running for 1500000 steps
ETITLE: TS BOND ANGLE DIHED IMPRP ELECT VDW BOUNDARY MISC KINETIC TOTAL TEMP POTENTIAL TOTALAVG TEMPAVG PRESSURE GPRESSURE VOLUME PRESSAVG GPRESSAVG
ENERGY: 0 4.0493 20.2692 8.6929 0.0000 -10610.5166 1406.2289 0.0000 0.0000 1763.8268 -7407.4495 302.2125 -9171.2763 -7407.4495 302.2125 -304.5692 -220.8497 30226.1290 -304.5692 -220.8497
ENERGY: 300000 2.6405 19.0610 5.0842 0.0000 -10519.1430 1406.9133 0.0000 0.0000 1737.0434 -7348.4007 297.6234 -9085.4441 -7372.5106 303.6725 -124.4265 -123.9447 30223.1711 -121.2050 -65.2313
ENERGY: 600000 1.8181 14.8599 2.1032 0.0000 -10451.1690 1366.0026 0.0000 0.0000 1753.5116 -7312.8737 300.4451 -9066.3853 -7361.3660 302.3259 -73.1822 -16.7071 29950.4885 77.0375 127.6785
ENERGY: 900000 7.9892 16.3608 3.5193 0.0000 -10619.1824 1494.1379 0.0000 0.0000 1740.8288 -7356.3463 298.2720 -9097.1751 -7371.1741 300.9229 658.8997 790.0750 29756.9285 72.4219 130.9990
ENERGY: 1200000 5.6523 13.6083 3.7440 0.0000 -10616.1627 1398.0817 0.0000 0.0000 1720.3166 -7474.7598 294.7575 -9195.0764 -7382.1944 300.5454 -459.2976 -382.3817 30414.6967 -36.5941 25.6051
ENERGY: 1500000 4.1755 15.3939 3.9081 0.0000 -10546.0413 1448.1439 0.0000 0.0000 1778.9685 -7295.4515 304.8068 -9074.4199 -7380.1937 300.4120 150.8930 278.3948 30445.2439 70.5108 137.6086
TCL: Running FEP window  19: Lambda1 0.09999999999999969 Lambda2 0.049999999999999684 [dLambda -0.05 ]
TCL: Setting parameter firsttimestep to 0
TCL: Setting parameter alchLambda to 0.09999999999999969
Info: NONBONDED TABLE R-SQUARED SPACING: 0.0625
Info: NONBONDED TABLE SIZE: 705 POINTS
TCL: Setting parameter alchLambda2 to 0.049999999999999684
Info: NONBONDED TABLE R-SQUARED SPACING: 0.0625
Info: NONBONDED TABLE SIZE: 705 POINTS
TCL: Running for 1500000 steps
ETITLE: TS BOND ANGLE DIHED IMPRP ELECT VDW BOUNDARY MISC KINETIC TOTAL TEMP POTENTIAL TOTALAVG TEMPAVG PRESSURE GPRESSURE VOLUME PRESSAVG GPRESSAVG
ENERGY: 0 4.1755 15.3939 3.9081 0.0000 -10546.0412 1448.4547 0.0000 0.0000 1778.0676 -7296.0415 304.6525 -9074.1091 -7296.0415 304.6525 189.6140 277.6239 30445.2439 189.6140 277.6239
ENERGY: 300000 5.1431 16.2862 7.0578 0.0000 -10534.5504 1364.4176 0.0000 0.0000 1755.8898 -7385.7558 300.8526 -9141.6456 -7368.9422 301.9497 -724.0085 -720.6740 30325.5090 -12.2263 42.9628
ENERGY: 600000 4.1211 16.5351 2.5326 0.0000 -10823.2123 1508.9169 0.0000 0.0000 1719.8971 -7571.2096 294.6856 -9291.1066 -7414.2416 299.2895 549.5601 668.3953 29249.9662 77.7109 129.8965
ENERGY: 900000 2.5944 14.8030 1.5728 0.0000 -10277.6325 1265.2392 0.0000 0.0000 1739.4897 -7253.9334 298.0426 -8993.4231 -7388.3874 299.1429 -1206.1313 -1050.0694 30436.8975 -74.4093 -15.6184
ENERGY: 1200000 4.0330 16.1736 4.4101 0.0000 -10648.4103 1507.0669 0.0000 0.0000 1708.7130 -7408.0138 292.7693 -9116.7268 -7385.9505 299.7897 404.1456 504.2188 30465.6865 -12.4528 48.3569
ENERGY: 1500000 2.7635 16.7112 5.6411 0.0000 -10640.9664 1444.7620 0.0000 0.0000 1789.7840 -7381.3046 306.6599 -9171.0885 -7387.7491 301.6536 -119.9425 8.6479 30431.8798 1.3234 62.9235
TCL: Running FEP window  20: Lambda1 0.049999999999999684 Lambda2 0.0    [dLambda -0.049999999999999684]
TCL: Setting parameter firsttimestep to 0
TCL: Setting parameter alchLambda to 0.049999999999999684
Info: NONBONDED TABLE R-SQUARED SPACING: 0.0625
Info: NONBONDED TABLE SIZE: 705 POINTS
TCL: Setting parameter alchLambda2 to 0.0
Info: NONBONDED TABLE R-SQUARED SPACING: 0.0625
Info: NONBONDED TABLE SIZE: 705 POINTS
TCL: Running for 1500000 steps
ETITLE: TS BOND ANGLE DIHED IMPRP ELECT VDW BOUNDARY MISC KINETIC TOTAL TEMP POTENTIAL TOTALAVG TEMPAVG PRESSURE GPRESSURE VOLUME PRESSAVG GPRESSAVG
ENERGY: 0 2.7635 16.7112 5.6411 0.0000 -10640.9664 1444.7010 0.0000 0.0000 1788.9215 -7382.2281 306.5122 -9171.1496 -7382.2281 306.5122 -79.7282 3.8100 30431.8798 -79.7282 3.8100
ENERGY: 300000 4.0060 16.1577 4.0863 0.0000 -10667.2811 1493.3105 0.0000 0.0000 1722.8331 -7426.8874 295.1887 -9149.7205 -7430.3721 299.0457 220.7891 288.8062 30590.8488 -141.5253 -66.2936
ENERGY: 600000 4.1682 17.6532 4.7149 0.0000 -10676.1916 1469.2212 0.0000 0.0000 1739.2244 -7441.2097 297.9971 -9180.4341 -7438.5288 297.2642 185.0946 282.8052 30002.0839 -232.9399 -155.1152
ENERGY: 900000 3.2653 17.9024 6.2307 0.0000 -10719.8264 1552.0168 0.0000 0.0000 1738.9103 -7401.5010 297.9433 -9140.4112 -7420.3285 298.3159 920.0471 1040.2730 29723.2708 -186.6802 -105.9856
ENERGY: 1200000 5.1665 14.1688 6.0435 0.0000 -10538.8363 1435.5678 0.0000 0.0000 1718.0146 -7359.8751 294.3630 -9077.8897 -7414.6113 298.5539 137.9665 167.6143 30258.1348 -202.0894 -133.4811
ENERGY: 1500000 3.5587 21.4268 4.3576 0.0000 -10590.6698 1442.7073 0.0000 0.0000 1732.1389 -7386.4805 296.7831 -9118.6194 -7403.8530 297.9519 246.4524 270.2561 30201.5718 -180.0131 -113.7706
TCL: Exiting due to exit command.
