Info: SIMULATION PARAMETERS:
Info: TIMESTEP               2
Info: NUMBER OF STEPS        0
Info: STEPS PER CYCLE        10
Info: PERIODIC CELL BASIS 1  31.0375 0 0
Info: PERIODIC CELL BASIS 2  0 30.3726 0
Info: PERIODIC CELL BASIS 3  0 0 32.0916
Info: PERIODIC CELL CENTER   0 0 0
Info: WRAPPING WATERS AROUND PERIODIC BOUNDARIES ON OUTPUT.
Info: WRAPPING ALL CLUSTERS AROUND PERIODIC BOUNDARIES ON OUTPUT.
Info: FIRST LDB TIMESTEP     50
Info: LAST LDB TIMESTEP     -1
Info: HOM BACKGROUND SCALING 1
Info: PME BACKGROUND SCALING 1
Info: MIN ATOMS PER PATCH    40
Info: EMPTY PATCH LOAD       40 ATOMS
Info: VELOCITY FILE          mobley_1717215_equil.vel
Info: CENTER OF MASS MOVING INITIALLY? NO
Info: DIELECTRIC             1
Info: EXCLUDE                SCALED ONE-FOUR
Info: 1-4 ELECTROSTATICS SCALED BY 0.833333
Info: MODIFIED 1-4 VDW PARAMETERS WILL BE USED
Info: DCD FILENAME           mobley_1717215_prod.dcd
Info: DCD FREQUENCY          100000
Info: DCD FIRST STEP         100000
Info: DCD FILE WILL CONTAIN UNIT CELL DATA
Info: XST FILENAME           mobley_1717215_prod.xst
Info: XST FREQUENCY          100000
Info: NO VELOCITY DCD OUTPUT
Info: NO FORCE DCD OUTPUT
Info: OUTPUT FILENAME        mobley_1717215_prod
Info: BINARY OUTPUT FILES WILL BE USED
Info: RESTART FILENAME       mobley_1717215_prod.restart
Info: RESTART FREQUENCY      100000
Info: BINARY RESTART FILES WILL BE USED
Info: CUTOFF                 9
Info: PAIRLIST DISTANCE      11
Info: PAIRLIST SHRINK RATE   0.01
Info: PAIRLIST GROW RATE     0.01
Info: PAIRLIST TRIGGER       0.3
Info: PAIRLISTS PER CYCLE    2
Info: PAIRLISTS ENABLED
Info: MARGIN                 2
Info: HYDROGEN GROUP CUTOFF  2.5
Info: PATCH DIMENSION        15.5
Info: ENERGY OUTPUT STEPS    100000
Info: ENERGY EVALUATION STEPS    100000
Info: OUTPUT ENERGY PRECISION 4
Info: CROSSTERM ENERGY INCLUDED IN DIHEDRAL
Info: TIMING OUTPUT STEPS    1000000
Info: PRESSURE OUTPUT STEPS  100000
Info: ALCHEMICAL FEP ON
Info: FEP CURRENT LAMBDA VALUE     0
Info: FEP COMPARISON LAMBDA VALUE  0.05
Info: FEP INTRA-ALCHEMICAL NON-BONDED INTERACTIONS WILL BE RETAINED
Info: FEP INTRA-ALCHEMICAL BONDED INTERACTIONS WILL BE RETAINED
Info: FEP VDW SHIFTING COEFFICIENT 5
Info: FEP ELEC. ACTIVE FOR ANNIHILATED PARTICLES BETWEEN LAMBDA = 0 AND LAMBDA = 0.5
Info: FEP ELEC. ACTIVE FOR EXNIHILATED PARTICLES BETWEEN LAMBDA = 0.5 AND LAMBDA = 1
Info: FEP VDW ACTIVE FOR ANNIHILATED PARTICLES BETWEEN LAMBDA = 0 AND LAMBDA = 1
Info: FEP VDW ACTIVE FOR EXNIHILATED PARTICLES BETWEEN LAMBDA = 0 AND LAMBDA = 1
Info: FEP BOND ACTIVE FOR ANNIHILATED PARTICLES BETWEEN LAMBDA = 1 AND LAMBDA = 1
Info: FEP BOND ACTIVE FOR EXNIHILATED PARTICLES BETWEEN LAMBDA = 0 AND LAMBDA = 0
Info: LANGEVIN DYNAMICS ACTIVE
Info: LANGEVIN TEMPERATURE   300
Info: LANGEVIN USING BBK INTEGRATOR
Info: LANGEVIN DAMPING COEFFICIENT IS 1 INVERSE PS
Info: LANGEVIN DYNAMICS APPLIED TO HYDROGENS
Info: LANGEVIN PISTON PRESSURE CONTROL ACTIVE
Info:        TARGET PRESSURE IS 1.01325 BAR
Info:     OSCILLATION PERIOD IS 50 FS
Info:             DECAY TIME IS 25 FS
Info:     PISTON TEMPERATURE IS 300 K
Info:       PRESSURE CONTROL IS GROUP-BASED
Info:    INITIAL STRAIN RATE IS -0.000331787 -0.000331787 -0.000331787
Info:       CELL FLUCTUATION IS ISOTROPIC
Info: PARTICLE MESH EWALD (PME) ACTIVE
Info: PME TOLERANCE               1e-06
Info: PME EWALD COEFFICIENT       0.348832
Info: PME INTERPOLATION ORDER     4
Info: PME GRID DIMENSIONS         32 32 36
Info: PME MAXIMUM GRID SPACING    1
Info: PME CALCULATION WILL BE PERFORMED ON GPU
Info: FULL ELECTROSTATIC EVALUATION FREQUENCY      2
Info: USING VERLET I (r-RESPA) MTS SCHEME.
Info: C1 SPLITTING OF LONG RANGE ELECTROSTATICS
Info: PLACING ATOMS IN PATCHES BY HYDROGEN GROUPS
Info: RIGID BONDS TO HYDROGEN : ALL
Info:         ERROR TOLERANCE : 1e-08
Info:          MAX ITERATIONS : 100
Info: RIGID WATER USING SETTLE ALGORITHM
Info: RANDOM NUMBER SEED     1743669565
Info: USE HYDROGEN BONDS?    NO
Info: Using AMBER format force field!
Info: AMBER PARM FILE        mobley_1717215.prmtop
Info: COORDINATE PDB         mobley_1717215.pdb
Info: Exclusions will be read from PARM file!
Info: SCNB (VDW SCALING)     2
Info: USING ARITHMETIC MEAN TO COMBINE L-J SIGMA PARAMETERS
Info: BINARY COORDINATES     mobley_1717215_equil.coor
Info: SUMMARY OF PARAMETERS:
Info: 7 BONDS
Info: 6 ANGLES
Info:   6 HARMONIC
Info:   0 COSINE-BASED
Info: 4 DIHEDRAL
Info: 0 IMPROPER
Info: 0 CROSSTERM
Info: 0 VDW
Info: 36 VDW_PAIRS
Info: 0 NBTHOLE_PAIRS
Info: To read alchdata from file: mobley_1717215.pdb
Info: To read alchflag data from column: 5
Info: STRUCTURE SUMMARY:
Info: 2960 ATOMS
Info: 2959 BONDS
Info: 10 ANGLES
Info: 7 DIHEDRALS
Info: 0 IMPROPERS
Info: 0 CROSSTERMS
Info: 2974 EXCLUSIONS
Info: 2956 RIGID BONDS
Info: ALCH: 0 ATOMS TO DISAPPEAR IN FINAL STATE
Info: ALCH: 8 ATOMS TO APPEAR IN FINAL STATE
Info: 5924 DEGREES OF FREEDOM
Info: 988 HYDROGEN GROUPS
Info: 4 ATOMS IN LARGEST HYDROGEN GROUP
Info: 988 MIGRATION GROUPS
Info: 4 ATOMS IN LARGEST MIGRATION GROUP
Info: TOTAL MASS = 17787.8 amu
Info: TOTAL CHARGE = -9.99756e-05 e
Info: MASS DENSITY = 0.976381 g/cm^3
Info: ATOM DENSITY = 0.097843 atoms/A^3
Info: ADDED 0 IMPLICIT EXCLUSIONS
Info: NONBONDED TABLE R-SQUARED SPACING: 0.0625
Info: NONBONDED TABLE SIZE: 705 POINTS
Info: REMOVING COM VELOCITY 0.115681 0.0679189 -0.0668063
Info: Use 3D box decompostion in PME FFT.
Info: Updated CUDA force table with 4096 elements.
Info: Updated CUDA LJ table with 8 x 8 elements.
Info: Found 11 unique exclusion lists needing 16 bytes
TCL: Running for 1500000 steps
ETITLE: TS BOND ANGLE DIHED IMPRP ELECT VDW BOUNDARY MISC KINETIC TOTAL TEMP POTENTIAL TOTALAVG TEMPAVG PRESSURE GPRESSURE VOLUME PRESSAVG GPRESSAVG
ENERGY: 0 0.4653 1.3620 0.9076 0.0000 -10970.1377 1551.6475 0.0000 0.0000 1771.1486 -7644.6067 300.9056 -9415.7553 -7644.6067 300.9056 403.0056 482.5822 30252.5479 403.0056 482.5822
ENERGY: 300000 0.9874 1.8129 0.2302 0.0000 -10778.9575 1461.6401 0.0000 0.0000 1765.4581 -7548.8290 299.9389 -9314.2870 -7597.2923 300.7551 282.5998 335.7700 30101.4349 230.4157 288.9554
ENERGY: 600000 0.5530 4.8537 0.2084 0.0000 -10780.3692 1455.1607 0.0000 0.0000 1754.2810 -7565.3125 298.0400 -9319.5934 -7579.9499 300.5326 -50.4235 46.3004 30357.2947 48.4631 106.5076
ENERGY: 900000 1.0929 3.1387 1.1417 0.0000 -10949.5396 1568.3168 0.0000 0.0000 1729.6778 -7646.1715 293.8600 -9375.8493 -7571.7828 300.7185 465.1902 617.8112 30422.7050 133.7470 200.6438
ENERGY: 1200000 0.2584 2.4856 0.3130 0.0000 -10766.0650 1467.0205 0.0000 0.0000 1785.0553 -7510.9322 303.2683 -9295.9875 -7563.0180 300.9409 -94.5047 8.0835 30705.2107 34.0191 100.0876
ENERGY: 1500000 0.1113 2.0872 1.4621 0.0000 -10943.3842 1578.3551 0.0000 0.0000 1733.8293 -7627.5392 294.5654 -9361.3685 -7574.1806 299.9588 941.0509 966.4899 30160.8470 77.3840 144.4440
TCL: Running FEP window   2: Lambda1 0.05   Lambda2 0.1    [dLambda 0.05  ]
TCL: Setting parameter firsttimestep to 0
TCL: Setting parameter alchLambda to 0.05
Info: NONBONDED TABLE R-SQUARED SPACING: 0.0625
Info: NONBONDED TABLE SIZE: 705 POINTS
TCL: Setting parameter alchLambda2 to 0.1
Info: NONBONDED TABLE R-SQUARED SPACING: 0.0625
Info: NONBONDED TABLE SIZE: 705 POINTS
TCL: Running for 1500000 steps
ETITLE: TS BOND ANGLE DIHED IMPRP ELECT VDW BOUNDARY MISC KINETIC TOTAL TEMP POTENTIAL TOTALAVG TEMPAVG PRESSURE GPRESSURE VOLUME PRESSAVG GPRESSAVG
ENERGY: 0 0.1113 2.0872 1.4621 0.0000 -10943.3836 1578.7620 0.0000 0.0000 1732.9584 -7628.0026 294.4174 -9360.9610 -7628.0026 294.4174 893.1706 970.2776 30160.8470 893.1706 970.2776
ENERGY: 300000 2.8172 2.4450 0.8322 0.0000 -10708.0598 1429.8658 0.0000 0.0000 1767.3301 -7504.7695 300.2569 -9272.0996 -7552.3128 299.2391 -168.0695 -67.8425 30420.2615 122.6223 175.5434
ENERGY: 600000 0.5725 2.8026 0.4802 0.0000 -10754.7166 1434.9638 0.0000 0.0000 1822.8176 -7493.0799 309.6838 -9315.8975 -7535.6974 301.3545 -535.0211 -393.5734 30951.5926 -75.2952 -15.6813
ENERGY: 900000 0.4263 3.5113 0.4744 0.0000 -10806.7765 1428.3078 0.0000 0.0000 1769.9656 -7604.0910 300.7047 -9374.0566 -7556.3187 300.1326 -184.6786 -143.5611 30159.2509 -100.8776 -46.6056
ENERGY: 1200000 0.9045 1.4882 0.5163 0.0000 -10602.7744 1301.4012 0.0000 0.0000 1787.6892 -7510.7751 303.7158 -9298.4643 -7573.2659 299.3686 -1243.0950 -1193.7106 30808.8551 -157.7848 -106.5710
ENERGY: 1500000 0.7527 2.4740 0.5704 0.0000 -10587.2669 1363.3433 0.0000 0.0000 1759.6493 -7460.4771 298.9520 -9220.1264 -7565.0538 299.4751 -215.6036 -286.4073 30361.6792 -162.6075 -117.6573
TCL: Running FEP window   3: Lambda1 0.1    Lambda2 0.15000000000000002 [dLambda 0.05000000000000002]
TCL: Setting parameter firsttimestep to 0
TCL: Setting parameter alchLambda to 0.1
Info: NONBONDED TABLE R-SQUARED SPACING: 0.0625
Info: NONBONDED TABLE SIZE: 705 POINTS
TCL: Setting parameter alchLambda2 to 0.15000000000000002
Info: NONBONDED TABLE R-SQUARED SPACING: 0.0625
Info: NONBONDED TABLE SIZE: 705 POINTS
TCL: Running for 1500000 steps
ETITLE: TS BOND ANGLE DIHED IMPRP ELECT VDW BOUNDARY MISC KINETIC TOTAL TEMP POTENTIAL TOTALAVG TEMPAVG PRESSURE GPRESSURE VOLUME PRESSAVG GPRESSAVG
ENERGY: 0 0.7527 2.4740 0.5704 0.0000 -10587.2676 1365.1850 0.0000 0.0000 1758.7497 -7459.5358 298.7992 -9218.2855 -7459.5358 298.7992 -377.2168 -286.7385 30361.6792 -377.2168 -286.7385
ENERGY: 300000 1.0687 2.4287 0.1646 0.0000 -10745.0153 1436.5706 0.0000 0.0000 1764.6423 -7540.1404 299.8003 -9304.7827 -7530.2577 300.6510 32.2484 156.9006 30158.2459 -222.4077 -138.4232
ENERGY: 600000 0.1689 0.3818 0.6680 0.0000 -10773.7075 1454.6986 0.0000 0.0000 1740.7585 -7577.0316 295.7426 -9317.7901 -7534.2978 301.5186 68.2655 100.6943 30395.6586 -2.8508 66.3402
ENERGY: 900000 0.8369 5.0606 1.2592 0.0000 -10721.4157 1409.4627 0.0000 0.0000 1760.4291 -7544.3672 299.0845 -9304.7963 -7543.8802 301.2553 -213.1241 -125.6945 30219.5277 74.7446 143.7203
ENERGY: 1200000 0.3234 0.8168 0.6561 0.0000 -10818.4181 1454.0528 0.0000 0.0000 1763.7136 -7598.8554 299.6425 -9362.5690 -7549.3319 300.1137 -404.5382 -335.4964 30724.1231 -20.6658 45.5130
ENERGY: 1500000 1.1365 2.6961 0.1957 0.0000 -10782.1004 1503.1047 0.0000 0.0000 1804.6986 -7470.2688 306.6055 -9274.9673 -7547.7954 300.4845 438.6292 514.4178 30342.0164 39.6409 104.8209
TCL: Running FEP window   4: Lambda1 0.15000000000000002 Lambda2 0.2    [dLambda 0.04999999999999999]
TCL: Setting parameter firsttimestep to 0
TCL: Setting parameter alchLambda to 0.15000000000000002
Info: NONBONDED TABLE R-SQUARED SPACING: 0.0625
Info: NONBONDED TABLE SIZE: 705 POINTS
TCL: Setting parameter alchLambda2 to 0.2
Info: NONBONDED TABLE R-SQUARED SPACING: 0.0625
Info: NONBONDED TABLE SIZE: 705 POINTS
TCL: Running for 1500000 steps
ETITLE: TS BOND ANGLE DIHED IMPRP ELECT VDW BOUNDARY MISC KINETIC TOTAL TEMP POTENTIAL TOTALAVG TEMPAVG PRESSURE GPRESSURE VOLUME PRESSAVG GPRESSAVG
ENERGY: 0 1.1365 2.6961 0.1957 0.0000 -10782.1005 1503.2651 0.0000 0.0000 1803.8173 -7470.9898 306.4558 -9274.8071 -7470.9898 306.4558 427.5454 517.6831 30342.0164 427.5454 517.6831
ENERGY: 300000 0.1642 2.3310 0.5223 0.0000 -10856.8393 1569.6037 0.0000 0.0000 1717.8421 -7566.3759 291.8493 -9284.2180 -7534.3675 299.3814 1008.2853 1067.6602 30130.3158 278.1483 341.6875
ENERGY: 600000 1.5081 3.2432 0.1642 0.0000 -10661.2133 1296.4858 0.0000 0.0000 1794.6509 -7565.1611 304.8985 -9359.8119 -7551.3659 298.1720 -1209.1333 -1122.6600 30235.5737 -123.7126 -50.3317
ENERGY: 900000 0.5714 1.3671 2.0020 0.0000 -10771.3256 1463.7425 0.0000 0.0000 1813.0565 -7490.5862 308.0255 -9303.6427 -7545.0172 299.9403 197.2696 235.2271 30335.9037 41.8250 109.9203
ENERGY: 1200000 0.1432 3.5336 2.0061 0.0000 -10865.4807 1522.2780 0.0000 0.0000 1696.8537 -7640.6662 288.2835 -9337.5198 -7551.1704 299.5307 475.1031 516.5606 30394.5406 65.4379 130.4705
ENERGY: 1500000 0.3598 1.3009 0.5832 0.0000 -10761.6136 1384.2171 0.0000 0.0000 1738.3640 -7636.7886 295.3358 -9375.1525 -7549.8305 299.4695 -944.5241 -840.9851 30671.9056 -18.6326 45.7067
TCL: Running FEP window   5: Lambda1 0.2    Lambda2 0.25   [dLambda 0.04999999999999999]
TCL: Setting parameter firsttimestep to 0
TCL: Setting parameter alchLambda to 0.2
Info: NONBONDED TABLE R-SQUARED SPACING: 0.0625
Info: NONBONDED TABLE SIZE: 705 POINTS
TCL: Setting parameter alchLambda2 to 0.25
Info: NONBONDED TABLE R-SQUARED SPACING: 0.0625
Info: NONBONDED TABLE SIZE: 705 POINTS
TCL: Running for 1500000 steps
ETITLE: TS BOND ANGLE DIHED IMPRP ELECT VDW BOUNDARY MISC KINETIC TOTAL TEMP POTENTIAL TOTALAVG TEMPAVG PRESSURE GPRESSURE VOLUME PRESSAVG GPRESSAVG
ENERGY: 0 0.3598 1.3009 0.5832 0.0000 -10761.6140 1383.9412 0.0000 0.0000 1737.4917 -7637.9371 295.1876 -9375.4289 -7637.9371 295.1876 -921.0704 -841.1409 30671.9056 -921.0704 -841.1409
ENERGY: 300000 0.3944 3.2653 0.2631 0.0000 -10863.2037 1471.6515 0.0000 0.0000 1749.0506 -7638.5789 297.1513 -9387.6294 -7594.8207 298.9784 -151.1481 -90.8013 30175.0188 -89.2988 -45.0525
ENERGY: 600000 0.3301 2.0534 0.5804 0.0000 -10770.8873 1452.2489 0.0000 0.0000 1817.1506 -7498.5240 308.7211 -9315.6746 -7557.6591 300.3563 -175.5155 -75.5359 30711.8692 -254.6040 -190.6211
ENERGY: 900000 0.8154 1.9710 0.3369 0.0000 -10829.3643 1491.2632 0.0000 0.0000 1733.8657 -7601.1121 294.5715 -9334.9778 -7556.7544 300.4214 360.2455 440.4002 30213.0621 -416.7587 -349.6353
ENERGY: 1200000 0.5106 1.0579 0.2117 0.0000 -10764.0858 1399.1341 0.0000 0.0000 1742.1393 -7621.0323 295.9772 -9363.1716 -7552.3559 299.3948 -890.3965 -794.8573 30606.5753 -534.9584 -465.1989
ENERGY: 1500000 0.1464 5.8931 0.5596 0.0000 -10726.0511 1403.3153 0.0000 0.0000 1742.8127 -7573.3240 296.0916 -9316.1367 -7545.4166 299.4137 -349.2902 -242.8444 30469.4773 -481.1352 -410.9739
TCL: Running FEP window   6: Lambda1 0.25   Lambda2 0.3    [dLambda 0.04999999999999999]
TCL: Setting parameter firsttimestep to 0
TCL: Setting parameter alchLambda to 0.25
Info: NONBONDED TABLE R-SQUARED SPACING: 0.0625
Info: NONBONDED TABLE SIZE: 705 POINTS
TCL: Setting parameter alchLambda2 to 0.3
Info: NONBONDED TABLE R-SQUARED SPACING: 0.0625
Info: NONBONDED TABLE SIZE: 705 POINTS
TCL: Running for 1500000 steps
ETITLE: TS BOND ANGLE DIHED IMPRP ELECT VDW BOUNDARY MISC KINETIC TOTAL TEMP POTENTIAL TOTALAVG TEMPAVG PRESSURE GPRESSURE VOLUME PRESSAVG GPRESSAVG
ENERGY: 0 0.1464 5.8931 0.5596 0.0000 -10726.0505 1403.0544 0.0000 0.0000 1741.9447 -7574.4522 295.9441 -9316.3969 -7574.4522 295.9441 -329.4576 -240.9279 30469.4773 -329.4576 -240.9279
ENERGY: 300000 1.3304 1.0029 0.5912 0.0000 -10727.9529 1340.8581 0.0000 0.0000 1717.1121 -7667.0582 291.7252 -9384.1703 -7582.8507 298.6267 -1126.6704 -1037.7801 30172.6571 -471.2816 -394.2215
ENERGY: 600000 0.9546 1.6138 1.7497 0.0000 -10838.5849 1469.7087 0.0000 0.0000 1845.7905 -7518.7676 313.5868 -9364.5581 -7581.1430 299.5866 44.1840 85.0726 30315.8937 -344.6513 -274.2162
ENERGY: 900000 2.6569 0.7417 0.5565 0.0000 -10839.5507 1443.2409 0.0000 0.0000 1754.3234 -7638.0313 298.0472 -9392.3547 -7563.0404 301.8384 -228.2804 -172.1662 30154.3328 -165.9351 -93.5426
ENERGY: 1200000 1.0032 3.5275 1.1057 0.0000 -10727.1256 1426.2986 0.0000 0.0000 1764.7189 -7530.4717 299.8133 -9295.1906 -7533.0827 302.6979 -287.0888 -233.7491 30614.9197 -235.7763 -161.7170
ENERGY: 1500000 0.1060 4.0300 0.1296 0.0000 -10803.6205 1462.6002 0.0000 0.0000 1807.9450 -7528.8097 307.1571 -9336.7547 -7536.8087 301.7677 83.5503 97.2394 30403.0178 -198.2659 -129.7143
TCL: Running FEP window   7: Lambda1 0.3    Lambda2 0.35   [dLambda 0.04999999999999999]
TCL: Setting parameter firsttimestep to 0
TCL: Setting parameter alchLambda to 0.3
Info: NONBONDED TABLE R-SQUARED SPACING: 0.0625
Info: NONBONDED TABLE SIZE: 705 POINTS
TCL: Setting parameter alchLambda2 to 0.35
Info: NONBONDED TABLE R-SQUARED SPACING: 0.0625
Info: NONBONDED TABLE SIZE: 705 POINTS
TCL: Running for 1500000 steps
ETITLE: TS BOND ANGLE DIHED IMPRP ELECT VDW BOUNDARY MISC KINETIC TOTAL TEMP POTENTIAL TOTALAVG TEMPAVG PRESSURE GPRESSURE VOLUME PRESSAVG GPRESSAVG
ENERGY: 0 0.1060 4.0300 0.1296 0.0000 -10803.6201 1463.5713 0.0000 0.0000 1807.0215 -7528.7617 307.0002 -9335.7832 -7528.7617 307.0002 25.5023 105.1932 30403.0178 25.5023 105.1932
ENERGY: 300000 1.8441 2.7979 1.3675 0.0000 -10739.0025 1409.8786 0.0000 0.0000 1751.2234 -7571.8910 297.5205 -9323.1144 -7561.3412 297.1107 -347.5084 -303.1351 30046.2976 -52.1689 -8.6028
ENERGY: 600000 0.9675 4.2448 1.2888 0.0000 -10683.1527 1419.1484 0.0000 0.0000 1785.6600 -7471.8432 303.3710 -9257.5032 -7543.1947 299.9912 -285.6985 -131.4024 30746.6528 -229.7952 -170.9218
ENERGY: 900000 0.2939 1.4568 0.6814 0.0000 -10772.5760 1518.7464 0.0000 0.0000 1765.8896 -7485.5078 300.0122 -9251.3974 -7544.8362 300.5859 444.2926 515.0495 30788.6383 50.6119 116.6376
ENERGY: 1200000 0.4751 2.1985 1.1191 0.0000 -10820.3264 1504.0273 0.0000 0.0000 1775.5068 -7536.9996 301.6461 -9312.5064 -7541.7927 300.9795 265.9024 336.8041 30466.7604 39.8638 98.1044
ENERGY: 1500000 1.9257 2.7269 1.6181 0.0000 -10537.3109 1353.9216 0.0000 0.0000 1764.1348 -7412.9838 299.7141 -9177.1186 -7525.6172 300.8887 -349.9964 -372.1099 30808.7322 0.3357 50.5608
TCL: Running FEP window   8: Lambda1 0.35   Lambda2 0.39999999999999997 [dLambda 0.04999999999999999]
TCL: Setting parameter firsttimestep to 0
TCL: Setting parameter alchLambda to 0.35
Info: NONBONDED TABLE R-SQUARED SPACING: 0.0625
Info: NONBONDED TABLE SIZE: 705 POINTS
TCL: Setting parameter alchLambda2 to 0.39999999999999997
Info: NONBONDED TABLE R-SQUARED SPACING: 0.0625
Info: NONBONDED TABLE SIZE: 705 POINTS
TCL: Running for 1500000 steps
ETITLE: TS BOND ANGLE DIHED IMPRP ELECT VDW BOUNDARY MISC KINETIC TOTAL TEMP POTENTIAL TOTALAVG TEMPAVG PRESSURE GPRESSURE VOLUME PRESSAVG GPRESSAVG
ENERGY: 0 1.9257 2.7269 1.6181 0.0000 -10537.3104 1355.0392 0.0000 0.0000 1763.2290 -7412.7715 299.5602 -9176.0005 -7412.7715 299.5602 -437.1939 -361.1880 30808.7322 -437.1939 -361.1880
ENERGY: 300000 0.2930 2.0710 1.0626 0.0000 -10741.8139 1490.1152 0.0000 0.0000 1761.7747 -7486.4974 299.3131 -9248.2721 -7489.7035 298.1765 195.5879 225.2470 30998.1762 49.8387 99.8170
ENERGY: 600000 0.9892 1.8917 1.4642 0.0000 -10819.3871 1541.3960 0.0000 0.0000 1764.8029 -7508.8431 299.8276 -9273.6460 -7494.7164 299.4819 795.0738 795.1153 30514.1683 48.0911 96.2432
ENERGY: 900000 1.3852 0.6782 1.6973 0.0000 -10697.8204 1443.2975 0.0000 0.0000 1772.9688 -7477.7934 301.2149 -9250.7622 -7497.8616 300.3851 -66.0755 19.6089 30792.1023 27.7218 81.4427
ENERGY: 1200000 0.2705 2.0486 1.3776 0.0000 -10636.8993 1348.5840 0.0000 0.0000 1735.8729 -7548.7455 294.9126 -9284.6185 -7511.0151 298.9780 -856.9932 -807.3100 30667.4573 -90.0389 -39.9275
ENERGY: 1500000 2.0036 2.7794 0.5983 0.0000 -10626.6582 1446.2674 0.0000 0.0000 1783.0718 -7391.9377 302.9313 -9175.0096 -7502.9191 300.1681 334.2478 346.9695 30397.6528 -65.0904 -15.1812
TCL: Running FEP window   9: Lambda1 0.39999999999999997 Lambda2 0.44999999999999996 [dLambda 0.04999999999999999]
TCL: Setting parameter firsttimestep to 0
TCL: Setting parameter alchLambda to 0.39999999999999997
Info: NONBONDED TABLE R-SQUARED SPACING: 0.0625
Info: NONBONDED TABLE SIZE: 705 POINTS
TCL: Setting parameter alchLambda2 to 0.44999999999999996
Info: NONBONDED TABLE R-SQUARED SPACING: 0.0625
Info: NONBONDED TABLE SIZE: 705 POINTS
TCL: Running for 1500000 steps
ETITLE: TS BOND ANGLE DIHED IMPRP ELECT VDW BOUNDARY MISC KINETIC TOTAL TEMP POTENTIAL TOTALAVG TEMPAVG PRESSURE GPRESSURE VOLUME PRESSAVG GPRESSAVG
ENERGY: 0 2.0036 2.7794 0.5983 0.0000 -10626.6588 1446.3154 0.0000 0.0000 1782.1685 -7392.7936 302.7779 -9174.9621 -7392.7936 302.7779 292.0837 352.4399 30397.6528 292.0837 352.4399
ENERGY: 300000 0.1347 1.0614 0.2086 0.0000 -10575.3413 1340.1443 0.0000 0.0000 1789.2582 -7444.5339 303.9823 -9233.7921 -7453.5086 301.1141 -865.3171 -813.4470 31205.6361 -166.2123 -114.4042
ENERGY: 600000 0.3942 1.2555 0.7028 0.0000 -10731.2932 1452.0577 0.0000 0.0000 1749.1955 -7527.6875 297.1760 -9276.8829 -7481.5530 300.4955 177.5844 274.5920 30038.3710 -38.3787 22.3740
ENERGY: 900000 0.3803 1.8362 0.4164 0.0000 -10743.7462 1422.7041 0.0000 0.0000 1769.9593 -7548.4499 300.7036 -9318.4092 -7509.8327 300.2082 -62.9948 -9.1384 30182.9743 -24.7749 42.4327
ENERGY: 1200000 0.6407 2.6846 0.3136 0.0000 -10766.1715 1423.8815 0.0000 0.0000 1679.7345 -7658.9167 285.3750 -9338.6511 -7520.9629 299.3831 -223.2784 -176.4199 30209.6249 -49.1403 9.4552
ENERGY: 1500000 2.2137 1.8068 1.7065 0.0000 -10730.7667 1422.8428 0.0000 0.0000 1837.2967 -7464.9002 312.1437 -9302.1969 -7523.8624 300.2854 -279.8531 -201.6984 30760.8373 -11.4157 42.4671
TCL: Running FEP window  10: Lambda1 0.44999999999999996 Lambda2 0.49999999999999994 [dLambda 0.04999999999999999]
TCL: Setting parameter firsttimestep to 0
TCL: Setting parameter alchLambda to 0.44999999999999996
Info: NONBONDED TABLE R-SQUARED SPACING: 0.0625
Info: NONBONDED TABLE SIZE: 705 POINTS
TCL: Setting parameter alchLambda2 to 0.49999999999999994
Info: NONBONDED TABLE R-SQUARED SPACING: 0.0625
Info: NONBONDED TABLE SIZE: 705 POINTS
TCL: Running for 1500000 steps
ETITLE: TS BOND ANGLE DIHED IMPRP ELECT VDW BOUNDARY MISC KINETIC TOTAL TEMP POTENTIAL TOTALAVG TEMPAVG PRESSURE GPRESSURE VOLUME PRESSAVG GPRESSAVG
ENERGY: 0 2.2137 1.8068 1.7065 0.0000 -10730.7668 1422.6644 0.0000 0.0000 1836.4418 -7465.9337 311.9985 -9302.3755 -7465.9337 311.9985 -297.3596 -198.6942 30760.8373 -297.3596 -198.6942
ENERGY: 300000 3.5856 2.6911 0.3252 0.0000 -10707.7063 1406.6064 0.0000 0.0000 1784.8111 -7509.6870 303.2268 -9294.4980 -7499.4768 305.8259 -402.5147 -347.8827 30329.4219 -23.8627 46.6474
ENERGY: 600000 1.6935 2.1611 0.5912 0.0000 -10690.4825 1367.3536 0.0000 0.0000 1783.0633 -7535.6197 302.9299 -9318.6830 -7502.6178 303.7715 -737.6007 -653.2933 30622.4142 -243.7046 -172.6789
ENERGY: 900000 1.1724 1.8793 0.9678 0.0000 -10754.6827 1385.9223 0.0000 0.0000 1774.9749 -7589.7660 301.5557 -9364.7410 -7515.6039 304.0803 -937.5784 -910.9417 31068.5891 -329.9480 -256.7481
ENERGY: 1200000 0.0934 1.2923 0.6203 0.0000 -10824.0389 1471.6741 0.0000 0.0000 1783.5782 -7566.7807 303.0173 -9350.3589 -7514.5262 304.1916 228.9068 255.9476 29988.7975 -228.5964 -154.9648
ENERGY: 1500000 0.3971 1.9606 0.4899 0.0000 -10764.9696 1437.5852 0.0000 0.0000 1768.0017 -7556.5350 300.3710 -9324.5367 -7517.7484 303.2030 -156.7652 -73.1000 30489.1927 -218.6377 -143.1556
TCL: Running FEP window  11: Lambda1 0.49999999999999994 Lambda2 0.5499999999999999 [dLambda 0.04999999999999999]
TCL: Setting parameter firsttimestep to 0
TCL: Setting parameter alchLambda to 0.49999999999999994
Info: NONBONDED TABLE R-SQUARED SPACING: 0.0625
Info: NONBONDED TABLE SIZE: 705 POINTS
TCL: Setting parameter alchLambda2 to 0.5499999999999999
Info: NONBONDED TABLE R-SQUARED SPACING: 0.0625
Info: NONBONDED TABLE SIZE: 705 POINTS
TCL: Running for 1500000 steps
ETITLE: TS BOND ANGLE DIHED IMPRP ELECT VDW BOUNDARY MISC KINETIC TOTAL TEMP POTENTIAL TOTALAVG TEMPAVG PRESSURE GPRESSURE VOLUME PRESSAVG GPRESSAVG
ENERGY: 0 0.3971 1.9606 0.4899 0.0000 -10764.9697 1437.5058 0.0000 0.0000 1767.1223 -7557.4940 300.2216 -9324.6163 -7557.4940 300.2216 -156.3337 -71.8797 30489.1927 -156.3337 -71.8797
ENERGY: 300000 0.1098 1.6003 0.2676 0.0000 -10841.6357 1409.6118 0.0000 0.0000 1821.6731 -7608.3731 309.4894 -9430.0462 -7575.1486 300.3633 -423.1994 -363.8420 30158.8815 -315.6583 -252.1168
ENERGY: 600000 0.0468 2.7097 0.4691 0.0000 -10736.6786 1472.9697 0.0000 0.0000 1709.2806 -7551.2027 290.3947 -9260.4833 -7580.6632 296.3696 172.6337 240.9392 30602.2531 -310.2571 -235.1305
ENERGY: 900000 3.2282 1.4896 0.5840 0.0000 -10758.6894 1455.2395 0.0000 0.0000 1754.6658 -7543.4824 298.1053 -9298.1482 -7563.9366 297.3648 125.6656 194.1205 30328.1048 -151.4490 -86.2165
ENERGY: 1200000 1.1800 1.3002 0.7470 0.0000 -10753.7236 1489.7891 0.0000 0.0000 1784.8894 -7475.8179 303.2401 -9260.7073 -7551.5374 298.0329 297.0556 314.4259 30635.2361 -95.7492 -32.8911
ENERGY: 1500000 0.7228 1.9033 2.1060 0.0000 -10752.6982 1422.0773 0.0000 0.0000 1800.5525 -7525.3363 305.9012 -9325.8888 -7553.8787 297.7392 -452.4355 -339.9111 30941.0002 -122.1525 -58.5495
TCL: Running FEP window  12: Lambda1 0.5499999999999999 Lambda2 0.6    [dLambda 0.050000000000000044]
TCL: Setting parameter firsttimestep to 0
TCL: Setting parameter alchLambda to 0.5499999999999999
Info: NONBONDED TABLE R-SQUARED SPACING: 0.0625
Info: NONBONDED TABLE SIZE: 705 POINTS
TCL: Setting parameter alchLambda2 to 0.6
Info: NONBONDED TABLE R-SQUARED SPACING: 0.0625
Info: NONBONDED TABLE SIZE: 705 POINTS
TCL: Running for 1500000 steps
ETITLE: TS BOND ANGLE DIHED IMPRP ELECT VDW BOUNDARY MISC KINETIC TOTAL TEMP POTENTIAL TOTALAVG TEMPAVG PRESSURE GPRESSURE VOLUME PRESSAVG GPRESSAVG
ENERGY: 0 0.7228 1.9033 2.1060 0.0000 -10752.9430 1421.9377 0.0000 0.0000 1799.6360 -7526.6372 305.7455 -9326.2733 -7526.6372 305.7455 -427.2387 -339.5503 30941.0002 -427.2387 -339.5503
ENERGY: 300000 0.9357 1.7343 0.1448 0.0000 -10805.2387 1468.8874 0.0000 0.0000 1723.8234 -7609.7130 292.8654 -9333.5363 -7549.2547 296.9897 -201.3744 -33.9417 30584.3205 -533.7516 -437.9732
ENERGY: 600000 0.8234 1.2909 1.3182 0.0000 -10645.9152 1419.6658 0.0000 0.0000 1722.7932 -7500.0236 292.6904 -9222.8169 -7541.0667 299.4699 -42.7905 50.6347 30421.9690 -322.9558 -231.7649
ENERGY: 900000 0.9176 2.2913 5.8985 0.0000 -10825.0870 1517.5754 0.0000 0.0000 1774.6809 -7523.7232 301.5058 -9298.4041 -7531.1474 299.2687 394.0796 494.2898 30543.3026 -162.5737 -83.5684
ENERGY: 1200000 1.8627 1.7569 2.1693 0.0000 -10761.2566 1504.5614 0.0000 0.0000 1724.3743 -7526.5319 292.9590 -9250.9062 -7539.5646 298.1876 472.0926 565.1633 30449.8104 -102.6771 -21.1810
ENERGY: 1500000 2.2144 1.2622 0.1061 0.0000 -10893.9485 1579.8815 0.0000 0.0000 1750.3817 -7560.1025 297.3775 -9310.4842 -7540.1491 298.3010 987.5419 984.7339 30266.2865 -46.2752 29.3877
TCL: Running FEP window  13: Lambda1 0.6    Lambda2 0.65   [dLambda 0.050000000000000044]
TCL: Setting parameter firsttimestep to 0
TCL: Setting parameter alchLambda to 0.6
Info: NONBONDED TABLE R-SQUARED SPACING: 0.0625
Info: NONBONDED TABLE SIZE: 705 POINTS
TCL: Setting parameter alchLambda2 to 0.65
Info: NONBONDED TABLE R-SQUARED SPACING: 0.0625
Info: NONBONDED TABLE SIZE: 705 POINTS
TCL: Running for 1500000 steps
ETITLE: TS BOND ANGLE DIHED IMPRP ELECT VDW BOUNDARY MISC KINETIC TOTAL TEMP POTENTIAL TOTALAVG TEMPAVG PRESSURE GPRESSURE VOLUME PRESSAVG GPRESSAVG
ENERGY: 0 2.2144 1.2622 0.1061 0.0000 -10894.0518 1580.8976 0.0000 0.0000 1749.5296 -7560.0417 297.2327 -9309.5714 -7560.0417 297.2327 908.7602 999.6383 30266.2865 908.7602 999.6383
ENERGY: 300000 2.2596 3.7266 0.0783 0.0000 -10798.6747 1445.4058 0.0000 0.0000 1773.3251 -7573.8793 301.2754 -9347.2045 -7554.0334 298.0314 -218.5952 -28.2066 30336.9849 350.0903 433.7610
ENERGY: 600000 0.5312 3.2418 2.5028 0.0000 -10707.1937 1412.6747 0.0000 0.0000 1774.5687 -7513.6744 301.4867 -9288.2431 -7553.6469 298.9819 -157.6023 -62.2269 30432.1982 256.6283 332.1739
ENERGY: 900000 2.4338 2.9946 0.3065 0.0000 -10704.0795 1322.0875 0.0000 0.0000 1810.8401 -7565.4170 307.6490 -9376.2571 -7556.4572 298.9324 -1028.1387 -1050.4684 30288.5713 60.4185 123.4121
ENERGY: 1200000 0.0672 2.0362 0.9794 0.0000 -10740.2399 1364.7264 0.0000 0.0000 1737.1731 -7635.2576 295.1334 -9372.4306 -7550.4085 299.3439 -986.5021 -976.8071 30824.5468 -54.3329 5.9883
ENERGY: 1500000 0.6451 1.4517 1.6433 0.0000 -10831.6635 1525.8764 0.0000 0.0000 1778.4717 -7523.5753 302.1498 -9302.0470 -7543.7024 299.3741 858.7132 929.8300 29974.9063 1.7806 59.6996
TCL: Running FEP window  14: Lambda1 0.65   Lambda2 0.7000000000000001 [dLambda 0.050000000000000044]
TCL: Setting parameter firsttimestep to 0
TCL: Setting parameter alchLambda to 0.65
Info: NONBONDED TABLE R-SQUARED SPACING: 0.0625
Info: NONBONDED TABLE SIZE: 705 POINTS
TCL: Setting parameter alchLambda2 to 0.7000000000000001
Info: NONBONDED TABLE R-SQUARED SPACING: 0.0625
Info: NONBONDED TABLE SIZE: 705 POINTS
TCL: Running for 1500000 steps
ETITLE: TS BOND ANGLE DIHED IMPRP ELECT VDW BOUNDARY MISC KINETIC TOTAL TEMP POTENTIAL TOTALAVG TEMPAVG PRESSURE GPRESSURE VOLUME PRESSAVG GPRESSAVG
ENERGY: 0 0.6451 1.4517 1.6433 0.0000 -10832.0653 1526.3493 0.0000 0.0000 1777.6232 -7524.3528 302.0056 -9301.9760 -7524.3528 302.0056 857.4681 940.0500 29974.9063 857.4681 940.0500
ENERGY: 300000 0.3030 2.1077 1.6529 0.0000 -10746.1838 1425.0381 0.0000 0.0000 1782.2885 -7534.7936 302.7982 -9317.0821 -7533.2050 301.4100 -565.1579 -478.8133 31125.7727 293.5116 354.9699
ENERGY: 600000 0.1894 0.9839 0.8053 0.0000 -10993.2916 1521.6142 0.0000 0.0000 1777.4368 -7692.2621 301.9740 -9469.6989 -7552.6112 300.4272 257.2391 328.3019 29893.1482 233.6919 284.3903
ENERGY: 900000 0.7948 2.2948 0.5151 0.0000 -10662.8560 1391.4320 0.0000 0.0000 1761.8974 -7505.9220 299.3339 -9267.8194 -7546.0017 300.5274 -325.3905 -289.8824 30381.3895 131.4608 173.5067
ENERGY: 1200000 1.3946 3.8245 0.4219 0.0000 -10705.9608 1420.3122 0.0000 0.0000 1750.1291 -7529.8785 297.3346 -9280.0077 -7537.2529 300.5806 -303.3560 -320.4446 30667.9805 57.6318 101.6855
ENERGY: 1500000 1.3689 3.2292 0.2939 0.0000 -10780.5431 1434.7174 0.0000 0.0000 1764.4617 -7576.4720 299.7696 -9340.9337 -7538.3599 300.3191 -495.8119 -424.9269 31309.5904 -8.5513 39.1642
TCL: Running FEP window  15: Lambda1 0.7000000000000001 Lambda2 0.7500000000000001 [dLambda 0.050000000000000044]
TCL: Setting parameter firsttimestep to 0
TCL: Setting parameter alchLambda to 0.7000000000000001
Info: NONBONDED TABLE R-SQUARED SPACING: 0.0625
Info: NONBONDED TABLE SIZE: 705 POINTS
TCL: Setting parameter alchLambda2 to 0.7500000000000001
Info: NONBONDED TABLE R-SQUARED SPACING: 0.0625
Info: NONBONDED TABLE SIZE: 705 POINTS
TCL: Running for 1500000 steps
ETITLE: TS BOND ANGLE DIHED IMPRP ELECT VDW BOUNDARY MISC KINETIC TOTAL TEMP POTENTIAL TOTALAVG TEMPAVG PRESSURE GPRESSURE VOLUME PRESSAVG GPRESSAVG
ENERGY: 0 1.3689 3.2292 0.2939 0.0000 -10780.9791 1434.4870 0.0000 0.0000 1763.5987 -7578.0014 299.6230 -9341.6001 -7578.0014 299.6230 -493.4507 -424.8787 31309.5904 -493.4507 -424.8787
ENERGY: 300000 1.4734 5.3269 0.5520 0.0000 -10806.3575 1457.0771 0.0000 0.0000 1788.0717 -7553.8563 303.7808 -9341.9281 -7559.9598 299.3219 14.6739 107.2368 30591.6034 -89.0657 -2.8658
ENERGY: 600000 0.2668 2.4685 0.3278 0.0000 -10838.8643 1518.5260 0.0000 0.0000 1763.3330 -7553.9422 299.5778 -9317.2752 -7550.0328 299.1953 302.2105 412.6711 30800.2245 -27.7715 51.8196
ENERGY: 900000 1.0294 1.4011 1.2768 0.0000 -10828.0766 1455.5759 0.0000 0.0000 1763.6974 -7605.0960 299.6397 -9368.7934 -7542.3941 300.4238 12.9311 54.3824 30200.6043 -73.8991 -6.4210
ENERGY: 1200000 0.4087 4.2507 0.8212 0.0000 -10827.7008 1540.1225 0.0000 0.0000 1803.2049 -7478.8928 306.3518 -9282.0977 -7548.5853 300.2988 1039.6019 1042.7158 30130.9071 3.9981 67.3461
ENERGY: 1500000 0.2796 3.1212 0.2531 0.0000 -10710.6889 1487.0990 0.0000 0.0000 1732.6948 -7487.2411 294.3726 -9219.9359 -7536.6267 300.5535 432.7812 493.2316 30823.7397 -30.2557 30.9764
TCL: Running FEP window  16: Lambda1 0.7500000000000001 Lambda2 0.8000000000000002 [dLambda 0.050000000000000044]
TCL: Setting parameter firsttimestep to 0
TCL: Setting parameter alchLambda to 0.7500000000000001
Info: NONBONDED TABLE R-SQUARED SPACING: 0.0625
Info: NONBONDED TABLE SIZE: 705 POINTS
TCL: Setting parameter alchLambda2 to 0.8000000000000002
Info: NONBONDED TABLE R-SQUARED SPACING: 0.0625
Info: NONBONDED TABLE SIZE: 705 POINTS
TCL: Running for 1500000 steps
ETITLE: TS BOND ANGLE DIHED IMPRP ELECT VDW BOUNDARY MISC KINETIC TOTAL TEMP POTENTIAL TOTALAVG TEMPAVG PRESSURE GPRESSURE VOLUME PRESSAVG GPRESSAVG
ENERGY: 0 0.2796 3.1212 0.2531 0.0000 -10711.2999 1487.0735 0.0000 0.0000 1731.8249 -7488.7475 294.2248 -9220.5724 -7488.7475 294.2248 422.5397 496.8643 30823.7397 422.5397 496.8643
ENERGY: 300000 0.4200 4.3748 1.2705 0.0000 -10688.4889 1373.3180 0.0000 0.0000 1725.6324 -7583.4732 293.1728 -9309.1056 -7545.3403 296.5930 -641.9627 -582.3244 30376.6716 -94.8406 -21.1610
ENERGY: 600000 0.6743 1.8021 3.3642 0.0000 -10655.9244 1367.1026 0.0000 0.0000 1816.9944 -7465.9869 308.6945 -9282.9812 -7534.5873 300.1436 -376.7835 -377.1703 30055.1917 -223.9323 -172.5736
ENERGY: 900000 0.5753 0.8695 0.5396 0.0000 -10769.1671 1444.9333 0.0000 0.0000 1735.1582 -7587.0912 294.7911 -9322.2495 -7543.1567 298.9915 65.3397 130.7194 30140.2941 -149.3273 -101.7382
ENERGY: 1200000 1.8634 2.7433 1.9026 0.0000 -10540.5062 1349.7852 0.0000 0.0000 1750.3710 -7433.8408 297.3757 -9184.2118 -7538.7415 298.4844 -583.4315 -493.0204 30768.0592 -84.6198 -34.6492
ENERGY: 1500000 0.9577 2.8858 0.5401 0.0000 -10892.8254 1471.9211 0.0000 0.0000 1745.2845 -7671.2362 296.5115 -9416.5207 -7548.9221 298.0574 -227.4367 -108.8442 30302.2109 -108.1432 -53.4233
TCL: Running FEP window  17: Lambda1 0.8000000000000002 Lambda2 0.8500000000000002 [dLambda 0.050000000000000044]
TCL: Setting parameter firsttimestep to 0
TCL: Setting parameter alchLambda to 0.8000000000000002
Info: NONBONDED TABLE R-SQUARED SPACING: 0.0625
Info: NONBONDED TABLE SIZE: 705 POINTS
TCL: Setting parameter alchLambda2 to 0.8500000000000002
Info: NONBONDED TABLE R-SQUARED SPACING: 0.0625
Info: NONBONDED TABLE SIZE: 705 POINTS
TCL: Running for 1500000 steps
ETITLE: TS BOND ANGLE DIHED IMPRP ELECT VDW BOUNDARY MISC KINETIC TOTAL TEMP POTENTIAL TOTALAVG TEMPAVG PRESSURE GPRESSURE VOLUME PRESSAVG GPRESSAVG
ENERGY: 0 0.9577 2.8858 0.5401 0.0000 -10893.7954 1471.8056 0.0000 0.0000 1744.3709 -7673.2352 296.3563 -9417.6061 -7673.2352 296.3563 -180.9479 -107.1162 30302.2109 -180.9479 -107.1162
ENERGY: 300000 0.9956 4.5242 0.7938 0.0000 -10596.9518 1323.4792 0.0000 0.0000 1796.8648 -7470.2941 305.2747 -9267.1589 -7563.3661 299.3490 -899.7584 -867.0706 31019.2420 42.9508 113.8520
ENERGY: 600000 0.1116 1.3017 0.0203 0.0000 -10839.2343 1496.7360 0.0000 0.0000 1733.8839 -7607.1808 294.5746 -9341.0647 -7566.2861 297.1955 35.7468 161.2505 30454.2105 93.4816 182.2164
ENERGY: 900000 1.9125 2.8794 0.7926 0.0000 -10801.8825 1519.0527 0.0000 0.0000 1801.4921 -7475.7532 306.0608 -9277.2453 -7559.0492 298.6200 646.5774 721.8802 30339.2838 165.2456 240.8318
ENERGY: 1200000 0.9140 1.6627 0.6504 0.0000 -10683.5509 1370.7270 0.0000 0.0000 1768.8976 -7540.6993 300.5232 -9309.5969 -7551.2153 299.7143 -710.3868 -577.2145 30331.4285 36.7607 122.0850
ENERGY: 1500000 3.4264 1.1908 0.8910 0.0000 -10695.2613 1432.5162 0.0000 0.0000 1753.3707 -7503.8661 297.8853 -9257.2368 -7545.4477 300.0499 -249.7065 -124.5233 30489.1021 21.4968 99.2792
TCL: Running FEP window  18: Lambda1 0.8500000000000002 Lambda2 0.9000000000000002 [dLambda 0.050000000000000044]
TCL: Setting parameter firsttimestep to 0
TCL: Setting parameter alchLambda to 0.8500000000000002
Info: NONBONDED TABLE R-SQUARED SPACING: 0.0625
Info: NONBONDED TABLE SIZE: 705 POINTS
TCL: Setting parameter alchLambda2 to 0.9000000000000002
Info: NONBONDED TABLE R-SQUARED SPACING: 0.0625
Info: NONBONDED TABLE SIZE: 705 POINTS
TCL: Running for 1500000 steps
ETITLE: TS BOND ANGLE DIHED IMPRP ELECT VDW BOUNDARY MISC KINETIC TOTAL TEMP POTENTIAL TOTALAVG TEMPAVG PRESSURE GPRESSURE VOLUME PRESSAVG GPRESSAVG
ENERGY: 0 3.4264 1.1908 0.8910 0.0000 -10697.2029 1435.2588 0.0000 0.0000 1752.5063 -7503.9295 297.7384 -9256.4358 -7503.9295 297.7384 -165.8953 -94.6918 30489.1021 -165.8953 -94.6918
ENERGY: 300000 0.4059 1.8162 0.2178 0.0000 -10829.7735 1483.8071 0.0000 0.0000 1737.7874 -7605.7391 295.2378 -9343.5265 -7564.9497 296.5332 235.3677 273.5949 30405.0169 140.8246 217.7542
ENERGY: 600000 0.2751 1.0574 0.0905 0.0000 -10889.3429 1534.3418 0.0000 0.0000 1765.3628 -7588.2153 299.9227 -9353.5781 -7573.8803 297.4548 772.9247 846.8277 29884.9757 311.3327 384.7923
ENERGY: 900000 2.0439 1.4345 1.0509 0.0000 -10611.1258 1336.0838 0.0000 0.0000 1780.7912 -7489.7215 302.5439 -9270.5127 -7574.3010 297.2246 -762.0962 -725.8612 30723.2844 73.8300 140.4773
ENERGY: 1200000 0.6324 1.0860 0.0519 0.0000 -10707.2479 1460.7481 0.0000 0.0000 1788.3577 -7456.3718 303.8293 -9244.7295 -7560.9587 298.1677 178.6635 228.7528 30578.5027 157.8440 215.8174
ENERGY: 1500000 1.6932 1.7106 0.0512 0.0000 -10764.2557 1457.1987 0.0000 0.0000 1765.1825 -7538.4195 299.8920 -9303.6020 -7570.6581 297.4426 221.0816 275.5036 30041.8409 51.8813 112.6170
TCL: Running FEP window  19: Lambda1 0.9000000000000002 Lambda2 0.9500000000000003 [dLambda 0.050000000000000044]
TCL: Setting parameter firsttimestep to 0
TCL: Setting parameter alchLambda to 0.9000000000000002
Info: NONBONDED TABLE R-SQUARED SPACING: 0.0625
Info: NONBONDED TABLE SIZE: 705 POINTS
TCL: Setting parameter alchLambda2 to 0.9500000000000003
Info: NONBONDED TABLE R-SQUARED SPACING: 0.0625
Info: NONBONDED TABLE SIZE: 705 POINTS
TCL: Running for 1500000 steps
ETITLE: TS BOND ANGLE DIHED IMPRP ELECT VDW BOUNDARY MISC KINETIC TOTAL TEMP POTENTIAL TOTALAVG TEMPAVG PRESSURE GPRESSURE VOLUME PRESSAVG GPRESSAVG
ENERGY: 0 1.6932 1.7106 0.0512 0.0000 -10765.0977 1457.4125 0.0000 0.0000 1764.2712 -7539.9590 299.7372 -9304.2301 -7539.9590 299.7372 210.4530 284.1939 30041.8409 210.4530 284.1939
ENERGY: 300000 0.9288 1.7686 0.3905 0.0000 -10687.0516 1360.6062 0.0000 0.0000 1791.6283 -7531.7293 304.3850 -9323.3576 -7548.4070 302.6244 -894.1058 -894.5806 30937.1078 -224.6473 -158.2295
ENERGY: 600000 1.4642 2.6636 0.5440 0.0000 -10809.6931 1537.7354 0.0000 0.0000 1778.0440 -7489.2419 302.0771 -9267.2859 -7502.7969 303.6607 825.1442 874.5647 30415.2832 -121.9238 -50.6228
ENERGY: 900000 0.4076 5.8643 1.0520 0.0000 -10869.2934 1465.2299 0.0000 0.0000 1781.0825 -7615.6571 302.5933 -9396.7397 -7531.7985 301.6347 -197.0519 -145.2456 30373.9659 -177.1904 -108.1153
ENERGY: 1200000 0.7472 2.7449 0.7867 0.0000 -10821.5443 1542.4624 0.0000 0.0000 1797.6169 -7477.1862 305.4024 -9274.8031 -7535.4605 300.8143 901.8166 981.9622 30425.9627 -122.2482 -53.4716
ENERGY: 1500000 1.7280 5.2048 0.6892 0.0000 -10638.5748 1338.4706 0.0000 0.0000 1783.0821 -7509.4001 302.9331 -9292.4822 -7532.3172 301.0921 -855.6286 -741.8273 30469.9006 -248.2745 -174.3560
TCL: Running FEP window  20: Lambda1 0.9500000000000003 Lambda2 1.0    [dLambda 0.04999999999999971]
TCL: Setting parameter firsttimestep to 0
TCL: Setting parameter alchLambda to 0.9500000000000003
Info: NONBONDED TABLE R-SQUARED SPACING: 0.0625
Info: NONBONDED TABLE SIZE: 705 POINTS
TCL: Setting parameter alchLambda2 to 1.0
Info: NONBONDED TABLE R-SQUARED SPACING: 0.0625
Info: NONBONDED TABLE SIZE: 705 POINTS
TCL: Running for 1500000 steps
ETITLE: TS BOND ANGLE DIHED IMPRP ELECT VDW BOUNDARY MISC KINETIC TOTAL TEMP POTENTIAL TOTALAVG TEMPAVG PRESSURE GPRESSURE VOLUME PRESSAVG GPRESSAVG
ENERGY: 0 1.7280 5.2048 0.6892 0.0000 -10639.7030 1338.7522 0.0000 0.0000 1782.2070 -7511.1218 302.7844 -9293.3288 -7511.1218 302.7844 -811.2834 -732.2015 30469.9006 -811.2834 -732.2015
ENERGY: 300000 0.3817 2.9717 0.4557 0.0000 -10807.5296 1463.6306 0.0000 0.0000 1752.1514 -7587.9385 297.6782 -9340.0899 -7549.0687 301.4388 149.3279 227.6592 30450.0585 -224.1336 -144.3643
ENERGY: 600000 2.0451 4.3891 0.2721 0.0000 -10775.5086 1469.0912 0.0000 0.0000 1720.0035 -7579.7077 292.2164 -9299.7112 -7550.0730 300.9711 46.8043 96.9292 30833.0279 -78.9912 -10.8497
ENERGY: 900000 0.5313 3.2475 0.2095 0.0000 -10626.3736 1397.0653 0.0000 0.0000 1798.4579 -7426.8621 305.5453 -9225.3199 -7542.2155 302.5626 74.5475 86.9554 30223.4860 -171.8654 -104.4180
ENERGY: 1200000 0.9522 6.4484 0.8454 0.0000 -10759.6912 1438.8364 0.0000 0.0000 1806.6196 -7505.9891 306.9319 -9312.6087 -7538.0973 301.5956 154.3963 228.1018 30218.0002 -103.6108 -37.1294
ENERGY: 1500000 1.2760 1.1283 1.1045 0.0000 -10639.5340 1345.2665 0.0000 0.0000 1783.5377 -7507.2210 303.0105 -9290.7587 -7542.0605 300.8774 -614.9757 -546.5742 30558.3817 -129.0326 -67.4381
TCL: Exiting due to exit command.
