Info: SIMULATION PARAMETERS:
Info: TIMESTEP               2
Info: NUMBER OF STEPS        0
Info: STEPS PER CYCLE        10
Info: PERIODIC CELL BASIS 1  30.9779 0 0
Info: PERIODIC CELL BASIS 2  0 31.3328 0
Info: PERIODIC CELL BASIS 3  0 0 31.5389
Info: PERIODIC CELL CENTER   0 0 0
Info: WRAPPING WATERS AROUND PERIODIC BOUNDARIES ON OUTPUT.
Info: WRAPPING ALL CLUSTERS AROUND PERIODIC BOUNDARIES ON OUTPUT.
Info: FIRST LDB TIMESTEP     50
Info: LAST LDB TIMESTEP     -1
Info: HOM BACKGROUND SCALING 1
Info: PME BACKGROUND SCALING 1
Info: MIN ATOMS PER PATCH    40
Info: EMPTY PATCH LOAD       40 ATOMS
Info: VELOCITY FILE          mobley_6266306_equil.vel
Info: CENTER OF MASS MOVING INITIALLY? NO
Info: DIELECTRIC             1
Info: EXCLUDE                SCALED ONE-FOUR
Info: 1-4 ELECTROSTATICS SCALED BY 0.833333
Info: MODIFIED 1-4 VDW PARAMETERS WILL BE USED
Info: DCD FILENAME           mobley_6266306_prod.dcd
Info: DCD FREQUENCY          100000
Info: DCD FIRST STEP         100000
Info: DCD FILE WILL CONTAIN UNIT CELL DATA
Info: XST FILENAME           mobley_6266306_prod.xst
Info: XST FREQUENCY          100000
Info: NO VELOCITY DCD OUTPUT
Info: NO FORCE DCD OUTPUT
Info: OUTPUT FILENAME        mobley_6266306_prod
Info: BINARY OUTPUT FILES WILL BE USED
Info: RESTART FILENAME       mobley_6266306_prod.restart
Info: RESTART FREQUENCY      100000
Info: BINARY RESTART FILES WILL BE USED
Info: CUTOFF                 9
Info: PAIRLIST DISTANCE      11
Info: PAIRLIST SHRINK RATE   0.01
Info: PAIRLIST GROW RATE     0.01
Info: PAIRLIST TRIGGER       0.3
Info: PAIRLISTS PER CYCLE    2
Info: PAIRLISTS ENABLED
Info: MARGIN                 2
Info: HYDROGEN GROUP CUTOFF  2.5
Info: PATCH DIMENSION        15.5
Info: ENERGY OUTPUT STEPS    100000
Info: ENERGY EVALUATION STEPS    100000
Info: OUTPUT ENERGY PRECISION 4
Info: CROSSTERM ENERGY INCLUDED IN DIHEDRAL
Info: TIMING OUTPUT STEPS    1000000
Info: PRESSURE OUTPUT STEPS  100000
Info: ALCHEMICAL FEP ON
Info: FEP CURRENT LAMBDA VALUE     0
Info: FEP COMPARISON LAMBDA VALUE  0.05
Info: FEP INTRA-ALCHEMICAL NON-BONDED INTERACTIONS WILL BE RETAINED
Info: FEP INTRA-ALCHEMICAL BONDED INTERACTIONS WILL BE RETAINED
Info: FEP VDW SHIFTING COEFFICIENT 5
Info: FEP ELEC. ACTIVE FOR ANNIHILATED PARTICLES BETWEEN LAMBDA = 0 AND LAMBDA = 0.5
Info: FEP ELEC. ACTIVE FOR EXNIHILATED PARTICLES BETWEEN LAMBDA = 0.5 AND LAMBDA = 1
Info: FEP VDW ACTIVE FOR ANNIHILATED PARTICLES BETWEEN LAMBDA = 0 AND LAMBDA = 1
Info: FEP VDW ACTIVE FOR EXNIHILATED PARTICLES BETWEEN LAMBDA = 0 AND LAMBDA = 1
Info: FEP BOND ACTIVE FOR ANNIHILATED PARTICLES BETWEEN LAMBDA = 1 AND LAMBDA = 1
Info: FEP BOND ACTIVE FOR EXNIHILATED PARTICLES BETWEEN LAMBDA = 0 AND LAMBDA = 0
Info: LANGEVIN DYNAMICS ACTIVE
Info: LANGEVIN TEMPERATURE   300
Info: LANGEVIN USING BBK INTEGRATOR
Info: LANGEVIN DAMPING COEFFICIENT IS 1 INVERSE PS
Info: LANGEVIN DYNAMICS APPLIED TO HYDROGENS
Info: LANGEVIN PISTON PRESSURE CONTROL ACTIVE
Info:        TARGET PRESSURE IS 1.01325 BAR
Info:     OSCILLATION PERIOD IS 50 FS
Info:             DECAY TIME IS 25 FS
Info:     PISTON TEMPERATURE IS 300 K
Info:       PRESSURE CONTROL IS GROUP-BASED
Info:    INITIAL STRAIN RATE IS 0.000372272 0.000372272 0.000372272
Info:       CELL FLUCTUATION IS ISOTROPIC
Info: PARTICLE MESH EWALD (PME) ACTIVE
Info: PME TOLERANCE               1e-06
Info: PME EWALD COEFFICIENT       0.348832
Info: PME INTERPOLATION ORDER     4
Info: PME GRID DIMENSIONS         32 32 32
Info: PME MAXIMUM GRID SPACING    1
Info: PME CALCULATION WILL BE PERFORMED ON GPU
Info: FULL ELECTROSTATIC EVALUATION FREQUENCY      2
Info: USING VERLET I (r-RESPA) MTS SCHEME.
Info: C1 SPLITTING OF LONG RANGE ELECTROSTATICS
Info: PLACING ATOMS IN PATCHES BY HYDROGEN GROUPS
Info: RIGID BONDS TO HYDROGEN : ALL
Info:         ERROR TOLERANCE : 1e-08
Info:          MAX ITERATIONS : 100
Info: RIGID WATER USING SETTLE ALGORITHM
Info: RANDOM NUMBER SEED     1743515836
Info: USE HYDROGEN BONDS?    NO
Info: Using AMBER format force field!
Info: AMBER PARM FILE        mobley_6266306.prmtop
Info: COORDINATE PDB         mobley_6266306.pdb
Info: Exclusions will be read from PARM file!
Info: SCNB (VDW SCALING)     2
Info: USING ARITHMETIC MEAN TO COMBINE L-J SIGMA PARAMETERS
Info: BINARY COORDINATES     mobley_6266306_equil.coor
Info: SUMMARY OF PARAMETERS:
Info: 7 BONDS
Info: 9 ANGLES
Info:   9 HARMONIC
Info:   0 COSINE-BASED
Info: 3 DIHEDRAL
Info: 0 IMPROPER
Info: 0 CROSSTERM
Info: 0 VDW
Info: 28 VDW_PAIRS
Info: 0 NBTHOLE_PAIRS
Info: To read alchdata from file: mobley_6266306.pdb
Info: To read alchflag data from column: 5
Info: STRUCTURE SUMMARY:
Info: 2975 ATOMS
Info: 2975 BONDS
Info: 21 ANGLES
Info: 32 DIHEDRALS
Info: 0 IMPROPERS
Info: 0 CROSSTERMS
Info: 3013 EXCLUSIONS
Info: 2971 RIGID BONDS
Info: ALCH: 0 ATOMS TO DISAPPEAR IN FINAL STATE
Info: ALCH: 11 ATOMS TO APPEAR IN FINAL STATE
Info: 5954 DEGREES OF FREEDOM
Info: 992 HYDROGEN GROUPS
Info: 3 ATOMS IN LARGEST HYDROGEN GROUP
Info: 992 MIGRATION GROUPS
Info: 3 ATOMS IN LARGEST MIGRATION GROUP
Info: TOTAL MASS = 17856.9 amu
Info: TOTAL CHARGE = -4.47035e-08 e
Info: MASS DENSITY = 0.968651 g/cm^3
Info: ATOM DENSITY = 0.0971826 atoms/A^3
Info: ADDED 0 IMPLICIT EXCLUSIONS
Info: NONBONDED TABLE R-SQUARED SPACING: 0.0625
Info: NONBONDED TABLE SIZE: 705 POINTS
Info: REMOVING COM VELOCITY -0.0368139 -0.0827048 0.208141
Info: Use 3D box decompostion in PME FFT.
Info: Updated CUDA force table with 4096 elements.
Info: Updated CUDA LJ table with 7 x 7 elements.
Info: Found 14 unique exclusion lists needing 24 bytes
TCL: Running for 1500000 steps
ETITLE: TS BOND ANGLE DIHED IMPRP ELECT VDW BOUNDARY MISC KINETIC TOTAL TEMP POTENTIAL TOTALAVG TEMPAVG PRESSURE GPRESSURE VOLUME PRESSAVG GPRESSAVG
ENERGY: 0 0.4663 42.4619 10.0385 0.0000 -10733.1565 1391.1515 0.0000 0.0000 1795.5714 -7493.4670 303.5178 -9289.0384 -7493.4670 303.5178 -530.2860 -431.2931 30612.4631 -530.2860 -431.2931
ENERGY: 300000 0.2939 33.0331 11.7570 0.0000 -10940.7507 1552.6999 0.0000 0.0000 1779.7081 -7563.2587 300.8364 -9342.9669 -7532.4945 301.3960 509.7442 636.5584 30279.9069 -167.8229 -40.2757
ENERGY: 600000 2.0064 34.7959 11.1287 0.0000 -10872.3623 1482.6572 0.0000 0.0000 1770.9027 -7570.8713 299.3479 -9341.7740 -7535.9378 301.1167 107.6752 97.4265 30574.4342 -37.7712 54.0681
ENERGY: 900000 0.7946 35.3701 9.4814 0.0000 -10892.8135 1507.6285 0.0000 0.0000 1811.0782 -7528.4606 306.1391 -9339.5388 -7540.6544 299.6253 422.7752 510.0837 30340.9003 -135.1443 -48.2081
ENERGY: 1200000 4.2113 33.8290 9.7952 0.0000 -10651.9583 1409.7120 0.0000 0.0000 1785.9370 -7408.4737 301.8893 -9194.4108 -7520.7763 300.0624 -235.3280 -110.5724 30607.6211 -207.8462 -124.6596
ENERGY: 1500000 1.0969 37.4686 9.4687 0.0000 -10790.0815 1478.5646 0.0000 0.0000 1802.5217 -7460.9611 304.6927 -9263.4828 -7516.2652 300.5289 122.2101 159.3316 30623.2343 -80.4975 -7.7440
TCL: Running FEP window   2: Lambda1 0.05   Lambda2 0.1    [dLambda 0.05  ]
TCL: Setting parameter firsttimestep to 0
TCL: Setting parameter alchLambda to 0.05
Info: NONBONDED TABLE R-SQUARED SPACING: 0.0625
Info: NONBONDED TABLE SIZE: 705 POINTS
TCL: Setting parameter alchLambda2 to 0.1
Info: NONBONDED TABLE R-SQUARED SPACING: 0.0625
Info: NONBONDED TABLE SIZE: 705 POINTS
TCL: Running for 1500000 steps
ETITLE: TS BOND ANGLE DIHED IMPRP ELECT VDW BOUNDARY MISC KINETIC TOTAL TEMP POTENTIAL TOTALAVG TEMPAVG PRESSURE GPRESSURE VOLUME PRESSAVG GPRESSAVG
ENERGY: 0 1.0969 37.4686 9.4687 0.0000 -10790.0824 1479.5259 0.0000 0.0000 1801.6351 -7460.8872 304.5428 -9262.5223 -7460.8872 304.5428 90.2129 161.8616 30623.2343 90.2129 161.8616
ENERGY: 300000 0.1888 32.2672 12.2355 0.0000 -10887.8853 1571.9617 0.0000 0.0000 1815.4550 -7455.7771 306.8789 -9271.2321 -7438.2945 306.9256 1322.6283 1412.5936 29927.0151 450.8072 513.5137
ENERGY: 600000 2.0743 32.7251 12.1466 0.0000 -10690.9019 1414.0723 0.0000 0.0000 1793.1680 -7436.7156 303.1116 -9229.8836 -7455.1757 303.1967 -100.8542 -8.3406 30390.3241 152.5886 214.2040
ENERGY: 900000 1.4115 42.0863 9.0487 0.0000 -10918.4423 1551.3051 0.0000 0.0000 1738.9597 -7575.6311 293.9484 -9314.5908 -7486.8162 301.1649 533.6259 596.0831 30383.2972 116.9777 182.3518
ENERGY: 1200000 1.4713 32.1703 12.2141 0.0000 -10767.5024 1526.0892 0.0000 0.0000 1768.2192 -7427.3382 298.8943 -9195.5575 -7501.7739 300.7718 519.3191 493.7776 31044.9686 145.4921 195.9627
ENERGY: 1500000 3.0761 33.0754 10.8733 0.0000 -10848.7811 1482.7494 0.0000 0.0000 1779.0317 -7539.9751 300.7220 -9319.0068 -7500.1932 300.1382 104.5035 168.9299 30374.3851 101.4265 155.4481
TCL: Running FEP window   3: Lambda1 0.1    Lambda2 0.15000000000000002 [dLambda 0.05000000000000002]
TCL: Setting parameter firsttimestep to 0
TCL: Setting parameter alchLambda to 0.1
Info: NONBONDED TABLE R-SQUARED SPACING: 0.0625
Info: NONBONDED TABLE SIZE: 705 POINTS
TCL: Setting parameter alchLambda2 to 0.15000000000000002
Info: NONBONDED TABLE R-SQUARED SPACING: 0.0625
Info: NONBONDED TABLE SIZE: 705 POINTS
TCL: Running for 1500000 steps
ETITLE: TS BOND ANGLE DIHED IMPRP ELECT VDW BOUNDARY MISC KINETIC TOTAL TEMP POTENTIAL TOTALAVG TEMPAVG PRESSURE GPRESSURE VOLUME PRESSAVG GPRESSAVG
ENERGY: 0 3.0761 33.0754 10.8733 0.0000 -10848.7812 1484.2501 0.0000 0.0000 1778.1708 -7539.3355 300.5765 -9317.5062 -7539.3355 300.5765 86.2497 172.7268 30374.3851 86.2497 172.7268
ENERGY: 300000 0.1049 34.6584 11.7988 0.0000 -10769.9417 1492.6385 0.0000 0.0000 1738.6332 -7492.1078 293.8932 -9230.7410 -7493.2546 300.8420 213.1697 311.7317 30679.8176 159.9978 233.5024
ENERGY: 600000 0.8746 33.5189 11.5896 0.0000 -10824.9005 1513.1206 0.0000 0.0000 1782.1096 -7483.6872 301.2423 -9265.7968 -7492.9970 301.7161 536.4654 606.7192 30369.0014 248.3783 313.7329
ENERGY: 900000 1.7391 31.3291 11.7735 0.0000 -11060.9632 1573.3302 0.0000 0.0000 1815.2248 -7627.5665 306.8400 -9442.7913 -7523.1912 301.5709 831.2432 857.4708 29852.9541 241.2662 298.9942
ENERGY: 1200000 0.8641 32.3293 11.7284 0.0000 -10727.2285 1365.6976 0.0000 0.0000 1799.3062 -7517.3029 304.1492 -9316.6091 -7528.4997 300.6429 -359.8627 -294.0236 30152.4933 132.2505 194.3634
ENERGY: 1500000 0.7361 40.0979 12.2723 0.0000 -10671.4791 1402.8469 0.0000 0.0000 1751.6456 -7463.8803 296.0928 -9215.5259 -7516.2574 300.6859 -389.7573 -358.9361 30773.1538 -5.5434 55.7136
TCL: Running FEP window   4: Lambda1 0.15000000000000002 Lambda2 0.2    [dLambda 0.04999999999999999]
TCL: Setting parameter firsttimestep to 0
TCL: Setting parameter alchLambda to 0.15000000000000002
Info: NONBONDED TABLE R-SQUARED SPACING: 0.0625
Info: NONBONDED TABLE SIZE: 705 POINTS
TCL: Setting parameter alchLambda2 to 0.2
Info: NONBONDED TABLE R-SQUARED SPACING: 0.0625
Info: NONBONDED TABLE SIZE: 705 POINTS
TCL: Running for 1500000 steps
ETITLE: TS BOND ANGLE DIHED IMPRP ELECT VDW BOUNDARY MISC KINETIC TOTAL TEMP POTENTIAL TOTALAVG TEMPAVG PRESSURE GPRESSURE VOLUME PRESSAVG GPRESSAVG
ENERGY: 0 0.7361 40.0979 12.2723 0.0000 -10671.4791 1403.4827 0.0000 0.0000 1750.8086 -7464.0815 295.9513 -9214.8901 -7464.0815 295.9513 -444.7838 -356.1767 30773.1538 -444.7838 -356.1767
ENERGY: 300000 1.2526 36.8651 11.2825 0.0000 -10728.2433 1414.3191 0.0000 0.0000 1784.1059 -7480.4180 301.5798 -9264.5239 -7502.1182 297.7770 -387.0886 -298.2797 30439.6646 -177.9012 -97.3212
ENERGY: 600000 1.4181 34.6513 10.9580 0.0000 -10813.6903 1489.6569 0.0000 0.0000 1788.3880 -7488.6180 302.3036 -9277.0060 -7503.6027 297.0143 271.6818 238.7764 30566.3454 -142.3656 -78.9497
ENERGY: 900000 1.1397 35.9152 10.3882 0.0000 -10789.4185 1498.1679 0.0000 0.0000 1796.8429 -7446.9645 303.7328 -9243.8074 -7502.8101 297.6511 527.3665 509.2717 30558.8570 -19.4601 39.0784
ENERGY: 1200000 1.1581 35.1157 12.1873 0.0000 -10567.9976 1357.3309 0.0000 0.0000 1774.0166 -7388.1889 299.8743 -9162.2055 -7496.0684 298.2391 -494.7678 -422.2636 31113.6405 -72.3116 -14.2543
ENERGY: 1500000 1.7811 32.0342 12.0560 0.0000 -10566.8172 1368.4217 0.0000 0.0000 1735.7593 -7416.7648 293.4074 -9152.5241 -7493.4737 298.5099 -471.8917 -440.7959 31104.4640 -141.2800 -87.4691
TCL: Running FEP window   5: Lambda1 0.2    Lambda2 0.25   [dLambda 0.04999999999999999]
TCL: Setting parameter firsttimestep to 0
TCL: Setting parameter alchLambda to 0.2
Info: NONBONDED TABLE R-SQUARED SPACING: 0.0625
Info: NONBONDED TABLE SIZE: 705 POINTS
TCL: Setting parameter alchLambda2 to 0.25
Info: NONBONDED TABLE R-SQUARED SPACING: 0.0625
Info: NONBONDED TABLE SIZE: 705 POINTS
TCL: Running for 1500000 steps
ETITLE: TS BOND ANGLE DIHED IMPRP ELECT VDW BOUNDARY MISC KINETIC TOTAL TEMP POTENTIAL TOTALAVG TEMPAVG PRESSURE GPRESSURE VOLUME PRESSAVG GPRESSAVG
ENERGY: 0 1.7811 32.0342 12.0560 0.0000 -10566.8157 1368.4592 0.0000 0.0000 1734.8203 -7417.6649 293.2487 -9152.4851 -7417.6649 293.2487 -526.7100 -437.4615 31104.4640 -526.7100 -437.4615
ENERGY: 300000 3.2133 33.3433 11.8234 0.0000 -10810.0091 1485.0162 0.0000 0.0000 1830.5155 -7446.0973 309.4247 -9276.6128 -7495.9318 301.3340 329.0850 424.2481 30306.3403 -6.5373 63.8958
ENERGY: 600000 2.6610 34.1436 10.8684 0.0000 -10764.0534 1414.8417 0.0000 0.0000 1756.4127 -7545.1260 296.8986 -9301.5387 -7514.4855 300.2240 -642.5665 -629.9122 30923.7391 -82.3469 -17.6673
ENERGY: 900000 1.3904 31.4911 12.0893 0.0000 -10725.9530 1389.8974 0.0000 0.0000 1748.3237 -7542.7612 295.5312 -9291.0849 -7530.5380 298.5823 -585.3376 -523.7047 30727.4598 -3.9756 58.9832
ENERGY: 1200000 0.8276 33.5328 9.5037 0.0000 -10880.1757 1501.6299 0.0000 0.0000 1750.8584 -7583.8232 295.9597 -9334.6816 -7534.8646 298.0492 -6.5888 -6.5977 30782.2853 -66.7817 -6.5982
ENERGY: 1500000 0.5526 31.5141 12.3312 0.0000 -10659.2703 1408.7801 0.0000 0.0000 1775.8072 -7430.2850 300.1770 -9206.0922 -7534.6544 298.1790 -44.4612 23.1260 30564.3427 -18.8579 43.2133
TCL: Running FEP window   6: Lambda1 0.25   Lambda2 0.3    [dLambda 0.04999999999999999]
TCL: Setting parameter firsttimestep to 0
TCL: Setting parameter alchLambda to 0.25
Info: NONBONDED TABLE R-SQUARED SPACING: 0.0625
Info: NONBONDED TABLE SIZE: 705 POINTS
TCL: Setting parameter alchLambda2 to 0.3
Info: NONBONDED TABLE R-SQUARED SPACING: 0.0625
Info: NONBONDED TABLE SIZE: 705 POINTS
TCL: Running for 1500000 steps
ETITLE: TS BOND ANGLE DIHED IMPRP ELECT VDW BOUNDARY MISC KINETIC TOTAL TEMP POTENTIAL TOTALAVG TEMPAVG PRESSURE GPRESSURE VOLUME PRESSAVG GPRESSAVG
ENERGY: 0 0.5526 31.5141 12.3312 0.0000 -10659.2714 1409.0514 0.0000 0.0000 1774.9028 -7430.9192 300.0241 -9205.8220 -7430.9192 300.0241 -43.9651 25.6684 30564.3427 -43.9651 25.6684
ENERGY: 300000 2.4732 40.4673 12.0774 0.0000 -10813.3680 1522.1835 0.0000 0.0000 1866.1759 -7369.9905 315.4526 -9236.1665 -7436.0561 306.2098 581.2396 606.5637 30770.3302 16.1312 79.3784
ENERGY: 600000 1.6315 33.5395 11.3999 0.0000 -10886.3889 1470.0958 0.0000 0.0000 1795.0226 -7574.6995 303.4251 -9369.7221 -7471.4172 303.9726 144.5437 238.8544 29954.9926 -66.8326 7.1147
ENERGY: 900000 1.3633 33.8650 12.2004 0.0000 -10740.7891 1433.0946 0.0000 0.0000 1766.4758 -7493.7899 298.5996 -9260.2657 -7473.5204 303.3569 -72.4123 -42.4419 30846.8236 -74.8647 -6.2257
ENERGY: 1200000 0.6469 31.9459 12.0999 0.0000 -10738.8299 1554.2878 0.0000 0.0000 1839.4041 -7300.4453 310.9272 -9139.8494 -7462.6497 304.0491 1245.9969 1314.3592 30543.2150 53.9636 114.1927
ENERGY: 1500000 0.6867 34.2225 12.1787 0.0000 -10814.9236 1458.3785 0.0000 0.0000 1859.0577 -7450.3995 314.2494 -9309.4572 -7463.3493 304.6301 62.5841 157.7359 30542.7136 87.4190 151.3729
TCL: Running FEP window   7: Lambda1 0.3    Lambda2 0.35   [dLambda 0.04999999999999999]
TCL: Setting parameter firsttimestep to 0
TCL: Setting parameter alchLambda to 0.3
Info: NONBONDED TABLE R-SQUARED SPACING: 0.0625
Info: NONBONDED TABLE SIZE: 705 POINTS
TCL: Setting parameter alchLambda2 to 0.35
Info: NONBONDED TABLE R-SQUARED SPACING: 0.0625
Info: NONBONDED TABLE SIZE: 705 POINTS
TCL: Running for 1500000 steps
ETITLE: TS BOND ANGLE DIHED IMPRP ELECT VDW BOUNDARY MISC KINETIC TOTAL TEMP POTENTIAL TOTALAVG TEMPAVG PRESSURE GPRESSURE VOLUME PRESSAVG GPRESSAVG
ENERGY: 0 0.6867 34.2225 12.1787 0.0000 -10814.9219 1458.7107 0.0000 0.0000 1858.1892 -7450.9340 314.1026 -9309.1233 -7450.9340 314.1026 85.5586 161.6373 30542.7136 85.5586 161.6373
ENERGY: 300000 1.0322 31.8187 11.3970 0.0000 -10846.8786 1482.2174 0.0000 0.0000 1824.5145 -7495.8988 308.4103 -9320.4134 -7542.4235 302.0413 390.6280 403.7077 30263.1387 143.0357 180.7698
ENERGY: 600000 3.0872 37.9986 11.7259 0.0000 -10664.9498 1427.3852 0.0000 0.0000 1781.0663 -7403.6866 301.0659 -9184.7529 -7492.4705 302.0034 -38.7247 -21.0488 30870.3928 -55.8248 -17.6519
ENERGY: 900000 0.7400 34.0105 11.3179 0.0000 -10839.9960 1523.4983 0.0000 0.0000 1766.9669 -7503.4624 298.6826 -9270.4293 -7508.6566 299.9095 694.1916 797.9986 30145.8431 83.6235 137.8811
ENERGY: 1200000 3.3441 31.5844 12.1115 0.0000 -10744.6867 1411.0855 0.0000 0.0000 1799.8612 -7486.7000 304.2430 -9286.5612 -7506.0052 299.8358 -130.7020 -7.2070 30242.9945 141.1674 200.1042
ENERGY: 1500000 0.8421 31.9193 12.5632 0.0000 -10923.6767 1563.3776 0.0000 0.0000 1823.7718 -7491.2027 308.2848 -9314.9745 -7508.9029 300.2903 980.9145 1007.8051 30131.8803 213.5202 273.7030
TCL: Running FEP window   8: Lambda1 0.35   Lambda2 0.39999999999999997 [dLambda 0.04999999999999999]
TCL: Setting parameter firsttimestep to 0
TCL: Setting parameter alchLambda to 0.35
Info: NONBONDED TABLE R-SQUARED SPACING: 0.0625
Info: NONBONDED TABLE SIZE: 705 POINTS
TCL: Setting parameter alchLambda2 to 0.39999999999999997
Info: NONBONDED TABLE R-SQUARED SPACING: 0.0625
Info: NONBONDED TABLE SIZE: 705 POINTS
TCL: Running for 1500000 steps
ETITLE: TS BOND ANGLE DIHED IMPRP ELECT VDW BOUNDARY MISC KINETIC TOTAL TEMP POTENTIAL TOTALAVG TEMPAVG PRESSURE GPRESSURE VOLUME PRESSAVG GPRESSAVG
ENERGY: 0 0.8421 31.9193 12.5632 0.0000 -10923.6785 1563.0388 0.0000 0.0000 1822.8741 -7492.4410 308.1330 -9315.3152 -7492.4410 308.1330 926.5274 1008.5199 30131.8803 926.5274 1008.5199
ENERGY: 300000 1.3470 34.1466 11.3127 0.0000 -10711.4398 1427.3154 0.0000 0.0000 1726.4091 -7510.9089 291.8269 -9237.3180 -7469.9115 302.8432 -330.7954 -268.6135 30904.5525 -176.4570 -100.9883
ENERGY: 600000 0.7361 31.5804 11.9938 0.0000 -10940.4726 1461.9710 0.0000 0.0000 1777.1869 -7657.0044 300.4102 -9434.1913 -7509.2243 302.5436 -478.8522 -360.5667 30635.9205 -171.5815 -98.1014
ENERGY: 900000 0.4295 36.5479 12.0942 0.0000 -10787.8983 1431.5719 0.0000 0.0000 1737.6336 -7569.6212 293.7242 -9307.2548 -7511.3551 300.9758 -296.4290 -192.8059 30724.1279 -293.9572 -205.4962
ENERGY: 1200000 0.4117 39.3828 8.3788 0.0000 -10868.6158 1425.3353 0.0000 0.0000 1759.3746 -7635.7327 297.3993 -9395.1073 -7515.2463 300.4416 -684.8587 -622.8230 30796.1858 -285.5831 -202.8938
ENERGY: 1500000 0.7169 31.2729 11.8623 0.0000 -10762.8543 1496.9384 0.0000 0.0000 1815.0051 -7407.0586 306.8029 -9222.0637 -7508.4004 300.7433 280.3144 381.1707 31005.2487 -208.1381 -124.2952
TCL: Running FEP window   9: Lambda1 0.39999999999999997 Lambda2 0.44999999999999996 [dLambda 0.04999999999999999]
TCL: Setting parameter firsttimestep to 0
TCL: Setting parameter alchLambda to 0.39999999999999997
Info: NONBONDED TABLE R-SQUARED SPACING: 0.0625
Info: NONBONDED TABLE SIZE: 705 POINTS
TCL: Setting parameter alchLambda2 to 0.44999999999999996
Info: NONBONDED TABLE R-SQUARED SPACING: 0.0625
Info: NONBONDED TABLE SIZE: 705 POINTS
TCL: Running for 1500000 steps
ETITLE: TS BOND ANGLE DIHED IMPRP ELECT VDW BOUNDARY MISC KINETIC TOTAL TEMP POTENTIAL TOTALAVG TEMPAVG PRESSURE GPRESSURE VOLUME PRESSAVG GPRESSAVG
ENERGY: 0 0.7169 31.2729 11.8623 0.0000 -10762.8548 1496.7567 0.0000 0.0000 1814.1498 -7408.0961 306.6583 -9222.2459 -7408.0961 306.6583 284.8549 380.1742 31005.2487 284.8549 380.1742
ENERGY: 300000 0.7119 34.6739 10.4105 0.0000 -10718.1494 1425.4906 0.0000 0.0000 1722.6490 -7524.2135 291.1913 -9246.8625 -7444.5790 301.5331 -107.3729 -74.1981 30537.3061 114.8999 196.8228
ENERGY: 600000 1.6486 31.6672 11.9558 0.0000 -10906.7923 1532.4073 0.0000 0.0000 1787.3725 -7541.7409 302.1319 -9329.1134 -7477.5380 300.1862 539.1408 595.0308 30458.1327 224.6490 295.7619
ENERGY: 900000 1.4858 30.3197 12.2292 0.0000 -10706.8234 1431.4532 0.0000 0.0000 1821.2102 -7410.1253 307.8518 -9231.3356 -7488.4058 300.4910 -98.1509 -71.2430 30892.7263 174.5944 237.9751
ENERGY: 1200000 2.5266 35.1910 11.6935 0.0000 -10863.4563 1428.7668 0.0000 0.0000 1799.6339 -7585.6444 304.2046 -9385.2784 -7503.6852 299.9660 -546.4128 -433.3454 30349.6198 36.2290 99.3478
ENERGY: 1500000 1.0564 36.4659 10.8461 0.0000 -10730.7305 1423.0595 0.0000 0.0000 1729.2434 -7530.0591 292.3060 -9259.3025 -7515.6822 298.8062 -169.8944 -144.6852 30414.3471 -12.3451 47.1594
TCL: Running FEP window  10: Lambda1 0.44999999999999996 Lambda2 0.49999999999999994 [dLambda 0.04999999999999999]
TCL: Setting parameter firsttimestep to 0
TCL: Setting parameter alchLambda to 0.44999999999999996
Info: NONBONDED TABLE R-SQUARED SPACING: 0.0625
Info: NONBONDED TABLE SIZE: 705 POINTS
TCL: Setting parameter alchLambda2 to 0.49999999999999994
Info: NONBONDED TABLE R-SQUARED SPACING: 0.0625
Info: NONBONDED TABLE SIZE: 705 POINTS
TCL: Running for 1500000 steps
ETITLE: TS BOND ANGLE DIHED IMPRP ELECT VDW BOUNDARY MISC KINETIC TOTAL TEMP POTENTIAL TOTALAVG TEMPAVG PRESSURE GPRESSURE VOLUME PRESSAVG GPRESSAVG
ENERGY: 0 1.0564 36.4659 10.8461 0.0000 -10730.7307 1422.9389 0.0000 0.0000 1728.3374 -7531.0858 292.1528 -9259.4233 -7531.0858 292.1528 -212.7728 -144.2976 30414.3471 -212.7728 -144.2976
ENERGY: 300000 1.0857 32.5267 11.0090 0.0000 -10777.3484 1464.9362 0.0000 0.0000 1759.1487 -7508.6422 297.3611 -9267.7908 -7534.1896 295.2508 180.0358 208.0058 30483.1614 56.0980 94.8311
ENERGY: 600000 0.3632 39.9683 11.1965 0.0000 -10744.7567 1405.2021 0.0000 0.0000 1780.4339 -7507.5927 300.9591 -9288.0266 -7524.7606 295.9502 -398.9995 -390.1175 30911.1742 -33.2741 10.4017
ENERGY: 900000 1.1877 32.4803 10.7646 0.0000 -10852.1196 1492.6556 0.0000 0.0000 1773.7224 -7541.3090 299.8246 -9315.0314 -7509.9351 297.9245 86.1722 126.2035 30747.9917 -17.7698 34.1780
ENERGY: 1200000 1.3026 32.3271 12.0487 0.0000 -10845.9605 1530.6051 0.0000 0.0000 1769.7872 -7499.8897 299.1594 -9269.6770 -7518.1064 297.2711 660.2226 725.3967 30609.8932 67.5686 122.5982
ENERGY: 1500000 1.8583 32.3700 12.2983 0.0000 -10701.9398 1391.9568 0.0000 0.0000 1748.3953 -7515.0612 295.5433 -9263.4565 -7514.8494 297.0654 -383.6989 -250.7491 30345.4726 -4.3966 50.9479
TCL: Running FEP window  11: Lambda1 0.49999999999999994 Lambda2 0.5499999999999999 [dLambda 0.04999999999999999]
TCL: Setting parameter firsttimestep to 0
TCL: Setting parameter alchLambda to 0.49999999999999994
Info: NONBONDED TABLE R-SQUARED SPACING: 0.0625
Info: NONBONDED TABLE SIZE: 705 POINTS
TCL: Setting parameter alchLambda2 to 0.5499999999999999
Info: NONBONDED TABLE R-SQUARED SPACING: 0.0625
Info: NONBONDED TABLE SIZE: 705 POINTS
TCL: Running for 1500000 steps
ETITLE: TS BOND ANGLE DIHED IMPRP ELECT VDW BOUNDARY MISC KINETIC TOTAL TEMP POTENTIAL TOTALAVG TEMPAVG PRESSURE GPRESSURE VOLUME PRESSAVG GPRESSAVG
ENERGY: 0 1.8583 32.3700 12.2983 0.0000 -10701.9401 1391.9132 0.0000 0.0000 1747.5316 -7515.9687 295.3973 -9263.5003 -7515.9687 295.3973 -330.3543 -245.9679 30345.4726 -330.3543 -245.9679
ENERGY: 300000 1.5529 32.3073 12.4259 0.0000 -10750.2360 1423.8985 0.0000 0.0000 1779.2847 -7500.7667 300.7648 -9280.0514 -7538.5183 295.2940 -124.4365 -64.2017 30475.5226 28.7860 90.4543
ENERGY: 600000 1.8053 35.2595 11.6074 0.0000 -10783.7585 1410.9806 0.0000 0.0000 1790.7411 -7533.3647 302.7013 -9324.1058 -7508.7854 297.8892 -228.6629 -175.8678 30180.9098 14.5456 66.0755
ENERGY: 900000 2.7934 39.5152 7.9864 0.0000 -10822.8004 1417.5464 0.0000 0.0000 1783.6762 -7571.2828 301.5071 -9354.9590 -7514.0417 298.4780 -313.8860 -268.0239 30037.3886 59.5907 102.7757
ENERGY: 1200000 0.9271 35.0917 12.2006 0.0000 -10736.5641 1402.7679 0.0000 0.0000 1727.7847 -7557.7919 292.0594 -9285.5767 -7520.2773 297.6095 -630.2204 -597.8434 30896.6132 -10.8895 31.2068
ENERGY: 1500000 0.9727 35.7911 10.6752 0.0000 -10693.9396 1395.1774 0.0000 0.0000 1792.7355 -7458.5878 303.0385 -9251.3233 -7517.8461 298.2475 -395.3442 -331.6943 30611.6879 -5.9212 39.7950
TCL: Running FEP window  12: Lambda1 0.5499999999999999 Lambda2 0.6    [dLambda 0.050000000000000044]
TCL: Setting parameter firsttimestep to 0
TCL: Setting parameter alchLambda to 0.5499999999999999
Info: NONBONDED TABLE R-SQUARED SPACING: 0.0625
Info: NONBONDED TABLE SIZE: 705 POINTS
TCL: Setting parameter alchLambda2 to 0.6
Info: NONBONDED TABLE R-SQUARED SPACING: 0.0625
Info: NONBONDED TABLE SIZE: 705 POINTS
TCL: Running for 1500000 steps
ETITLE: TS BOND ANGLE DIHED IMPRP ELECT VDW BOUNDARY MISC KINETIC TOTAL TEMP POTENTIAL TOTALAVG TEMPAVG PRESSURE GPRESSURE VOLUME PRESSAVG GPRESSAVG
ENERGY: 0 0.9727 35.7911 10.6752 0.0000 -10694.3496 1395.3809 0.0000 0.0000 1791.8616 -7459.6682 302.8908 -9251.5298 -7459.6682 302.8908 -419.1977 -326.8369 30611.6879 -419.1977 -326.8369
ENERGY: 300000 0.9429 35.4569 9.1320 0.0000 -10813.6489 1502.5271 0.0000 0.0000 1765.6569 -7499.9331 298.4612 -9265.5900 -7534.0471 299.9927 361.3715 466.4792 30764.1898 -32.4370 46.7048
ENERGY: 600000 2.4258 38.8738 12.2247 0.0000 -10754.8299 1466.6993 0.0000 0.0000 1789.4569 -7445.1494 302.4843 -9234.6063 -7544.6504 296.7289 51.4342 90.8875 30957.0571 52.7625 115.0205
ENERGY: 900000 1.8915 36.4143 11.3288 0.0000 -10786.8987 1435.5916 0.0000 0.0000 1797.7568 -7503.9158 303.8873 -9301.6727 -7530.2180 298.8596 184.9344 177.9104 30259.8835 48.4427 107.6722
ENERGY: 1200000 1.5130 32.3563 11.6817 0.0000 -10762.1451 1438.5682 0.0000 0.0000 1817.4695 -7460.5565 307.2194 -9278.0260 -7519.7048 299.8657 -157.9410 -64.7091 30800.6539 -14.4761 51.1562
ENERGY: 1500000 1.1715 33.7434 11.2813 0.0000 -10904.1063 1530.8908 0.0000 0.0000 1784.7712 -7542.2481 301.6922 -9327.0193 -7519.7612 300.8951 515.0208 574.6418 30525.1626 35.7753 101.0106
TCL: Running FEP window  13: Lambda1 0.6    Lambda2 0.65   [dLambda 0.050000000000000044]
TCL: Setting parameter firsttimestep to 0
TCL: Setting parameter alchLambda to 0.6
Info: NONBONDED TABLE R-SQUARED SPACING: 0.0625
Info: NONBONDED TABLE SIZE: 705 POINTS
TCL: Setting parameter alchLambda2 to 0.65
Info: NONBONDED TABLE R-SQUARED SPACING: 0.0625
Info: NONBONDED TABLE SIZE: 705 POINTS
TCL: Running for 1500000 steps
ETITLE: TS BOND ANGLE DIHED IMPRP ELECT VDW BOUNDARY MISC KINETIC TOTAL TEMP POTENTIAL TOTALAVG TEMPAVG PRESSURE GPRESSURE VOLUME PRESSAVG GPRESSAVG
ENERGY: 0 1.1715 33.7434 11.2813 0.0000 -10903.9928 1530.7013 0.0000 0.0000 1783.8868 -7543.2085 301.5427 -9327.0953 -7543.2085 301.5427 497.8156 579.8083 30525.1626 497.8156 579.8083
ENERGY: 300000 2.3021 30.1116 12.3495 0.0000 -10641.8045 1408.9652 0.0000 0.0000 1847.1589 -7340.9172 312.2380 -9188.0761 -7518.9911 299.5116 -121.8841 -38.4421 30840.6891 137.3684 191.0626
ENERGY: 600000 0.5376 35.6558 10.6920 0.0000 -10754.3499 1416.3764 0.0000 0.0000 1786.1703 -7504.9178 301.9287 -9291.0881 -7521.9982 299.1775 -24.5297 73.5390 30167.9440 126.4279 188.7346
ENERGY: 900000 0.7690 35.6768 11.3302 0.0000 -10655.7407 1415.5197 0.0000 0.0000 1752.5042 -7439.9409 296.2379 -9192.4450 -7509.7831 298.3913 -178.0578 -91.5064 30803.6659 52.1713 104.4317
ENERGY: 1200000 1.5769 31.8401 11.7545 0.0000 -10967.6549 1628.2862 0.0000 0.0000 1801.0065 -7493.1906 304.4366 -9294.1972 -7501.8093 299.0907 1632.7554 1674.5468 30045.6107 87.6367 147.2087
ENERGY: 1500000 1.2059 33.4399 12.2605 0.0000 -10850.1416 1458.1809 0.0000 0.0000 1816.0431 -7529.0114 306.9783 -9345.0545 -7515.6948 299.3807 5.0490 73.6595 30271.0278 107.5886 168.7923
TCL: Running FEP window  14: Lambda1 0.65   Lambda2 0.7000000000000001 [dLambda 0.050000000000000044]
TCL: Setting parameter firsttimestep to 0
TCL: Setting parameter alchLambda to 0.65
Info: NONBONDED TABLE R-SQUARED SPACING: 0.0625
Info: NONBONDED TABLE SIZE: 705 POINTS
TCL: Setting parameter alchLambda2 to 0.7000000000000001
Info: NONBONDED TABLE R-SQUARED SPACING: 0.0625
Info: NONBONDED TABLE SIZE: 705 POINTS
TCL: Running for 1500000 steps
ETITLE: TS BOND ANGLE DIHED IMPRP ELECT VDW BOUNDARY MISC KINETIC TOTAL TEMP POTENTIAL TOTALAVG TEMPAVG PRESSURE GPRESSURE VOLUME PRESSAVG GPRESSAVG
ENERGY: 0 1.2059 33.4399 12.2605 0.0000 -10850.7408 1458.4253 0.0000 0.0000 1815.1936 -7530.2157 306.8347 -9345.4093 -7530.2157 306.8347 -4.2148 81.8698 30271.0278 -4.2148 81.8698
ENERGY: 300000 0.1925 31.8832 11.4609 0.0000 -10862.5897 1483.2315 0.0000 0.0000 1742.6856 -7593.1360 294.5782 -9335.8216 -7549.4285 298.9982 53.4776 144.6136 30521.5763 -266.9147 -195.4764
ENERGY: 600000 0.3698 33.8585 11.9307 0.0000 -10690.0265 1343.6291 0.0000 0.0000 1806.7913 -7493.4471 305.4144 -9300.2384 -7515.6565 301.8896 -539.5415 -466.9338 30211.7881 -344.8935 -277.2876
ENERGY: 900000 0.9305 33.9808 10.7258 0.0000 -10646.4982 1348.6581 0.0000 0.0000 1757.2008 -7495.0022 297.0318 -9252.2030 -7514.9382 301.5899 -702.3854 -640.2107 30736.0878 -282.2719 -221.3747
ENERGY: 1200000 1.6693 33.4014 12.0757 0.0000 -10654.6108 1400.3849 0.0000 0.0000 1765.0779 -7442.0017 298.3633 -9207.0795 -7520.0908 301.1357 -247.8999 -151.9345 30655.8871 -190.5318 -130.6593
ENERGY: 1500000 0.7931 34.1283 12.0938 0.0000 -10764.1275 1394.7527 0.0000 0.0000 1766.9518 -7555.4079 298.6801 -9322.3597 -7526.8207 300.4710 -567.2723 -491.7955 30616.2611 -286.6744 -227.9962
TCL: Running FEP window  15: Lambda1 0.7000000000000001 Lambda2 0.7500000000000001 [dLambda 0.050000000000000044]
TCL: Setting parameter firsttimestep to 0
TCL: Setting parameter alchLambda to 0.7000000000000001
Info: NONBONDED TABLE R-SQUARED SPACING: 0.0625
Info: NONBONDED TABLE SIZE: 705 POINTS
TCL: Setting parameter alchLambda2 to 0.7500000000000001
Info: NONBONDED TABLE R-SQUARED SPACING: 0.0625
Info: NONBONDED TABLE SIZE: 705 POINTS
TCL: Running for 1500000 steps
ETITLE: TS BOND ANGLE DIHED IMPRP ELECT VDW BOUNDARY MISC KINETIC TOTAL TEMP POTENTIAL TOTALAVG TEMPAVG PRESSURE GPRESSURE VOLUME PRESSAVG GPRESSAVG
ENERGY: 0 0.7931 34.1283 12.0938 0.0000 -10765.2749 1394.7366 0.0000 0.0000 1766.0878 -7557.4353 298.5340 -9323.5231 -7557.4353 298.5340 -564.4450 -489.4725 30616.2611 -564.4450 -489.4725
ENERGY: 300000 1.2678 32.3595 10.9863 0.0000 -10961.6501 1581.1088 0.0000 0.0000 1780.4063 -7555.5214 300.9544 -9335.9277 -7548.9835 299.3865 1107.1044 1211.3233 30333.8160 -164.6758 -79.7614
ENERGY: 600000 0.2083 36.1397 11.8445 0.0000 -10929.4560 1547.5426 0.0000 0.0000 1784.2876 -7549.4331 301.6105 -9333.7208 -7534.6838 300.5357 610.7070 724.9797 30443.3303 -54.3761 25.7673
ENERGY: 900000 2.1393 33.0926 12.0017 0.0000 -10903.8295 1548.8006 0.0000 0.0000 1741.7054 -7566.0899 294.4125 -9307.7953 -7538.4616 299.7305 751.2501 845.5830 30229.3982 41.7915 112.9053
ENERGY: 1200000 0.4355 34.9718 9.9197 0.0000 -10734.3997 1437.7421 0.0000 0.0000 1750.6367 -7500.6937 295.9222 -9251.3304 -7532.9410 298.9606 -211.8791 -91.9571 30577.7074 -88.2429 -13.5570
ENERGY: 1500000 2.2575 31.7290 11.9765 0.0000 -10629.2114 1353.8482 0.0000 0.0000 1763.9554 -7465.4447 298.1736 -9229.4002 -7523.0588 298.6737 -839.5572 -740.9232 31020.2708 -66.0900 13.9783
TCL: Running FEP window  16: Lambda1 0.7500000000000001 Lambda2 0.8000000000000002 [dLambda 0.050000000000000044]
TCL: Setting parameter firsttimestep to 0
TCL: Setting parameter alchLambda to 0.7500000000000001
Info: NONBONDED TABLE R-SQUARED SPACING: 0.0625
Info: NONBONDED TABLE SIZE: 705 POINTS
TCL: Setting parameter alchLambda2 to 0.8000000000000002
Info: NONBONDED TABLE R-SQUARED SPACING: 0.0625
Info: NONBONDED TABLE SIZE: 705 POINTS
TCL: Running for 1500000 steps
ETITLE: TS BOND ANGLE DIHED IMPRP ELECT VDW BOUNDARY MISC KINETIC TOTAL TEMP POTENTIAL TOTALAVG TEMPAVG PRESSURE GPRESSURE VOLUME PRESSAVG GPRESSAVG
ENERGY: 0 2.2575 31.7290 11.9765 0.0000 -10630.3457 1354.2429 0.0000 0.0000 1763.1096 -7467.0301 298.0306 -9230.1397 -7467.0301 298.0306 -812.5329 -736.6744 31020.2708 -812.5329 -736.6744
ENERGY: 300000 0.4502 34.2075 9.5695 0.0000 -10886.2418 1492.6839 0.0000 0.0000 1740.6085 -7608.7222 294.2271 -9349.3308 -7498.1217 301.6685 347.9603 400.2250 30220.2267 81.2693 144.5413
ENERGY: 600000 0.1265 32.3829 11.4971 0.0000 -10841.0519 1473.7926 0.0000 0.0000 1762.4067 -7560.8461 297.9118 -9323.2529 -7496.0630 301.2316 -145.5750 -140.2188 30964.7021 129.2201 184.4138
ENERGY: 900000 0.9691 31.4357 11.1528 0.0000 -10931.4067 1510.1910 0.0000 0.0000 1789.5543 -7588.1039 302.5007 -9377.6582 -7506.2967 301.7680 352.5056 484.8129 30442.2300 82.6725 145.0930
ENERGY: 1200000 0.4268 33.0554 12.0263 0.0000 -10670.8485 1436.2815 0.0000 0.0000 1804.3755 -7384.6830 305.0061 -9189.0585 -7482.3510 301.9123 -133.4999 14.9539 30984.8856 -15.3391 51.7945
ENERGY: 1500000 1.0770 31.1478 12.1554 0.0000 -10800.4359 1391.9100 0.0000 0.0000 1765.7613 -7598.3844 298.4788 -9364.1457 -7497.0087 302.1493 -595.1109 -555.0176 30582.5026 -69.8345 -3.7229
TCL: Running FEP window  17: Lambda1 0.8000000000000002 Lambda2 0.8500000000000002 [dLambda 0.050000000000000044]
TCL: Setting parameter firsttimestep to 0
TCL: Setting parameter alchLambda to 0.8000000000000002
Info: NONBONDED TABLE R-SQUARED SPACING: 0.0625
Info: NONBONDED TABLE SIZE: 705 POINTS
TCL: Setting parameter alchLambda2 to 0.8500000000000002
Info: NONBONDED TABLE R-SQUARED SPACING: 0.0625
Info: NONBONDED TABLE SIZE: 705 POINTS
TCL: Running for 1500000 steps
ETITLE: TS BOND ANGLE DIHED IMPRP ELECT VDW BOUNDARY MISC KINETIC TOTAL TEMP POTENTIAL TOTALAVG TEMPAVG PRESSURE GPRESSURE VOLUME PRESSAVG GPRESSAVG
ENERGY: 0 1.0770 31.1478 12.1554 0.0000 -10802.4078 1393.6737 0.0000 0.0000 1764.8554 -7599.4986 298.3257 -9364.3540 -7599.4986 298.3257 -622.7907 -538.6521 30582.5026 -622.7907 -538.6521
ENERGY: 300000 1.8103 38.1153 11.3980 0.0000 -10594.6249 1305.9971 0.0000 0.0000 1740.1689 -7497.1353 294.1528 -9237.3043 -7530.4025 297.3363 -1222.9959 -1109.2026 31042.6542 -618.9703 -525.9791
ENERGY: 600000 0.8480 33.9169 12.0070 0.0000 -10828.1087 1436.1966 0.0000 0.0000 1701.8451 -7643.2950 287.6746 -9345.1401 -7513.2598 300.1033 -100.7734 -29.1850 30311.4788 -431.4361 -352.5958
ENERGY: 900000 1.2383 32.1811 12.3536 0.0000 -10671.6535 1366.7133 0.0000 0.0000 1768.2844 -7490.8828 298.9053 -9259.1672 -7536.1816 297.8837 -686.3329 -608.9273 30813.5647 -422.0996 -347.7664
ENERGY: 1200000 1.2043 31.0461 12.2120 0.0000 -10721.7794 1340.2285 0.0000 0.0000 1779.9983 -7557.0901 300.8854 -9337.0884 -7531.3769 297.7711 -1033.1161 -953.6922 30657.8101 -294.9538 -218.3265
ENERGY: 1500000 0.8861 31.8311 11.5335 0.0000 -10969.3381 1566.8242 0.0000 0.0000 1789.0401 -7569.2231 302.4138 -9358.2632 -7525.0489 298.1148 780.2846 856.1431 30359.5966 -279.3394 -200.5195
TCL: Running FEP window  18: Lambda1 0.8500000000000002 Lambda2 0.9000000000000002 [dLambda 0.050000000000000044]
TCL: Setting parameter firsttimestep to 0
TCL: Setting parameter alchLambda to 0.8500000000000002
Info: NONBONDED TABLE R-SQUARED SPACING: 0.0625
Info: NONBONDED TABLE SIZE: 705 POINTS
TCL: Setting parameter alchLambda2 to 0.9000000000000002
Info: NONBONDED TABLE R-SQUARED SPACING: 0.0625
Info: NONBONDED TABLE SIZE: 705 POINTS
TCL: Running for 1500000 steps
ETITLE: TS BOND ANGLE DIHED IMPRP ELECT VDW BOUNDARY MISC KINETIC TOTAL TEMP POTENTIAL TOTALAVG TEMPAVG PRESSURE GPRESSURE VOLUME PRESSAVG GPRESSAVG
ENERGY: 0 0.8861 31.8311 11.5335 0.0000 -10971.1319 1567.8902 0.0000 0.0000 1788.1543 -7570.8367 302.2641 -9358.9910 -7570.8367 302.2641 786.7527 867.5699 30359.5966 786.7527 867.5699
ENERGY: 300000 0.0357 33.5896 11.2702 0.0000 -10723.7159 1363.2373 0.0000 0.0000 1767.0161 -7548.5670 298.6909 -9315.5831 -7545.6315 299.9723 -891.9606 -813.6681 30900.8768 -90.4858 -11.2649
ENERGY: 600000 0.1956 31.7123 12.1987 0.0000 -10805.8719 1441.3294 0.0000 0.0000 1767.6669 -7552.7690 298.8010 -9320.4359 -7544.2145 300.2341 -344.5304 -269.1023 30946.4332 44.0023 117.4363
ENERGY: 900000 1.9665 32.6457 10.8930 0.0000 -10850.0902 1528.9337 0.0000 0.0000 1771.2340 -7504.4173 299.4039 -9275.6513 -7535.5213 300.3717 724.1160 790.3947 30596.7947 51.2533 114.2188
ENERGY: 1200000 0.7901 32.3113 12.4885 0.0000 -10894.6856 1490.5105 0.0000 0.0000 1765.0490 -7593.5361 298.3584 -9358.5851 -7531.7847 300.6925 246.7953 340.3239 30300.8505 75.6439 136.2208
ENERGY: 1500000 1.0523 32.8569 11.8741 0.0000 -10840.6369 1484.8839 0.0000 0.0000 1802.7878 -7507.1819 304.7377 -9309.9696 -7528.3562 300.6421 171.6805 172.0615 30793.2415 39.7380 96.2404
TCL: Running FEP window  19: Lambda1 0.9000000000000002 Lambda2 0.9500000000000003 [dLambda 0.050000000000000044]
TCL: Setting parameter firsttimestep to 0
TCL: Setting parameter alchLambda to 0.9000000000000002
Info: NONBONDED TABLE R-SQUARED SPACING: 0.0625
Info: NONBONDED TABLE SIZE: 705 POINTS
TCL: Setting parameter alchLambda2 to 0.9500000000000003
Info: NONBONDED TABLE R-SQUARED SPACING: 0.0625
Info: NONBONDED TABLE SIZE: 705 POINTS
TCL: Running for 1500000 steps
ETITLE: TS BOND ANGLE DIHED IMPRP ELECT VDW BOUNDARY MISC KINETIC TOTAL TEMP POTENTIAL TOTALAVG TEMPAVG PRESSURE GPRESSURE VOLUME PRESSAVG GPRESSAVG
ENERGY: 0 1.0523 32.8569 11.8741 0.0000 -10841.5438 1485.3582 0.0000 0.0000 1801.8696 -7508.5327 304.5825 -9310.4023 -7508.5327 304.5825 97.5325 183.4491 30793.2415 97.5325 183.4491
ENERGY: 300000 0.6815 36.9492 9.1231 0.0000 -10835.6280 1493.9089 0.0000 0.0000 1794.1633 -7500.8021 303.2798 -9294.9653 -7542.1378 298.4892 252.4671 282.3167 30820.6348 -91.7044 -29.3108
ENERGY: 600000 0.9979 35.5251 9.2204 0.0000 -10777.6020 1425.3425 0.0000 0.0000 1762.6029 -7543.9133 297.9449 -9306.5161 -7545.0224 298.5368 -142.1281 -55.6031 30567.0155 -223.1194 -164.3201
ENERGY: 900000 0.8135 36.5888 11.4649 0.0000 -10781.2176 1417.6961 0.0000 0.0000 1722.4660 -7592.1883 291.1603 -9314.6542 -7554.5769 298.1528 -509.3725 -378.4448 30868.1195 -292.3197 -222.4048
ENERGY: 1200000 0.2970 38.5441 11.7847 0.0000 -10769.9050 1434.3182 0.0000 0.0000 1809.8893 -7475.0718 305.9381 -9284.9611 -7532.5883 299.3827 -183.3027 -117.7196 30890.9856 -173.2326 -108.2863
ENERGY: 1500000 1.7680 34.0245 12.1061 0.0000 -10753.7890 1397.2621 0.0000 0.0000 1742.1706 -7566.4577 294.4911 -9308.6284 -7541.5641 298.8199 -583.2638 -489.3722 30769.9695 -236.5457 -171.1007
TCL: Running FEP window  20: Lambda1 0.9500000000000003 Lambda2 1.0    [dLambda 0.04999999999999971]
TCL: Setting parameter firsttimestep to 0
TCL: Setting parameter alchLambda to 0.9500000000000003
Info: NONBONDED TABLE R-SQUARED SPACING: 0.0625
Info: NONBONDED TABLE SIZE: 705 POINTS
TCL: Setting parameter alchLambda2 to 1.0
Info: NONBONDED TABLE R-SQUARED SPACING: 0.0625
Info: NONBONDED TABLE SIZE: 705 POINTS
TCL: Running for 1500000 steps
ETITLE: TS BOND ANGLE DIHED IMPRP ELECT VDW BOUNDARY MISC KINETIC TOTAL TEMP POTENTIAL TOTALAVG TEMPAVG PRESSURE GPRESSURE VOLUME PRESSAVG GPRESSAVG
ENERGY: 0 1.7680 34.0245 12.1061 0.0000 -10754.9350 1397.3794 0.0000 0.0000 1741.3069 -7568.3502 294.3451 -9309.6571 -7568.3502 294.3451 -571.2089 -486.4737 30769.9695 -571.2089 -486.4737
ENERGY: 300000 0.1505 33.8751 11.2631 0.0000 -10852.5625 1468.0679 0.0000 0.0000 1806.0855 -7533.1203 305.2951 -9339.2058 -7552.2198 301.3385 3.6772 86.5285 30760.1958 21.1527 96.8351
ENERGY: 600000 0.4650 33.3244 11.5399 0.0000 -10929.2258 1520.9367 0.0000 0.0000 1838.7096 -7524.2502 310.8098 -9362.9599 -7534.8431 302.2893 797.3088 901.4720 30013.1493 244.5757 322.1510
ENERGY: 900000 0.6003 34.3543 11.6096 0.0000 -10851.1330 1470.1037 0.0000 0.0000 1794.1281 -7540.3370 303.2739 -9334.4651 -7528.4913 301.9460 -6.3701 75.4318 30397.5104 253.2496 330.9143
ENERGY: 1200000 1.2974 32.6102 11.8935 0.0000 -10817.3778 1536.8355 0.0000 0.0000 1818.1711 -7416.5700 307.3380 -9234.7411 -7525.5861 302.3192 822.0360 846.6418 30729.8041 198.7768 277.1830
ENERGY: 1500000 1.0403 34.6981 10.6786 0.0000 -10836.0984 1457.0066 0.0000 0.0000 1788.0089 -7544.6660 302.2395 -9332.6749 -7525.0067 301.5582 -116.7720 -54.4787 30714.3402 186.1960 262.7209
TCL: Exiting due to exit command.
