Info: SIMULATION PARAMETERS:
Info: TIMESTEP               2
Info: NUMBER OF STEPS        0
Info: STEPS PER CYCLE        10
Info: PERIODIC CELL BASIS 1  30.9112 0 0
Info: PERIODIC CELL BASIS 2  0 31.2867 0
Info: PERIODIC CELL BASIS 3  0 0 31.4926
Info: PERIODIC CELL CENTER   0 0 0
Info: WRAPPING WATERS AROUND PERIODIC BOUNDARIES ON OUTPUT.
Info: WRAPPING ALL CLUSTERS AROUND PERIODIC BOUNDARIES ON OUTPUT.
Info: FIRST LDB TIMESTEP     50
Info: LAST LDB TIMESTEP     -1
Info: HOM BACKGROUND SCALING 1
Info: PME BACKGROUND SCALING 1
Info: MIN ATOMS PER PATCH    40
Info: EMPTY PATCH LOAD       40 ATOMS
Info: VELOCITY FILE          mobley_9794857_equil.vel
Info: CENTER OF MASS MOVING INITIALLY? NO
Info: DIELECTRIC             1
Info: EXCLUDE                SCALED ONE-FOUR
Info: 1-4 ELECTROSTATICS SCALED BY 0.833333
Info: MODIFIED 1-4 VDW PARAMETERS WILL BE USED
Info: DCD FILENAME           mobley_9794857_prod.dcd
Info: DCD FREQUENCY          100000
Info: DCD FIRST STEP         100000
Info: DCD FILE WILL CONTAIN UNIT CELL DATA
Info: XST FILENAME           mobley_9794857_prod.xst
Info: XST FREQUENCY          100000
Info: NO VELOCITY DCD OUTPUT
Info: NO FORCE DCD OUTPUT
Info: OUTPUT FILENAME        mobley_9794857_prod
Info: BINARY OUTPUT FILES WILL BE USED
Info: RESTART FILENAME       mobley_9794857_prod.restart
Info: RESTART FREQUENCY      100000
Info: BINARY RESTART FILES WILL BE USED
Info: CUTOFF                 9
Info: PAIRLIST DISTANCE      11
Info: PAIRLIST SHRINK RATE   0.01
Info: PAIRLIST GROW RATE     0.01
Info: PAIRLIST TRIGGER       0.3
Info: PAIRLISTS PER CYCLE    2
Info: PAIRLISTS ENABLED
Info: MARGIN                 2
Info: HYDROGEN GROUP CUTOFF  2.5
Info: PATCH DIMENSION        15.5
Info: ENERGY OUTPUT STEPS    100000
Info: ENERGY EVALUATION STEPS    100000
Info: OUTPUT ENERGY PRECISION 4
Info: CROSSTERM ENERGY INCLUDED IN DIHEDRAL
Info: TIMING OUTPUT STEPS    1000000
Info: PRESSURE OUTPUT STEPS  100000
Info: ALCHEMICAL FEP ON
Info: FEP CURRENT LAMBDA VALUE     1
Info: FEP COMPARISON LAMBDA VALUE  0.95
Info: FEP INTRA-ALCHEMICAL NON-BONDED INTERACTIONS WILL BE RETAINED
Info: FEP INTRA-ALCHEMICAL BONDED INTERACTIONS WILL BE RETAINED
Info: FEP VDW SHIFTING COEFFICIENT 5
Info: FEP ELEC. ACTIVE FOR ANNIHILATED PARTICLES BETWEEN LAMBDA = 0 AND LAMBDA = 0.5
Info: FEP ELEC. ACTIVE FOR EXNIHILATED PARTICLES BETWEEN LAMBDA = 0.5 AND LAMBDA = 1
Info: FEP VDW ACTIVE FOR ANNIHILATED PARTICLES BETWEEN LAMBDA = 0 AND LAMBDA = 1
Info: FEP VDW ACTIVE FOR EXNIHILATED PARTICLES BETWEEN LAMBDA = 0 AND LAMBDA = 1
Info: FEP BOND ACTIVE FOR ANNIHILATED PARTICLES BETWEEN LAMBDA = 1 AND LAMBDA = 1
Info: FEP BOND ACTIVE FOR EXNIHILATED PARTICLES BETWEEN LAMBDA = 0 AND LAMBDA = 0
Info: LANGEVIN DYNAMICS ACTIVE
Info: LANGEVIN TEMPERATURE   300
Info: LANGEVIN USING BBK INTEGRATOR
Info: LANGEVIN DAMPING COEFFICIENT IS 1 INVERSE PS
Info: LANGEVIN DYNAMICS APPLIED TO HYDROGENS
Info: LANGEVIN PISTON PRESSURE CONTROL ACTIVE
Info:        TARGET PRESSURE IS 1.01325 BAR
Info:     OSCILLATION PERIOD IS 50 FS
Info:             DECAY TIME IS 25 FS
Info:     PISTON TEMPERATURE IS 300 K
Info:       PRESSURE CONTROL IS GROUP-BASED
Info:    INITIAL STRAIN RATE IS 0.000149555 0.000149555 0.000149555
Info:       CELL FLUCTUATION IS ISOTROPIC
Info: PARTICLE MESH EWALD (PME) ACTIVE
Info: PME TOLERANCE               1e-06
Info: PME EWALD COEFFICIENT       0.348832
Info: PME INTERPOLATION ORDER     4
Info: PME GRID DIMENSIONS         32 32 32
Info: PME MAXIMUM GRID SPACING    1
Info: PME CALCULATION WILL BE PERFORMED ON GPU
Info: FULL ELECTROSTATIC EVALUATION FREQUENCY      2
Info: USING VERLET I (r-RESPA) MTS SCHEME.
Info: C1 SPLITTING OF LONG RANGE ELECTROSTATICS
Info: PLACING ATOMS IN PATCHES BY HYDROGEN GROUPS
Info: RIGID BONDS TO HYDROGEN : ALL
Info:         ERROR TOLERANCE : 1e-08
Info:          MAX ITERATIONS : 100
Info: RIGID WATER USING SETTLE ALGORITHM
Info: RANDOM NUMBER SEED     1743617565
Info: USE HYDROGEN BONDS?    NO
Info: Using AMBER format force field!
Info: AMBER PARM FILE        mobley_9794857.prmtop
Info: COORDINATE PDB         mobley_9794857.pdb
Info: Exclusions will be read from PARM file!
Info: SCNB (VDW SCALING)     2
Info: USING ARITHMETIC MEAN TO COMBINE L-J SIGMA PARAMETERS
Info: BINARY COORDINATES     mobley_9794857_equil.coor
Info: SUMMARY OF PARAMETERS:
Info: 6 BONDS
Info: 7 ANGLES
Info:   7 HARMONIC
Info:   0 COSINE-BASED
Info: 6 DIHEDRAL
Info: 0 IMPROPER
Info: 0 CROSSTERM
Info: 0 VDW
Info: 21 VDW_PAIRS
Info: 0 NBTHOLE_PAIRS
Info: To read alchdata from file: mobley_9794857.pdb
Info: To read alchflag data from column: 5
Info: STRUCTURE SUMMARY:
Info: 2952 ATOMS
Info: 2951 BONDS
Info: 31 ANGLES
Info: 45 DIHEDRALS
Info: 0 IMPROPERS
Info: 0 CROSSTERMS
Info: 3015 EXCLUSIONS
Info: 2946 RIGID BONDS
Info: ALCH: 0 ATOMS TO DISAPPEAR IN FINAL STATE
Info: ALCH: 18 ATOMS TO APPEAR IN FINAL STATE
Info: 5910 DEGREES OF FREEDOM
Info: 984 HYDROGEN GROUPS
Info: 4 ATOMS IN LARGEST HYDROGEN GROUP
Info: 984 MIGRATION GROUPS
Info: 4 ATOMS IN LARGEST MIGRATION GROUP
Info: TOTAL MASS = 17707.8 amu
Info: TOTAL CHARGE = 0.000499986 e
Info: MASS DENSITY = 0.965469 g/cm^3
Info: ATOM DENSITY = 0.0969239 atoms/A^3
Info: ADDED 0 IMPLICIT EXCLUSIONS
Info: NONBONDED TABLE R-SQUARED SPACING: 0.0625
Info: NONBONDED TABLE SIZE: 705 POINTS
Info: REMOVING COM VELOCITY -0.192994 -0.0746749 -0.0726866
Info: Use 3D box decompostion in PME FFT.
Info: Updated CUDA force table with 4096 elements.
Info: Updated CUDA LJ table with 6 x 6 elements.
Info: Found 21 unique exclusion lists needing 52 bytes
TCL: Running for 1500000 steps
ETITLE: TS BOND ANGLE DIHED IMPRP ELECT VDW BOUNDARY MISC KINETIC TOTAL TEMP POTENTIAL TOTALAVG TEMPAVG PRESSURE GPRESSURE VOLUME PRESSAVG GPRESSAVG
ENERGY: 0 5.5102 6.3487 3.8430 0.0000 -10722.7045 1450.4363 0.0000 0.0000 1749.2275 -7507.3388 297.8854 -9256.5663 -7507.3388 297.8854 -146.3533 -57.9812 30456.8797 -146.3533 -57.9812
ENERGY: 300000 2.6607 7.5052 4.2320 0.0000 -10687.7042 1438.3293 0.0000 0.0000 1737.2746 -7497.7024 295.8499 -9234.9769 -7508.9444 295.8774 -99.2889 -60.3299 30547.1131 -295.5350 -252.6863
ENERGY: 600000 2.7984 8.0415 2.6825 0.0000 -10772.9464 1475.9152 0.0000 0.0000 1772.8201 -7510.6888 301.9031 -9283.5089 -7504.1943 298.1701 208.1047 254.9393 30262.9790 -185.3715 -137.7753
ENERGY: 900000 2.4840 9.7428 3.2773 0.0000 -10757.5025 1439.3282 0.0000 0.0000 1767.3878 -7535.2823 300.9780 -9302.6701 -7506.6870 298.6073 -20.3497 -4.6112 30355.6034 -221.3315 -174.8813
ENERGY: 1200000 0.8275 11.2298 3.8782 0.0000 -10783.3680 1460.7584 0.0000 0.0000 1770.8725 -7535.8016 301.5714 -9306.6741 -7508.9174 300.0872 -216.5153 -112.1450 30635.9187 -215.9928 -165.2269
ENERGY: 1500000 0.8687 9.1718 4.5084 0.0000 -10828.1319 1449.5463 0.0000 0.0000 1809.3232 -7554.7135 308.1194 -9364.0367 -7502.9483 300.2630 -214.1511 -189.4803 30578.0332 -184.6740 -141.0622
TCL: Running FEP window   2: Lambda1 0.95   Lambda2 0.8999999999999999 [dLambda -0.050000000000000044]
TCL: Setting parameter firsttimestep to 0
TCL: Setting parameter alchLambda to 0.95
Info: NONBONDED TABLE R-SQUARED SPACING: 0.0625
Info: NONBONDED TABLE SIZE: 705 POINTS
TCL: Setting parameter alchLambda2 to 0.8999999999999999
Info: NONBONDED TABLE R-SQUARED SPACING: 0.0625
Info: NONBONDED TABLE SIZE: 705 POINTS
TCL: Running for 1500000 steps
ETITLE: TS BOND ANGLE DIHED IMPRP ELECT VDW BOUNDARY MISC KINETIC TOTAL TEMP POTENTIAL TOTALAVG TEMPAVG PRESSURE GPRESSURE VOLUME PRESSAVG GPRESSAVG
ENERGY: 0 0.8687 9.1718 4.5084 0.0000 -10827.4154 1449.8853 0.0000 0.0000 1808.4489 -7554.5322 307.9705 -9362.9811 -7554.5322 307.9705 -273.7833 -193.7237 30578.0332 -273.7833 -193.7237
ENERGY: 300000 3.6430 10.4305 3.6316 0.0000 -10688.6739 1454.3226 0.0000 0.0000 1780.5956 -7436.0506 303.2272 -9216.6463 -7484.9332 302.9385 303.0672 342.7727 30192.2801 345.5471 395.1409
ENERGY: 600000 1.5574 6.1428 3.4830 0.0000 -10635.5469 1418.6245 0.0000 0.0000 1754.8060 -7450.9331 298.8354 -9205.7391 -7489.0665 300.3518 -236.3909 -176.1557 30735.8628 -17.8543 44.6972
ENERGY: 900000 0.9614 10.9121 3.4302 0.0000 -10833.4290 1491.8557 0.0000 0.0000 1818.3761 -7507.8935 309.6611 -9326.2696 -7479.3758 303.3741 377.8542 483.5287 29985.1330 -34.1574 28.1358
ENERGY: 1200000 2.3616 10.9661 3.5894 0.0000 -10656.4435 1369.2737 0.0000 0.0000 1786.0914 -7484.1613 304.1631 -9270.2527 -7469.3452 303.1251 -835.3751 -762.7610 30692.0661 -137.9619 -64.4762
ENERGY: 1500000 1.4397 15.0490 3.3680 0.0000 -10571.6277 1331.6213 0.0000 0.0000 1741.2024 -7478.9472 296.5187 -9220.1496 -7468.4213 302.8241 -963.4146 -952.5133 30806.5615 -133.4182 -59.9236
TCL: Running FEP window   3: Lambda1 0.8999999999999999 Lambda2 0.8499999999999999 [dLambda -0.050000000000000044]
TCL: Setting parameter firsttimestep to 0
TCL: Setting parameter alchLambda to 0.8999999999999999
Info: NONBONDED TABLE R-SQUARED SPACING: 0.0625
Info: NONBONDED TABLE SIZE: 705 POINTS
TCL: Setting parameter alchLambda2 to 0.8499999999999999
Info: NONBONDED TABLE R-SQUARED SPACING: 0.0625
Info: NONBONDED TABLE SIZE: 705 POINTS
TCL: Running for 1500000 steps
ETITLE: TS BOND ANGLE DIHED IMPRP ELECT VDW BOUNDARY MISC KINETIC TOTAL TEMP POTENTIAL TOTALAVG TEMPAVG PRESSURE GPRESSURE VOLUME PRESSAVG GPRESSAVG
ENERGY: 0 1.4397 15.0490 3.3680 0.0000 -10571.1409 1332.0659 0.0000 0.0000 1740.2995 -7478.9187 296.3650 -9219.2182 -7478.9187 296.3650 -1018.3479 -953.4806 30806.5615 -1018.3479 -953.4806
ENERGY: 300000 0.1206 8.5286 3.9452 0.0000 -10560.8332 1304.2567 0.0000 0.0000 1796.3753 -7447.6068 305.9144 -9243.9821 -7468.8765 302.3787 -1122.3566 -1107.3140 30923.3927 -493.6107 -419.5381
ENERGY: 600000 2.9355 6.6947 4.0998 0.0000 -10712.8780 1436.0663 0.0000 0.0000 1790.0172 -7473.0645 304.8317 -9263.0817 -7454.6479 303.4423 47.6805 71.3870 30318.9586 -338.8010 -277.2318
ENERGY: 900000 1.0688 4.8885 2.8860 0.0000 -10653.0285 1399.6543 0.0000 0.0000 1781.9426 -7462.5884 303.4566 -9244.5309 -7464.5570 302.9706 -102.7008 -53.1289 30182.6575 -348.5903 -292.1472
ENERGY: 1200000 2.6374 7.7342 3.4307 0.0000 -10643.5414 1397.0420 0.0000 0.0000 1789.4653 -7443.2318 304.7377 -9232.6971 -7473.1255 301.8822 -235.5198 -214.7782 30430.3848 -277.0547 -230.2800
ENERGY: 1500000 2.0443 8.5028 3.0121 0.0000 -10720.5971 1376.6514 0.0000 0.0000 1751.7614 -7578.6250 298.3169 -9330.3864 -7473.6555 301.9262 -577.6393 -496.5123 29949.5750 -333.5018 -283.7802
TCL: Running FEP window   4: Lambda1 0.8499999999999999 Lambda2 0.7999999999999998 [dLambda -0.050000000000000044]
TCL: Setting parameter firsttimestep to 0
TCL: Setting parameter alchLambda to 0.8499999999999999
Info: NONBONDED TABLE R-SQUARED SPACING: 0.0625
Info: NONBONDED TABLE SIZE: 705 POINTS
TCL: Setting parameter alchLambda2 to 0.7999999999999998
Info: NONBONDED TABLE R-SQUARED SPACING: 0.0625
Info: NONBONDED TABLE SIZE: 705 POINTS
TCL: Running for 1500000 steps
ETITLE: TS BOND ANGLE DIHED IMPRP ELECT VDW BOUNDARY MISC KINETIC TOTAL TEMP POTENTIAL TOTALAVG TEMPAVG PRESSURE GPRESSURE VOLUME PRESSAVG GPRESSAVG
ENERGY: 0 2.0443 8.5028 3.0121 0.0000 -10719.0337 1376.3733 0.0000 0.0000 1750.9263 -7578.1749 298.1747 -9329.1012 -7578.1749 298.1747 -582.8458 -509.0327 29949.5750 -582.8458 -509.0327
ENERGY: 300000 1.9174 8.1985 3.6503 0.0000 -10768.4769 1513.7340 0.0000 0.0000 1756.4910 -7484.4857 299.1223 -9240.9767 -7545.9787 298.7208 612.8098 686.6707 30205.5378 -52.3072 26.2470
ENERGY: 600000 4.3998 8.5694 3.2632 0.0000 -10657.7114 1465.3244 0.0000 0.0000 1754.5921 -7421.5626 298.7990 -9176.1546 -7498.5679 301.4208 512.6246 554.8589 30056.6736 91.3499 160.0686
ENERGY: 900000 0.3959 14.6695 3.0815 0.0000 -10841.9086 1509.6187 0.0000 0.0000 1796.0509 -7518.0921 305.8592 -9314.1429 -7499.5904 300.0740 410.3929 501.9716 30348.4016 8.3649 83.8700
ENERGY: 1200000 0.3125 10.7435 3.2454 0.0000 -10777.2806 1437.9580 0.0000 0.0000 1778.2399 -7546.7814 302.8261 -9325.0213 -7509.0906 300.9131 6.5332 88.6657 30027.3430 -28.3217 48.0558
ENERGY: 1500000 0.2731 6.8011 3.9949 0.0000 -10694.5379 1436.1679 0.0000 0.0000 1744.9930 -7502.3079 297.1643 -9247.3008 -7498.8774 301.1665 -168.9227 -117.9756 30758.4650 -15.4478 70.1627
TCL: Running FEP window   5: Lambda1 0.7999999999999998 Lambda2 0.7499999999999998 [dLambda -0.050000000000000044]
TCL: Setting parameter firsttimestep to 0
TCL: Setting parameter alchLambda to 0.7999999999999998
Info: NONBONDED TABLE R-SQUARED SPACING: 0.0625
Info: NONBONDED TABLE SIZE: 705 POINTS
TCL: Setting parameter alchLambda2 to 0.7499999999999998
Info: NONBONDED TABLE R-SQUARED SPACING: 0.0625
Info: NONBONDED TABLE SIZE: 705 POINTS
TCL: Running for 1500000 steps
ETITLE: TS BOND ANGLE DIHED IMPRP ELECT VDW BOUNDARY MISC KINETIC TOTAL TEMP POTENTIAL TOTALAVG TEMPAVG PRESSURE GPRESSURE VOLUME PRESSAVG GPRESSAVG
ENERGY: 0 0.2731 6.8011 3.9949 0.0000 -10693.7431 1436.0134 0.0000 0.0000 1744.1263 -7502.5343 297.0167 -9246.6606 -7502.5343 297.0167 -223.4809 -128.5006 30758.4650 -223.4809 -128.5006
ENERGY: 300000 1.7512 9.4620 4.2634 0.0000 -10681.6942 1424.1939 0.0000 0.0000 1770.3236 -7471.7001 301.4780 -9242.0237 -7473.3944 303.2302 -98.9425 -87.9669 30545.5420 -71.4195 -9.2261
ENERGY: 600000 1.0300 8.5033 3.3648 0.0000 -10860.4163 1506.4922 0.0000 0.0000 1752.4253 -7588.6007 298.4300 -9341.0260 -7489.4410 302.5340 353.8902 447.3896 30107.2592 -142.0448 -65.7697
ENERGY: 900000 2.7219 10.1140 4.5056 0.0000 -10583.4079 1339.0294 0.0000 0.0000 1812.7807 -7414.2563 308.7082 -9227.0370 -7482.6830 302.0457 -861.2130 -809.0446 30635.8952 -241.9521 -173.0714
ENERGY: 1200000 1.5545 5.0105 3.3909 0.0000 -10781.9069 1523.1762 0.0000 0.0000 1766.8228 -7481.9520 300.8818 -9248.7748 -7479.5130 301.9652 850.3611 862.6512 29895.3817 -204.6523 -143.8099
ENERGY: 1500000 3.8816 13.3350 3.0256 0.0000 -10717.9107 1429.9258 0.0000 0.0000 1777.6652 -7490.0775 302.7282 -9267.7427 -7483.9417 300.9866 -238.8396 -256.2163 30707.2116 -277.6556 -217.9250
TCL: Running FEP window   6: Lambda1 0.7499999999999998 Lambda2 0.6999999999999997 [dLambda -0.050000000000000044]
TCL: Setting parameter firsttimestep to 0
TCL: Setting parameter alchLambda to 0.7499999999999998
Info: NONBONDED TABLE R-SQUARED SPACING: 0.0625
Info: NONBONDED TABLE SIZE: 705 POINTS
TCL: Setting parameter alchLambda2 to 0.6999999999999997
Info: NONBONDED TABLE R-SQUARED SPACING: 0.0625
Info: NONBONDED TABLE SIZE: 705 POINTS
TCL: Running for 1500000 steps
ETITLE: TS BOND ANGLE DIHED IMPRP ELECT VDW BOUNDARY MISC KINETIC TOTAL TEMP POTENTIAL TOTALAVG TEMPAVG PRESSURE GPRESSURE VOLUME PRESSAVG GPRESSAVG
ENERGY: 0 3.8816 13.3350 3.0256 0.0000 -10717.4969 1429.6962 0.0000 0.0000 1776.7992 -7490.7593 302.5807 -9267.5585 -7490.7593 302.5807 -357.6205 -266.0360 30707.2116 -357.6205 -266.0360
ENERGY: 300000 0.5729 8.8106 4.0615 0.0000 -10651.3502 1431.6994 0.0000 0.0000 1790.4628 -7415.7431 304.9076 -9206.2059 -7510.5532 298.5462 106.1855 138.1012 30318.0242 -208.6014 -135.9298
ENERGY: 600000 0.9256 6.9812 3.4054 0.0000 -10806.1668 1516.2412 0.0000 0.0000 1787.3325 -7491.2809 304.3745 -9278.6134 -7500.8123 300.0209 586.1324 622.2719 30220.5661 -102.0673 -42.0925
ENERGY: 900000 1.1695 10.7579 3.4356 0.0000 -10673.3155 1416.5072 0.0000 0.0000 1769.6793 -7471.7660 301.3682 -9241.4453 -7489.6605 301.3055 -274.1382 -180.9076 30712.3892 -27.5032 27.2538
ENERGY: 1200000 2.0368 9.7018 4.4073 0.0000 -10705.5020 1427.6087 0.0000 0.0000 1771.9484 -7489.7990 301.7547 -9261.7474 -7483.2702 301.0252 -120.4509 -100.3962 30345.5298 -52.1156 3.6083
ENERGY: 1500000 1.4437 7.6460 3.3002 0.0000 -10831.2616 1495.5647 0.0000 0.0000 1752.1489 -7571.1581 298.3829 -9323.3070 -7488.1407 300.8630 24.7982 108.5088 30570.0911 -94.7852 -40.0135
TCL: Running FEP window   7: Lambda1 0.6999999999999997 Lambda2 0.6499999999999997 [dLambda -0.050000000000000044]
TCL: Setting parameter firsttimestep to 0
TCL: Setting parameter alchLambda to 0.6999999999999997
Info: NONBONDED TABLE R-SQUARED SPACING: 0.0625
Info: NONBONDED TABLE SIZE: 705 POINTS
TCL: Setting parameter alchLambda2 to 0.6499999999999997
Info: NONBONDED TABLE R-SQUARED SPACING: 0.0625
Info: NONBONDED TABLE SIZE: 705 POINTS
TCL: Running for 1500000 steps
ETITLE: TS BOND ANGLE DIHED IMPRP ELECT VDW BOUNDARY MISC KINETIC TOTAL TEMP POTENTIAL TOTALAVG TEMPAVG PRESSURE GPRESSURE VOLUME PRESSAVG GPRESSAVG
ENERGY: 0 1.4437 7.6460 3.3002 0.0000 -10830.4025 1495.2579 0.0000 0.0000 1751.2547 -7571.5001 298.2306 -9322.7548 -7571.5001 298.2306 10.8642 97.4428 30570.0911 10.8642 97.4428
ENERGY: 300000 2.5345 11.1615 3.4492 0.0000 -10730.0519 1432.2299 0.0000 0.0000 1705.5297 -7575.1472 290.4439 -9280.6769 -7534.8370 299.0825 -187.5604 -57.0913 30276.6570 4.8145 71.9103
ENERGY: 600000 2.7236 9.2264 4.3184 0.0000 -10698.1576 1447.5379 0.0000 0.0000 1755.9816 -7478.3697 299.0356 -9234.3513 -7505.3135 299.5759 87.8974 136.8317 30503.3838 115.3699 189.7048
ENERGY: 900000 3.5790 5.6071 5.0946 0.0000 -10769.3760 1459.0358 0.0000 0.0000 1782.6065 -7513.4530 303.5697 -9296.0595 -7502.1541 300.2418 244.5679 283.8156 29997.2435 252.7210 321.2002
ENERGY: 1200000 2.9824 7.9056 3.1641 0.0000 -10530.1514 1391.8598 0.0000 0.0000 1738.6005 -7385.6389 296.0757 -9124.2394 -7495.7362 298.2228 -314.3351 -190.0824 30831.6237 159.9749 231.2535
ENERGY: 1500000 5.6630 10.8976 3.1187 0.0000 -10790.8000 1508.0726 0.0000 0.0000 1766.7783 -7496.2698 300.8742 -9263.0481 -7492.8521 298.4121 327.2597 420.3405 30109.5442 164.2576 234.1145
TCL: Running FEP window   8: Lambda1 0.6499999999999997 Lambda2 0.5999999999999996 [dLambda -0.050000000000000044]
TCL: Setting parameter firsttimestep to 0
TCL: Setting parameter alchLambda to 0.6499999999999997
Info: NONBONDED TABLE R-SQUARED SPACING: 0.0625
Info: NONBONDED TABLE SIZE: 705 POINTS
TCL: Setting parameter alchLambda2 to 0.5999999999999996
Info: NONBONDED TABLE R-SQUARED SPACING: 0.0625
Info: NONBONDED TABLE SIZE: 705 POINTS
TCL: Running for 1500000 steps
ETITLE: TS BOND ANGLE DIHED IMPRP ELECT VDW BOUNDARY MISC KINETIC TOTAL TEMP POTENTIAL TOTALAVG TEMPAVG PRESSURE GPRESSURE VOLUME PRESSAVG GPRESSAVG
ENERGY: 0 5.6630 10.8976 3.1187 0.0000 -10789.4855 1507.3297 0.0000 0.0000 1765.8936 -7496.5829 300.7235 -9262.4765 -7496.5829 300.7235 312.4924 408.4145 30109.5442 312.4924 408.4145
ENERGY: 300000 2.0398 9.7215 4.2972 0.0000 -10713.4203 1498.3883 0.0000 0.0000 1762.6214 -7436.3522 300.1663 -9198.9736 -7499.1815 301.8180 624.5890 656.0360 30218.4220 143.2305 214.0344
ENERGY: 600000 1.5435 11.7674 4.1389 0.0000 -10592.3709 1384.4822 0.0000 0.0000 1747.7059 -7442.7330 297.6263 -9190.4389 -7508.6085 300.1143 -612.4701 -507.7691 30729.7792 -38.9252 40.3686
ENERGY: 900000 1.1781 17.0079 4.6878 0.0000 -10638.6585 1417.0053 0.0000 0.0000 1804.6889 -7394.0905 307.3302 -9198.7793 -7490.5297 301.0628 115.8755 192.9852 30237.8259 149.6577 220.2513
ENERGY: 1200000 2.2672 8.5749 3.2216 0.0000 -10616.4680 1384.3718 0.0000 0.0000 1786.3168 -7431.7158 304.2015 -9218.0326 -7486.7756 301.2534 -410.3540 -353.2151 30499.9610 146.6238 223.0944
ENERGY: 1500000 2.3296 7.5718 5.8328 0.0000 -10754.9101 1478.3200 0.0000 0.0000 1777.7515 -7483.1046 302.7429 -9260.8560 -7481.7379 300.4899 373.0019 408.0474 30070.8922 133.8246 210.9895
TCL: Running FEP window   9: Lambda1 0.5999999999999996 Lambda2 0.5499999999999996 [dLambda -0.050000000000000044]
TCL: Setting parameter firsttimestep to 0
TCL: Setting parameter alchLambda to 0.5999999999999996
Info: NONBONDED TABLE R-SQUARED SPACING: 0.0625
Info: NONBONDED TABLE SIZE: 705 POINTS
TCL: Setting parameter alchLambda2 to 0.5499999999999996
Info: NONBONDED TABLE R-SQUARED SPACING: 0.0625
Info: NONBONDED TABLE SIZE: 705 POINTS
TCL: Running for 1500000 steps
ETITLE: TS BOND ANGLE DIHED IMPRP ELECT VDW BOUNDARY MISC KINETIC TOTAL TEMP POTENTIAL TOTALAVG TEMPAVG PRESSURE GPRESSURE VOLUME PRESSAVG GPRESSAVG
ENERGY: 0 2.3296 7.5718 5.8328 0.0000 -10754.3743 1478.7581 0.0000 0.0000 1776.8460 -7483.0360 302.5887 -9259.8820 -7483.0360 302.5887 332.1665 407.2482 30070.8922 332.1665 407.2482
ENERGY: 300000 1.6181 12.3081 6.9196 0.0000 -10684.0730 1381.6139 0.0000 0.0000 1797.7197 -7483.8936 306.1434 -9281.6133 -7481.3056 303.0913 -688.4352 -637.7519 30405.1735 -49.7815 13.5361
ENERGY: 600000 1.2841 11.7164 4.3532 0.0000 -10790.7811 1487.6465 0.0000 0.0000 1734.8669 -7550.9140 295.4398 -9285.7809 -7503.1089 299.9255 71.4051 108.6483 30648.0645 -128.9263 -71.2227
ENERGY: 900000 1.0567 10.6686 3.6606 0.0000 -10735.2892 1508.6874 0.0000 0.0000 1721.8610 -7489.3550 293.2250 -9211.2160 -7483.6236 300.0223 562.6111 642.5322 30374.1102 10.8309 77.3890
ENERGY: 1200000 1.5003 8.9262 2.9656 0.0000 -10622.9618 1388.0745 0.0000 0.0000 1783.5593 -7437.9359 303.7319 -9221.4952 -7484.8738 299.9037 -423.4058 -344.3947 30673.2839 -18.1844 43.8284
ENERGY: 1500000 3.0413 9.1735 3.9705 0.0000 -10809.9749 1502.2193 0.0000 0.0000 1711.8420 -7579.7283 291.5188 -9291.5703 -7492.4793 299.1834 322.8301 365.3119 30340.3212 -16.2907 46.9498
TCL: Running FEP window  10: Lambda1 0.5499999999999996 Lambda2 0.4999999999999996 [dLambda -0.04999999999999999]
TCL: Setting parameter firsttimestep to 0
TCL: Setting parameter alchLambda to 0.5499999999999996
Info: NONBONDED TABLE R-SQUARED SPACING: 0.0625
Info: NONBONDED TABLE SIZE: 705 POINTS
TCL: Setting parameter alchLambda2 to 0.4999999999999996
Info: NONBONDED TABLE R-SQUARED SPACING: 0.0625
Info: NONBONDED TABLE SIZE: 705 POINTS
TCL: Running for 1500000 steps
ETITLE: TS BOND ANGLE DIHED IMPRP ELECT VDW BOUNDARY MISC KINETIC TOTAL TEMP POTENTIAL TOTALAVG TEMPAVG PRESSURE GPRESSURE VOLUME PRESSAVG GPRESSAVG
ENERGY: 0 3.0413 9.1735 3.9705 0.0000 -10809.2302 1501.5445 0.0000 0.0000 1710.9761 -7580.5244 291.3713 -9291.5005 -7580.5244 291.3713 265.7928 356.6636 30340.3212 265.7928 356.6636
ENERGY: 300000 0.2894 8.7383 3.0922 0.0000 -10790.3345 1496.3723 0.0000 0.0000 1755.8147 -7526.0276 299.0072 -9281.8422 -7505.3117 299.1765 375.8581 392.4104 30161.4549 219.2762 271.3248
ENERGY: 600000 1.7816 6.5434 3.6161 0.0000 -10702.7720 1449.4286 0.0000 0.0000 1798.2158 -7443.1865 306.2279 -9241.4023 -7478.5844 301.3599 -3.2827 30.1089 30569.5621 126.0655 176.5291
ENERGY: 900000 1.8040 10.3626 2.8586 0.0000 -10743.8638 1499.4475 0.0000 0.0000 1759.7436 -7469.6475 299.6762 -9229.3911 -7479.6364 300.6640 568.7369 618.0909 30397.3242 224.6320 281.1849
ENERGY: 1200000 1.7830 8.5576 3.4222 0.0000 -10701.8430 1453.8882 0.0000 0.0000 1754.3489 -7479.8430 298.7575 -9234.1919 -7481.5580 300.2109 39.8970 97.5271 30587.5346 130.7273 187.4532
ENERGY: 1500000 0.1644 11.4832 2.9090 0.0000 -10644.2005 1418.4174 0.0000 0.0000 1755.6523 -7455.5742 298.9795 -9211.2264 -7478.8928 299.6742 103.0498 16.2085 30373.4890 146.9406 197.4986
TCL: Running FEP window  11: Lambda1 0.4999999999999996 Lambda2 0.4499999999999996 [dLambda -0.04999999999999999]
TCL: Setting parameter firsttimestep to 0
TCL: Setting parameter alchLambda to 0.4999999999999996
Info: NONBONDED TABLE R-SQUARED SPACING: 0.0625
Info: NONBONDED TABLE SIZE: 705 POINTS
TCL: Setting parameter alchLambda2 to 0.4499999999999996
Info: NONBONDED TABLE R-SQUARED SPACING: 0.0625
Info: NONBONDED TABLE SIZE: 705 POINTS
TCL: Running for 1500000 steps
ETITLE: TS BOND ANGLE DIHED IMPRP ELECT VDW BOUNDARY MISC KINETIC TOTAL TEMP POTENTIAL TOTALAVG TEMPAVG PRESSURE GPRESSURE VOLUME PRESSAVG GPRESSAVG
ENERGY: 0 0.1644 11.4832 2.9090 0.0000 -10644.0197 1418.4425 0.0000 0.0000 1754.7723 -7456.2483 298.8296 -9211.0207 -7456.2483 298.8296 -69.1492 7.3497 30373.4890 -69.1492 7.3497
ENERGY: 300000 2.1327 9.5670 3.2002 0.0000 -10560.6597 1329.6904 0.0000 0.0000 1760.5289 -7455.5407 299.8100 -9216.0696 -7457.3560 303.7683 -987.5466 -880.1396 30479.7324 -522.6548 -439.6673
ENERGY: 600000 1.6031 13.0680 4.7128 0.0000 -10594.7660 1355.8069 0.0000 0.0000 1746.2245 -7473.3507 297.3740 -9219.5752 -7459.4850 300.4476 -797.7460 -643.1659 30461.6856 -445.6465 -367.1902
ENERGY: 900000 1.1197 9.0220 5.3863 0.0000 -10737.3969 1452.6227 0.0000 0.0000 1798.8914 -7470.3548 306.3429 -9269.2462 -7466.9163 300.5370 45.0780 39.9507 30449.9110 -261.7216 -199.4845
ENERGY: 1200000 3.6515 7.9121 5.6417 0.0000 -10547.6727 1355.2629 0.0000 0.0000 1753.5138 -7421.6907 298.6153 -9175.2044 -7458.4579 301.2570 -744.2426 -711.4644 30774.3423 -230.0343 -177.9812
ENERGY: 1500000 3.9506 8.0300 3.0462 0.0000 -10681.4368 1457.5452 0.0000 0.0000 1752.9756 -7455.8891 298.5237 -9208.8648 -7460.6407 300.6949 123.0894 172.2743 30545.3531 -185.4532 -129.1062
TCL: Running FEP window  12: Lambda1 0.4499999999999996 Lambda2 0.39999999999999963 [dLambda -0.04999999999999999]
TCL: Setting parameter firsttimestep to 0
TCL: Setting parameter alchLambda to 0.4499999999999996
Info: NONBONDED TABLE R-SQUARED SPACING: 0.0625
Info: NONBONDED TABLE SIZE: 705 POINTS
TCL: Setting parameter alchLambda2 to 0.39999999999999963
Info: NONBONDED TABLE R-SQUARED SPACING: 0.0625
Info: NONBONDED TABLE SIZE: 705 POINTS
TCL: Running for 1500000 steps
ETITLE: TS BOND ANGLE DIHED IMPRP ELECT VDW BOUNDARY MISC KINETIC TOTAL TEMP POTENTIAL TOTALAVG TEMPAVG PRESSURE GPRESSURE VOLUME PRESSAVG GPRESSAVG
ENERGY: 0 3.9506 8.0300 3.0462 0.0000 -10681.4369 1457.8751 0.0000 0.0000 1752.0788 -7456.4563 298.3710 -9208.5351 -7456.4563 298.3710 86.9115 169.6051 30545.3531 86.9115 169.6051
ENERGY: 300000 3.5149 9.4112 4.1973 0.0000 -10789.4730 1443.8163 0.0000 0.0000 1757.7154 -7570.8179 299.3308 -9328.5333 -7503.7492 300.2684 -425.9039 -360.6487 30764.0479 -220.1702 -145.9656
ENERGY: 600000 1.5208 7.5473 3.7103 0.0000 -10730.3768 1471.6775 0.0000 0.0000 1809.0298 -7436.8911 308.0694 -9245.9209 -7499.7545 300.1042 332.2162 413.2508 30058.7281 -306.0920 -234.7753
ENERGY: 900000 0.5190 12.2089 3.9004 0.0000 -10813.0565 1486.9263 0.0000 0.0000 1734.4779 -7575.0240 295.3736 -9309.5019 -7500.2391 299.1518 176.6644 271.5855 30083.5158 -168.1745 -96.2313
ENERGY: 1200000 2.5491 14.4032 5.2945 0.0000 -10728.5795 1471.1707 0.0000 0.0000 1772.8434 -7462.3186 301.9071 -9235.1620 -7487.5399 299.9493 260.0476 343.6010 30362.7916 -3.5349 67.2476
ENERGY: 1500000 2.5183 13.2559 4.3878 0.0000 -10633.3514 1446.9421 0.0000 0.0000 1797.8925 -7368.3547 306.1728 -9166.2471 -7477.0876 299.9169 231.4264 245.4899 30515.3151 13.1178 78.2905
TCL: Running FEP window  13: Lambda1 0.39999999999999963 Lambda2 0.34999999999999964 [dLambda -0.04999999999999999]
TCL: Setting parameter firsttimestep to 0
TCL: Setting parameter alchLambda to 0.39999999999999963
Info: NONBONDED TABLE R-SQUARED SPACING: 0.0625
Info: NONBONDED TABLE SIZE: 705 POINTS
TCL: Setting parameter alchLambda2 to 0.34999999999999964
Info: NONBONDED TABLE R-SQUARED SPACING: 0.0625
Info: NONBONDED TABLE SIZE: 705 POINTS
TCL: Running for 1500000 steps
ETITLE: TS BOND ANGLE DIHED IMPRP ELECT VDW BOUNDARY MISC KINETIC TOTAL TEMP POTENTIAL TOTALAVG TEMPAVG PRESSURE GPRESSURE VOLUME PRESSAVG GPRESSAVG
ENERGY: 0 2.5183 13.2559 4.3878 0.0000 -10633.3506 1447.0496 0.0000 0.0000 1797.0478 -7369.0911 306.0290 -9166.1389 -7369.0911 306.0290 153.8377 240.9743 30515.3151 153.8377 240.9743
ENERGY: 300000 0.7816 10.9279 3.7103 0.0000 -10788.4603 1536.1683 0.0000 0.0000 1754.9774 -7481.8947 298.8646 -9236.8721 -7424.6864 301.9735 968.5045 1088.7616 29691.3912 -36.2247 41.7368
ENERGY: 600000 1.3830 11.4568 3.5073 0.0000 -10731.9407 1431.1275 0.0000 0.0000 1765.9471 -7518.5189 300.7327 -9284.4660 -7453.9716 301.5838 -484.5942 -406.3862 30801.7789 -263.4888 -194.9851
ENERGY: 900000 1.5883 8.3586 2.6841 0.0000 -10744.7337 1516.0383 0.0000 0.0000 1764.9696 -7451.0948 300.5662 -9216.0644 -7457.1592 300.0203 493.7339 586.4069 30472.1216 -124.3119 -65.4203
ENERGY: 1200000 1.1381 8.3968 3.1439 0.0000 -10797.4402 1492.4582 0.0000 0.0000 1734.2134 -7558.0899 295.3285 -9292.3032 -7465.7330 301.0975 187.0089 276.3813 30080.4855 -18.5818 41.4651
ENERGY: 1500000 1.6464 14.0789 4.7912 0.0000 -10707.2618 1445.3659 0.0000 0.0000 1763.9495 -7477.4299 300.3925 -9241.3794 -7465.8355 300.7684 123.9488 227.4955 29927.2433 18.2829 89.0338
TCL: Running FEP window  14: Lambda1 0.34999999999999964 Lambda2 0.29999999999999966 [dLambda -0.04999999999999999]
TCL: Setting parameter firsttimestep to 0
TCL: Setting parameter alchLambda to 0.34999999999999964
Info: NONBONDED TABLE R-SQUARED SPACING: 0.0625
Info: NONBONDED TABLE SIZE: 705 POINTS
TCL: Setting parameter alchLambda2 to 0.29999999999999966
Info: NONBONDED TABLE R-SQUARED SPACING: 0.0625
Info: NONBONDED TABLE SIZE: 705 POINTS
TCL: Running for 1500000 steps
ETITLE: TS BOND ANGLE DIHED IMPRP ELECT VDW BOUNDARY MISC KINETIC TOTAL TEMP POTENTIAL TOTALAVG TEMPAVG PRESSURE GPRESSURE VOLUME PRESSAVG GPRESSAVG
ENERGY: 0 1.6464 14.0789 4.7912 0.0000 -10707.2625 1445.4355 0.0000 0.0000 1763.1160 -7478.1944 300.2505 -9241.3105 -7478.1944 300.2505 152.6164 219.8353 29927.2433 152.6164 219.8353
ENERGY: 300000 1.0557 10.0210 3.3939 0.0000 -10588.5949 1365.4990 0.0000 0.0000 1711.5318 -7497.0935 291.4660 -9208.6254 -7517.4476 295.8899 -298.2010 -199.7168 30044.9131 57.4698 126.3370
ENERGY: 600000 4.3726 8.5593 3.3009 0.0000 -10755.6721 1494.5590 0.0000 0.0000 1739.1436 -7505.7367 296.1682 -9244.8803 -7502.3839 296.2863 404.6675 430.2598 30280.9789 123.3450 182.9644
ENERGY: 900000 0.6315 10.1926 5.2091 0.0000 -10565.7530 1290.2578 0.0000 0.0000 1786.1981 -7473.2639 304.1813 -9259.4620 -7495.8195 296.9105 -1231.3292 -1208.4145 30611.5027 16.6695 71.7136
ENERGY: 1200000 1.5414 10.1532 4.1478 0.0000 -10599.8313 1424.8883 0.0000 0.0000 1732.4010 -7426.6996 295.0199 -9159.1006 -7475.3873 298.7155 78.1260 181.5516 30279.6755 47.9554 107.8991
ENERGY: 1500000 2.4420 7.4519 2.9507 0.0000 -10648.4361 1421.7001 0.0000 0.0000 1749.5935 -7464.2979 297.9477 -9213.8914 -7463.7805 299.8047 54.5425 91.6215 29978.0615 6.8217 64.4755
TCL: Running FEP window  15: Lambda1 0.29999999999999966 Lambda2 0.24999999999999967 [dLambda -0.04999999999999999]
TCL: Setting parameter firsttimestep to 0
TCL: Setting parameter alchLambda to 0.29999999999999966
Info: NONBONDED TABLE R-SQUARED SPACING: 0.0625
Info: NONBONDED TABLE SIZE: 705 POINTS
TCL: Setting parameter alchLambda2 to 0.24999999999999967
Info: NONBONDED TABLE R-SQUARED SPACING: 0.0625
Info: NONBONDED TABLE SIZE: 705 POINTS
TCL: Running for 1500000 steps
ETITLE: TS BOND ANGLE DIHED IMPRP ELECT VDW BOUNDARY MISC KINETIC TOTAL TEMP POTENTIAL TOTALAVG TEMPAVG PRESSURE GPRESSURE VOLUME PRESSAVG GPRESSAVG
ENERGY: 0 2.4420 7.4519 2.9507 0.0000 -10648.4359 1422.0297 0.0000 0.0000 1748.7207 -7464.8408 297.7991 -9213.5616 -7464.8408 297.7991 1.5108 89.1850 29978.0615 1.5108 89.1850
ENERGY: 300000 3.3087 10.1600 3.0442 0.0000 -10711.8119 1468.0682 0.0000 0.0000 1819.9588 -7407.2720 309.9306 -9227.2309 -7450.3130 300.5168 355.8954 406.7788 30173.7921 -244.8793 -183.8154
ENERGY: 600000 2.3982 5.4352 4.2419 0.0000 -10741.8850 1498.8920 0.0000 0.0000 1760.7724 -7470.1453 299.8514 -9230.9178 -7458.2543 300.3249 649.0174 674.7306 30171.6774 -38.2807 15.5971
ENERGY: 900000 2.8952 14.8473 5.2569 0.0000 -10670.6300 1454.8372 0.0000 0.0000 1790.2462 -7402.5471 304.8707 -9192.7934 -7443.4224 301.6254 260.9972 303.5016 30260.3468 -9.0312 47.0464
ENERGY: 1200000 0.9340 8.6299 4.4809 0.0000 -10651.7003 1408.0453 0.0000 0.0000 1787.1144 -7442.4958 304.3374 -9229.6102 -7454.2120 300.6532 101.2798 122.5910 30073.5125 -34.7160 20.9760
ENERGY: 1500000 3.0820 9.0105 4.6433 0.0000 -10735.8754 1523.4685 0.0000 0.0000 1709.3881 -7486.2830 291.1009 -9195.6711 -7462.2133 300.9305 511.3691 574.8560 30443.1874 -18.8672 34.0343
TCL: Running FEP window  16: Lambda1 0.24999999999999967 Lambda2 0.19999999999999968 [dLambda -0.04999999999999999]
TCL: Setting parameter firsttimestep to 0
TCL: Setting parameter alchLambda to 0.24999999999999967
Info: NONBONDED TABLE R-SQUARED SPACING: 0.0625
Info: NONBONDED TABLE SIZE: 705 POINTS
TCL: Setting parameter alchLambda2 to 0.19999999999999968
Info: NONBONDED TABLE R-SQUARED SPACING: 0.0625
Info: NONBONDED TABLE SIZE: 705 POINTS
TCL: Running for 1500000 steps
ETITLE: TS BOND ANGLE DIHED IMPRP ELECT VDW BOUNDARY MISC KINETIC TOTAL TEMP POTENTIAL TOTALAVG TEMPAVG PRESSURE GPRESSURE VOLUME PRESSAVG GPRESSAVG
ENERGY: 0 3.0820 9.0105 4.6433 0.0000 -10735.8756 1523.3292 0.0000 0.0000 1708.5309 -7487.2797 290.9549 -9195.8106 -7487.2797 290.9549 490.0024 566.5580 30443.1874 490.0024 566.5580
ENERGY: 300000 1.4809 7.3023 4.4876 0.0000 -10623.1461 1370.7756 0.0000 0.0000 1769.3300 -7469.7697 301.3087 -9239.0996 -7497.2371 297.0605 -428.8715 -382.9816 30436.9604 -136.6771 -96.8492
ENERGY: 600000 1.1708 7.5962 5.3079 0.0000 -10529.8380 1344.6001 0.0000 0.0000 1832.5182 -7338.6449 312.0694 -9171.1630 -7448.8325 299.7260 -648.9037 -566.0473 30830.1842 -235.1664 -187.3762
ENERGY: 900000 1.3583 9.1709 4.5883 0.0000 -10516.1605 1302.0963 0.0000 0.0000 1808.2793 -7390.6673 307.9416 -9198.9466 -7443.1530 300.8630 -908.3684 -807.7545 30313.0314 -91.5762 -29.7460
ENERGY: 1200000 3.7004 10.0028 3.5423 0.0000 -10666.6607 1469.0241 0.0000 0.0000 1757.3491 -7423.0419 299.2685 -9180.3910 -7440.0654 300.0777 361.8008 430.3590 30187.2198 -33.3506 27.0721
ENERGY: 1500000 1.0338 13.1869 4.4024 0.0000 -10960.3436 1643.0358 0.0000 0.0000 1817.6172 -7481.0675 309.5318 -9298.6847 -7446.4110 300.6423 1612.2962 1573.0191 29810.0927 143.7437 198.3273
TCL: Running FEP window  17: Lambda1 0.19999999999999968 Lambda2 0.1499999999999997 [dLambda -0.04999999999999999]
TCL: Setting parameter firsttimestep to 0
TCL: Setting parameter alchLambda to 0.19999999999999968
Info: NONBONDED TABLE R-SQUARED SPACING: 0.0625
Info: NONBONDED TABLE SIZE: 705 POINTS
TCL: Setting parameter alchLambda2 to 0.1499999999999997
Info: NONBONDED TABLE R-SQUARED SPACING: 0.0625
Info: NONBONDED TABLE SIZE: 705 POINTS
TCL: Running for 1500000 steps
ETITLE: TS BOND ANGLE DIHED IMPRP ELECT VDW BOUNDARY MISC KINETIC TOTAL TEMP POTENTIAL TOTALAVG TEMPAVG PRESSURE GPRESSURE VOLUME PRESSAVG GPRESSAVG
ENERGY: 0 1.0338 13.1869 4.4024 0.0000 -10960.3421 1643.1793 0.0000 0.0000 1816.7634 -7481.7763 309.3864 -9298.5397 -7481.7763 309.3864 1510.4676 1570.9363 29810.0927 1510.4676 1570.9363
ENERGY: 300000 1.1640 10.2130 4.3708 0.0000 -10657.2654 1403.5960 0.0000 0.0000 1751.7615 -7486.1602 298.3169 -9237.9216 -7512.1392 297.9815 -355.4249 -206.4869 30190.7836 -11.3995 65.0108
ENERGY: 600000 1.8153 12.7607 4.9538 0.0000 -10772.0012 1501.2970 0.0000 0.0000 1735.0121 -7516.1623 295.4646 -9251.1743 -7495.8848 296.7740 299.1403 335.6176 30394.3934 47.4000 104.7861
ENERGY: 900000 1.5639 9.2073 2.8253 0.0000 -10634.8073 1363.4325 0.0000 0.0000 1814.2850 -7443.4933 308.9644 -9257.7783 -7488.7752 299.2774 -616.0664 -551.7208 30452.8748 -45.6994 11.2613
ENERGY: 1200000 3.0623 11.5792 3.0531 0.0000 -10702.5404 1413.6544 0.0000 0.0000 1793.0534 -7478.1380 305.3487 -9271.1915 -7490.5904 299.0212 14.8034 68.1058 29871.5088 -133.5576 -68.0994
ENERGY: 1500000 0.9610 10.1068 4.1502 0.0000 -10778.1999 1480.1544 0.0000 0.0000 1731.8723 -7550.9552 294.9299 -9282.8275 -7499.2676 299.1178 407.9647 431.0002 29908.5198 -138.9810 -78.6359
TCL: Running FEP window  18: Lambda1 0.1499999999999997 Lambda2 0.09999999999999969 [dLambda -0.05 ]
TCL: Setting parameter firsttimestep to 0
TCL: Setting parameter alchLambda to 0.1499999999999997
Info: NONBONDED TABLE R-SQUARED SPACING: 0.0625
Info: NONBONDED TABLE SIZE: 705 POINTS
TCL: Setting parameter alchLambda2 to 0.09999999999999969
Info: NONBONDED TABLE R-SQUARED SPACING: 0.0625
Info: NONBONDED TABLE SIZE: 705 POINTS
TCL: Running for 1500000 steps
ETITLE: TS BOND ANGLE DIHED IMPRP ELECT VDW BOUNDARY MISC KINETIC TOTAL TEMP POTENTIAL TOTALAVG TEMPAVG PRESSURE GPRESSURE VOLUME PRESSAVG GPRESSAVG
ENERGY: 0 0.9610 10.1068 4.1502 0.0000 -10778.1993 1480.3061 0.0000 0.0000 1731.0287 -7551.6465 294.7862 -9282.6752 -7551.6465 294.7862 346.9401 427.8858 29908.5198 346.9401 427.8858
ENERGY: 300000 0.8593 6.8924 3.0119 0.0000 -10702.1603 1490.1513 0.0000 0.0000 1794.2299 -7407.0156 305.5491 -9201.2455 -7454.6274 301.1155 329.6883 410.5289 30624.1978 401.1811 463.5820
ENERGY: 600000 1.6351 6.8272 3.3409 0.0000 -10649.1833 1455.1792 0.0000 0.0000 1717.4595 -7464.7415 292.4754 -9182.2010 -7485.8206 299.8127 405.5418 470.5802 29883.9732 270.0133 319.4537
ENERGY: 900000 3.8261 8.7136 4.3374 0.0000 -10769.4828 1500.6834 0.0000 0.0000 1809.1851 -7442.7372 308.0959 -9251.9223 -7487.9325 299.8104 719.0289 742.1394 29851.3021 267.5244 313.0471
ENERGY: 1200000 0.5698 14.3800 5.0898 0.0000 -10715.9660 1480.4610 0.0000 0.0000 1753.9235 -7461.5419 298.6851 -9215.4654 -7481.7128 300.8591 266.0836 294.5224 30408.2963 249.2180 306.2056
ENERGY: 1500000 2.3056 6.4513 5.1758 0.0000 -10642.0077 1393.8339 0.0000 0.0000 1744.3480 -7489.8930 297.0544 -9234.2410 -7485.6325 300.4265 -367.0325 -351.3870 30275.6094 146.5619 203.8078
TCL: Running FEP window  19: Lambda1 0.09999999999999969 Lambda2 0.049999999999999684 [dLambda -0.05 ]
TCL: Setting parameter firsttimestep to 0
TCL: Setting parameter alchLambda to 0.09999999999999969
Info: NONBONDED TABLE R-SQUARED SPACING: 0.0625
Info: NONBONDED TABLE SIZE: 705 POINTS
TCL: Setting parameter alchLambda2 to 0.049999999999999684
Info: NONBONDED TABLE R-SQUARED SPACING: 0.0625
Info: NONBONDED TABLE SIZE: 705 POINTS
TCL: Running for 1500000 steps
ETITLE: TS BOND ANGLE DIHED IMPRP ELECT VDW BOUNDARY MISC KINETIC TOTAL TEMP POTENTIAL TOTALAVG TEMPAVG PRESSURE GPRESSURE VOLUME PRESSAVG GPRESSAVG
ENERGY: 0 2.3056 6.4513 5.1758 0.0000 -10642.0072 1393.2055 0.0000 0.0000 1743.4211 -7491.4479 296.8966 -9234.8690 -7491.4479 296.8966 -448.5161 -357.7272 30275.6094 -448.5161 -357.7272
ENERGY: 300000 0.9183 7.7166 4.8607 0.0000 -10706.2884 1489.8958 0.0000 0.0000 1774.3750 -7428.5221 302.1679 -9202.8970 -7487.8479 297.8564 469.9539 545.3283 30398.9813 31.8430 93.6666
ENERGY: 600000 1.3918 8.0866 3.4242 0.0000 -10747.4026 1456.1539 0.0000 0.0000 1775.9013 -7502.4447 302.4278 -9278.3461 -7494.1454 299.5517 -27.9886 76.0415 30256.4470 25.8887 103.4604
ENERGY: 900000 3.3251 9.0998 2.8110 0.0000 -10641.7331 1418.5997 0.0000 0.0000 1769.3712 -7438.5263 301.3158 -9207.8975 -7497.2949 299.3985 -216.6913 -100.7527 30158.2589 72.0402 144.2053
ENERGY: 1200000 2.7509 6.6757 4.1409 0.0000 -10788.8473 1473.2125 0.0000 0.0000 1760.7298 -7541.3376 299.8442 -9302.0674 -7505.5042 298.7965 147.7305 200.5128 29922.1905 0.7615 68.2812
ENERGY: 1500000 0.8141 11.1472 4.4895 0.0000 -10782.7267 1493.5765 0.0000 0.0000 1784.9366 -7487.7629 303.9665 -9272.6994 -7498.0189 298.9488 437.0234 511.3433 30061.6630 -85.5027 -19.7478
TCL: Running FEP window  20: Lambda1 0.049999999999999684 Lambda2 0.0    [dLambda -0.049999999999999684]
TCL: Setting parameter firsttimestep to 0
TCL: Setting parameter alchLambda to 0.049999999999999684
Info: NONBONDED TABLE R-SQUARED SPACING: 0.0625
Info: NONBONDED TABLE SIZE: 705 POINTS
TCL: Setting parameter alchLambda2 to 0.0
Info: NONBONDED TABLE R-SQUARED SPACING: 0.0625
Info: NONBONDED TABLE SIZE: 705 POINTS
TCL: Running for 1500000 steps
ETITLE: TS BOND ANGLE DIHED IMPRP ELECT VDW BOUNDARY MISC KINETIC TOTAL TEMP POTENTIAL TOTALAVG TEMPAVG PRESSURE GPRESSURE VOLUME PRESSAVG GPRESSAVG
ENERGY: 0 0.8141 11.1472 4.4895 0.0000 -10782.7280 1492.6371 0.0000 0.0000 1784.0840 -7489.5562 303.8213 -9273.6401 -7489.5562 303.8213 422.5058 507.5665 30061.6630 422.5058 507.5665
ENERGY: 300000 2.6758 6.5889 4.0025 0.0000 -10749.7734 1469.9998 0.0000 0.0000 1799.0434 -7467.4631 306.3688 -9266.5064 -7447.0666 306.6342 206.8836 302.3680 30067.3324 -119.0143 -36.2819
ENERGY: 600000 0.7769 8.4542 4.9974 0.0000 -10604.8126 1420.8600 0.0000 0.0000 1783.0842 -7386.6399 303.6510 -9169.7241 -7444.1580 304.4258 -142.3985 -136.7796 30617.2492 62.2514 120.9331
ENERGY: 900000 0.5413 12.1548 3.3375 0.0000 -10717.8234 1458.6577 0.0000 0.0000 1754.5026 -7488.6294 298.7837 -9243.1320 -7462.3153 303.3202 8.7671 104.2645 30520.6490 187.0744 247.6629
ENERGY: 1200000 1.2685 8.5546 3.5784 0.0000 -10616.9419 1391.7010 0.0000 0.0000 1776.6008 -7435.2387 302.5469 -9211.8395 -7463.0930 302.8625 -196.4649 -169.4928 29956.0097 91.8101 139.8593
ENERGY: 1500000 1.0274 7.7350 3.4698 0.0000 -10635.7128 1419.7139 0.0000 0.0000 1749.4660 -7454.3007 297.9260 -9203.7666 -7464.7948 302.0147 -33.3265 -40.8987 30084.9992 31.3749 78.8223
TCL: Exiting due to exit command.
