Info: SIMULATION PARAMETERS:
Info: TIMESTEP               2
Info: NUMBER OF STEPS        0
Info: STEPS PER CYCLE        10
Info: PERIODIC CELL BASIS 1  31.5956 0 0
Info: PERIODIC CELL BASIS 2  0 31.0744 0
Info: PERIODIC CELL BASIS 3  0 0 30.6734
Info: PERIODIC CELL CENTER   0 0 0
Info: WRAPPING WATERS AROUND PERIODIC BOUNDARIES ON OUTPUT.
Info: WRAPPING ALL CLUSTERS AROUND PERIODIC BOUNDARIES ON OUTPUT.
Info: FIRST LDB TIMESTEP     50
Info: LAST LDB TIMESTEP     -1
Info: HOM BACKGROUND SCALING 1
Info: PME BACKGROUND SCALING 1
Info: MIN ATOMS PER PATCH    40
Info: EMPTY PATCH LOAD       40 ATOMS
Info: VELOCITY FILE          mobley_2410897_equil.vel
Info: CENTER OF MASS MOVING INITIALLY? NO
Info: DIELECTRIC             1
Info: EXCLUDE                SCALED ONE-FOUR
Info: 1-4 ELECTROSTATICS SCALED BY 0.833333
Info: MODIFIED 1-4 VDW PARAMETERS WILL BE USED
Info: DCD FILENAME           mobley_2410897_prod.dcd
Info: DCD FREQUENCY          100000
Info: DCD FIRST STEP         100000
Info: DCD FILE WILL CONTAIN UNIT CELL DATA
Info: XST FILENAME           mobley_2410897_prod.xst
Info: XST FREQUENCY          100000
Info: NO VELOCITY DCD OUTPUT
Info: NO FORCE DCD OUTPUT
Info: OUTPUT FILENAME        mobley_2410897_prod
Info: BINARY OUTPUT FILES WILL BE USED
Info: RESTART FILENAME       mobley_2410897_prod.restart
Info: RESTART FREQUENCY      100000
Info: BINARY RESTART FILES WILL BE USED
Info: CUTOFF                 9
Info: PAIRLIST DISTANCE      11
Info: PAIRLIST SHRINK RATE   0.01
Info: PAIRLIST GROW RATE     0.01
Info: PAIRLIST TRIGGER       0.3
Info: PAIRLISTS PER CYCLE    2
Info: PAIRLISTS ENABLED
Info: MARGIN                 2
Info: HYDROGEN GROUP CUTOFF  2.5
Info: PATCH DIMENSION        15.5
Info: ENERGY OUTPUT STEPS    100000
Info: ENERGY EVALUATION STEPS    100000
Info: OUTPUT ENERGY PRECISION 4
Info: CROSSTERM ENERGY INCLUDED IN DIHEDRAL
Info: TIMING OUTPUT STEPS    1000000
Info: PRESSURE OUTPUT STEPS  100000
Info: ALCHEMICAL FEP ON
Info: FEP CURRENT LAMBDA VALUE     1
Info: FEP COMPARISON LAMBDA VALUE  0.95
Info: FEP INTRA-ALCHEMICAL NON-BONDED INTERACTIONS WILL BE RETAINED
Info: FEP INTRA-ALCHEMICAL BONDED INTERACTIONS WILL BE RETAINED
Info: FEP VDW SHIFTING COEFFICIENT 5
Info: FEP ELEC. ACTIVE FOR ANNIHILATED PARTICLES BETWEEN LAMBDA = 0 AND LAMBDA = 0.5
Info: FEP ELEC. ACTIVE FOR EXNIHILATED PARTICLES BETWEEN LAMBDA = 0.5 AND LAMBDA = 1
Info: FEP VDW ACTIVE FOR ANNIHILATED PARTICLES BETWEEN LAMBDA = 0 AND LAMBDA = 1
Info: FEP VDW ACTIVE FOR EXNIHILATED PARTICLES BETWEEN LAMBDA = 0 AND LAMBDA = 1
Info: FEP BOND ACTIVE FOR ANNIHILATED PARTICLES BETWEEN LAMBDA = 1 AND LAMBDA = 1
Info: FEP BOND ACTIVE FOR EXNIHILATED PARTICLES BETWEEN LAMBDA = 0 AND LAMBDA = 0
Info: LANGEVIN DYNAMICS ACTIVE
Info: LANGEVIN TEMPERATURE   300
Info: LANGEVIN USING BBK INTEGRATOR
Info: LANGEVIN DAMPING COEFFICIENT IS 1 INVERSE PS
Info: LANGEVIN DYNAMICS APPLIED TO HYDROGENS
Info: LANGEVIN PISTON PRESSURE CONTROL ACTIVE
Info:        TARGET PRESSURE IS 1.01325 BAR
Info:     OSCILLATION PERIOD IS 50 FS
Info:             DECAY TIME IS 25 FS
Info:     PISTON TEMPERATURE IS 300 K
Info:       PRESSURE CONTROL IS GROUP-BASED
Info:    INITIAL STRAIN RATE IS 0.000199961 0.000199961 0.000199961
Info:       CELL FLUCTUATION IS ISOTROPIC
Info: PARTICLE MESH EWALD (PME) ACTIVE
Info: PME TOLERANCE               1e-06
Info: PME EWALD COEFFICIENT       0.348832
Info: PME INTERPOLATION ORDER     4
Info: PME GRID DIMENSIONS         32 32 32
Info: PME MAXIMUM GRID SPACING    1
Info: PME CALCULATION WILL BE PERFORMED ON GPU
Info: FULL ELECTROSTATIC EVALUATION FREQUENCY      2
Info: USING VERLET I (r-RESPA) MTS SCHEME.
Info: C1 SPLITTING OF LONG RANGE ELECTROSTATICS
Info: PLACING ATOMS IN PATCHES BY HYDROGEN GROUPS
Info: RIGID BONDS TO HYDROGEN : ALL
Info:         ERROR TOLERANCE : 1e-08
Info:          MAX ITERATIONS : 100
Info: RIGID WATER USING SETTLE ALGORITHM
Info: RANDOM NUMBER SEED     1743519445
Info: USE HYDROGEN BONDS?    NO
Info: Using AMBER format force field!
Info: AMBER PARM FILE        mobley_2410897.prmtop
Info: COORDINATE PDB         mobley_2410897.pdb
Info: Exclusions will be read from PARM file!
Info: SCNB (VDW SCALING)     2
Info: USING ARITHMETIC MEAN TO COMBINE L-J SIGMA PARAMETERS
Info: BINARY COORDINATES     mobley_2410897_equil.coor
Info: SUMMARY OF PARAMETERS:
Info: 7 BONDS
Info: 8 ANGLES
Info:   8 HARMONIC
Info:   0 COSINE-BASED
Info: 2 DIHEDRAL
Info: 0 IMPROPER
Info: 0 CROSSTERM
Info: 0 VDW
Info: 28 VDW_PAIRS
Info: 0 NBTHOLE_PAIRS
Info: To read alchdata from file: mobley_2410897.pdb
Info: To read alchflag data from column: 5
Info: STRUCTURE SUMMARY:
Info: 2962 ATOMS
Info: 2961 BONDS
Info: 15 ANGLES
Info: 15 DIHEDRALS
Info: 0 IMPROPERS
Info: 0 CROSSTERMS
Info: 2991 EXCLUSIONS
Info: 2959 RIGID BONDS
Info: ALCH: 0 ATOMS TO DISAPPEAR IN FINAL STATE
Info: ALCH: 10 ATOMS TO APPEAR IN FINAL STATE
Info: 5927 DEGREES OF FREEDOM
Info: 987 HYDROGEN GROUPS
Info: 4 ATOMS IN LARGEST HYDROGEN GROUP
Info: 987 MIGRATION GROUPS
Info: 4 ATOMS IN LARGEST MIGRATION GROUP
Info: TOTAL MASS = 17772.8 amu
Info: TOTAL CHARGE = -0.000100013 e
Info: MASS DENSITY = 0.979997 g/cm^3
Info: ATOM DENSITY = 0.0983544 atoms/A^3
Info: ADDED 0 IMPLICIT EXCLUSIONS
Info: NONBONDED TABLE R-SQUARED SPACING: 0.0625
Info: NONBONDED TABLE SIZE: 705 POINTS
Info: REDUCING NUMBER OF PATCHES TO IMPROVE LOAD BALANCE
Info: REMOVING COM VELOCITY -0.0545225 0.161047 0.154864
Info: Use 3D box decompostion in PME FFT.
Info: Updated CUDA force table with 4096 elements.
Info: Updated CUDA LJ table with 7 x 7 elements.
Info: Found 13 unique exclusion lists needing 20 bytes
TCL: Running for 1500000 steps
ETITLE: TS BOND ANGLE DIHED IMPRP ELECT VDW BOUNDARY MISC KINETIC TOTAL TEMP POTENTIAL TOTALAVG TEMPAVG PRESSURE GPRESSURE VOLUME PRESSAVG GPRESSAVG
ENERGY: 0 1.5537 1.7096 0.0746 0.0000 -10791.5853 1423.0343 0.0000 0.0000 1771.9919 -7593.2211 300.8965 -9365.2131 -7593.2211 300.8965 -213.9685 -122.7824 30115.5819 -213.9685 -122.7824
ENERGY: 300000 0.0179 5.1829 0.3241 0.0000 -10719.7579 1430.0759 0.0000 0.0000 1746.7079 -7537.4493 296.6031 -9284.1571 -7524.9479 300.2305 -60.1480 -11.3418 30559.3006 367.8079 426.1443
ENERGY: 600000 1.4194 1.7604 1.2069 0.0000 -10666.4802 1409.2076 0.0000 0.0000 1722.1887 -7530.6972 292.4396 -9252.8859 -7535.5549 298.5144 -360.5963 -263.0716 30783.9427 226.7615 285.0982
ENERGY: 900000 0.9188 9.6164 0.4373 0.0000 -10807.8367 1499.9493 0.0000 0.0000 1773.1537 -7523.7613 301.0938 -9296.9150 -7524.6934 299.7842 305.6725 340.9116 30677.9542 241.0805 293.6226
ENERGY: 1200000 0.1152 4.3688 1.0587 0.0000 -10912.0691 1517.1644 0.0000 0.0000 1687.4791 -7701.8830 286.5457 -9389.3620 -7543.3428 298.7238 149.7293 250.4460 30246.6484 146.3059 200.7259
ENERGY: 1500000 0.7567 2.6900 0.3186 0.0000 -10858.3501 1500.2887 0.0000 0.0000 1761.7169 -7592.5793 299.1518 -9354.2962 -7548.9492 299.5781 -60.8232 -10.2500 30755.1020 63.2057 121.2723
TCL: Running FEP window   2: Lambda1 0.95   Lambda2 0.8999999999999999 [dLambda -0.050000000000000044]
TCL: Setting parameter firsttimestep to 0
TCL: Setting parameter alchLambda to 0.95
Info: NONBONDED TABLE R-SQUARED SPACING: 0.0625
Info: NONBONDED TABLE SIZE: 705 POINTS
TCL: Setting parameter alchLambda2 to 0.8999999999999999
Info: NONBONDED TABLE R-SQUARED SPACING: 0.0625
Info: NONBONDED TABLE SIZE: 705 POINTS
TCL: Running for 1500000 steps
ETITLE: TS BOND ANGLE DIHED IMPRP ELECT VDW BOUNDARY MISC KINETIC TOTAL TEMP POTENTIAL TOTALAVG TEMPAVG PRESSURE GPRESSURE VOLUME PRESSAVG GPRESSAVG
ENERGY: 0 0.7567 2.6900 0.3186 0.0000 -10857.5022 1500.2345 0.0000 0.0000 1760.8658 -7592.6366 299.0072 -9353.5024 -7592.6366 299.0072 -90.8827 -15.8098 30755.1020 -90.8827 -15.8098
ENERGY: 300000 0.1370 2.7202 0.3295 0.0000 -10891.4700 1520.7473 0.0000 0.0000 1748.5051 -7619.0309 296.9083 -9367.5360 -7560.2459 298.3100 496.2554 571.3820 30172.2127 -14.7318 76.5527
ENERGY: 600000 0.7506 5.3000 1.3017 0.0000 -10796.7860 1462.9866 0.0000 0.0000 1777.9832 -7548.4638 301.9139 -9326.4471 -7562.4998 296.8711 128.5685 189.1234 30550.1489 -47.7710 24.9843
ENERGY: 900000 1.1291 4.7814 1.0496 0.0000 -10669.7140 1348.0131 0.0000 0.0000 1752.2330 -7562.5077 297.5413 -9314.7407 -7540.8382 297.0334 -778.2013 -754.8388 30694.1272 -185.3363 -117.5112
ENERGY: 1200000 0.2703 2.7087 0.0715 0.0000 -10665.7977 1379.1382 0.0000 0.0000 1766.4494 -7517.1597 299.9554 -9283.6091 -7547.0697 297.0992 -482.2399 -364.2088 30378.5171 -179.5779 -107.3020
ENERGY: 1500000 0.1572 4.8071 0.9124 0.0000 -10682.4932 1384.8659 0.0000 0.0000 1771.0921 -7520.6584 300.7437 -9291.7505 -7548.4037 296.6062 -566.3476 -486.5863 30938.2739 -235.9866 -165.7477
TCL: Running FEP window   3: Lambda1 0.8999999999999999 Lambda2 0.8499999999999999 [dLambda -0.050000000000000044]
TCL: Setting parameter firsttimestep to 0
TCL: Setting parameter alchLambda to 0.8999999999999999
Info: NONBONDED TABLE R-SQUARED SPACING: 0.0625
Info: NONBONDED TABLE SIZE: 705 POINTS
TCL: Setting parameter alchLambda2 to 0.8499999999999999
Info: NONBONDED TABLE R-SQUARED SPACING: 0.0625
Info: NONBONDED TABLE SIZE: 705 POINTS
TCL: Running for 1500000 steps
ETITLE: TS BOND ANGLE DIHED IMPRP ELECT VDW BOUNDARY MISC KINETIC TOTAL TEMP POTENTIAL TOTALAVG TEMPAVG PRESSURE GPRESSURE VOLUME PRESSAVG GPRESSAVG
ENERGY: 0 0.1572 4.8071 0.9124 0.0000 -10681.0095 1383.8836 0.0000 0.0000 1770.2485 -7521.0007 300.6005 -9291.2491 -7521.0007 300.6005 -591.5492 -503.0543 30938.2739 -591.5492 -503.0543
ENERGY: 300000 0.7278 5.7097 0.1784 0.0000 -10664.2040 1436.8939 0.0000 0.0000 1806.1152 -7414.5790 306.6909 -9220.6942 -7522.0687 299.7216 144.0238 192.0346 30442.4472 -239.9068 -172.5759
ENERGY: 600000 0.2865 2.7133 0.2650 0.0000 -10763.4525 1458.2958 0.0000 0.0000 1815.2360 -7486.6559 308.2397 -9301.8919 -7525.2013 300.8104 74.4442 131.1599 30454.6769 -167.5600 -108.3690
ENERGY: 900000 2.0422 3.4083 0.3215 0.0000 -11010.4380 1543.1103 0.0000 0.0000 1797.6937 -7663.8619 305.2609 -9461.5557 -7562.6546 300.9532 379.7430 406.6751 30139.0931 38.1446 95.9747
ENERGY: 1200000 0.9534 4.4346 0.1878 0.0000 -10699.2280 1382.9752 0.0000 0.0000 1791.4002 -7519.2768 304.1922 -9310.6770 -7555.0116 301.8705 -695.8183 -630.2449 30868.3510 -89.7684 -26.8096
ENERGY: 1500000 0.5645 2.2123 0.2474 0.0000 -10780.9739 1502.0626 0.0000 0.0000 1739.4030 -7536.4841 295.3627 -9275.8871 -7550.9077 301.2684 399.2555 500.8637 30579.5560 -42.4910 21.1625
TCL: Running FEP window   4: Lambda1 0.8499999999999999 Lambda2 0.7999999999999998 [dLambda -0.050000000000000044]
TCL: Setting parameter firsttimestep to 0
TCL: Setting parameter alchLambda to 0.8499999999999999
Info: NONBONDED TABLE R-SQUARED SPACING: 0.0625
Info: NONBONDED TABLE SIZE: 705 POINTS
TCL: Setting parameter alchLambda2 to 0.7999999999999998
Info: NONBONDED TABLE R-SQUARED SPACING: 0.0625
Info: NONBONDED TABLE SIZE: 705 POINTS
TCL: Running for 1500000 steps
ETITLE: TS BOND ANGLE DIHED IMPRP ELECT VDW BOUNDARY MISC KINETIC TOTAL TEMP POTENTIAL TOTALAVG TEMPAVG PRESSURE GPRESSURE VOLUME PRESSAVG GPRESSAVG
ENERGY: 0 0.5645 2.2123 0.2474 0.0000 -10779.8063 1501.6046 0.0000 0.0000 1738.5149 -7536.6626 295.2119 -9275.1775 -7536.6626 295.2119 403.1906 491.5513 30579.5560 403.1906 491.5513
ENERGY: 300000 0.8233 2.7593 1.1320 0.0000 -10811.7010 1499.9522 0.0000 0.0000 1774.2272 -7532.8070 301.2761 -9307.0342 -7566.2355 297.4051 569.6318 571.1644 30081.5168 49.3636 127.7767
ENERGY: 600000 0.1953 3.4540 0.4872 0.0000 -10825.3115 1480.5361 0.0000 0.0000 1788.3490 -7552.2898 303.6741 -9340.6388 -7564.4230 298.2398 139.0000 189.7392 30478.3369 -4.9692 71.0075
ENERGY: 900000 0.8478 2.7003 0.1620 0.0000 -10718.0026 1422.3517 0.0000 0.0000 1773.7713 -7518.1695 301.1987 -9291.9408 -7550.1786 299.7709 -114.8460 -52.0000 30455.8278 -47.5012 30.1356
ENERGY: 1200000 0.4965 6.6136 0.8437 0.0000 -10829.2467 1459.8334 0.0000 0.0000 1816.1655 -7545.2941 308.3975 -9361.4595 -7552.9474 300.4932 -8.8132 104.4842 30327.0624 -25.3344 52.9913
ENERGY: 1500000 0.6772 4.9663 0.6529 0.0000 -10639.6765 1359.4052 0.0000 0.0000 1780.0028 -7493.9723 302.2568 -9273.9750 -7549.5465 300.0963 -658.8489 -546.0083 30388.7159 -78.8947 1.9836
TCL: Running FEP window   5: Lambda1 0.7999999999999998 Lambda2 0.7499999999999998 [dLambda -0.050000000000000044]
TCL: Setting parameter firsttimestep to 0
TCL: Setting parameter alchLambda to 0.7999999999999998
Info: NONBONDED TABLE R-SQUARED SPACING: 0.0625
Info: NONBONDED TABLE SIZE: 705 POINTS
TCL: Setting parameter alchLambda2 to 0.7499999999999998
Info: NONBONDED TABLE R-SQUARED SPACING: 0.0625
Info: NONBONDED TABLE SIZE: 705 POINTS
TCL: Running for 1500000 steps
ETITLE: TS BOND ANGLE DIHED IMPRP ELECT VDW BOUNDARY MISC KINETIC TOTAL TEMP POTENTIAL TOTALAVG TEMPAVG PRESSURE GPRESSURE VOLUME PRESSAVG GPRESSAVG
ENERGY: 0 0.6772 4.9663 0.6529 0.0000 -10638.6852 1359.3315 0.0000 0.0000 1779.1150 -7493.9423 302.1061 -9273.0573 -7493.9423 302.1061 -646.3175 -548.8348 30388.7159 -646.3175 -548.8348
ENERGY: 300000 2.6017 3.8043 0.4011 0.0000 -10594.1090 1317.8407 0.0000 0.0000 1681.4011 -7588.0602 285.5136 -9269.4613 -7541.0595 294.5300 -1089.2698 -990.9097 30412.3622 -433.2306 -310.5663
ENERGY: 600000 0.4104 6.5394 0.5866 0.0000 -10589.6025 1339.2592 0.0000 0.0000 1794.2872 -7448.5197 304.6824 -9242.8069 -7520.5533 297.6850 -729.9126 -677.8980 30942.4649 -501.7465 -396.7527
ENERGY: 900000 0.3873 5.6658 0.5440 0.0000 -10772.1312 1436.4971 0.0000 0.0000 1767.2307 -7561.8065 300.0880 -9329.0371 -7525.2340 298.3288 -440.4016 -356.0644 30796.8046 -432.0535 -337.0390
ENERGY: 1200000 0.9362 1.9882 1.8588 0.0000 -10593.3977 1344.2766 0.0000 0.0000 1786.7629 -7457.5751 303.4048 -9244.3380 -7527.1015 298.7194 -722.8701 -648.2548 30664.4801 -370.9575 -281.4831
ENERGY: 1500000 0.5709 5.4261 0.7032 0.0000 -10685.7815 1398.6729 0.0000 0.0000 1735.1687 -7545.2398 294.6437 -9280.4085 -7527.3163 298.6487 -204.1892 -227.2794 30534.5105 -375.5144 -301.0037
TCL: Running FEP window   6: Lambda1 0.7499999999999998 Lambda2 0.6999999999999997 [dLambda -0.050000000000000044]
TCL: Setting parameter firsttimestep to 0
TCL: Setting parameter alchLambda to 0.7499999999999998
Info: NONBONDED TABLE R-SQUARED SPACING: 0.0625
Info: NONBONDED TABLE SIZE: 705 POINTS
TCL: Setting parameter alchLambda2 to 0.6999999999999997
Info: NONBONDED TABLE R-SQUARED SPACING: 0.0625
Info: NONBONDED TABLE SIZE: 705 POINTS
TCL: Running for 1500000 steps
ETITLE: TS BOND ANGLE DIHED IMPRP ELECT VDW BOUNDARY MISC KINETIC TOTAL TEMP POTENTIAL TOTALAVG TEMPAVG PRESSURE GPRESSURE VOLUME PRESSAVG GPRESSAVG
ENERGY: 0 0.5709 5.4261 0.7032 0.0000 -10684.6836 1398.8035 0.0000 0.0000 1734.2546 -7544.9254 294.4885 -9279.1800 -7544.9254 294.4885 -309.3865 -228.5610 30534.5105 -309.3865 -228.5610
ENERGY: 300000 0.9988 3.1701 0.1634 0.0000 -10667.9184 1386.4463 0.0000 0.0000 1787.5617 -7489.5780 303.5404 -9277.1398 -7485.3364 303.7581 -450.1599 -341.6348 30568.0381 5.3696 83.3724
ENERGY: 600000 0.6718 2.9088 2.0384 0.0000 -10764.8255 1486.6784 0.0000 0.0000 1765.7235 -7506.8045 299.8321 -9272.5280 -7508.2324 301.4534 449.2233 525.4738 30354.2834 115.9794 197.2160
ENERGY: 900000 0.7159 3.3330 0.5167 0.0000 -10848.2424 1524.2142 0.0000 0.0000 1713.1910 -7606.2717 290.9117 -9319.4627 -7518.6500 298.9197 185.7013 286.3377 30823.8648 85.9442 160.9027
ENERGY: 1200000 0.6348 7.0390 0.4696 0.0000 -10803.5280 1458.3153 0.0000 0.0000 1814.0008 -7523.0685 308.0299 -9337.0693 -7520.3187 299.6781 -128.4232 -95.1813 30404.5882 -3.3111 62.7839
ENERGY: 1500000 0.1083 5.1270 0.4442 0.0000 -10713.8689 1425.2716 0.0000 0.0000 1714.4691 -7568.4487 291.1288 -9282.9178 -7527.3013 299.2458 32.2044 81.5501 30232.3663 -8.0227 54.5211
TCL: Running FEP window   7: Lambda1 0.6999999999999997 Lambda2 0.6499999999999997 [dLambda -0.050000000000000044]
TCL: Setting parameter firsttimestep to 0
TCL: Setting parameter alchLambda to 0.6999999999999997
Info: NONBONDED TABLE R-SQUARED SPACING: 0.0625
Info: NONBONDED TABLE SIZE: 705 POINTS
TCL: Setting parameter alchLambda2 to 0.6499999999999997
Info: NONBONDED TABLE R-SQUARED SPACING: 0.0625
Info: NONBONDED TABLE SIZE: 705 POINTS
TCL: Running for 1500000 steps
ETITLE: TS BOND ANGLE DIHED IMPRP ELECT VDW BOUNDARY MISC KINETIC TOTAL TEMP POTENTIAL TOTALAVG TEMPAVG PRESSURE GPRESSURE VOLUME PRESSAVG GPRESSAVG
ENERGY: 0 0.1083 5.1270 0.4442 0.0000 -10712.3435 1424.7075 0.0000 0.0000 1713.5842 -7568.3723 290.9785 -9281.9565 -7568.3723 290.9785 -16.7332 72.4208 30232.3663 -16.7332 72.4208
ENERGY: 300000 0.3033 3.5507 0.5488 0.0000 -10661.2912 1431.9564 0.0000 0.0000 1773.9537 -7450.9783 301.2297 -9224.9320 -7493.5486 300.9895 354.1758 385.3672 30087.7680 71.3776 136.0967
ENERGY: 600000 1.0528 3.1999 0.3632 0.0000 -10764.3818 1465.0028 0.0000 0.0000 1782.7047 -7512.0583 302.7156 -9294.7631 -7506.1715 302.6544 327.1280 403.6294 30199.3192 -19.3825 57.4901
ENERGY: 900000 0.1980 2.9397 0.2006 0.0000 -10813.3333 1499.2841 0.0000 0.0000 1737.1275 -7573.5834 294.9763 -9310.7110 -7523.7430 301.7914 396.5322 459.8761 30482.6142 -136.6041 -69.3808
ENERGY: 1200000 0.1197 5.7924 0.7808 0.0000 -10929.0321 1524.1907 0.0000 0.0000 1749.7797 -7648.3688 297.1248 -9398.1485 -7536.8942 301.4512 568.5162 655.7627 29837.5627 8.6561 67.2042
ENERGY: 1500000 1.3861 3.6035 0.7152 0.0000 -10678.7589 1401.1472 0.0000 0.0000 1772.0490 -7499.8578 300.9062 -9271.9068 -7539.8925 300.6784 -443.0677 -387.9461 30724.9845 -85.1540 -26.7865
TCL: Running FEP window   8: Lambda1 0.6499999999999997 Lambda2 0.5999999999999996 [dLambda -0.050000000000000044]
TCL: Setting parameter firsttimestep to 0
TCL: Setting parameter alchLambda to 0.6499999999999997
Info: NONBONDED TABLE R-SQUARED SPACING: 0.0625
Info: NONBONDED TABLE SIZE: 705 POINTS
TCL: Setting parameter alchLambda2 to 0.5999999999999996
Info: NONBONDED TABLE R-SQUARED SPACING: 0.0625
Info: NONBONDED TABLE SIZE: 705 POINTS
TCL: Running for 1500000 steps
ETITLE: TS BOND ANGLE DIHED IMPRP ELECT VDW BOUNDARY MISC KINETIC TOTAL TEMP POTENTIAL TOTALAVG TEMPAVG PRESSURE GPRESSURE VOLUME PRESSAVG GPRESSAVG
ENERGY: 0 1.3861 3.6035 0.7152 0.0000 -10678.4862 1401.5200 0.0000 0.0000 1771.1769 -7500.0844 300.7581 -9271.2613 -7500.0844 300.7581 -461.5825 -386.0903 30724.9845 -461.5825 -386.0903
ENERGY: 300000 0.7639 5.2545 0.3059 0.0000 -10690.3987 1360.1743 0.0000 0.0000 1810.4187 -7513.4814 307.4217 -9323.9001 -7505.1968 301.4463 -757.9899 -696.4010 30326.9886 -697.7169 -623.3595
ENERGY: 600000 1.1206 4.8875 0.2476 0.0000 -10755.0220 1439.8657 0.0000 0.0000 1751.2008 -7557.6998 297.3661 -9308.9006 -7526.6144 300.4950 66.0742 139.7588 29982.6684 -419.5228 -354.2606
ENERGY: 900000 0.7673 3.3906 0.9860 0.0000 -10726.1907 1451.5990 0.0000 0.0000 1730.0310 -7539.4168 293.7713 -9269.4478 -7517.9518 299.6259 -41.4529 11.9102 30532.7616 -248.7401 -184.9627
ENERGY: 1200000 0.5066 6.1095 1.0229 0.0000 -10718.7632 1456.9688 0.0000 0.0000 1715.4433 -7538.7122 291.2942 -9254.1555 -7516.8183 299.3915 44.4269 91.3127 30617.6185 -179.4485 -123.8946
ENERGY: 1500000 1.6332 7.1848 1.3837 0.0000 -10607.8871 1345.8640 0.0000 0.0000 1770.1930 -7481.6284 300.5911 -9251.8215 -7517.6042 299.5157 -1037.2005 -859.5591 30796.9201 -174.3196 -108.7446
TCL: Running FEP window   9: Lambda1 0.5999999999999996 Lambda2 0.5499999999999996 [dLambda -0.050000000000000044]
TCL: Setting parameter firsttimestep to 0
TCL: Setting parameter alchLambda to 0.5999999999999996
Info: NONBONDED TABLE R-SQUARED SPACING: 0.0625
Info: NONBONDED TABLE SIZE: 705 POINTS
TCL: Setting parameter alchLambda2 to 0.5499999999999996
Info: NONBONDED TABLE R-SQUARED SPACING: 0.0625
Info: NONBONDED TABLE SIZE: 705 POINTS
TCL: Running for 1500000 steps
ETITLE: TS BOND ANGLE DIHED IMPRP ELECT VDW BOUNDARY MISC KINETIC TOTAL TEMP POTENTIAL TOTALAVG TEMPAVG PRESSURE GPRESSURE VOLUME PRESSAVG GPRESSAVG
ENERGY: 0 1.6332 7.1848 1.3837 0.0000 -10606.0959 1345.0862 0.0000 0.0000 1769.2825 -7481.5253 300.4365 -9250.8079 -7481.5253 300.4365 -959.6802 -867.1042 30796.9201 -959.6802 -867.1042
ENERGY: 300000 0.7585 3.8711 0.2468 0.0000 -10744.1103 1456.1522 0.0000 0.0000 1764.6595 -7518.4222 299.6514 -9283.0817 -7538.1282 299.2099 -137.8856 -75.6755 30986.6264 -691.0700 -628.1665
ENERGY: 600000 0.6592 4.0107 0.6379 0.0000 -10735.7087 1419.0822 0.0000 0.0000 1795.0337 -7516.2850 304.8092 -9311.3187 -7533.8503 300.1837 -56.5062 -3.4233 30192.5057 -448.0998 -379.3854
ENERGY: 900000 0.0285 5.9785 1.3385 0.0000 -10752.7345 1485.2090 0.0000 0.0000 1804.7394 -7455.4405 306.4573 -9260.1799 -7534.9817 301.0753 480.4565 549.7554 30218.6256 -214.5351 -153.6858
ENERGY: 1200000 1.1875 3.3139 0.3497 0.0000 -10792.7431 1411.0357 0.0000 0.0000 1773.2103 -7603.6461 301.1034 -9376.8564 -7525.7728 301.5931 -504.1398 -414.2645 30256.5683 -161.5238 -100.4662
ENERGY: 1500000 1.1224 2.3072 2.1409 0.0000 -10767.2788 1419.6244 0.0000 0.0000 1719.1309 -7622.9529 291.9204 -9342.0839 -7532.8959 300.3216 -527.6392 -472.9451 30454.0982 -138.1937 -69.3188
TCL: Running FEP window  10: Lambda1 0.5499999999999996 Lambda2 0.4999999999999996 [dLambda -0.04999999999999999]
TCL: Setting parameter firsttimestep to 0
TCL: Setting parameter alchLambda to 0.5499999999999996
Info: NONBONDED TABLE R-SQUARED SPACING: 0.0625
Info: NONBONDED TABLE SIZE: 705 POINTS
TCL: Setting parameter alchLambda2 to 0.4999999999999996
Info: NONBONDED TABLE R-SQUARED SPACING: 0.0625
Info: NONBONDED TABLE SIZE: 705 POINTS
TCL: Running for 1500000 steps
ETITLE: TS BOND ANGLE DIHED IMPRP ELECT VDW BOUNDARY MISC KINETIC TOTAL TEMP POTENTIAL TOTALAVG TEMPAVG PRESSURE GPRESSURE VOLUME PRESSAVG GPRESSAVG
ENERGY: 0 1.1224 2.3072 2.1409 0.0000 -10767.1953 1419.4743 0.0000 0.0000 1718.2323 -7623.9182 291.7678 -9342.1505 -7623.9182 291.7678 -570.7194 -474.9524 30454.0982 -570.7194 -474.9524
ENERGY: 300000 0.1022 1.7382 0.6544 0.0000 -10770.6777 1432.9761 0.0000 0.0000 1712.9005 -7622.3063 290.8624 -9335.2068 -7563.0173 293.4175 -286.9217 -235.8797 30357.3175 -430.8582 -348.5424
ENERGY: 600000 0.1353 3.0869 0.3407 0.0000 -10718.0687 1427.3648 0.0000 0.0000 1787.0535 -7500.0875 303.4541 -9287.1410 -7560.7963 295.6795 -129.5451 -33.5817 30432.1344 -354.0628 -266.2214
ENERGY: 900000 0.3025 2.0186 0.6311 0.0000 -10775.5543 1451.0573 0.0000 0.0000 1749.8614 -7571.6835 297.1386 -9321.5448 -7551.2126 296.9269 -50.7401 19.7304 30402.5879 -266.5008 -182.8866
ENERGY: 1200000 0.1933 5.2420 0.1076 0.0000 -10838.6475 1502.0590 0.0000 0.0000 1782.9359 -7548.1096 302.7549 -9331.0456 -7538.3931 298.0231 483.3197 615.0889 29866.6448 -247.6988 -158.4375
ENERGY: 1500000 0.6816 1.9811 0.7002 0.0000 -10827.4270 1485.3265 0.0000 0.0000 1745.5849 -7593.1527 296.4124 -9338.7375 -7531.5345 297.8434 5.3749 42.4258 30650.7327 -276.9022 -194.4433
TCL: Running FEP window  11: Lambda1 0.4999999999999996 Lambda2 0.4499999999999996 [dLambda -0.04999999999999999]
TCL: Setting parameter firsttimestep to 0
TCL: Setting parameter alchLambda to 0.4999999999999996
Info: NONBONDED TABLE R-SQUARED SPACING: 0.0625
Info: NONBONDED TABLE SIZE: 705 POINTS
TCL: Setting parameter alchLambda2 to 0.4499999999999996
Info: NONBONDED TABLE R-SQUARED SPACING: 0.0625
Info: NONBONDED TABLE SIZE: 705 POINTS
TCL: Running for 1500000 steps
ETITLE: TS BOND ANGLE DIHED IMPRP ELECT VDW BOUNDARY MISC KINETIC TOTAL TEMP POTENTIAL TOTALAVG TEMPAVG PRESSURE GPRESSURE VOLUME PRESSAVG GPRESSAVG
ENERGY: 0 0.6816 1.9811 0.7002 0.0000 -10827.1718 1485.4154 0.0000 0.0000 1744.7533 -7593.6402 296.2712 -9338.3935 -7593.6402 296.2712 -33.9938 38.4268 30650.7327 -33.9938 38.4268
ENERGY: 300000 0.7003 2.7223 0.1950 0.0000 -10612.9970 1402.1423 0.0000 0.0000 1744.5371 -7462.7000 296.2345 -9207.2370 -7514.1065 298.9892 221.4950 199.4153 30094.4911 235.1773 271.6099
ENERGY: 600000 0.3910 2.6569 0.1435 0.0000 -10773.5852 1486.9474 0.0000 0.0000 1766.3180 -7517.1284 299.9331 -9283.4464 -7512.3532 299.5224 261.9411 404.7611 30112.3261 222.2296 285.0274
ENERGY: 900000 0.0185 4.7408 1.1771 0.0000 -10729.6208 1441.5206 0.0000 0.0000 1753.0047 -7529.1590 297.6724 -9282.1638 -7526.2108 298.9841 -67.1469 35.5237 30316.2078 56.6450 112.5881
ENERGY: 1200000 1.1034 6.4022 1.8720 0.0000 -10707.6976 1439.3993 0.0000 0.0000 1740.1652 -7518.7554 295.4921 -9258.9206 -7524.9992 298.9558 36.7220 86.5147 30302.9730 -4.8142 51.8363
ENERGY: 1500000 0.2320 4.2609 0.1785 0.0000 -10899.9735 1578.6818 0.0000 0.0000 1733.4641 -7583.1561 294.3543 -9316.6203 -7530.1082 298.8794 1032.7060 1077.9879 30025.3704 109.3432 173.1133
TCL: Running FEP window  12: Lambda1 0.4499999999999996 Lambda2 0.39999999999999963 [dLambda -0.04999999999999999]
TCL: Setting parameter firsttimestep to 0
TCL: Setting parameter alchLambda to 0.4499999999999996
Info: NONBONDED TABLE R-SQUARED SPACING: 0.0625
Info: NONBONDED TABLE SIZE: 705 POINTS
TCL: Setting parameter alchLambda2 to 0.39999999999999963
Info: NONBONDED TABLE R-SQUARED SPACING: 0.0625
Info: NONBONDED TABLE SIZE: 705 POINTS
TCL: Running for 1500000 steps
ETITLE: TS BOND ANGLE DIHED IMPRP ELECT VDW BOUNDARY MISC KINETIC TOTAL TEMP POTENTIAL TOTALAVG TEMPAVG PRESSURE GPRESSURE VOLUME PRESSAVG GPRESSAVG
ENERGY: 0 0.2320 4.2609 0.1785 0.0000 -10899.9734 1578.8100 0.0000 0.0000 1732.6211 -7583.8709 294.2111 -9316.4920 -7583.8709 294.2111 987.3484 1076.6067 30025.3704 987.3484 1076.6067
ENERGY: 300000 1.0001 2.6478 0.3939 0.0000 -10688.1935 1424.9335 0.0000 0.0000 1766.6887 -7492.5294 299.9960 -9259.2181 -7511.1334 297.4125 -132.6075 -23.3836 30284.1005 149.8653 256.9341
ENERGY: 600000 0.2111 2.7218 0.1269 0.0000 -10797.7361 1481.3502 0.0000 0.0000 1753.1367 -7560.1894 297.6948 -9313.3261 -7495.8191 300.0994 131.8019 232.6770 30704.1768 143.0554 236.2713
ENERGY: 900000 0.0569 4.1221 1.0424 0.0000 -10589.5388 1344.0052 0.0000 0.0000 1742.6441 -7497.6680 295.9131 -9240.3122 -7487.9278 300.2652 -658.7993 -611.0305 30598.8619 4.8189 89.7189
ENERGY: 1200000 0.6929 5.6594 0.7016 0.0000 -10819.8877 1460.2756 0.0000 0.0000 1714.5057 -7638.0524 291.1350 -9352.5581 -7505.6759 299.2980 48.8321 81.9695 30108.8701 -9.3416 72.0120
ENERGY: 1500000 1.0121 6.0917 2.4071 0.0000 -10720.6405 1412.4269 0.0000 0.0000 1771.1509 -7527.5517 300.7537 -9298.7027 -7511.8623 299.2909 -353.0558 -291.8099 30751.4995 -64.5429 13.1774
TCL: Running FEP window  13: Lambda1 0.39999999999999963 Lambda2 0.34999999999999964 [dLambda -0.04999999999999999]
TCL: Setting parameter firsttimestep to 0
TCL: Setting parameter alchLambda to 0.39999999999999963
Info: NONBONDED TABLE R-SQUARED SPACING: 0.0625
Info: NONBONDED TABLE SIZE: 705 POINTS
TCL: Setting parameter alchLambda2 to 0.34999999999999964
Info: NONBONDED TABLE R-SQUARED SPACING: 0.0625
Info: NONBONDED TABLE SIZE: 705 POINTS
TCL: Running for 1500000 steps
ETITLE: TS BOND ANGLE DIHED IMPRP ELECT VDW BOUNDARY MISC KINETIC TOTAL TEMP POTENTIAL TOTALAVG TEMPAVG PRESSURE GPRESSURE VOLUME PRESSAVG GPRESSAVG
ENERGY: 0 1.0121 6.0917 2.4071 0.0000 -10720.6412 1412.3051 0.0000 0.0000 1770.2792 -7528.5460 300.6057 -9298.8251 -7528.5460 300.6057 -388.8783 -296.4217 30751.4995 -388.8783 -296.4217
ENERGY: 300000 0.7124 3.2735 0.2929 0.0000 -10719.9259 1455.1793 0.0000 0.0000 1735.8622 -7524.6056 294.7615 -9260.4677 -7518.5732 299.5896 -191.4038 -116.5761 30912.3297 -284.0859 -194.0019
ENERGY: 600000 2.0603 4.3114 0.2446 0.0000 -10799.2725 1516.7658 0.0000 0.0000 1730.0843 -7545.8060 293.7803 -9275.8903 -7517.6815 300.8195 597.9372 673.5306 30526.4957 123.3158 202.3504
ENERGY: 900000 0.2612 10.3340 0.9804 0.0000 -10925.7612 1558.1226 0.0000 0.0000 1740.4821 -7615.5809 295.5459 -9356.0629 -7517.6670 301.3628 951.0391 950.6423 30002.4078 191.3137 265.1518
ENERGY: 1200000 1.4388 5.1006 0.9755 0.0000 -10599.4339 1373.0944 0.0000 0.0000 1676.5936 -7542.2309 284.6972 -9218.8245 -7521.5586 300.0207 -312.3873 -274.5245 30295.2522 89.2907 162.3549
ENERGY: 1500000 0.5584 7.4261 0.2797 0.0000 -10716.2530 1387.4931 0.0000 0.0000 1756.2919 -7564.2036 298.2306 -9320.4956 -7525.7097 299.7028 -596.1674 -514.6817 30429.5255 99.7438 174.0541
TCL: Running FEP window  14: Lambda1 0.34999999999999964 Lambda2 0.29999999999999966 [dLambda -0.04999999999999999]
TCL: Setting parameter firsttimestep to 0
TCL: Setting parameter alchLambda to 0.34999999999999964
Info: NONBONDED TABLE R-SQUARED SPACING: 0.0625
Info: NONBONDED TABLE SIZE: 705 POINTS
TCL: Setting parameter alchLambda2 to 0.29999999999999966
Info: NONBONDED TABLE R-SQUARED SPACING: 0.0625
Info: NONBONDED TABLE SIZE: 705 POINTS
TCL: Running for 1500000 steps
ETITLE: TS BOND ANGLE DIHED IMPRP ELECT VDW BOUNDARY MISC KINETIC TOTAL TEMP POTENTIAL TOTALAVG TEMPAVG PRESSURE GPRESSURE VOLUME PRESSAVG GPRESSAVG
ENERGY: 0 0.5584 7.4261 0.2797 0.0000 -10716.2527 1387.7466 0.0000 0.0000 1755.3723 -7564.8696 298.0744 -9320.2419 -7564.8696 298.0744 -587.9591 -517.2049 30429.5255 -587.9591 -517.2049
ENERGY: 300000 0.6872 3.3516 0.1989 0.0000 -10707.2447 1437.3582 0.0000 0.0000 1812.2619 -7453.3868 307.7347 -9265.6487 -7535.0778 302.0258 -159.4531 -130.5166 30740.4706 -481.5814 -435.5447
ENERGY: 600000 0.5779 1.9724 0.4968 0.0000 -10699.0023 1416.0876 0.0000 0.0000 1758.8575 -7521.0101 298.6662 -9279.8676 -7531.2188 300.0516 -309.3282 -268.3035 30946.4028 -195.2339 -145.7101
ENERGY: 900000 0.1248 4.7960 0.3862 0.0000 -10697.6992 1429.2512 0.0000 0.0000 1739.4943 -7523.6467 295.3782 -9263.1410 -7536.2066 299.4300 -321.2321 -259.6372 30734.5063 -194.3996 -143.7882
ENERGY: 1200000 0.0301 4.8186 0.5069 0.0000 -10609.0327 1345.9723 0.0000 0.0000 1708.7270 -7548.9778 290.1537 -9257.7048 -7547.0990 298.4048 -762.2260 -620.1753 30312.9807 -158.3398 -99.3191
ENERGY: 1500000 1.4217 2.2069 1.3879 0.0000 -10653.9052 1363.8479 0.0000 0.0000 1733.4466 -7551.5943 294.3513 -9285.0408 -7549.6808 298.2043 -550.9584 -462.9614 30318.9340 -87.8320 -31.1581
TCL: Running FEP window  15: Lambda1 0.29999999999999966 Lambda2 0.24999999999999967 [dLambda -0.04999999999999999]
TCL: Setting parameter firsttimestep to 0
TCL: Setting parameter alchLambda to 0.29999999999999966
Info: NONBONDED TABLE R-SQUARED SPACING: 0.0625
Info: NONBONDED TABLE SIZE: 705 POINTS
TCL: Setting parameter alchLambda2 to 0.24999999999999967
Info: NONBONDED TABLE R-SQUARED SPACING: 0.0625
Info: NONBONDED TABLE SIZE: 705 POINTS
TCL: Running for 1500000 steps
ETITLE: TS BOND ANGLE DIHED IMPRP ELECT VDW BOUNDARY MISC KINETIC TOTAL TEMP POTENTIAL TOTALAVG TEMPAVG PRESSURE GPRESSURE VOLUME PRESSAVG GPRESSAVG
ENERGY: 0 1.4217 2.2069 1.3879 0.0000 -10653.9048 1364.1191 0.0000 0.0000 1732.5638 -7552.2053 294.2014 -9284.7692 -7552.2053 294.2014 -534.2569 -463.7343 30318.9340 -534.2569 -463.7343
ENERGY: 300000 0.2325 2.7180 2.5080 0.0000 -10885.2528 1537.6478 0.0000 0.0000 1801.3598 -7540.7868 305.8834 -9342.1466 -7536.3924 299.8174 295.2971 353.6583 30811.6373 -323.4857 -261.2541
ENERGY: 600000 0.6533 1.8173 1.4401 0.0000 -10651.5712 1366.8470 0.0000 0.0000 1771.9698 -7508.8438 300.8928 -9280.8135 -7539.7165 299.5743 -804.3911 -780.2726 30928.9098 -353.9673 -311.0342
ENERGY: 900000 1.8656 6.6470 0.6835 0.0000 -10618.8582 1387.1658 0.0000 0.0000 1750.8636 -7471.6327 297.3088 -9222.4963 -7519.3989 299.3812 -386.8948 -284.3916 30467.2204 -274.3392 -225.3721
ENERGY: 1200000 0.2912 4.7537 0.6252 0.0000 -10745.1399 1420.5429 0.0000 0.0000 1739.0125 -7579.9142 295.2964 -9318.9268 -7514.1224 300.3927 -394.4603 -284.2924 30501.3493 -203.8889 -147.5418
ENERGY: 1500000 1.5788 6.5995 1.5187 0.0000 -10755.5455 1472.9190 0.0000 0.0000 1817.6269 -7455.3026 308.6457 -9272.9295 -7513.1975 301.1896 396.2069 416.9164 30218.5822 -155.1144 -107.8321
TCL: Running FEP window  16: Lambda1 0.24999999999999967 Lambda2 0.19999999999999968 [dLambda -0.04999999999999999]
TCL: Setting parameter firsttimestep to 0
TCL: Setting parameter alchLambda to 0.24999999999999967
Info: NONBONDED TABLE R-SQUARED SPACING: 0.0625
Info: NONBONDED TABLE SIZE: 705 POINTS
TCL: Setting parameter alchLambda2 to 0.19999999999999968
Info: NONBONDED TABLE R-SQUARED SPACING: 0.0625
Info: NONBONDED TABLE SIZE: 705 POINTS
TCL: Running for 1500000 steps
ETITLE: TS BOND ANGLE DIHED IMPRP ELECT VDW BOUNDARY MISC KINETIC TOTAL TEMP POTENTIAL TOTALAVG TEMPAVG PRESSURE GPRESSURE VOLUME PRESSAVG GPRESSAVG
ENERGY: 0 1.5788 6.5995 1.5187 0.0000 -10755.5454 1472.5631 0.0000 0.0000 1816.7240 -7456.5614 308.4924 -9273.2854 -7456.5614 308.4924 327.4606 413.7592 30218.5822 327.4606 413.7592
ENERGY: 300000 0.2391 4.3073 0.6391 0.0000 -10753.1987 1451.4234 0.0000 0.0000 1730.9962 -7565.5937 293.9352 -9296.5899 -7517.0202 299.3946 -59.3661 51.1694 30305.9092 -141.4593 -31.6708
ENERGY: 600000 0.5014 5.5041 0.5403 0.0000 -10816.3660 1484.9933 0.0000 0.0000 1801.7781 -7523.0488 305.9544 -9324.8269 -7521.3957 300.4366 264.7559 361.8994 30347.5272 -26.0666 67.6346
ENERGY: 900000 0.1300 5.6084 0.5887 0.0000 -10765.6538 1439.1200 0.0000 0.0000 1749.6169 -7570.5897 297.0971 -9320.2067 -7526.2026 300.8592 -384.1779 -281.3312 30700.9094 -113.2041 -26.8159
ENERGY: 1200000 0.2250 3.7108 0.2561 0.0000 -10774.5379 1388.9514 0.0000 0.0000 1804.8099 -7576.5848 306.4693 -9381.3948 -7530.7420 301.9660 -717.1706 -592.9702 30454.9051 -118.7596 -40.5738
ENERGY: 1500000 0.1694 1.8139 1.6655 0.0000 -10662.9458 1392.7144 0.0000 0.0000 1805.6607 -7460.9220 306.6137 -9266.5827 -7529.1471 301.6993 -654.0031 -556.1748 31088.8640 -159.1134 -80.0743
TCL: Running FEP window  17: Lambda1 0.19999999999999968 Lambda2 0.1499999999999997 [dLambda -0.04999999999999999]
TCL: Setting parameter firsttimestep to 0
TCL: Setting parameter alchLambda to 0.19999999999999968
Info: NONBONDED TABLE R-SQUARED SPACING: 0.0625
Info: NONBONDED TABLE SIZE: 705 POINTS
TCL: Setting parameter alchLambda2 to 0.1499999999999997
Info: NONBONDED TABLE R-SQUARED SPACING: 0.0625
Info: NONBONDED TABLE SIZE: 705 POINTS
TCL: Running for 1500000 steps
ETITLE: TS BOND ANGLE DIHED IMPRP ELECT VDW BOUNDARY MISC KINETIC TOTAL TEMP POTENTIAL TOTALAVG TEMPAVG PRESSURE GPRESSURE VOLUME PRESSAVG GPRESSAVG
ENERGY: 0 0.1694 1.8139 1.6655 0.0000 -10662.9460 1392.8754 0.0000 0.0000 1804.8017 -7461.6202 306.4679 -9266.4219 -7461.6202 306.4679 -647.4917 -554.9022 31088.8640 -647.4917 -554.9022
ENERGY: 300000 2.3089 3.3250 0.5913 0.0000 -10736.1380 1435.5003 0.0000 0.0000 1790.7193 -7503.6931 304.0766 -9294.4125 -7502.6917 302.3644 -181.6515 -164.0020 30356.2497 -109.3769 -43.9382
ENERGY: 600000 0.2935 5.5335 0.0517 0.0000 -10776.1686 1450.1722 0.0000 0.0000 1754.7739 -7565.3437 297.9728 -9320.1177 -7520.2426 301.0112 -12.7645 77.6520 30202.1387 -358.4280 -293.7880
ENERGY: 900000 0.6227 4.5480 0.6965 0.0000 -10874.2760 1521.4813 0.0000 0.0000 1774.7430 -7572.1846 301.3637 -9346.9276 -7527.8529 301.1217 460.3578 548.5215 29946.8837 -224.6497 -160.6928
ENERGY: 1200000 0.8630 4.7232 0.2314 0.0000 -10834.0648 1518.2781 0.0000 0.0000 1725.9680 -7584.0011 293.0814 -9309.9691 -7518.2390 300.6665 476.9344 555.6179 30237.1477 -151.9662 -83.7605
ENERGY: 1500000 0.6441 2.9338 0.2470 0.0000 -10944.2568 1624.4517 0.0000 0.0000 1772.4010 -7543.5791 300.9660 -9315.9802 -7515.8651 301.0310 1460.6614 1493.8612 30293.4976 -53.0069 15.1950
TCL: Running FEP window  18: Lambda1 0.1499999999999997 Lambda2 0.09999999999999969 [dLambda -0.05 ]
TCL: Setting parameter firsttimestep to 0
TCL: Setting parameter alchLambda to 0.1499999999999997
Info: NONBONDED TABLE R-SQUARED SPACING: 0.0625
Info: NONBONDED TABLE SIZE: 705 POINTS
TCL: Setting parameter alchLambda2 to 0.09999999999999969
Info: NONBONDED TABLE R-SQUARED SPACING: 0.0625
Info: NONBONDED TABLE SIZE: 705 POINTS
TCL: Running for 1500000 steps
ETITLE: TS BOND ANGLE DIHED IMPRP ELECT VDW BOUNDARY MISC KINETIC TOTAL TEMP POTENTIAL TOTALAVG TEMPAVG PRESSURE GPRESSURE VOLUME PRESSAVG GPRESSAVG
ENERGY: 0 0.6441 2.9338 0.2470 0.0000 -10944.2570 1624.7815 0.0000 0.0000 1771.5340 -7544.1165 300.8188 -9315.6506 -7544.1165 300.8188 1412.8476 1495.3399 30293.4976 1412.8476 1495.3399
ENERGY: 300000 0.5314 3.5789 0.2664 0.0000 -10754.9797 1407.8415 0.0000 0.0000 1715.8535 -7626.9080 291.3638 -9342.7615 -7563.7844 298.0544 -481.9859 -406.7767 30286.7605 -49.9012 0.4108
ENERGY: 600000 0.3525 3.8598 1.2892 0.0000 -10787.5749 1508.2177 0.0000 0.0000 1700.0200 -7573.8358 288.6752 -9273.8558 -7549.1915 296.2962 442.8181 496.4160 30592.2131 -85.9584 -18.0068
ENERGY: 900000 1.0814 3.5533 0.2467 0.0000 -10855.9903 1490.4511 0.0000 0.0000 1747.5321 -7613.1256 296.7431 -9360.6577 -7548.7990 297.2139 128.5456 194.2215 30258.2866 -125.8802 -59.5217
ENERGY: 1200000 0.7517 3.3902 0.8300 0.0000 -10829.5359 1464.1004 0.0000 0.0000 1721.0312 -7639.4324 292.2431 -9360.4636 -7554.5840 296.7448 -49.5372 17.1639 30236.7311 -194.1919 -126.7485
ENERGY: 1500000 0.0605 8.1154 0.5618 0.0000 -10845.9978 1485.8078 0.0000 0.0000 1744.9916 -7606.4607 296.3117 -9351.4523 -7555.3171 297.2732 2.2829 21.8136 30574.0349 -177.7474 -112.8450
TCL: Running FEP window  19: Lambda1 0.09999999999999969 Lambda2 0.049999999999999684 [dLambda -0.05 ]
TCL: Setting parameter firsttimestep to 0
TCL: Setting parameter alchLambda to 0.09999999999999969
Info: NONBONDED TABLE R-SQUARED SPACING: 0.0625
Info: NONBONDED TABLE SIZE: 705 POINTS
TCL: Setting parameter alchLambda2 to 0.049999999999999684
Info: NONBONDED TABLE R-SQUARED SPACING: 0.0625
Info: NONBONDED TABLE SIZE: 705 POINTS
TCL: Running for 1500000 steps
ETITLE: TS BOND ANGLE DIHED IMPRP ELECT VDW BOUNDARY MISC KINETIC TOTAL TEMP POTENTIAL TOTALAVG TEMPAVG PRESSURE GPRESSURE VOLUME PRESSAVG GPRESSAVG
ENERGY: 0 0.0605 8.1154 0.5618 0.0000 -10845.9978 1485.8288 0.0000 0.0000 1744.1355 -7607.2957 296.1663 -9351.4313 -7607.2957 296.1663 -58.4193 19.2889 30574.0349 -58.4193 19.2889
ENERGY: 300000 0.6716 3.4785 0.6328 0.0000 -10894.8429 1549.0671 0.0000 0.0000 1770.6164 -7570.3764 300.6630 -9340.9928 -7591.5445 296.2117 805.0026 874.6208 29834.7867 70.3277 134.0313
ENERGY: 600000 0.4125 2.1597 0.9053 0.0000 -10718.6975 1398.4111 0.0000 0.0000 1738.4486 -7578.3602 295.2007 -9316.8088 -7585.0942 298.3229 -389.8531 -340.1061 30421.6211 -106.2172 -37.9862
ENERGY: 900000 0.9759 4.2274 0.2593 0.0000 -10589.5107 1354.8847 0.0000 0.0000 1794.5679 -7434.5955 304.7301 -9229.1634 -7556.4643 299.3718 -854.1292 -820.6552 30971.8096 -203.0078 -153.5785
ENERGY: 1200000 1.5946 3.1474 0.2528 0.0000 -10807.0572 1451.7822 0.0000 0.0000 1758.8892 -7591.3911 298.6716 -9350.2802 -7542.7088 299.9406 -182.4350 -124.2168 30450.1203 -148.3049 -94.3831
ENERGY: 1500000 1.6510 1.2892 0.3440 0.0000 -10696.3476 1423.0942 0.0000 0.0000 1719.6354 -7550.3337 292.0060 -9269.9691 -7541.7972 299.1385 -350.1476 -260.6903 30693.3144 -136.5244 -83.2150
TCL: Running FEP window  20: Lambda1 0.049999999999999684 Lambda2 0.0    [dLambda -0.049999999999999684]
TCL: Setting parameter firsttimestep to 0
TCL: Setting parameter alchLambda to 0.049999999999999684
Info: NONBONDED TABLE R-SQUARED SPACING: 0.0625
Info: NONBONDED TABLE SIZE: 705 POINTS
TCL: Setting parameter alchLambda2 to 0.0
Info: NONBONDED TABLE R-SQUARED SPACING: 0.0625
Info: NONBONDED TABLE SIZE: 705 POINTS
TCL: Running for 1500000 steps
ETITLE: TS BOND ANGLE DIHED IMPRP ELECT VDW BOUNDARY MISC KINETIC TOTAL TEMP POTENTIAL TOTALAVG TEMPAVG PRESSURE GPRESSURE VOLUME PRESSAVG GPRESSAVG
ENERGY: 0 1.6510 1.2892 0.3440 0.0000 -10696.3468 1423.3022 0.0000 0.0000 1718.7528 -7551.0076 291.8562 -9269.7604 -7551.0076 291.8562 -338.6351 -262.1954 30693.3144 -338.6351 -262.1954
ENERGY: 300000 0.4743 2.5165 0.9275 0.0000 -10750.8125 1436.2044 0.0000 0.0000 1733.0062 -7577.6836 294.2765 -9310.6898 -7560.4607 298.8653 -96.1014 -106.0507 30427.3250 -1.3401 47.8831
ENERGY: 600000 0.2380 3.5715 0.6805 0.0000 -10720.8505 1418.7160 0.0000 0.0000 1757.2101 -7540.4343 298.3865 -9297.6444 -7551.9039 299.6338 -504.8474 -510.1924 30798.5069 12.0835 48.4941
ENERGY: 900000 0.6867 3.3507 0.9665 0.0000 -10709.3148 1455.8212 0.0000 0.0000 1798.5671 -7449.9226 305.4092 -9248.4897 -7532.0640 300.6068 -80.7292 -75.8043 31177.6635 60.2945 97.3816
ENERGY: 1200000 0.3370 3.4667 2.3643 0.0000 -10836.8114 1484.7175 0.0000 0.0000 1717.9665 -7627.9593 291.7226 -9345.9258 -7545.1231 299.7988 185.3372 215.4138 30291.8522 39.9063 86.5309
ENERGY: 1500000 1.3782 3.2309 1.0976 0.0000 -10713.8096 1397.3256 0.0000 0.0000 1758.2258 -7552.5514 298.5590 -9310.7772 -7544.0334 299.8365 -829.9160 -740.6237 30884.5748 -53.8216 -2.0123
TCL: Exiting due to exit command.
