Info: SIMULATION PARAMETERS:
Info: TIMESTEP               2
Info: NUMBER OF STEPS        0
Info: STEPS PER CYCLE        10
Info: PERIODIC CELL BASIS 1  32.1139 0 0
Info: PERIODIC CELL BASIS 2  0 30.3251 0
Info: PERIODIC CELL BASIS 3  0 0 31.774
Info: PERIODIC CELL CENTER   0 0 0
Info: WRAPPING WATERS AROUND PERIODIC BOUNDARIES ON OUTPUT.
Info: WRAPPING ALL CLUSTERS AROUND PERIODIC BOUNDARIES ON OUTPUT.
Info: FIRST LDB TIMESTEP     50
Info: LAST LDB TIMESTEP     -1
Info: HOM BACKGROUND SCALING 1
Info: PME BACKGROUND SCALING 1
Info: MIN ATOMS PER PATCH    40
Info: EMPTY PATCH LOAD       40 ATOMS
Info: VELOCITY FILE          mobley_1987439_equil.vel
Info: CENTER OF MASS MOVING INITIALLY? NO
Info: DIELECTRIC             1
Info: EXCLUDE                SCALED ONE-FOUR
Info: 1-4 ELECTROSTATICS SCALED BY 0.833333
Info: MODIFIED 1-4 VDW PARAMETERS WILL BE USED
Info: DCD FILENAME           mobley_1987439_prod.dcd
Info: DCD FREQUENCY          100000
Info: DCD FIRST STEP         100000
Info: DCD FILE WILL CONTAIN UNIT CELL DATA
Info: XST FILENAME           mobley_1987439_prod.xst
Info: XST FREQUENCY          100000
Info: NO VELOCITY DCD OUTPUT
Info: NO FORCE DCD OUTPUT
Info: OUTPUT FILENAME        mobley_1987439_prod
Info: BINARY OUTPUT FILES WILL BE USED
Info: RESTART FILENAME       mobley_1987439_prod.restart
Info: RESTART FREQUENCY      100000
Info: BINARY RESTART FILES WILL BE USED
Info: CUTOFF                 9
Info: PAIRLIST DISTANCE      11
Info: PAIRLIST SHRINK RATE   0.01
Info: PAIRLIST GROW RATE     0.01
Info: PAIRLIST TRIGGER       0.3
Info: PAIRLISTS PER CYCLE    2
Info: PAIRLISTS ENABLED
Info: MARGIN                 2
Info: HYDROGEN GROUP CUTOFF  2.5
Info: PATCH DIMENSION        15.5
Info: ENERGY OUTPUT STEPS    100000
Info: ENERGY EVALUATION STEPS    100000
Info: OUTPUT ENERGY PRECISION 4
Info: CROSSTERM ENERGY INCLUDED IN DIHEDRAL
Info: TIMING OUTPUT STEPS    1000000
Info: PRESSURE OUTPUT STEPS  100000
Info: ALCHEMICAL FEP ON
Info: FEP CURRENT LAMBDA VALUE     0
Info: FEP COMPARISON LAMBDA VALUE  0.05
Info: FEP INTRA-ALCHEMICAL NON-BONDED INTERACTIONS WILL BE RETAINED
Info: FEP INTRA-ALCHEMICAL BONDED INTERACTIONS WILL BE RETAINED
Info: FEP VDW SHIFTING COEFFICIENT 5
Info: FEP ELEC. ACTIVE FOR ANNIHILATED PARTICLES BETWEEN LAMBDA = 0 AND LAMBDA = 0.5
Info: FEP ELEC. ACTIVE FOR EXNIHILATED PARTICLES BETWEEN LAMBDA = 0.5 AND LAMBDA = 1
Info: FEP VDW ACTIVE FOR ANNIHILATED PARTICLES BETWEEN LAMBDA = 0 AND LAMBDA = 1
Info: FEP VDW ACTIVE FOR EXNIHILATED PARTICLES BETWEEN LAMBDA = 0 AND LAMBDA = 1
Info: FEP BOND ACTIVE FOR ANNIHILATED PARTICLES BETWEEN LAMBDA = 1 AND LAMBDA = 1
Info: FEP BOND ACTIVE FOR EXNIHILATED PARTICLES BETWEEN LAMBDA = 0 AND LAMBDA = 0
Info: LANGEVIN DYNAMICS ACTIVE
Info: LANGEVIN TEMPERATURE   300
Info: LANGEVIN USING BBK INTEGRATOR
Info: LANGEVIN DAMPING COEFFICIENT IS 1 INVERSE PS
Info: LANGEVIN DYNAMICS APPLIED TO HYDROGENS
Info: LANGEVIN PISTON PRESSURE CONTROL ACTIVE
Info:        TARGET PRESSURE IS 1.01325 BAR
Info:     OSCILLATION PERIOD IS 50 FS
Info:             DECAY TIME IS 25 FS
Info:     PISTON TEMPERATURE IS 300 K
Info:       PRESSURE CONTROL IS GROUP-BASED
Info:    INITIAL STRAIN RATE IS -0.000286163 -0.000286163 -0.000286163
Info:       CELL FLUCTUATION IS ISOTROPIC
Info: PARTICLE MESH EWALD (PME) ACTIVE
Info: PME TOLERANCE               1e-06
Info: PME EWALD COEFFICIENT       0.348832
Info: PME INTERPOLATION ORDER     4
Info: PME GRID DIMENSIONS         36 32 32
Info: PME MAXIMUM GRID SPACING    1
Info: PME CALCULATION WILL BE PERFORMED ON GPU
Info: FULL ELECTROSTATIC EVALUATION FREQUENCY      2
Info: USING VERLET I (r-RESPA) MTS SCHEME.
Info: C1 SPLITTING OF LONG RANGE ELECTROSTATICS
Info: PLACING ATOMS IN PATCHES BY HYDROGEN GROUPS
Info: RIGID BONDS TO HYDROGEN : ALL
Info:         ERROR TOLERANCE : 1e-08
Info:          MAX ITERATIONS : 100
Info: RIGID WATER USING SETTLE ALGORITHM
Info: RANDOM NUMBER SEED     1743622943
Info: USE HYDROGEN BONDS?    NO
Info: Using AMBER format force field!
Info: AMBER PARM FILE        mobley_1987439.prmtop
Info: COORDINATE PDB         mobley_1987439.pdb
Info: Exclusions will be read from PARM file!
Info: SCNB (VDW SCALING)     2
Info: USING ARITHMETIC MEAN TO COMBINE L-J SIGMA PARAMETERS
Info: BINARY COORDINATES     mobley_1987439_equil.coor
Info: SUMMARY OF PARAMETERS:
Info: 6 BONDS
Info: 5 ANGLES
Info:   5 HARMONIC
Info:   0 COSINE-BASED
Info: 3 DIHEDRAL
Info: 0 IMPROPER
Info: 0 CROSSTERM
Info: 0 VDW
Info: 21 VDW_PAIRS
Info: 0 NBTHOLE_PAIRS
Info: To read alchdata from file: mobley_1987439.pdb
Info: To read alchflag data from column: 5
Info: STRUCTURE SUMMARY:
Info: 2958 ATOMS
Info: 2958 BONDS
Info: 36 ANGLES
Info: 48 DIHEDRALS
Info: 0 IMPROPERS
Info: 0 CROSSTERMS
Info: 3033 EXCLUSIONS
Info: 2949 RIGID BONDS
Info: ALCH: 0 ATOMS TO DISAPPEAR IN FINAL STATE
Info: ALCH: 21 ATOMS TO APPEAR IN FINAL STATE
Info: 5925 DEGREES OF FREEDOM
Info: 988 HYDROGEN GROUPS
Info: 4 ATOMS IN LARGEST HYDROGEN GROUP
Info: 988 MIGRATION GROUPS
Info: 4 ATOMS IN LARGEST MIGRATION GROUP
Info: TOTAL MASS = 17757.9 amu
Info: TOTAL CHARGE = 0.000400022 e
Info: MASS DENSITY = 0.952976 g/cm^3
Info: ATOM DENSITY = 0.095594 atoms/A^3
Info: ADDED 0 IMPLICIT EXCLUSIONS
Info: NONBONDED TABLE R-SQUARED SPACING: 0.0625
Info: NONBONDED TABLE SIZE: 705 POINTS
Info: REMOVING COM VELOCITY -0.121461 0.0366976 -0.0206522
Info: Use 3D box decompostion in PME FFT.
Info: Updated CUDA force table with 4096 elements.
Info: Updated CUDA LJ table with 6 x 6 elements.
Info: Found 24 unique exclusion lists needing 68 bytes
TCL: Running for 1500000 steps
ETITLE: TS BOND ANGLE DIHED IMPRP ELECT VDW BOUNDARY MISC KINETIC TOTAL TEMP POTENTIAL TOTALAVG TEMPAVG PRESSURE GPRESSURE VOLUME PRESSAVG GPRESSAVG
ENERGY: 0 2.2748 6.6833 2.2055 0.0000 -10483.1563 1327.5289 0.0000 0.0000 1728.7375 -7415.7262 293.6507 -9144.4637 -7415.7262 293.6507 -782.6438 -699.8554 30943.3762 -782.6438 -699.8554
ENERGY: 300000 2.0197 7.6064 1.8575 0.0000 -10808.2879 1504.4775 0.0000 0.0000 1751.9928 -7540.3340 297.6010 -9292.3267 -7459.7385 301.5398 481.7948 507.9151 30114.8804 -335.1346 -289.1817
ENERGY: 600000 3.6467 6.2698 1.6532 0.0000 -10735.1785 1491.6049 0.0000 0.0000 1748.3598 -7483.6441 296.9839 -9232.0040 -7458.2862 300.4679 265.8209 339.1525 30427.2588 -190.5980 -140.5460
ENERGY: 900000 2.1071 8.8165 2.6809 0.0000 -10712.3725 1462.1103 0.0000 0.0000 1724.3470 -7512.3107 292.9049 -9236.6577 -7459.4714 300.6187 8.0631 48.5001 30311.7880 -54.7051 6.7604
ENERGY: 1200000 1.1625 8.8062 3.7103 0.0000 -10660.5538 1398.7305 0.0000 0.0000 1709.5472 -7538.5972 290.3910 -9248.1443 -7453.6562 299.8581 -332.2071 -299.1246 30181.0997 10.2786 64.6833
ENERGY: 1500000 2.7238 7.9002 3.2715 0.0000 -10650.9627 1407.3103 0.0000 0.0000 1771.9503 -7457.8067 300.9910 -9229.7570 -7450.1287 300.5835 -360.3246 -256.1945 30220.1599 25.5164 85.6277
TCL: Running FEP window   2: Lambda1 0.05   Lambda2 0.1    [dLambda 0.05  ]
TCL: Setting parameter firsttimestep to 0
TCL: Setting parameter alchLambda to 0.05
Info: NONBONDED TABLE R-SQUARED SPACING: 0.0625
Info: NONBONDED TABLE SIZE: 705 POINTS
TCL: Setting parameter alchLambda2 to 0.1
Info: NONBONDED TABLE R-SQUARED SPACING: 0.0625
Info: NONBONDED TABLE SIZE: 705 POINTS
TCL: Running for 1500000 steps
ETITLE: TS BOND ANGLE DIHED IMPRP ELECT VDW BOUNDARY MISC KINETIC TOTAL TEMP POTENTIAL TOTALAVG TEMPAVG PRESSURE GPRESSURE VOLUME PRESSAVG GPRESSAVG
ENERGY: 0 2.7238 7.9002 3.2715 0.0000 -10650.9629 1412.0115 0.0000 0.0000 1771.0836 -7453.9723 300.8438 -9225.0559 -7453.9723 300.8438 -333.3163 -249.7728 30220.1599 -333.3163 -249.7728
ENERGY: 300000 3.3665 4.6230 0.9329 0.0000 -10758.5564 1489.1018 0.0000 0.0000 1813.6457 -7446.8864 308.0736 -9260.5321 -7428.4628 302.4597 257.7304 328.1420 30236.0846 -379.7689 -288.2820
ENERGY: 600000 3.2438 5.9671 2.9734 0.0000 -10709.1930 1402.4321 0.0000 0.0000 1752.1780 -7542.3987 297.6324 -9294.5767 -7455.9859 301.9448 -508.9524 -504.3657 30028.8361 -343.0352 -274.7727
ENERGY: 900000 2.8644 4.5896 3.9174 0.0000 -10706.7555 1469.5628 0.0000 0.0000 1783.1644 -7442.6570 302.8959 -9225.8214 -7460.2152 302.0175 351.9078 461.0147 30055.7246 -406.7186 -332.1716
ENERGY: 1200000 3.9600 13.5463 2.0140 0.0000 -10572.7223 1386.9453 0.0000 0.0000 1779.7698 -7386.4867 302.3193 -9166.2566 -7456.2763 301.4443 -459.1145 -333.7946 30623.4473 -414.9067 -331.0498
ENERGY: 1500000 1.6188 5.9488 3.3652 0.0000 -10769.8844 1444.6034 0.0000 0.0000 1740.7360 -7573.6123 295.6888 -9314.3483 -7463.4603 300.2682 -321.2114 -285.7521 30317.0834 -424.0808 -347.6899
TCL: Running FEP window   3: Lambda1 0.1    Lambda2 0.15000000000000002 [dLambda 0.05000000000000002]
TCL: Setting parameter firsttimestep to 0
TCL: Setting parameter alchLambda to 0.1
Info: NONBONDED TABLE R-SQUARED SPACING: 0.0625
Info: NONBONDED TABLE SIZE: 705 POINTS
TCL: Setting parameter alchLambda2 to 0.15000000000000002
Info: NONBONDED TABLE R-SQUARED SPACING: 0.0625
Info: NONBONDED TABLE SIZE: 705 POINTS
TCL: Running for 1500000 steps
ETITLE: TS BOND ANGLE DIHED IMPRP ELECT VDW BOUNDARY MISC KINETIC TOTAL TEMP POTENTIAL TOTALAVG TEMPAVG PRESSURE GPRESSURE VOLUME PRESSAVG GPRESSAVG
ENERGY: 0 1.6188 5.9488 3.3652 0.0000 -10769.8843 1446.9274 0.0000 0.0000 1739.8555 -7572.1687 295.5393 -9312.0241 -7572.1687 295.5393 -383.8000 -272.0787 30317.0834 -383.8000 -272.0787
ENERGY: 300000 4.2434 11.2134 3.4420 0.0000 -10663.8748 1430.1552 0.0000 0.0000 1784.9979 -7429.8229 303.2074 -9214.8208 -7446.0795 300.9092 229.5695 239.5129 29867.1906 146.6198 190.0213
ENERGY: 600000 3.1547 6.3514 4.6109 0.0000 -10752.5309 1518.7022 0.0000 0.0000 1757.9771 -7461.7346 298.6175 -9219.7117 -7459.8625 301.0738 773.9292 781.2963 30158.2430 50.6671 80.1211
ENERGY: 900000 3.0051 10.4743 2.0531 0.0000 -10859.0575 1513.5030 0.0000 0.0000 1748.2002 -7581.8218 296.9567 -9330.0220 -7471.0011 300.4267 288.8626 355.4655 30179.6080 9.9404 50.8810
ENERGY: 1200000 0.5719 11.0734 4.0400 0.0000 -10702.2244 1441.4148 0.0000 0.0000 1728.7103 -7516.4140 293.6461 -9245.1244 -7472.7247 299.2198 -73.3190 -45.6874 30593.4382 8.0813 51.7530
ENERGY: 1500000 5.1438 6.7715 2.6505 0.0000 -10630.8991 1349.4906 0.0000 0.0000 1780.1206 -7486.7221 302.3789 -9266.8427 -7474.1007 299.2419 -862.3612 -859.0564 30281.5708 10.7142 54.5566
TCL: Running FEP window   4: Lambda1 0.15000000000000002 Lambda2 0.2    [dLambda 0.04999999999999999]
TCL: Setting parameter firsttimestep to 0
TCL: Setting parameter alchLambda to 0.15000000000000002
Info: NONBONDED TABLE R-SQUARED SPACING: 0.0625
Info: NONBONDED TABLE SIZE: 705 POINTS
TCL: Setting parameter alchLambda2 to 0.2
Info: NONBONDED TABLE R-SQUARED SPACING: 0.0625
Info: NONBONDED TABLE SIZE: 705 POINTS
TCL: Running for 1500000 steps
ETITLE: TS BOND ANGLE DIHED IMPRP ELECT VDW BOUNDARY MISC KINETIC TOTAL TEMP POTENTIAL TOTALAVG TEMPAVG PRESSURE GPRESSURE VOLUME PRESSAVG GPRESSAVG
ENERGY: 0 5.1438 6.7715 2.6505 0.0000 -10630.8992 1350.1253 0.0000 0.0000 1779.2607 -7486.9474 302.2328 -9266.2082 -7486.9474 302.2328 -924.2048 -852.3214 30281.5708 -924.2048 -852.3214
ENERGY: 300000 6.4517 6.4033 3.4622 0.0000 -10664.7587 1434.4619 0.0000 0.0000 1742.1622 -7471.8174 295.9311 -9213.9796 -7491.3474 298.8279 -110.1450 -3.2130 30172.4692 -189.3975 -133.7974
ENERGY: 600000 4.0133 7.9924 2.5433 0.0000 -10661.7057 1427.6547 0.0000 0.0000 1769.6842 -7449.8178 300.6061 -9219.5020 -7495.3752 298.1483 -395.4933 -302.1175 30732.9804 0.9113 66.6026
ENERGY: 900000 1.0264 7.0963 2.4822 0.0000 -10678.2400 1374.8062 0.0000 0.0000 1751.7545 -7541.0744 297.5605 -9292.8289 -7502.1133 298.7777 -596.5645 -546.7426 30329.7066 -9.6116 56.7322
ENERGY: 1200000 1.6494 5.7006 2.5503 0.0000 -10563.1751 1393.1384 0.0000 0.0000 1772.8363 -7387.3001 301.1415 -9160.1364 -7489.6245 299.4358 -473.4117 -410.7614 31353.3562 -86.2853 -20.4919
ENERGY: 1500000 0.4208 6.9952 2.6167 0.0000 -10749.2400 1464.7961 0.0000 0.0000 1720.9133 -7553.4979 292.3217 -9274.4112 -7494.4209 299.0554 -195.2664 -179.5769 30677.8039 -125.9769 -66.6028
TCL: Running FEP window   5: Lambda1 0.2    Lambda2 0.25   [dLambda 0.04999999999999999]
TCL: Setting parameter firsttimestep to 0
TCL: Setting parameter alchLambda to 0.2
Info: NONBONDED TABLE R-SQUARED SPACING: 0.0625
Info: NONBONDED TABLE SIZE: 705 POINTS
TCL: Setting parameter alchLambda2 to 0.25
Info: NONBONDED TABLE R-SQUARED SPACING: 0.0625
Info: NONBONDED TABLE SIZE: 705 POINTS
TCL: Running for 1500000 steps
ETITLE: TS BOND ANGLE DIHED IMPRP ELECT VDW BOUNDARY MISC KINETIC TOTAL TEMP POTENTIAL TOTALAVG TEMPAVG PRESSURE GPRESSURE VOLUME PRESSAVG GPRESSAVG
ENERGY: 0 0.4208 6.9952 2.6167 0.0000 -10749.2413 1466.1371 0.0000 0.0000 1720.0236 -7553.0480 292.1705 -9273.0715 -7553.0480 292.1705 -251.6027 -170.5377 30677.8039 -251.6027 -170.5377
ENERGY: 300000 2.4257 4.2940 1.5826 0.0000 -10692.2941 1424.4387 0.0000 0.0000 1735.5964 -7523.9568 294.8158 -9259.5532 -7513.6481 297.4068 -237.9682 -179.3100 30171.0337 152.3489 214.1650
ENERGY: 600000 3.3346 8.6396 2.6470 0.0000 -10644.0679 1468.7399 0.0000 0.0000 1738.6537 -7422.0532 295.3351 -9160.7069 -7466.5994 299.5129 176.6975 174.7633 30901.0996 143.2505 204.1186
ENERGY: 900000 3.6781 6.0074 2.0717 0.0000 -10719.4324 1480.5847 0.0000 0.0000 1811.9805 -7415.1099 307.7907 -9227.0904 -7477.3871 299.8351 704.1789 788.2495 29806.0682 134.4175 204.4314
ENERGY: 1200000 2.3975 4.2642 3.7086 0.0000 -10724.5150 1470.0104 0.0000 0.0000 1779.2470 -7464.8874 302.2305 -9244.1344 -7490.6310 299.8098 154.7509 187.2301 30446.0946 99.4603 175.5160
ENERGY: 1500000 3.5945 8.7184 1.1964 0.0000 -10511.3774 1327.6421 0.0000 0.0000 1827.6643 -7342.5617 310.4548 -9170.2260 -7467.9360 301.1229 -632.4840 -544.8938 30124.8363 -72.3937 -2.5039
TCL: Running FEP window   6: Lambda1 0.25   Lambda2 0.3    [dLambda 0.04999999999999999]
TCL: Setting parameter firsttimestep to 0
TCL: Setting parameter alchLambda to 0.25
Info: NONBONDED TABLE R-SQUARED SPACING: 0.0625
Info: NONBONDED TABLE SIZE: 705 POINTS
TCL: Setting parameter alchLambda2 to 0.3
Info: NONBONDED TABLE R-SQUARED SPACING: 0.0625
Info: NONBONDED TABLE SIZE: 705 POINTS
TCL: Running for 1500000 steps
ETITLE: TS BOND ANGLE DIHED IMPRP ELECT VDW BOUNDARY MISC KINETIC TOTAL TEMP POTENTIAL TOTALAVG TEMPAVG PRESSURE GPRESSURE VOLUME PRESSAVG GPRESSAVG
ENERGY: 0 3.5945 8.7184 1.1964 0.0000 -10511.3784 1327.2515 0.0000 0.0000 1826.8384 -7343.7792 310.3146 -9170.6176 -7343.7792 310.3146 -612.3992 -541.5844 30124.8363 -612.3992 -541.5844
ENERGY: 300000 1.9825 12.1873 1.7526 0.0000 -10600.5435 1344.0247 0.0000 0.0000 1796.8359 -7443.7604 305.2182 -9240.5963 -7434.9456 302.1209 -646.1543 -683.8230 30546.7591 -480.5027 -438.5361
ENERGY: 600000 3.7691 12.1147 4.7056 0.0000 -10666.5147 1381.4307 0.0000 0.0000 1812.4695 -7452.0251 307.8738 -9264.4946 -7455.4701 301.7643 -699.6506 -607.7163 30473.6067 -279.8328 -230.7851
ENERGY: 900000 4.8041 4.5923 1.3907 0.0000 -10866.8821 1579.5695 0.0000 0.0000 1736.2102 -7540.3154 294.9201 -9276.5256 -7458.4401 301.1801 1417.2984 1515.2913 29571.1694 -76.1163 -15.9904
ENERGY: 1200000 3.0208 7.7794 1.7106 0.0000 -10697.6474 1475.2024 0.0000 0.0000 1744.9208 -7465.0134 296.3997 -9209.9343 -7461.6698 300.8257 -110.1013 -44.7496 31017.2722 -185.7404 -124.2939
ENERGY: 1500000 2.2592 7.1734 5.9042 0.0000 -10594.8184 1349.4909 0.0000 0.0000 1732.4904 -7497.5004 294.2882 -9229.9908 -7468.2359 299.9818 -737.1958 -657.5572 30584.0299 -152.7776 -94.6113
TCL: Running FEP window   7: Lambda1 0.3    Lambda2 0.35   [dLambda 0.04999999999999999]
TCL: Setting parameter firsttimestep to 0
TCL: Setting parameter alchLambda to 0.3
Info: NONBONDED TABLE R-SQUARED SPACING: 0.0625
Info: NONBONDED TABLE SIZE: 705 POINTS
TCL: Setting parameter alchLambda2 to 0.35
Info: NONBONDED TABLE R-SQUARED SPACING: 0.0625
Info: NONBONDED TABLE SIZE: 705 POINTS
TCL: Running for 1500000 steps
ETITLE: TS BOND ANGLE DIHED IMPRP ELECT VDW BOUNDARY MISC KINETIC TOTAL TEMP POTENTIAL TOTALAVG TEMPAVG PRESSURE GPRESSURE VOLUME PRESSAVG GPRESSAVG
ENERGY: 0 2.2592 7.1734 5.9042 0.0000 -10594.8194 1350.3001 0.0000 0.0000 1731.6302 -7497.5523 294.1421 -9229.1825 -7497.5523 294.1421 -746.1743 -649.9637 30584.0299 -746.1743 -649.9637
ENERGY: 300000 3.2874 6.3658 2.0979 0.0000 -10602.7757 1387.2333 0.0000 0.0000 1741.8115 -7461.9798 295.8715 -9203.7912 -7467.9087 298.0590 -421.5507 -352.4241 30636.9803 -463.2826 -396.9343
ENERGY: 600000 4.8963 7.7062 4.5751 0.0000 -10643.2610 1437.4847 0.0000 0.0000 1742.5379 -7446.0609 295.9949 -9188.5988 -7475.7299 296.7357 34.7822 79.5383 30245.3148 -170.6027 -123.0834
ENERGY: 900000 2.4650 8.5983 1.0277 0.0000 -10549.5599 1376.3138 0.0000 0.0000 1781.7720 -7379.3830 302.6594 -9161.1550 -7473.2813 297.4511 -398.8379 -333.1996 30855.8345 -115.5574 -65.9185
ENERGY: 1200000 3.4756 5.3373 1.9194 0.0000 -10732.2322 1383.5830 0.0000 0.0000 1768.8169 -7569.1000 300.4588 -9337.9169 -7488.4561 297.1336 -449.0298 -423.2256 29818.2394 -147.2020 -101.5755
ENERGY: 1500000 3.2408 4.4748 1.9030 0.0000 -10733.9272 1413.3131 0.0000 0.0000 1821.5191 -7489.4764 309.4110 -9310.9956 -7479.2875 298.6890 -645.1460 -582.2430 30914.5065 -169.5651 -119.5497
TCL: Running FEP window   8: Lambda1 0.35   Lambda2 0.39999999999999997 [dLambda 0.04999999999999999]
TCL: Setting parameter firsttimestep to 0
TCL: Setting parameter alchLambda to 0.35
Info: NONBONDED TABLE R-SQUARED SPACING: 0.0625
Info: NONBONDED TABLE SIZE: 705 POINTS
TCL: Setting parameter alchLambda2 to 0.39999999999999997
Info: NONBONDED TABLE R-SQUARED SPACING: 0.0625
Info: NONBONDED TABLE SIZE: 705 POINTS
TCL: Running for 1500000 steps
ETITLE: TS BOND ANGLE DIHED IMPRP ELECT VDW BOUNDARY MISC KINETIC TOTAL TEMP POTENTIAL TOTALAVG TEMPAVG PRESSURE GPRESSURE VOLUME PRESSAVG GPRESSAVG
ENERGY: 0 3.2408 4.4748 1.9030 0.0000 -10733.9269 1412.9037 0.0000 0.0000 1820.6295 -7490.7751 309.2599 -9311.4046 -7490.7751 309.2599 -671.7826 -580.5616 30914.5065 -671.7826 -580.5616
ENERGY: 300000 3.8371 6.8111 2.5307 0.0000 -10636.3188 1411.7295 0.0000 0.0000 1806.0264 -7405.3840 306.7793 -9211.4104 -7448.5943 306.1433 -311.9038 -228.1876 30636.5346 -300.5626 -217.5319
ENERGY: 600000 4.4578 13.8835 4.7046 0.0000 -10772.7445 1535.3065 0.0000 0.0000 1782.3359 -7432.0562 302.7552 -9214.3921 -7449.4293 304.7421 1000.0115 1052.6704 30015.4748 -22.3553 51.9341
ENERGY: 900000 3.6027 8.1394 2.1942 0.0000 -10684.0125 1412.2723 0.0000 0.0000 1838.2570 -7419.5469 312.2542 -9257.8039 -7447.4789 304.8451 -225.7783 -133.3901 30187.6092 -95.1421 -25.2090
ENERGY: 1200000 2.6687 7.6560 3.1423 0.0000 -10696.8408 1507.4939 0.0000 0.0000 1802.9347 -7372.9452 306.2542 -9175.8799 -7448.6932 304.0102 767.5352 860.6717 30214.6385 -12.2387 62.8577
ENERGY: 1500000 2.6247 8.3451 2.2779 0.0000 -10591.4724 1407.7426 0.0000 0.0000 1777.3924 -7393.0897 301.9154 -9170.4821 -7445.4200 302.9851 -72.1798 -6.3497 30320.9497 -68.6700 4.9115
TCL: Running FEP window   9: Lambda1 0.39999999999999997 Lambda2 0.44999999999999996 [dLambda 0.04999999999999999]
TCL: Setting parameter firsttimestep to 0
TCL: Setting parameter alchLambda to 0.39999999999999997
Info: NONBONDED TABLE R-SQUARED SPACING: 0.0625
Info: NONBONDED TABLE SIZE: 705 POINTS
TCL: Setting parameter alchLambda2 to 0.44999999999999996
Info: NONBONDED TABLE R-SQUARED SPACING: 0.0625
Info: NONBONDED TABLE SIZE: 705 POINTS
TCL: Running for 1500000 steps
ETITLE: TS BOND ANGLE DIHED IMPRP ELECT VDW BOUNDARY MISC KINETIC TOTAL TEMP POTENTIAL TOTALAVG TEMPAVG PRESSURE GPRESSURE VOLUME PRESSAVG GPRESSAVG
ENERGY: 0 2.6247 8.3451 2.2779 0.0000 -10591.4722 1408.3255 0.0000 0.0000 1776.5149 -7393.3840 301.7664 -9169.8990 -7393.3840 301.7664 -68.3654 4.2480 30320.9497 -68.3654 4.2480
ENERGY: 300000 3.3413 5.4364 2.7409 0.0000 -10504.5241 1341.0722 0.0000 0.0000 1752.5701 -7399.3632 297.6990 -9151.9333 -7450.5972 298.6069 -775.8880 -729.6828 30937.8122 -440.5973 -377.2110
ENERGY: 600000 1.6379 8.5223 1.5616 0.0000 -10750.8046 1525.8103 0.0000 0.0000 1726.7355 -7486.5371 293.3107 -9213.2725 -7447.6962 300.8258 733.0052 797.0215 30272.3864 -122.9734 -44.4613
ENERGY: 900000 4.7572 6.3036 2.7325 0.0000 -10640.2698 1453.4427 0.0000 0.0000 1733.1012 -7439.9327 294.3920 -9173.0338 -7456.2082 300.0919 71.3971 172.1557 30596.8277 -141.1908 -63.1525
ENERGY: 1200000 4.4549 6.0851 3.1465 0.0000 -10791.1224 1478.8877 0.0000 0.0000 1800.6032 -7497.9450 305.8581 -9298.5482 -7471.9189 299.1699 89.6538 129.2117 30411.7291 -190.7211 -118.3739
ENERGY: 1500000 2.1494 6.4710 4.1334 0.0000 -10679.5488 1491.8965 0.0000 0.0000 1771.2270 -7403.6715 300.8682 -9174.8985 -7475.9345 298.4901 717.2265 786.3763 30336.1214 -153.0220 -81.6811
TCL: Running FEP window  10: Lambda1 0.44999999999999996 Lambda2 0.49999999999999994 [dLambda 0.04999999999999999]
TCL: Setting parameter firsttimestep to 0
TCL: Setting parameter alchLambda to 0.44999999999999996
Info: NONBONDED TABLE R-SQUARED SPACING: 0.0625
Info: NONBONDED TABLE SIZE: 705 POINTS
TCL: Setting parameter alchLambda2 to 0.49999999999999994
Info: NONBONDED TABLE R-SQUARED SPACING: 0.0625
Info: NONBONDED TABLE SIZE: 705 POINTS
TCL: Running for 1500000 steps
ETITLE: TS BOND ANGLE DIHED IMPRP ELECT VDW BOUNDARY MISC KINETIC TOTAL TEMP POTENTIAL TOTALAVG TEMPAVG PRESSURE GPRESSURE VOLUME PRESSAVG GPRESSAVG
ENERGY: 0 2.1494 6.4710 4.1334 0.0000 -10679.5488 1491.4326 0.0000 0.0000 1770.3151 -7405.0473 300.7133 -9175.3625 -7405.0473 300.7133 708.9595 789.8692 30336.1214 708.9595 789.8692
ENERGY: 300000 0.9843 7.1481 1.2927 0.0000 -10726.2240 1454.4541 0.0000 0.0000 1802.3003 -7460.0446 306.1464 -9262.3449 -7441.7451 305.3160 52.0651 134.9301 30601.0330 132.7717 204.4328
ENERGY: 600000 1.0320 7.2715 2.3344 0.0000 -10677.7212 1427.3717 0.0000 0.0000 1752.5019 -7487.2097 297.6874 -9239.7116 -7444.7017 304.9329 123.7043 252.7899 29937.5596 224.5811 288.4603
ENERGY: 900000 1.6026 5.1965 2.2877 0.0000 -10730.4697 1407.1019 0.0000 0.0000 1768.5399 -7545.7411 300.4117 -9314.2810 -7457.6483 303.4438 -477.6706 -376.2705 30358.1000 164.2566 237.3905
ENERGY: 1200000 2.1342 7.9318 2.5112 0.0000 -10701.2771 1452.9148 0.0000 0.0000 1802.2984 -7433.4867 306.1461 -9235.7851 -7453.8171 303.3469 -152.2391 -137.7703 31029.0519 172.9406 236.7360
ENERGY: 1500000 1.1299 4.6421 3.4036 0.0000 -10741.3386 1449.9593 0.0000 0.0000 1826.1307 -7456.0730 310.1943 -9282.2037 -7460.8195 303.8723 71.0458 72.6325 30197.0582 51.2100 115.2132
TCL: Running FEP window  11: Lambda1 0.49999999999999994 Lambda2 0.5499999999999999 [dLambda 0.04999999999999999]
TCL: Setting parameter firsttimestep to 0
TCL: Setting parameter alchLambda to 0.49999999999999994
Info: NONBONDED TABLE R-SQUARED SPACING: 0.0625
Info: NONBONDED TABLE SIZE: 705 POINTS
TCL: Setting parameter alchLambda2 to 0.5499999999999999
Info: NONBONDED TABLE R-SQUARED SPACING: 0.0625
Info: NONBONDED TABLE SIZE: 705 POINTS
TCL: Running for 1500000 steps
ETITLE: TS BOND ANGLE DIHED IMPRP ELECT VDW BOUNDARY MISC KINETIC TOTAL TEMP POTENTIAL TOTALAVG TEMPAVG PRESSURE GPRESSURE VOLUME PRESSAVG GPRESSAVG
ENERGY: 0 1.1299 4.6421 3.4036 0.0000 -10741.3378 1449.3027 0.0000 0.0000 1825.2480 -7457.6114 310.0444 -9282.8594 -7457.6114 310.0444 -5.7198 74.4400 30197.0582 -5.7198 74.4400
ENERGY: 300000 2.1567 7.5433 2.5194 0.0000 -10706.5714 1442.2920 0.0000 0.0000 1733.4622 -7518.5979 294.4533 -9252.0601 -7464.2843 301.9827 -262.1821 -223.4810 30693.7628 -509.0457 -455.1753
ENERGY: 600000 1.8415 3.8174 3.4353 0.0000 -10651.5568 1380.0945 0.0000 0.0000 1812.6872 -7449.6809 307.9108 -9262.3681 -7481.8429 300.9241 -369.6064 -387.2499 30446.6931 -381.4910 -325.4805
ENERGY: 900000 1.4399 12.1424 1.3112 0.0000 -10782.9198 1464.2764 0.0000 0.0000 1762.7799 -7540.9700 299.4333 -9303.7499 -7504.4636 298.3687 -28.6907 99.4055 30132.3553 -307.4219 -229.1315
ENERGY: 1200000 2.6789 8.0529 2.4355 0.0000 -10588.0879 1382.2414 0.0000 0.0000 1781.5978 -7411.0815 302.6298 -9192.6793 -7485.2045 299.8402 -274.1986 -282.0044 30685.7484 -335.9595 -262.5345
ENERGY: 1500000 1.1113 5.1626 1.7186 0.0000 -10821.5243 1508.4309 0.0000 0.0000 1753.5788 -7551.5221 297.8704 -9305.1010 -7490.1529 298.9905 570.7906 622.2674 29979.2008 -267.0344 -198.5790
TCL: Running FEP window  12: Lambda1 0.5499999999999999 Lambda2 0.6    [dLambda 0.050000000000000044]
TCL: Setting parameter firsttimestep to 0
TCL: Setting parameter alchLambda to 0.5499999999999999
Info: NONBONDED TABLE R-SQUARED SPACING: 0.0625
Info: NONBONDED TABLE SIZE: 705 POINTS
TCL: Setting parameter alchLambda2 to 0.6
Info: NONBONDED TABLE R-SQUARED SPACING: 0.0625
Info: NONBONDED TABLE SIZE: 705 POINTS
TCL: Running for 1500000 steps
ETITLE: TS BOND ANGLE DIHED IMPRP ELECT VDW BOUNDARY MISC KINETIC TOTAL TEMP POTENTIAL TOTALAVG TEMPAVG PRESSURE GPRESSURE VOLUME PRESSAVG GPRESSAVG
ENERGY: 0 1.1113 5.1626 1.7186 0.0000 -10821.4562 1509.3458 0.0000 0.0000 1752.7207 -7551.3973 297.7246 -9304.1180 -7551.3973 297.7246 551.3994 637.9333 29979.2008 551.3994 637.9333
ENERGY: 300000 3.2924 4.5460 2.6403 0.0000 -10671.2387 1487.0048 0.0000 0.0000 1752.3295 -7421.4257 297.6582 -9173.7552 -7484.7739 296.3470 294.0338 393.6711 30590.6443 235.0234 314.1632
ENERGY: 600000 2.4293 6.2331 2.0717 0.0000 -10736.4561 1413.6410 0.0000 0.0000 1780.2155 -7531.8655 302.3950 -9312.0810 -7485.8063 298.9408 -439.7630 -411.8157 30396.2570 105.2651 179.1661
ENERGY: 900000 1.3417 7.9400 2.4218 0.0000 -10774.1213 1484.2523 0.0000 0.0000 1808.8917 -7469.2739 307.2661 -9278.1656 -7469.9611 301.3213 400.4321 447.0810 30455.0215 45.4143 115.2420
ENERGY: 1200000 3.7817 7.8842 3.6524 0.0000 -10637.2620 1352.8574 0.0000 0.0000 1760.5286 -7508.5577 299.0509 -9269.0863 -7470.9371 301.2303 -776.3975 -703.0083 30415.3037 -69.1361 2.5581
ENERGY: 1500000 1.7201 7.0761 1.8725 0.0000 -10661.7162 1345.2689 0.0000 0.0000 1762.4590 -7543.3197 299.3788 -9305.7787 -7480.9601 301.4051 -778.5581 -741.2539 30265.4648 -125.0964 -47.6194
TCL: Running FEP window  13: Lambda1 0.6    Lambda2 0.65   [dLambda 0.050000000000000044]
TCL: Setting parameter firsttimestep to 0
TCL: Setting parameter alchLambda to 0.6
Info: NONBONDED TABLE R-SQUARED SPACING: 0.0625
Info: NONBONDED TABLE SIZE: 705 POINTS
TCL: Setting parameter alchLambda2 to 0.65
Info: NONBONDED TABLE R-SQUARED SPACING: 0.0625
Info: NONBONDED TABLE SIZE: 705 POINTS
TCL: Running for 1500000 steps
ETITLE: TS BOND ANGLE DIHED IMPRP ELECT VDW BOUNDARY MISC KINETIC TOTAL TEMP POTENTIAL TOTALAVG TEMPAVG PRESSURE GPRESSURE VOLUME PRESSAVG GPRESSAVG
ENERGY: 0 1.7201 7.0761 1.8725 0.0000 -10661.9421 1345.5304 0.0000 0.0000 1761.5541 -7544.1889 299.2251 -9305.7431 -7544.1889 299.2251 -830.7489 -732.7526 30265.4648 -830.7489 -732.7526
ENERGY: 300000 3.2751 11.1575 3.8518 0.0000 -10795.4003 1476.4615 0.0000 0.0000 1828.7991 -7471.8553 310.6476 -9300.6544 -7518.6979 300.7074 73.6184 219.0687 30278.3574 -124.5211 -21.8387
ENERGY: 600000 2.9057 11.5160 2.5066 0.0000 -10706.7640 1515.1248 0.0000 0.0000 1754.8850 -7419.8260 298.0922 -9174.7110 -7493.0814 299.4810 754.7619 863.9014 30461.5817 48.4881 139.3157
ENERGY: 900000 2.3317 5.4037 2.6392 0.0000 -10733.4264 1448.2234 0.0000 0.0000 1762.5656 -7512.2628 299.3969 -9274.8284 -7483.9305 300.1687 366.8644 386.4716 29962.7338 188.3380 260.7607
ENERGY: 1200000 2.3191 9.9010 3.0826 0.0000 -10480.4502 1313.1304 0.0000 0.0000 1804.5151 -7347.5020 306.5226 -9152.0171 -7474.6061 300.4367 -902.6404 -824.8983 31146.9279 108.4903 180.4952
ENERGY: 1500000 1.3520 7.6199 2.8167 0.0000 -10658.4295 1421.7996 0.0000 0.0000 1751.6595 -7473.1818 297.5444 -9224.8413 -7475.3537 300.4381 -23.9039 7.6743 29996.1856 51.1991 117.1561
TCL: Running FEP window  14: Lambda1 0.65   Lambda2 0.7000000000000001 [dLambda 0.050000000000000044]
TCL: Setting parameter firsttimestep to 0
TCL: Setting parameter alchLambda to 0.65
Info: NONBONDED TABLE R-SQUARED SPACING: 0.0625
Info: NONBONDED TABLE SIZE: 705 POINTS
TCL: Setting parameter alchLambda2 to 0.7000000000000001
Info: NONBONDED TABLE R-SQUARED SPACING: 0.0625
Info: NONBONDED TABLE SIZE: 705 POINTS
TCL: Running for 1500000 steps
ETITLE: TS BOND ANGLE DIHED IMPRP ELECT VDW BOUNDARY MISC KINETIC TOTAL TEMP POTENTIAL TOTALAVG TEMPAVG PRESSURE GPRESSURE VOLUME PRESSAVG GPRESSAVG
ENERGY: 0 1.3520 7.6199 2.8167 0.0000 -10658.4899 1422.7448 0.0000 0.0000 1750.7720 -7473.1844 297.3936 -9223.9564 -7473.1844 297.3936 -46.8405 28.5859 29996.1856 -46.8405 28.5859
ENERGY: 300000 2.2776 5.8329 4.0737 0.0000 -10659.1072 1381.8032 0.0000 0.0000 1760.6847 -7504.4352 299.0774 -9265.1198 -7503.7570 301.3258 -487.1832 -405.6102 30429.9576 -217.8020 -137.9199
ENERGY: 600000 3.2148 10.3487 6.7484 0.0000 -10665.2711 1431.3793 0.0000 0.0000 1774.0648 -7439.5150 301.3502 -9213.5799 -7484.5156 301.8576 -166.8460 -123.8756 30635.2675 -66.3724 -3.8619
ENERGY: 900000 2.4044 5.4842 1.6211 0.0000 -10662.7932 1416.2651 0.0000 0.0000 1713.1320 -7523.8864 290.9999 -9237.0184 -7481.0697 301.3556 218.7324 268.3883 30010.4074 57.6400 108.1055
ENERGY: 1200000 3.3099 2.9764 2.5926 0.0000 -10641.9124 1363.9122 0.0000 0.0000 1742.3829 -7526.7384 295.9686 -9269.1213 -7478.0235 300.4213 -652.7228 -555.5377 30478.8698 66.7592 118.3504
ENERGY: 1500000 4.1828 5.3733 1.9632 0.0000 -10572.1280 1433.4780 0.0000 0.0000 1829.0577 -7298.0730 310.6915 -9127.1307 -7471.1760 300.7132 338.1333 427.5615 30376.6116 97.4743 151.5729
TCL: Running FEP window  15: Lambda1 0.7000000000000001 Lambda2 0.7500000000000001 [dLambda 0.050000000000000044]
TCL: Setting parameter firsttimestep to 0
TCL: Setting parameter alchLambda to 0.7000000000000001
Info: NONBONDED TABLE R-SQUARED SPACING: 0.0625
Info: NONBONDED TABLE SIZE: 705 POINTS
TCL: Setting parameter alchLambda2 to 0.7500000000000001
Info: NONBONDED TABLE R-SQUARED SPACING: 0.0625
Info: NONBONDED TABLE SIZE: 705 POINTS
TCL: Running for 1500000 steps
ETITLE: TS BOND ANGLE DIHED IMPRP ELECT VDW BOUNDARY MISC KINETIC TOTAL TEMP POTENTIAL TOTALAVG TEMPAVG PRESSURE GPRESSURE VOLUME PRESSAVG GPRESSAVG
ENERGY: 0 4.1829 5.3733 1.9632 0.0000 -10572.3170 1433.8779 0.0000 0.0000 1828.1866 -7298.7331 310.5436 -9126.9197 -7298.7331 310.5436 349.4770 440.5826 30376.6116 349.4770 440.5826
ENERGY: 300000 4.3859 9.2402 3.8299 0.0000 -10664.6383 1412.5808 0.0000 0.0000 1761.2667 -7473.3348 299.1763 -9234.6014 -7460.4568 302.5103 -7.5872 55.0307 29955.5242 142.0735 208.9263
ENERGY: 600000 2.0607 5.0753 3.1007 0.0000 -10760.2391 1481.0151 0.0000 0.0000 1766.0028 -7502.9845 299.9808 -9268.9872 -7482.4078 300.3724 78.9500 81.4185 30919.6917 75.0348 129.2536
ENERGY: 900000 2.2986 8.6191 2.6606 0.0000 -10664.5747 1424.7186 0.0000 0.0000 1806.6101 -7419.6676 306.8785 -9226.2777 -7472.6808 301.3407 72.6962 148.0637 30171.0854 57.8037 113.1267
ENERGY: 1200000 5.3040 10.6458 2.8458 0.0000 -10851.5978 1511.3824 0.0000 0.0000 1787.3881 -7534.0315 303.6134 -9321.4197 -7483.2330 300.1731 279.8619 313.0203 30760.2646 7.9180 65.6496
ENERGY: 1500000 2.0573 5.7338 3.0564 0.0000 -10733.4916 1418.8502 0.0000 0.0000 1761.0962 -7542.6977 299.1473 -9303.7938 -7488.1732 300.4998 -402.7999 -327.0826 30513.3625 0.9868 58.6622
TCL: Running FEP window  16: Lambda1 0.7500000000000001 Lambda2 0.8000000000000002 [dLambda 0.050000000000000044]
TCL: Setting parameter firsttimestep to 0
TCL: Setting parameter alchLambda to 0.7500000000000001
Info: NONBONDED TABLE R-SQUARED SPACING: 0.0625
Info: NONBONDED TABLE SIZE: 705 POINTS
TCL: Setting parameter alchLambda2 to 0.8000000000000002
Info: NONBONDED TABLE R-SQUARED SPACING: 0.0625
Info: NONBONDED TABLE SIZE: 705 POINTS
TCL: Running for 1500000 steps
ETITLE: TS BOND ANGLE DIHED IMPRP ELECT VDW BOUNDARY MISC KINETIC TOTAL TEMP POTENTIAL TOTALAVG TEMPAVG PRESSURE GPRESSURE VOLUME PRESSAVG GPRESSAVG
ENERGY: 0 2.0573 5.7338 3.0564 0.0000 -10733.9156 1419.2980 0.0000 0.0000 1760.2255 -7543.5445 298.9994 -9303.7700 -7543.5445 298.9994 -399.6564 -311.0058 30513.3625 -399.6564 -311.0058
ENERGY: 300000 4.0846 10.9622 0.8514 0.0000 -10829.7801 1514.2184 0.0000 0.0000 1754.3639 -7545.2996 298.0037 -9299.6635 -7499.0981 300.3351 413.3158 501.7388 30274.9879 -214.6078 -146.9001
ENERGY: 600000 3.6920 5.0851 3.7341 0.0000 -10739.3177 1414.6676 0.0000 0.0000 1799.9009 -7512.2379 305.7389 -9312.1389 -7487.8576 301.5511 -392.5446 -352.6967 30299.4264 -282.0770 -218.0380
ENERGY: 900000 1.5416 4.2682 2.7507 0.0000 -10674.7317 1395.9026 0.0000 0.0000 1742.9701 -7527.2986 296.0683 -9270.2687 -7488.3208 300.2621 -553.4633 -505.6853 30518.6049 -322.0280 -260.1103
ENERGY: 1200000 2.2675 5.3814 2.0096 0.0000 -10772.7156 1507.0067 0.0000 0.0000 1762.9755 -7493.0750 299.4665 -9256.0505 -7491.5866 300.9199 679.6953 803.7347 30159.6117 -274.5645 -209.6174
ENERGY: 1500000 3.0539 11.5318 1.6059 0.0000 -10651.8542 1383.8803 0.0000 0.0000 1725.5531 -7526.2293 293.1098 -9251.7824 -7491.2186 300.1973 -472.7646 -451.1205 30656.3276 -279.8521 -222.6083
TCL: Running FEP window  17: Lambda1 0.8000000000000002 Lambda2 0.8500000000000002 [dLambda 0.050000000000000044]
TCL: Setting parameter firsttimestep to 0
TCL: Setting parameter alchLambda to 0.8000000000000002
Info: NONBONDED TABLE R-SQUARED SPACING: 0.0625
Info: NONBONDED TABLE SIZE: 705 POINTS
TCL: Setting parameter alchLambda2 to 0.8500000000000002
Info: NONBONDED TABLE R-SQUARED SPACING: 0.0625
Info: NONBONDED TABLE SIZE: 705 POINTS
TCL: Running for 1500000 steps
ETITLE: TS BOND ANGLE DIHED IMPRP ELECT VDW BOUNDARY MISC KINETIC TOTAL TEMP POTENTIAL TOTALAVG TEMPAVG PRESSURE GPRESSURE VOLUME PRESSAVG GPRESSAVG
ENERGY: 0 3.0539 11.5318 1.6059 0.0000 -10652.4479 1384.0682 0.0000 0.0000 1724.6636 -7527.5245 292.9587 -9252.1881 -7527.5245 292.9587 -526.5277 -439.3639 30656.3276 -526.5277 -439.3639
ENERGY: 300000 1.2443 7.4239 2.2721 0.0000 -10654.3692 1403.4498 0.0000 0.0000 1771.2801 -7468.6989 300.8772 -9239.9790 -7491.0216 300.2926 -377.1954 -329.0538 30592.8786 -182.0435 -89.9219
ENERGY: 600000 3.7751 4.5115 5.6691 0.0000 -10555.1599 1257.2592 0.0000 0.0000 1800.2619 -7483.6831 305.8002 -9283.9450 -7476.0992 301.6191 -1681.9888 -1624.1700 31019.3318 -374.2456 -293.8327
ENERGY: 900000 2.7159 7.6381 1.1313 0.0000 -10767.9035 1490.6233 0.0000 0.0000 1752.3395 -7513.4553 297.6599 -9265.7948 -7474.5823 301.3640 550.3372 625.4157 30329.6430 -211.0483 -134.7393
ENERGY: 1200000 1.1971 5.5696 2.8487 0.0000 -10552.9994 1350.9390 0.0000 0.0000 1789.4058 -7403.0391 303.9561 -9192.4449 -7468.8458 301.1084 -348.1300 -262.0416 30291.2547 -138.5917 -71.2768
ENERGY: 1500000 2.7780 7.3704 4.7805 0.0000 -10686.1548 1456.8846 0.0000 0.0000 1769.9651 -7444.3761 300.6538 -9214.3413 -7475.0161 300.5393 179.3130 330.3681 30444.7789 -53.5591 17.2354
TCL: Running FEP window  18: Lambda1 0.8500000000000002 Lambda2 0.9000000000000002 [dLambda 0.050000000000000044]
TCL: Setting parameter firsttimestep to 0
TCL: Setting parameter alchLambda to 0.8500000000000002
Info: NONBONDED TABLE R-SQUARED SPACING: 0.0625
Info: NONBONDED TABLE SIZE: 705 POINTS
TCL: Setting parameter alchLambda2 to 0.9000000000000002
Info: NONBONDED TABLE R-SQUARED SPACING: 0.0625
Info: NONBONDED TABLE SIZE: 705 POINTS
TCL: Running for 1500000 steps
ETITLE: TS BOND ANGLE DIHED IMPRP ELECT VDW BOUNDARY MISC KINETIC TOTAL TEMP POTENTIAL TOTALAVG TEMPAVG PRESSURE GPRESSURE VOLUME PRESSAVG GPRESSAVG
ENERGY: 0 2.7780 7.3704 4.7805 0.0000 -10686.8062 1457.0007 0.0000 0.0000 1769.1208 -7445.7559 300.5104 -9214.8767 -7445.7559 300.5104 265.6917 345.6688 30444.7789 265.6917 345.6688
ENERGY: 300000 1.5999 4.4554 2.4074 0.0000 -10699.9273 1487.6141 0.0000 0.0000 1738.4022 -7465.4484 295.2924 -9203.8507 -7513.9487 298.6923 247.4793 326.7136 30855.6498 -173.6723 -104.6757
ENERGY: 600000 3.0502 4.1670 1.0345 0.0000 -10646.2248 1485.4770 0.0000 0.0000 1751.0696 -7401.4266 297.4442 -9152.4962 -7505.5243 297.0449 508.3791 579.5463 30672.6134 -167.6715 -109.3261
ENERGY: 900000 6.3455 6.8188 2.5023 0.0000 -10750.1357 1479.0164 0.0000 0.0000 1660.5234 -7594.9293 282.0636 -9255.4527 -7503.7225 296.4650 52.2380 148.2026 30388.7899 -145.5203 -85.6512
ENERGY: 1200000 2.9187 8.4389 1.8454 0.0000 -10535.4827 1374.7446 0.0000 0.0000 1799.3569 -7348.1783 305.6464 -9147.5351 -7494.2460 298.3866 -428.6095 -423.2716 30880.6535 -76.5395 -22.3083
ENERGY: 1500000 4.8731 8.4601 0.7557 0.0000 -10609.2748 1367.9226 0.0000 0.0000 1827.9958 -7399.2675 310.5112 -9227.2633 -7490.3085 298.9682 -453.1115 -396.7038 30664.7913 -157.6559 -103.0536
TCL: Running FEP window  19: Lambda1 0.9000000000000002 Lambda2 0.9500000000000003 [dLambda 0.050000000000000044]
TCL: Setting parameter firsttimestep to 0
TCL: Setting parameter alchLambda to 0.9000000000000002
Info: NONBONDED TABLE R-SQUARED SPACING: 0.0625
Info: NONBONDED TABLE SIZE: 705 POINTS
TCL: Setting parameter alchLambda2 to 0.9500000000000003
Info: NONBONDED TABLE R-SQUARED SPACING: 0.0625
Info: NONBONDED TABLE SIZE: 705 POINTS
TCL: Running for 1500000 steps
ETITLE: TS BOND ANGLE DIHED IMPRP ELECT VDW BOUNDARY MISC KINETIC TOTAL TEMP POTENTIAL TOTALAVG TEMPAVG PRESSURE GPRESSURE VOLUME PRESSAVG GPRESSAVG
ENERGY: 0 4.8731 8.4601 0.7557 0.0000 -10609.6786 1367.9910 0.0000 0.0000 1827.0951 -7400.5036 310.3582 -9227.5987 -7400.5036 310.3582 -447.5327 -381.3279 30664.7913 -447.5327 -381.3279
ENERGY: 300000 1.9369 4.3915 1.6915 0.0000 -10582.7570 1376.6827 0.0000 0.0000 1744.9356 -7453.1188 296.4022 -9198.0544 -7435.8271 301.9768 -453.2675 -403.1396 30994.7887 -787.0328 -713.0795
ENERGY: 600000 1.2781 4.2060 3.6246 0.0000 -10630.3114 1418.0323 0.0000 0.0000 1808.0853 -7395.0850 307.1291 -9203.1704 -7447.9199 299.4304 70.6519 108.4864 30749.7446 -437.4411 -376.0073
ENERGY: 900000 4.0515 9.9974 1.6810 0.0000 -10781.8904 1498.2321 0.0000 0.0000 1744.2514 -7523.6769 296.2860 -9267.9283 -7464.7931 298.8924 487.2693 454.3245 30383.3530 -219.0532 -169.6681
ENERGY: 1200000 2.2300 6.9082 2.8891 0.0000 -10733.0019 1442.0799 0.0000 0.0000 1786.6545 -7492.2402 303.4888 -9278.8947 -7472.0479 299.2334 -64.0276 -8.4159 30616.1420 -206.9979 -147.3316
ENERGY: 1500000 4.9011 12.2023 2.0522 0.0000 -10826.1406 1517.5254 0.0000 0.0000 1769.4567 -7520.0029 300.5675 -9289.4596 -7477.0872 299.8017 624.0145 714.1343 30266.0016 -82.1492 -22.5317
TCL: Running FEP window  20: Lambda1 0.9500000000000003 Lambda2 1.0    [dLambda 0.04999999999999971]
TCL: Setting parameter firsttimestep to 0
TCL: Setting parameter alchLambda to 0.9500000000000003
Info: NONBONDED TABLE R-SQUARED SPACING: 0.0625
Info: NONBONDED TABLE SIZE: 705 POINTS
TCL: Setting parameter alchLambda2 to 1.0
Info: NONBONDED TABLE R-SQUARED SPACING: 0.0625
Info: NONBONDED TABLE SIZE: 705 POINTS
TCL: Running for 1500000 steps
ETITLE: TS BOND ANGLE DIHED IMPRP ELECT VDW BOUNDARY MISC KINETIC TOTAL TEMP POTENTIAL TOTALAVG TEMPAVG PRESSURE GPRESSURE VOLUME PRESSAVG GPRESSAVG
ENERGY: 0 4.9011 12.2023 2.0522 0.0000 -10827.0754 1517.5673 0.0000 0.0000 1768.5587 -7521.7938 300.4149 -9290.3525 -7521.7938 300.4149 624.6017 727.6696 30266.0016 624.6017 727.6696
ENERGY: 300000 3.6546 4.5235 0.6710 0.0000 -10719.4769 1499.6584 0.0000 0.0000 1757.2728 -7453.6966 298.4979 -9210.9694 -7468.1098 300.3344 686.3823 773.6317 30127.3527 -33.7694 52.3415
ENERGY: 600000 1.7346 8.1430 1.9697 0.0000 -10443.4130 1281.4429 0.0000 0.0000 1751.0088 -7399.1139 297.4338 -9150.1227 -7487.5173 297.9413 -1153.8133 -1061.1077 30748.8283 -191.7919 -116.4726
ENERGY: 900000 4.0299 5.8199 2.1261 0.0000 -10626.5165 1422.3202 0.0000 0.0000 1740.9514 -7451.2690 295.7254 -9192.2203 -7484.6756 297.2428 -319.3798 -254.9591 31046.0924 -124.3899 -49.3962
ENERGY: 1200000 1.9999 9.5076 1.7174 0.0000 -10669.3563 1395.4106 0.0000 0.0000 1756.2087 -7504.5120 298.3171 -9260.7206 -7487.8016 297.3927 -113.8487 -69.9698 30236.4558 -122.2039 -57.4329
ENERGY: 1500000 3.8103 8.4259 1.6265 0.0000 -10632.8385 1346.1406 0.0000 0.0000 1746.1429 -7526.6922 296.6073 -9272.8352 -7483.8621 297.5320 -993.5144 -934.4848 30808.5969 -184.1072 -120.2097
TCL: Exiting due to exit command.
