Info: SIMULATION PARAMETERS:
Info: TIMESTEP               2
Info: NUMBER OF STEPS        0
Info: STEPS PER CYCLE        10
Info: PERIODIC CELL BASIS 1  31.5703 0 0
Info: PERIODIC CELL BASIS 2  0 30.0402 0
Info: PERIODIC CELL BASIS 3  0 0 31.7404
Info: PERIODIC CELL CENTER   0 0 0
Info: WRAPPING WATERS AROUND PERIODIC BOUNDARIES ON OUTPUT.
Info: WRAPPING ALL CLUSTERS AROUND PERIODIC BOUNDARIES ON OUTPUT.
Info: FIRST LDB TIMESTEP     50
Info: LAST LDB TIMESTEP     -1
Info: HOM BACKGROUND SCALING 1
Info: PME BACKGROUND SCALING 1
Info: MIN ATOMS PER PATCH    40
Info: EMPTY PATCH LOAD       40 ATOMS
Info: VELOCITY FILE          mobley_296847_equil.vel
Info: CENTER OF MASS MOVING INITIALLY? NO
Info: DIELECTRIC             1
Info: EXCLUDE                SCALED ONE-FOUR
Info: 1-4 ELECTROSTATICS SCALED BY 0.833333
Info: MODIFIED 1-4 VDW PARAMETERS WILL BE USED
Info: DCD FILENAME           mobley_296847_prod.dcd
Info: DCD FREQUENCY          100000
Info: DCD FIRST STEP         100000
Info: DCD FILE WILL CONTAIN UNIT CELL DATA
Info: XST FILENAME           mobley_296847_prod.xst
Info: XST FREQUENCY          100000
Info: NO VELOCITY DCD OUTPUT
Info: NO FORCE DCD OUTPUT
Info: OUTPUT FILENAME        mobley_296847_prod
Info: BINARY OUTPUT FILES WILL BE USED
Info: RESTART FILENAME       mobley_296847_prod.restart
Info: RESTART FREQUENCY      100000
Info: BINARY RESTART FILES WILL BE USED
Info: CUTOFF                 9
Info: PAIRLIST DISTANCE      11
Info: PAIRLIST SHRINK RATE   0.01
Info: PAIRLIST GROW RATE     0.01
Info: PAIRLIST TRIGGER       0.3
Info: PAIRLISTS PER CYCLE    2
Info: PAIRLISTS ENABLED
Info: MARGIN                 2
Info: HYDROGEN GROUP CUTOFF  2.5
Info: PATCH DIMENSION        15.5
Info: ENERGY OUTPUT STEPS    100000
Info: ENERGY EVALUATION STEPS    100000
Info: OUTPUT ENERGY PRECISION 4
Info: CROSSTERM ENERGY INCLUDED IN DIHEDRAL
Info: TIMING OUTPUT STEPS    1000000
Info: PRESSURE OUTPUT STEPS  100000
Info: ALCHEMICAL FEP ON
Info: FEP CURRENT LAMBDA VALUE     0
Info: FEP COMPARISON LAMBDA VALUE  0.05
Info: FEP INTRA-ALCHEMICAL NON-BONDED INTERACTIONS WILL BE RETAINED
Info: FEP INTRA-ALCHEMICAL BONDED INTERACTIONS WILL BE RETAINED
Info: FEP VDW SHIFTING COEFFICIENT 5
Info: FEP ELEC. ACTIVE FOR ANNIHILATED PARTICLES BETWEEN LAMBDA = 0 AND LAMBDA = 0.5
Info: FEP ELEC. ACTIVE FOR EXNIHILATED PARTICLES BETWEEN LAMBDA = 0.5 AND LAMBDA = 1
Info: FEP VDW ACTIVE FOR ANNIHILATED PARTICLES BETWEEN LAMBDA = 0 AND LAMBDA = 1
Info: FEP VDW ACTIVE FOR EXNIHILATED PARTICLES BETWEEN LAMBDA = 0 AND LAMBDA = 1
Info: FEP BOND ACTIVE FOR ANNIHILATED PARTICLES BETWEEN LAMBDA = 1 AND LAMBDA = 1
Info: FEP BOND ACTIVE FOR EXNIHILATED PARTICLES BETWEEN LAMBDA = 0 AND LAMBDA = 0
Info: LANGEVIN DYNAMICS ACTIVE
Info: LANGEVIN TEMPERATURE   300
Info: LANGEVIN USING BBK INTEGRATOR
Info: LANGEVIN DAMPING COEFFICIENT IS 1 INVERSE PS
Info: LANGEVIN DYNAMICS APPLIED TO HYDROGENS
Info: LANGEVIN PISTON PRESSURE CONTROL ACTIVE
Info:        TARGET PRESSURE IS 1.01325 BAR
Info:     OSCILLATION PERIOD IS 50 FS
Info:             DECAY TIME IS 25 FS
Info:     PISTON TEMPERATURE IS 300 K
Info:       PRESSURE CONTROL IS GROUP-BASED
Info:    INITIAL STRAIN RATE IS -5.97543e-06 -5.97543e-06 -5.97543e-06
Info:       CELL FLUCTUATION IS ISOTROPIC
Info: PARTICLE MESH EWALD (PME) ACTIVE
Info: PME TOLERANCE               1e-06
Info: PME EWALD COEFFICIENT       0.348832
Info: PME INTERPOLATION ORDER     4
Info: PME GRID DIMENSIONS         32 32 32
Info: PME MAXIMUM GRID SPACING    1
Info: PME CALCULATION WILL BE PERFORMED ON GPU
Info: FULL ELECTROSTATIC EVALUATION FREQUENCY      2
Info: USING VERLET I (r-RESPA) MTS SCHEME.
Info: C1 SPLITTING OF LONG RANGE ELECTROSTATICS
Info: PLACING ATOMS IN PATCHES BY HYDROGEN GROUPS
Info: RIGID BONDS TO HYDROGEN : ALL
Info:         ERROR TOLERANCE : 1e-08
Info:          MAX ITERATIONS : 100
Info: RIGID WATER USING SETTLE ALGORITHM
Info: RANDOM NUMBER SEED     1743514116
Info: USE HYDROGEN BONDS?    NO
Info: Using AMBER format force field!
Info: AMBER PARM FILE        mobley_296847.prmtop
Info: COORDINATE PDB         mobley_296847.pdb
Info: Exclusions will be read from PARM file!
Info: SCNB (VDW SCALING)     2
Info: USING ARITHMETIC MEAN TO COMBINE L-J SIGMA PARAMETERS
Info: BINARY COORDINATES     mobley_296847_equil.coor
Info: SUMMARY OF PARAMETERS:
Info: 6 BONDS
Info: 6 ANGLES
Info:   6 HARMONIC
Info:   0 COSINE-BASED
Info: 3 DIHEDRAL
Info: 0 IMPROPER
Info: 0 CROSSTERM
Info: 0 VDW
Info: 21 VDW_PAIRS
Info: 0 NBTHOLE_PAIRS
Info: To read alchdata from file: mobley_296847.pdb
Info: To read alchflag data from column: 5
Info: STRUCTURE SUMMARY:
Info: 2969 ATOMS
Info: 2969 BONDS
Info: 16 ANGLES
Info: 25 DIHEDRALS
Info: 0 IMPROPERS
Info: 0 CROSSTERMS
Info: 3002 EXCLUSIONS
Info: 2963 RIGID BONDS
Info: ALCH: 0 ATOMS TO DISAPPEAR IN FINAL STATE
Info: ALCH: 11 ATOMS TO APPEAR IN FINAL STATE
Info: 5944 DEGREES OF FREEDOM
Info: 992 HYDROGEN GROUPS
Info: 3 ATOMS IN LARGEST HYDROGEN GROUP
Info: 992 MIGRATION GROUPS
Info: 3 ATOMS IN LARGEST MIGRATION GROUP
Info: TOTAL MASS = 17842.9 amu
Info: TOTAL CHARGE = -0.000199944 e
Info: MASS DENSITY = 0.984309 g/cm^3
Info: ATOM DENSITY = 0.0986319 atoms/A^3
Info: ADDED 0 IMPLICIT EXCLUSIONS
Info: NONBONDED TABLE R-SQUARED SPACING: 0.0625
Info: NONBONDED TABLE SIZE: 705 POINTS
Info: REMOVING COM VELOCITY -0.259722 0.240141 -0.125585
Info: Use 3D box decompostion in PME FFT.
Info: Updated CUDA force table with 4096 elements.
Info: Updated CUDA LJ table with 6 x 6 elements.
Info: Found 12 unique exclusion lists needing 20 bytes
TCL: Running for 1500000 steps
ETITLE: TS BOND ANGLE DIHED IMPRP ELECT VDW BOUNDARY MISC KINETIC TOTAL TEMP POTENTIAL TOTALAVG TEMPAVG PRESSURE GPRESSURE VOLUME PRESSAVG GPRESSAVG
ENERGY: 0 1.8030 2.6550 0.9269 0.0000 -10830.6489 1486.5573 0.0000 0.0000 1789.3737 -7549.3331 302.9791 -9338.7068 -7549.3331 302.9791 501.1523 586.9478 30101.8097 501.1523 586.9478
ENERGY: 300000 2.2450 2.2456 1.7050 0.0000 -10761.1325 1466.3587 0.0000 0.0000 1807.3771 -7481.2010 306.0274 -9288.5782 -7509.1459 305.2175 33.4900 36.5202 30779.0875 228.3151 272.2029
ENERGY: 600000 0.2168 1.7494 3.0501 0.0000 -10724.0142 1345.7681 0.0000 0.0000 1820.4099 -7552.8200 308.2342 -9373.2299 -7531.8002 303.2336 -943.9392 -881.9594 30693.5537 -18.3442 19.0748
ENERGY: 900000 1.6259 2.6863 1.9242 0.0000 -10706.8277 1406.5709 0.0000 0.0000 1775.6794 -7518.3410 300.6603 -9294.0204 -7541.4988 301.9620 -374.6131 -319.1590 30633.7631 -45.3181 1.3233
ENERGY: 1200000 0.5228 2.3804 4.7546 0.0000 -10578.9081 1324.6196 0.0000 0.0000 1777.4547 -7469.1760 300.9609 -9246.6306 -7533.5351 302.3001 -660.9286 -660.8489 30466.0067 -16.7239 29.0789
ENERGY: 1500000 2.1060 2.1679 4.3544 0.0000 -10762.1429 1419.2501 0.0000 0.0000 1744.6514 -7589.6132 295.4066 -9334.2646 -7543.2806 301.4173 -335.0731 -264.1016 30651.5107 -107.2059 -61.4492
TCL: Running FEP window   2: Lambda1 0.05   Lambda2 0.1    [dLambda 0.05  ]
TCL: Setting parameter firsttimestep to 0
TCL: Setting parameter alchLambda to 0.05
Info: NONBONDED TABLE R-SQUARED SPACING: 0.0625
Info: NONBONDED TABLE SIZE: 705 POINTS
TCL: Setting parameter alchLambda2 to 0.1
Info: NONBONDED TABLE R-SQUARED SPACING: 0.0625
Info: NONBONDED TABLE SIZE: 705 POINTS
TCL: Running for 1500000 steps
ETITLE: TS BOND ANGLE DIHED IMPRP ELECT VDW BOUNDARY MISC KINETIC TOTAL TEMP POTENTIAL TOTALAVG TEMPAVG PRESSURE GPRESSURE VOLUME PRESSAVG GPRESSAVG
ENERGY: 0 2.1060 2.1679 4.3544 0.0000 -10762.1419 1420.1948 0.0000 0.0000 1743.7498 -7589.5691 295.2540 -9333.3189 -7589.5691 295.2540 -348.0706 -260.7643 30651.5107 -348.0706 -260.7643
ENERGY: 300000 1.5768 1.8689 2.0913 0.0000 -10813.3446 1481.9606 0.0000 0.0000 1798.1660 -7527.6811 304.4678 -9325.8471 -7553.9196 300.4465 270.8711 332.4629 30198.8627 -123.2634 -68.9738
ENERGY: 600000 2.0941 1.6370 1.0736 0.0000 -10738.4761 1373.6577 0.0000 0.0000 1741.1461 -7618.8675 294.8131 -9360.0136 -7576.0406 296.4771 -819.7764 -828.3174 30677.4384 -155.9906 -112.4863
ENERGY: 900000 1.7285 1.3538 4.9576 0.0000 -10710.8958 1409.9577 0.0000 0.0000 1781.2063 -7511.6919 301.5962 -9292.8982 -7563.8661 296.1449 -112.0214 21.2317 30409.9744 -74.1459 -18.1287
ENERGY: 1200000 1.0459 4.0485 0.5472 0.0000 -10972.8082 1594.5732 0.0000 0.0000 1777.8738 -7594.7197 301.0319 -9372.5934 -7550.6355 297.4344 854.1646 914.3409 30560.4529 -32.9238 18.1961
ENERGY: 1500000 1.3037 2.5628 7.3595 0.0000 -10783.1058 1416.0600 0.0000 0.0000 1751.0777 -7604.7421 296.4947 -9355.8197 -7557.6130 297.3101 -645.1405 -555.4900 30741.3110 -103.0519 -43.8580
TCL: Running FEP window   3: Lambda1 0.1    Lambda2 0.15000000000000002 [dLambda 0.05000000000000002]
TCL: Setting parameter firsttimestep to 0
TCL: Setting parameter alchLambda to 0.1
Info: NONBONDED TABLE R-SQUARED SPACING: 0.0625
Info: NONBONDED TABLE SIZE: 705 POINTS
TCL: Setting parameter alchLambda2 to 0.15000000000000002
Info: NONBONDED TABLE R-SQUARED SPACING: 0.0625
Info: NONBONDED TABLE SIZE: 705 POINTS
TCL: Running for 1500000 steps
ETITLE: TS BOND ANGLE DIHED IMPRP ELECT VDW BOUNDARY MISC KINETIC TOTAL TEMP POTENTIAL TOTALAVG TEMPAVG PRESSURE GPRESSURE VOLUME PRESSAVG GPRESSAVG
ENERGY: 0 1.3037 2.5628 7.3595 0.0000 -10783.1059 1417.5321 0.0000 0.0000 1750.2311 -7604.1167 296.3514 -9354.3478 -7604.1167 296.3514 -626.7463 -552.8496 30741.3110 -626.7463 -552.8496
ENERGY: 300000 1.4318 2.5465 2.4845 0.0000 -10903.4535 1463.3534 0.0000 0.0000 1806.3098 -7627.3275 305.8467 -9433.6373 -7562.5632 303.2213 129.4769 212.0234 29762.1289 -185.5656 -134.5560
ENERGY: 600000 0.8153 1.9316 2.0590 0.0000 -10909.4862 1529.5679 0.0000 0.0000 1802.1876 -7572.9247 305.1487 -9375.1123 -7549.0481 303.2469 666.2799 679.2056 30219.0910 45.6949 77.0680
ENERGY: 900000 2.6064 0.9266 3.9264 0.0000 -10949.8845 1498.2284 0.0000 0.0000 1790.2386 -7653.9582 303.1255 -9444.1968 -7551.5520 303.1870 178.9680 233.2035 29937.5989 64.5684 106.0623
ENERGY: 1200000 2.3112 1.9265 1.6562 0.0000 -10822.2977 1496.8871 0.0000 0.0000 1834.7542 -7484.7625 310.6630 -9319.5167 -7540.3880 304.5752 433.7391 502.6822 30220.7897 193.9845 245.0055
ENERGY: 1500000 3.0077 0.8260 1.0553 0.0000 -10571.3996 1376.1288 0.0000 0.0000 1811.9764 -7378.4055 306.8062 -9190.3818 -7530.4827 303.6972 -201.6657 -127.3196 30368.7388 132.4247 182.5685
TCL: Running FEP window   4: Lambda1 0.15000000000000002 Lambda2 0.2    [dLambda 0.04999999999999999]
TCL: Setting parameter firsttimestep to 0
TCL: Setting parameter alchLambda to 0.15000000000000002
Info: NONBONDED TABLE R-SQUARED SPACING: 0.0625
Info: NONBONDED TABLE SIZE: 705 POINTS
TCL: Setting parameter alchLambda2 to 0.2
Info: NONBONDED TABLE R-SQUARED SPACING: 0.0625
Info: NONBONDED TABLE SIZE: 705 POINTS
TCL: Running for 1500000 steps
ETITLE: TS BOND ANGLE DIHED IMPRP ELECT VDW BOUNDARY MISC KINETIC TOTAL TEMP POTENTIAL TOTALAVG TEMPAVG PRESSURE GPRESSURE VOLUME PRESSAVG GPRESSAVG
ENERGY: 0 3.0077 0.8260 1.0553 0.0000 -10571.3999 1375.8927 0.0000 0.0000 1811.0926 -7379.5256 306.6565 -9190.6182 -7379.5256 306.6565 -221.2345 -125.4113 30368.7388 -221.2345 -125.4113
ENERGY: 300000 2.5640 3.2281 2.8372 0.0000 -10723.9595 1389.3129 0.0000 0.0000 1701.0935 -7624.9239 288.0314 -9326.0174 -7527.4707 297.1578 -540.4113 -439.6084 30317.0360 -178.7751 -112.3048
ENERGY: 600000 2.5414 5.6381 1.7915 0.0000 -10830.3979 1446.5188 0.0000 0.0000 1802.3012 -7571.6069 305.1680 -9373.9081 -7540.8827 298.8652 110.7519 197.9812 30077.9021 -235.0530 -173.8369
ENERGY: 900000 1.9727 4.8104 0.5882 0.0000 -10713.8918 1404.2935 0.0000 0.0000 1729.5575 -7572.6694 292.8509 -9302.2269 -7555.5252 298.3491 -430.5156 -416.1256 30749.7554 -307.0738 -240.6184
ENERGY: 1200000 0.7235 1.8450 0.6331 0.0000 -10855.7946 1473.9616 0.0000 0.0000 1743.7811 -7634.8503 295.2593 -9378.6314 -7564.1288 298.1647 133.6546 165.8585 30286.4306 -369.2407 -310.7093
ENERGY: 1500000 2.9586 2.6971 1.6450 0.0000 -10712.8326 1422.8672 0.0000 0.0000 1762.8745 -7519.7903 298.4922 -9282.6648 -7556.9895 298.8704 -347.4084 -263.7338 30643.6154 -336.6041 -271.4039
TCL: Running FEP window   5: Lambda1 0.2    Lambda2 0.25   [dLambda 0.04999999999999999]
TCL: Setting parameter firsttimestep to 0
TCL: Setting parameter alchLambda to 0.2
Info: NONBONDED TABLE R-SQUARED SPACING: 0.0625
Info: NONBONDED TABLE SIZE: 705 POINTS
TCL: Setting parameter alchLambda2 to 0.25
Info: NONBONDED TABLE R-SQUARED SPACING: 0.0625
Info: NONBONDED TABLE SIZE: 705 POINTS
TCL: Running for 1500000 steps
ETITLE: TS BOND ANGLE DIHED IMPRP ELECT VDW BOUNDARY MISC KINETIC TOTAL TEMP POTENTIAL TOTALAVG TEMPAVG PRESSURE GPRESSURE VOLUME PRESSAVG GPRESSAVG
ENERGY: 0 2.9586 2.6971 1.6450 0.0000 -10712.8339 1422.7135 0.0000 0.0000 1762.0169 -7520.8029 298.3470 -9282.8198 -7520.8029 298.3470 -347.4123 -264.8844 30643.6154 -347.4123 -264.8844
ENERGY: 300000 2.8565 2.2873 2.0345 0.0000 -10729.3257 1458.8012 0.0000 0.0000 1831.4046 -7431.9417 310.0958 -9263.3463 -7490.0106 302.7808 284.8615 330.1910 30284.0168 -136.1450 -68.6658
ENERGY: 600000 0.9070 2.5920 2.9641 0.0000 -10771.1005 1423.8868 0.0000 0.0000 1735.7100 -7605.0406 293.8927 -9340.7506 -7524.1704 301.0131 -372.3585 -301.9833 30520.6964 -308.0277 -228.7990
ENERGY: 900000 0.8032 1.2134 2.3511 0.0000 -10867.9351 1562.6843 0.0000 0.0000 1811.2778 -7489.6052 306.6879 -9300.8830 -7523.2639 302.1521 1085.4578 1179.2869 29997.3074 -186.5029 -115.9340
ENERGY: 1200000 4.5168 2.6490 1.1590 0.0000 -10827.9093 1432.1701 0.0000 0.0000 1807.2240 -7580.1903 306.0015 -9387.4143 -7548.2724 300.7027 -458.7300 -335.4930 30386.8116 -196.8990 -128.5489
ENERGY: 1500000 1.0179 3.3138 1.4305 0.0000 -10703.0978 1382.1228 0.0000 0.0000 1787.2280 -7527.9849 302.6158 -9315.2129 -7551.9085 301.1087 -370.9054 -296.7946 29971.1540 -208.8054 -137.9134
TCL: Running FEP window   6: Lambda1 0.25   Lambda2 0.3    [dLambda 0.04999999999999999]
TCL: Setting parameter firsttimestep to 0
TCL: Setting parameter alchLambda to 0.25
Info: NONBONDED TABLE R-SQUARED SPACING: 0.0625
Info: NONBONDED TABLE SIZE: 705 POINTS
TCL: Setting parameter alchLambda2 to 0.3
Info: NONBONDED TABLE R-SQUARED SPACING: 0.0625
Info: NONBONDED TABLE SIZE: 705 POINTS
TCL: Running for 1500000 steps
ETITLE: TS BOND ANGLE DIHED IMPRP ELECT VDW BOUNDARY MISC KINETIC TOTAL TEMP POTENTIAL TOTALAVG TEMPAVG PRESSURE GPRESSURE VOLUME PRESSAVG GPRESSAVG
ENERGY: 0 1.0179 3.3138 1.4305 0.0000 -10703.0966 1382.2008 0.0000 0.0000 1786.3316 -7528.8020 302.4640 -9315.1336 -7528.8020 302.4640 -376.0017 -295.0368 29971.1540 -376.0017 -295.0368
ENERGY: 300000 2.3650 1.0831 2.0149 0.0000 -10708.8263 1378.4920 0.0000 0.0000 1795.0539 -7529.8173 303.9408 -9324.8712 -7502.7855 302.3693 -922.6276 -812.6886 30783.4217 -314.5714 -260.7503
ENERGY: 600000 0.3877 2.4589 1.6082 0.0000 -10640.2747 1385.6599 0.0000 0.0000 1785.5512 -7464.6088 302.3318 -9250.1600 -7501.7763 301.7448 -583.1118 -535.1847 31212.9545 -337.6522 -275.1281
ENERGY: 900000 1.7685 1.9205 1.7962 0.0000 -10791.3101 1443.9802 0.0000 0.0000 1753.5380 -7588.3065 296.9113 -9341.8446 -7532.3313 299.7570 -139.9751 -74.2361 30370.9677 -306.1078 -243.2484
ENERGY: 1200000 1.3925 3.7153 4.0326 0.0000 -10823.2890 1506.5123 0.0000 0.0000 1766.2970 -7541.3393 299.0717 -9307.6363 -7526.5581 300.1999 517.8190 476.3683 30419.9241 -244.8007 -195.6808
ENERGY: 1500000 2.1022 1.7004 3.1421 0.0000 -10692.6592 1314.1468 0.0000 0.0000 1796.3408 -7575.2269 304.1587 -9371.5676 -7527.8597 300.6208 -1213.4494 -1171.6221 30364.2906 -301.1559 -250.2395
TCL: Running FEP window   7: Lambda1 0.3    Lambda2 0.35   [dLambda 0.04999999999999999]
TCL: Setting parameter firsttimestep to 0
TCL: Setting parameter alchLambda to 0.3
Info: NONBONDED TABLE R-SQUARED SPACING: 0.0625
Info: NONBONDED TABLE SIZE: 705 POINTS
TCL: Setting parameter alchLambda2 to 0.35
Info: NONBONDED TABLE R-SQUARED SPACING: 0.0625
Info: NONBONDED TABLE SIZE: 705 POINTS
TCL: Running for 1500000 steps
ETITLE: TS BOND ANGLE DIHED IMPRP ELECT VDW BOUNDARY MISC KINETIC TOTAL TEMP POTENTIAL TOTALAVG TEMPAVG PRESSURE GPRESSURE VOLUME PRESSAVG GPRESSAVG
ENERGY: 0 2.1022 1.7004 3.1421 0.0000 -10692.6597 1314.5946 0.0000 0.0000 1795.5026 -7575.6178 304.0168 -9371.1204 -7575.6178 304.0168 -1242.4832 -1167.5334 30364.2906 -1242.4832 -1167.5334
ENERGY: 300000 1.3410 2.5817 1.2425 0.0000 -10787.2962 1498.1263 0.0000 0.0000 1782.9821 -7501.0227 301.8968 -9284.0048 -7554.3114 300.2656 392.6694 446.9567 30454.0803 -133.9880 -65.2285
ENERGY: 600000 4.7186 1.4066 3.2806 0.0000 -10759.3249 1386.9003 0.0000 0.0000 1789.5554 -7573.4634 303.0098 -9363.0188 -7558.8104 299.7552 -694.8486 -663.6271 30471.3127 -378.2651 -334.6393
ENERGY: 900000 1.8429 0.9641 2.5991 0.0000 -10692.7284 1422.7960 0.0000 0.0000 1760.6872 -7503.8392 298.1218 -9264.5264 -7557.4742 299.4903 -170.1885 -130.0832 30561.4458 -253.5130 -210.5142
ENERGY: 1200000 2.9976 3.5095 4.2661 0.0000 -10794.6583 1418.9083 0.0000 0.0000 1704.9287 -7660.0480 288.6807 -9364.9768 -7560.7868 298.8254 -562.0744 -566.1471 30740.7950 -226.8185 -186.0774
ENERGY: 1500000 7.2415 2.4872 2.8344 0.0000 -10995.2513 1579.5105 0.0000 0.0000 1808.0008 -7595.1768 306.1330 -9403.1776 -7564.3481 299.3105 798.6784 844.6857 30020.0966 -142.3418 -93.7117
TCL: Running FEP window   8: Lambda1 0.35   Lambda2 0.39999999999999997 [dLambda 0.04999999999999999]
TCL: Setting parameter firsttimestep to 0
TCL: Setting parameter alchLambda to 0.35
Info: NONBONDED TABLE R-SQUARED SPACING: 0.0625
Info: NONBONDED TABLE SIZE: 705 POINTS
TCL: Setting parameter alchLambda2 to 0.39999999999999997
Info: NONBONDED TABLE R-SQUARED SPACING: 0.0625
Info: NONBONDED TABLE SIZE: 705 POINTS
TCL: Running for 1500000 steps
ETITLE: TS BOND ANGLE DIHED IMPRP ELECT VDW BOUNDARY MISC KINETIC TOTAL TEMP POTENTIAL TOTALAVG TEMPAVG PRESSURE GPRESSURE VOLUME PRESSAVG GPRESSAVG
ENERGY: 0 7.2416 2.4872 2.8344 0.0000 -10995.2505 1580.9703 0.0000 0.0000 1807.1042 -7594.6129 305.9812 -9401.7170 -7594.6129 305.9812 771.5302 858.6297 30020.0966 771.5302 858.6297
ENERGY: 300000 2.2531 1.4527 3.0598 0.0000 -10772.5089 1452.0477 0.0000 0.0000 1728.4677 -7585.2279 292.6664 -9313.6956 -7563.1995 298.6455 -388.3833 -324.2732 31147.6265 -128.6882 -54.3951
ENERGY: 600000 2.1759 3.1646 2.6149 0.0000 -10611.0091 1334.8558 0.0000 0.0000 1742.2956 -7525.9023 295.0078 -9268.1979 -7560.9350 298.1291 -810.2613 -768.9479 30961.1188 -163.9007 -100.1802
ENERGY: 900000 5.1279 4.3789 3.0557 0.0000 -10863.0956 1484.2926 0.0000 0.0000 1767.5498 -7598.6908 299.2838 -9366.2406 -7560.2384 298.6631 -69.9824 -49.0337 30775.5880 -137.3074 -84.2282
ENERGY: 1200000 0.7375 1.8926 0.9865 0.0000 -10839.3511 1453.0225 0.0000 0.0000 1760.4182 -7622.2939 298.0763 -9382.7120 -7565.6653 298.7136 -344.9857 -301.1731 30758.7656 -131.7969 -82.7848
ENERGY: 1500000 2.8776 2.3197 2.8381 0.0000 -10788.6143 1457.3851 0.0000 0.0000 1801.1379 -7522.0559 304.9710 -9323.1938 -7568.5125 298.7215 112.6463 146.0320 30613.5383 -78.6050 -28.9864
TCL: Running FEP window   9: Lambda1 0.39999999999999997 Lambda2 0.44999999999999996 [dLambda 0.04999999999999999]
TCL: Setting parameter firsttimestep to 0
TCL: Setting parameter alchLambda to 0.39999999999999997
Info: NONBONDED TABLE R-SQUARED SPACING: 0.0625
Info: NONBONDED TABLE SIZE: 705 POINTS
TCL: Setting parameter alchLambda2 to 0.44999999999999996
Info: NONBONDED TABLE R-SQUARED SPACING: 0.0625
Info: NONBONDED TABLE SIZE: 705 POINTS
TCL: Running for 1500000 steps
ETITLE: TS BOND ANGLE DIHED IMPRP ELECT VDW BOUNDARY MISC KINETIC TOTAL TEMP POTENTIAL TOTALAVG TEMPAVG PRESSURE GPRESSURE VOLUME PRESSAVG GPRESSAVG
ENERGY: 0 2.8776 2.3197 2.8381 0.0000 -10788.6140 1456.9235 0.0000 0.0000 1800.2181 -7523.4369 304.8153 -9323.6550 -7523.4369 304.8153 58.6133 148.5472 30613.5383 58.6133 148.5472
ENERGY: 300000 1.8759 2.5405 4.9421 0.0000 -10742.0524 1377.8555 0.0000 0.0000 1776.9905 -7577.8479 300.8823 -9354.8383 -7563.4930 300.5750 -548.2906 -479.3982 30628.3093 122.9595 188.6295
ENERGY: 600000 1.0735 3.7344 0.8474 0.0000 -10725.8683 1404.7384 0.0000 0.0000 1756.8875 -7558.5872 297.4785 -9315.4747 -7556.1712 300.6266 -355.3486 -333.5968 30746.6700 176.1805 222.1878
ENERGY: 900000 0.7768 4.8950 1.4543 0.0000 -10755.7613 1452.3577 0.0000 0.0000 1738.6976 -7557.5800 294.3985 -9296.2776 -7549.2785 299.0491 225.8215 293.2682 30349.6565 161.6992 213.6572
ENERGY: 1200000 3.5541 2.6043 2.3888 0.0000 -10786.4653 1461.9062 0.0000 0.0000 1792.5450 -7523.4669 303.5160 -9316.0119 -7543.7488 299.8299 31.8008 105.3143 30360.9378 248.8708 296.9748
ENERGY: 1500000 4.2945 4.5602 4.8040 0.0000 -10679.1865 1343.8046 0.0000 0.0000 1803.7671 -7517.9561 305.4162 -9321.7232 -7540.7022 300.2220 -704.5893 -649.6623 30180.8832 108.3966 153.9701
TCL: Running FEP window  10: Lambda1 0.44999999999999996 Lambda2 0.49999999999999994 [dLambda 0.04999999999999999]
TCL: Setting parameter firsttimestep to 0
TCL: Setting parameter alchLambda to 0.44999999999999996
Info: NONBONDED TABLE R-SQUARED SPACING: 0.0625
Info: NONBONDED TABLE SIZE: 705 POINTS
TCL: Setting parameter alchLambda2 to 0.49999999999999994
Info: NONBONDED TABLE R-SQUARED SPACING: 0.0625
Info: NONBONDED TABLE SIZE: 705 POINTS
TCL: Running for 1500000 steps
ETITLE: TS BOND ANGLE DIHED IMPRP ELECT VDW BOUNDARY MISC KINETIC TOTAL TEMP POTENTIAL TOTALAVG TEMPAVG PRESSURE GPRESSURE VOLUME PRESSAVG GPRESSAVG
ENERGY: 0 4.2945 4.5602 4.8040 0.0000 -10679.1858 1343.6778 0.0000 0.0000 1802.9189 -7518.9305 305.2726 -9321.8494 -7518.9305 305.2726 -724.1559 -646.3508 30180.8832 -724.1559 -646.3508
ENERGY: 300000 0.4366 1.7786 1.8588 0.0000 -10789.5063 1398.8444 0.0000 0.0000 1752.9254 -7633.6624 296.8076 -9386.5878 -7568.8408 300.7537 -592.1110 -493.5609 30540.3939 -332.8135 -264.5402
ENERGY: 600000 3.1536 5.8072 1.6818 0.0000 -10832.2349 1434.8178 0.0000 0.0000 1802.9959 -7583.7786 305.2856 -9386.7745 -7535.7716 301.6592 -525.3781 -380.4155 30488.8893 -378.7108 -303.2291
ENERGY: 900000 2.4985 4.1091 1.7678 0.0000 -10761.2133 1441.9099 0.0000 0.0000 1750.4535 -7560.4745 296.3891 -9310.9280 -7539.5274 300.8696 -9.7766 37.5701 30392.7737 -356.2567 -286.9167
ENERGY: 1200000 2.1990 2.5885 1.2683 0.0000 -10755.0098 1456.5863 0.0000 0.0000 1823.6989 -7468.6688 308.7911 -9292.3677 -7537.2320 301.3853 122.3640 242.7726 30474.2277 -314.6623 -243.7489
ENERGY: 1500000 1.4451 2.3330 3.6430 0.0000 -10868.6001 1562.5176 0.0000 0.0000 1788.2415 -7510.4199 302.7874 -9298.6614 -7543.0136 301.1428 1247.0906 1262.1385 30216.7794 -164.0209 -98.5931
TCL: Running FEP window  11: Lambda1 0.49999999999999994 Lambda2 0.5499999999999999 [dLambda 0.04999999999999999]
TCL: Setting parameter firsttimestep to 0
TCL: Setting parameter alchLambda to 0.49999999999999994
Info: NONBONDED TABLE R-SQUARED SPACING: 0.0625
Info: NONBONDED TABLE SIZE: 705 POINTS
TCL: Setting parameter alchLambda2 to 0.5499999999999999
Info: NONBONDED TABLE R-SQUARED SPACING: 0.0625
Info: NONBONDED TABLE SIZE: 705 POINTS
TCL: Running for 1500000 steps
ETITLE: TS BOND ANGLE DIHED IMPRP ELECT VDW BOUNDARY MISC KINETIC TOTAL TEMP POTENTIAL TOTALAVG TEMPAVG PRESSURE GPRESSURE VOLUME PRESSAVG GPRESSAVG
ENERGY: 0 1.4451 2.3330 3.6430 0.0000 -10868.6002 1562.1633 0.0000 0.0000 1787.3752 -7511.6406 302.6407 -9299.0158 -7511.6406 302.6407 1184.1277 1264.4287 30216.7794 1184.1277 1264.4287
ENERGY: 300000 2.7455 2.1392 1.7912 0.0000 -10825.0280 1453.1454 0.0000 0.0000 1806.1202 -7559.0865 305.8146 -9365.2067 -7558.8379 301.3453 -125.4546 -26.7475 30512.4554 99.7162 175.5841
ENERGY: 600000 2.5169 2.0583 1.4525 0.0000 -10688.8907 1424.8816 0.0000 0.0000 1750.7477 -7507.2337 296.4389 -9257.9814 -7530.4070 301.2161 -99.0657 -26.2638 30725.0531 -8.9507 63.5280
ENERGY: 900000 0.9952 3.5021 2.4703 0.0000 -10857.5181 1521.3903 0.0000 0.0000 1724.9031 -7604.2573 292.0628 -9329.1604 -7540.8688 300.6025 254.8033 317.4082 30763.2762 31.1520 104.9410
ENERGY: 1200000 1.2792 0.7656 2.8404 0.0000 -10805.7290 1449.8391 0.0000 0.0000 1744.4553 -7606.5494 295.3734 -9351.0047 -7557.3490 299.8969 -173.7655 -94.1948 30624.4204 67.8489 138.3391
ENERGY: 1500000 1.6116 1.4014 2.2674 0.0000 -10864.6527 1496.5854 0.0000 0.0000 1810.5386 -7552.2483 306.5628 -9362.7869 -7554.5590 299.8445 449.7002 522.1578 30399.8287 91.0143 160.1375
TCL: Running FEP window  12: Lambda1 0.5499999999999999 Lambda2 0.6    [dLambda 0.050000000000000044]
TCL: Setting parameter firsttimestep to 0
TCL: Setting parameter alchLambda to 0.5499999999999999
Info: NONBONDED TABLE R-SQUARED SPACING: 0.0625
Info: NONBONDED TABLE SIZE: 705 POINTS
TCL: Setting parameter alchLambda2 to 0.6
Info: NONBONDED TABLE R-SQUARED SPACING: 0.0625
Info: NONBONDED TABLE SIZE: 705 POINTS
TCL: Running for 1500000 steps
ETITLE: TS BOND ANGLE DIHED IMPRP ELECT VDW BOUNDARY MISC KINETIC TOTAL TEMP POTENTIAL TOTALAVG TEMPAVG PRESSURE GPRESSURE VOLUME PRESSAVG GPRESSAVG
ENERGY: 0 1.6116 1.4014 2.2674 0.0000 -10864.5333 1496.3666 0.0000 0.0000 1809.6614 -7553.2249 306.4142 -9362.8863 -7553.2249 306.4142 432.7151 527.3419 30399.8287 432.7151 527.3419
ENERGY: 300000 1.6031 2.8722 4.0555 0.0000 -10734.3572 1492.5664 0.0000 0.0000 1775.3062 -7457.9539 300.5971 -9233.2600 -7551.6598 300.5578 352.4847 394.9709 31030.7550 442.0962 517.3613
ENERGY: 600000 0.9452 2.0160 1.1121 0.0000 -10726.1914 1437.9162 0.0000 0.0000 1754.5787 -7529.6232 297.0875 -9284.2019 -7554.1681 299.9790 -295.9409 -211.5501 30923.6327 140.1066 219.0835
ENERGY: 900000 1.8158 3.6564 3.5688 0.0000 -10691.3917 1362.8679 0.0000 0.0000 1762.9330 -7556.5498 298.5021 -9319.4828 -7548.0722 300.5158 -480.2354 -386.9597 30210.3679 96.1207 170.5813
ENERGY: 1200000 2.7871 1.5990 2.8224 0.0000 -10759.6564 1402.9975 0.0000 0.0000 1805.8300 -7543.6204 305.7655 -9349.4504 -7558.6827 300.4651 -238.9158 -180.3074 30351.5467 139.4677 206.6643
ENERGY: 1500000 1.1853 2.9854 2.5310 0.0000 -10736.6793 1423.8241 0.0000 0.0000 1761.0807 -7545.0727 298.1885 -9306.1534 -7553.5244 300.5705 -572.5841 -553.7327 31393.4471 72.6774 140.4066
TCL: Running FEP window  13: Lambda1 0.6    Lambda2 0.65   [dLambda 0.050000000000000044]
TCL: Setting parameter firsttimestep to 0
TCL: Setting parameter alchLambda to 0.6
Info: NONBONDED TABLE R-SQUARED SPACING: 0.0625
Info: NONBONDED TABLE SIZE: 705 POINTS
TCL: Setting parameter alchLambda2 to 0.65
Info: NONBONDED TABLE R-SQUARED SPACING: 0.0625
Info: NONBONDED TABLE SIZE: 705 POINTS
TCL: Running for 1500000 steps
ETITLE: TS BOND ANGLE DIHED IMPRP ELECT VDW BOUNDARY MISC KINETIC TOTAL TEMP POTENTIAL TOTALAVG TEMPAVG PRESSURE GPRESSURE VOLUME PRESSAVG GPRESSAVG
ENERGY: 0 1.1853 2.9854 2.5310 0.0000 -10736.6136 1424.0652 0.0000 0.0000 1760.1772 -7545.6695 298.0355 -9305.8466 -7545.6695 298.0355 -632.2921 -546.1033 31393.4471 -632.2921 -546.1033
ENERGY: 300000 1.1358 2.0544 2.1571 0.0000 -10807.0854 1502.9383 0.0000 0.0000 1792.9657 -7505.8341 303.5873 -9298.7998 -7532.6951 298.3772 474.9456 582.1780 30496.8172 -185.0734 -85.3959
ENERGY: 600000 4.3798 5.6334 1.8076 0.0000 -10800.9320 1458.7785 0.0000 0.0000 1866.8311 -7463.5016 316.0943 -9330.3327 -7544.1680 300.8708 -0.2250 71.9170 30281.7765 -298.6221 -209.2802
ENERGY: 900000 3.5627 3.6344 4.3895 0.0000 -10768.0984 1428.3472 0.0000 0.0000 1759.8402 -7568.3244 297.9784 -9328.1646 -7553.0231 299.4534 -349.8477 -217.2545 30767.6421 -254.7797 -172.6561
ENERGY: 1200000 1.7812 3.5698 3.1153 0.0000 -10838.2017 1457.1435 0.0000 0.0000 1813.1494 -7559.4427 307.0048 -9372.5921 -7555.0388 299.6687 -73.0716 -47.6478 30555.9989 -228.4860 -147.2102
ENERGY: 1500000 1.2591 3.1924 2.4470 0.0000 -10841.3240 1475.6298 0.0000 0.0000 1765.3468 -7593.4489 298.9108 -9358.7957 -7568.4576 299.2575 173.2785 195.9827 30395.4719 -205.0864 -132.3114
TCL: Running FEP window  14: Lambda1 0.65   Lambda2 0.7000000000000001 [dLambda 0.050000000000000044]
TCL: Setting parameter firsttimestep to 0
TCL: Setting parameter alchLambda to 0.65
Info: NONBONDED TABLE R-SQUARED SPACING: 0.0625
Info: NONBONDED TABLE SIZE: 705 POINTS
TCL: Setting parameter alchLambda2 to 0.7000000000000001
Info: NONBONDED TABLE R-SQUARED SPACING: 0.0625
Info: NONBONDED TABLE SIZE: 705 POINTS
TCL: Running for 1500000 steps
ETITLE: TS BOND ANGLE DIHED IMPRP ELECT VDW BOUNDARY MISC KINETIC TOTAL TEMP POTENTIAL TOTALAVG TEMPAVG PRESSURE GPRESSURE VOLUME PRESSAVG GPRESSAVG
ENERGY: 0 1.2591 3.1924 2.4470 0.0000 -10842.0094 1475.8187 0.0000 0.0000 1764.4541 -7594.8380 298.7597 -9359.2921 -7594.8380 298.7597 116.9064 201.2281 30395.4719 116.9064 201.2281
ENERGY: 300000 1.7488 2.4379 1.3348 0.0000 -10736.8617 1386.8201 0.0000 0.0000 1770.1787 -7574.3414 299.7289 -9344.5201 -7573.3507 297.6175 -483.8944 -403.8686 30706.0353 -110.0239 -22.7464
ENERGY: 600000 4.7711 2.4921 0.6642 0.0000 -10847.1943 1520.8316 0.0000 0.0000 1826.0320 -7492.4035 309.1861 -9318.4354 -7569.2794 299.5379 692.3959 700.8507 30179.8148 154.3914 215.6759
ENERGY: 900000 1.7679 2.5745 3.1199 0.0000 -10805.3507 1448.2958 0.0000 0.0000 1719.2367 -7630.3560 291.1034 -9349.5927 -7560.7866 299.3300 82.8345 132.6171 30259.3279 216.4606 266.9228
ENERGY: 1200000 3.1286 1.4577 0.6171 0.0000 -10782.6973 1443.3351 0.0000 0.0000 1747.1590 -7586.9998 295.8312 -9334.1588 -7564.5444 298.9559 -97.4171 -103.9937 30658.4291 129.2533 175.9615
ENERGY: 1500000 1.1688 1.6728 1.8799 0.0000 -10721.9097 1368.7829 0.0000 0.0000 1756.3263 -7592.0789 297.3834 -9348.4052 -7561.5686 299.4824 -659.9707 -612.9378 30496.7658 25.3350 75.6584
TCL: Running FEP window  15: Lambda1 0.7000000000000001 Lambda2 0.7500000000000001 [dLambda 0.050000000000000044]
TCL: Setting parameter firsttimestep to 0
TCL: Setting parameter alchLambda to 0.7000000000000001
Info: NONBONDED TABLE R-SQUARED SPACING: 0.0625
Info: NONBONDED TABLE SIZE: 705 POINTS
TCL: Setting parameter alchLambda2 to 0.7500000000000001
Info: NONBONDED TABLE R-SQUARED SPACING: 0.0625
Info: NONBONDED TABLE SIZE: 705 POINTS
TCL: Running for 1500000 steps
ETITLE: TS BOND ANGLE DIHED IMPRP ELECT VDW BOUNDARY MISC KINETIC TOTAL TEMP POTENTIAL TOTALAVG TEMPAVG PRESSURE GPRESSURE VOLUME PRESSAVG GPRESSAVG
ENERGY: 0 1.1688 1.6728 1.8799 0.0000 -10722.7160 1368.9422 0.0000 0.0000 1755.4444 -7593.6080 297.2341 -9349.0523 -7593.6080 297.2341 -685.4651 -605.4750 30496.7658 -685.4651 -605.4750
ENERGY: 300000 2.4280 1.0336 0.8782 0.0000 -10842.3017 1520.1943 0.0000 0.0000 1756.3508 -7561.4168 297.3876 -9317.7676 -7552.3683 300.9406 591.8020 628.5233 30399.3381 -195.6831 -121.6986
ENERGY: 600000 1.8143 2.2316 3.8030 0.0000 -10813.4831 1425.4532 0.0000 0.0000 1777.6778 -7602.5031 300.9987 -9380.1809 -7552.8715 301.0593 -203.7660 -119.0934 30333.8343 -159.7287 -84.3045
ENERGY: 900000 0.6180 4.7150 2.4905 0.0000 -10805.1313 1458.7368 0.0000 0.0000 1815.1139 -7523.4572 307.3374 -9338.5711 -7555.0050 301.7825 142.0185 178.2132 30370.4220 -90.0296 -22.8383
ENERGY: 1200000 1.7481 5.8779 2.5479 0.0000 -10756.2960 1423.7312 0.0000 0.0000 1818.0652 -7504.3256 307.8372 -9322.3908 -7553.2473 300.9163 -142.9837 -47.7951 30313.5995 -137.3348 -73.2592
ENERGY: 1500000 1.3855 1.8231 0.8525 0.0000 -10906.4643 1547.7463 0.0000 0.0000 1757.1188 -7597.5382 297.5176 -9354.6570 -7550.8393 300.6261 767.5451 845.5188 30053.6093 -91.2475 -28.5565
TCL: Running FEP window  16: Lambda1 0.7500000000000001 Lambda2 0.8000000000000002 [dLambda 0.050000000000000044]
TCL: Setting parameter firsttimestep to 0
TCL: Setting parameter alchLambda to 0.7500000000000001
Info: NONBONDED TABLE R-SQUARED SPACING: 0.0625
Info: NONBONDED TABLE SIZE: 705 POINTS
TCL: Setting parameter alchLambda2 to 0.8000000000000002
Info: NONBONDED TABLE R-SQUARED SPACING: 0.0625
Info: NONBONDED TABLE SIZE: 705 POINTS
TCL: Running for 1500000 steps
ETITLE: TS BOND ANGLE DIHED IMPRP ELECT VDW BOUNDARY MISC KINETIC TOTAL TEMP POTENTIAL TOTALAVG TEMPAVG PRESSURE GPRESSURE VOLUME PRESSAVG GPRESSAVG
ENERGY: 0 1.3855 1.8231 0.8525 0.0000 -10907.0458 1547.2541 0.0000 0.0000 1756.2315 -7599.4992 297.3674 -9355.7307 -7599.4992 297.3674 756.0313 843.1426 30053.6093 756.0313 843.1426
ENERGY: 300000 2.1450 2.0895 1.8746 0.0000 -10746.9714 1466.4026 0.0000 0.0000 1763.0387 -7511.4209 298.5200 -9274.4597 -7569.9621 298.4103 114.3414 154.3858 30775.6642 343.8704 409.8902
ENERGY: 600000 0.6485 2.4261 2.9689 0.0000 -10877.1432 1544.2686 0.0000 0.0000 1829.5827 -7497.2484 309.7873 -9326.8311 -7561.1206 299.7567 1226.6009 1260.0488 29906.7239 418.5632 482.8510
ENERGY: 900000 0.9120 4.0152 1.3535 0.0000 -10728.7316 1415.3611 0.0000 0.0000 1781.0036 -7526.0862 301.5618 -9307.0898 -7553.8839 301.3131 -404.2797 -321.0060 30868.9715 313.6350 377.4652
ENERGY: 1200000 2.0690 1.7682 3.0127 0.0000 -10811.8518 1491.0262 0.0000 0.0000 1700.2071 -7613.7685 287.8813 -9313.9756 -7555.2914 300.1075 43.3428 128.5935 30915.9873 192.0721 259.2537
ENERGY: 1500000 2.2455 1.1729 4.4986 0.0000 -10714.1331 1414.1210 0.0000 0.0000 1721.9417 -7570.1533 291.5614 -9292.0950 -7558.6830 300.0190 -409.5982 -346.1990 30823.9464 127.3634 189.7264
TCL: Running FEP window  17: Lambda1 0.8000000000000002 Lambda2 0.8500000000000002 [dLambda 0.050000000000000044]
TCL: Setting parameter firsttimestep to 0
TCL: Setting parameter alchLambda to 0.8000000000000002
Info: NONBONDED TABLE R-SQUARED SPACING: 0.0625
Info: NONBONDED TABLE SIZE: 705 POINTS
TCL: Setting parameter alchLambda2 to 0.8500000000000002
Info: NONBONDED TABLE R-SQUARED SPACING: 0.0625
Info: NONBONDED TABLE SIZE: 705 POINTS
TCL: Running for 1500000 steps
ETITLE: TS BOND ANGLE DIHED IMPRP ELECT VDW BOUNDARY MISC KINETIC TOTAL TEMP POTENTIAL TOTALAVG TEMPAVG PRESSURE GPRESSURE VOLUME PRESSAVG GPRESSAVG
ENERGY: 0 2.2455 1.1729 4.4986 0.0000 -10714.9411 1415.5694 0.0000 0.0000 1721.0112 -7570.4435 291.4038 -9291.4547 -7570.4435 291.4038 -401.8222 -323.5723 30823.9464 -401.8222 -323.5723
ENERGY: 300000 1.9794 1.8203 1.9413 0.0000 -10828.9335 1520.6648 0.0000 0.0000 1812.8535 -7489.6741 306.9547 -9302.5276 -7548.7945 300.4922 694.2648 788.1263 30244.3395 31.4540 109.8398
ENERGY: 600000 2.0030 2.1825 3.2321 0.0000 -10784.3133 1466.1162 0.0000 0.0000 1766.1403 -7544.6392 299.0452 -9310.7795 -7534.8545 299.6276 -217.7364 -119.3244 30724.9543 129.1905 199.2891
ENERGY: 900000 1.9850 1.8200 1.3145 0.0000 -10841.2819 1483.9597 0.0000 0.0000 1785.8872 -7566.3154 302.3887 -9352.2026 -7540.6746 299.1964 176.4553 256.9675 30626.3920 -41.4029 31.9986
ENERGY: 1200000 1.9675 2.1170 2.6475 0.0000 -10705.4133 1400.9315 0.0000 0.0000 1773.4123 -7524.3375 300.2765 -9297.7498 -7549.6634 299.1949 -141.8548 -131.3434 30428.2694 8.8588 70.2380
ENERGY: 1500000 0.9419 1.6695 1.8248 0.0000 -10726.4996 1444.3029 0.0000 0.0000 1744.0761 -7533.6843 295.3092 -9277.7604 -7550.3720 299.0687 -24.8323 88.2138 30565.1784 12.7591 76.0446
TCL: Running FEP window  18: Lambda1 0.8500000000000002 Lambda2 0.9000000000000002 [dLambda 0.050000000000000044]
TCL: Setting parameter firsttimestep to 0
TCL: Setting parameter alchLambda to 0.8500000000000002
Info: NONBONDED TABLE R-SQUARED SPACING: 0.0625
Info: NONBONDED TABLE SIZE: 705 POINTS
TCL: Setting parameter alchLambda2 to 0.9000000000000002
Info: NONBONDED TABLE R-SQUARED SPACING: 0.0625
Info: NONBONDED TABLE SIZE: 705 POINTS
TCL: Running for 1500000 steps
ETITLE: TS BOND ANGLE DIHED IMPRP ELECT VDW BOUNDARY MISC KINETIC TOTAL TEMP POTENTIAL TOTALAVG TEMPAVG PRESSURE GPRESSURE VOLUME PRESSAVG GPRESSAVG
ENERGY: 0 0.9419 1.6695 1.8248 0.0000 -10727.3546 1445.9015 0.0000 0.0000 1743.2173 -7533.7995 295.1638 -9277.0168 -7533.7995 295.1638 28.1447 113.0175 30565.1784 28.1447 113.0175
ENERGY: 300000 1.2706 2.2701 5.7364 0.0000 -10767.0093 1491.0677 0.0000 0.0000 1817.3377 -7449.3267 307.7140 -9266.6644 -7544.1081 301.1280 907.1144 958.7035 30383.8404 361.5749 441.0602
ENERGY: 600000 0.4759 1.0127 1.9916 0.0000 -10785.8172 1425.6082 0.0000 0.0000 1715.0199 -7641.7089 290.3894 -9356.7288 -7568.2239 298.1794 -505.4719 -430.7251 30909.0424 196.4106 263.5869
ENERGY: 900000 1.1283 1.9990 1.5548 0.0000 -10863.6912 1490.8262 0.0000 0.0000 1775.9893 -7592.1937 300.7128 -9368.1830 -7562.0919 301.1421 322.0870 369.8221 30229.8552 160.2532 219.3855
ENERGY: 1200000 1.1268 2.5197 3.7017 0.0000 -10753.9422 1443.7376 0.0000 0.0000 1784.4189 -7518.4374 302.1401 -9302.8563 -7564.2412 300.4994 44.6196 72.1712 30833.0690 187.6935 244.1174
ENERGY: 1500000 1.1315 2.1081 3.7827 0.0000 -10852.2960 1480.5740 0.0000 0.0000 1733.9374 -7630.7622 293.5925 -9364.6997 -7571.3088 300.2968 50.7089 132.3606 30422.9775 160.9636 220.8936
TCL: Running FEP window  19: Lambda1 0.9000000000000002 Lambda2 0.9500000000000003 [dLambda 0.050000000000000044]
TCL: Setting parameter firsttimestep to 0
TCL: Setting parameter alchLambda to 0.9000000000000002
Info: NONBONDED TABLE R-SQUARED SPACING: 0.0625
Info: NONBONDED TABLE SIZE: 705 POINTS
TCL: Setting parameter alchLambda2 to 0.9500000000000003
Info: NONBONDED TABLE R-SQUARED SPACING: 0.0625
Info: NONBONDED TABLE SIZE: 705 POINTS
TCL: Running for 1500000 steps
ETITLE: TS BOND ANGLE DIHED IMPRP ELECT VDW BOUNDARY MISC KINETIC TOTAL TEMP POTENTIAL TOTALAVG TEMPAVG PRESSURE GPRESSURE VOLUME PRESSAVG GPRESSAVG
ENERGY: 0 1.1315 2.1081 3.7827 0.0000 -10853.7966 1480.3887 0.0000 0.0000 1733.0678 -7633.3178 293.4453 -9366.3856 -7633.3178 293.4453 35.9926 134.0139 30422.9775 35.9926 134.0139
ENERGY: 300000 3.2652 2.3291 2.6012 0.0000 -10856.7299 1524.8951 0.0000 0.0000 1721.7192 -7601.9202 291.5237 -9323.6394 -7586.9100 296.1335 386.6865 457.8885 30660.8439 17.0574 107.4935
ENERGY: 600000 6.7899 3.2021 2.2563 0.0000 -10763.9242 1405.8303 0.0000 0.0000 1751.6604 -7594.1852 296.5934 -9345.8456 -7575.1188 298.3290 -607.0482 -514.3451 30373.9546 -140.0371 -50.0717
ENERGY: 900000 2.6411 2.0463 0.7267 0.0000 -10747.2566 1409.0453 0.0000 0.0000 1748.2910 -7584.5062 296.0229 -9332.7972 -7586.5764 297.9867 -406.0199 -401.6978 30612.8173 -115.3841 -27.9750
ENERGY: 1200000 0.9537 2.2896 3.8553 0.0000 -10700.4281 1399.0649 0.0000 0.0000 1756.6120 -7537.6527 297.4318 -9294.2647 -7570.0337 298.2576 -203.5583 -149.4654 30888.0980 -85.6139 -5.7838
ENERGY: 1500000 2.4569 2.1275 1.3089 0.0000 -10713.9315 1401.9074 0.0000 0.0000 1802.0843 -7504.0465 305.1313 -9306.1308 -7564.3059 298.8417 -212.9233 -191.2069 30671.2260 -110.0277 -38.1373
TCL: Running FEP window  20: Lambda1 0.9500000000000003 Lambda2 1.0    [dLambda 0.04999999999999971]
TCL: Setting parameter firsttimestep to 0
TCL: Setting parameter alchLambda to 0.9500000000000003
Info: NONBONDED TABLE R-SQUARED SPACING: 0.0625
Info: NONBONDED TABLE SIZE: 705 POINTS
TCL: Setting parameter alchLambda2 to 1.0
Info: NONBONDED TABLE R-SQUARED SPACING: 0.0625
Info: NONBONDED TABLE SIZE: 705 POINTS
TCL: Running for 1500000 steps
ETITLE: TS BOND ANGLE DIHED IMPRP ELECT VDW BOUNDARY MISC KINETIC TOTAL TEMP POTENTIAL TOTALAVG TEMPAVG PRESSURE GPRESSURE VOLUME PRESSAVG GPRESSAVG
ENERGY: 0 2.4569 2.1275 1.3089 0.0000 -10714.9106 1401.8236 0.0000 0.0000 1801.2396 -7505.9541 304.9882 -9307.1937 -7505.9541 304.9882 -271.0408 -184.8369 30671.2260 -271.0408 -184.8369
ENERGY: 300000 3.3644 1.6719 1.1309 0.0000 -10862.3948 1467.5542 0.0000 0.0000 1806.6911 -7581.9823 305.9113 -9388.6734 -7555.9821 300.9496 103.9974 151.2967 30493.8359 -434.8944 -379.5801
ENERGY: 600000 2.0486 1.8505 1.5866 0.0000 -10710.5473 1440.8416 0.0000 0.0000 1784.6398 -7479.5802 302.1775 -9264.2201 -7553.4561 298.2199 -21.5401 94.5084 30894.5011 -295.6146 -223.7205
ENERGY: 900000 0.9822 1.5715 2.5201 0.0000 -10943.7451 1522.4249 0.0000 0.0000 1775.0573 -7641.1891 300.5550 -9416.2464 -7558.1779 299.3855 620.9743 690.1598 30079.0444 -254.6620 -176.8327
ENERGY: 1200000 1.6902 1.3639 2.9348 0.0000 -10827.1491 1427.6726 0.0000 0.0000 1786.5043 -7606.9833 302.4932 -9393.4876 -7551.7026 300.3666 -466.1978 -388.9972 30519.1982 -239.2565 -163.0859
ENERGY: 1500000 3.4778 2.3185 1.7348 0.0000 -10941.4319 1578.0174 0.0000 0.0000 1776.1986 -7579.6847 300.7483 -9355.8833 -7555.1783 299.7131 1263.6456 1228.2843 30100.1237 -131.5123 -61.6540
TCL: Exiting due to exit command.
