Info: SIMULATION PARAMETERS:
Info: TIMESTEP               2
Info: NUMBER OF STEPS        0
Info: STEPS PER CYCLE        10
Info: PERIODIC CELL BASIS 1  30.4768 0 0
Info: PERIODIC CELL BASIS 2  0 32.0733 0
Info: PERIODIC CELL BASIS 3  0 0 32.7941
Info: PERIODIC CELL CENTER   0 0 0
Info: WRAPPING WATERS AROUND PERIODIC BOUNDARIES ON OUTPUT.
Info: WRAPPING ALL CLUSTERS AROUND PERIODIC BOUNDARIES ON OUTPUT.
Info: FIRST LDB TIMESTEP     50
Info: LAST LDB TIMESTEP     -1
Info: HOM BACKGROUND SCALING 1
Info: PME BACKGROUND SCALING 1
Info: MIN ATOMS PER PATCH    40
Info: EMPTY PATCH LOAD       40 ATOMS
Info: VELOCITY FILE          mobley_6733657_equil.vel
Info: CENTER OF MASS MOVING INITIALLY? NO
Info: DIELECTRIC             1
Info: EXCLUDE                SCALED ONE-FOUR
Info: 1-4 ELECTROSTATICS SCALED BY 0.833333
Info: MODIFIED 1-4 VDW PARAMETERS WILL BE USED
Info: DCD FILENAME           mobley_6733657_prod.dcd
Info: DCD FREQUENCY          100000
Info: DCD FIRST STEP         100000
Info: DCD FILE WILL CONTAIN UNIT CELL DATA
Info: XST FILENAME           mobley_6733657_prod.xst
Info: XST FREQUENCY          100000
Info: NO VELOCITY DCD OUTPUT
Info: NO FORCE DCD OUTPUT
Info: OUTPUT FILENAME        mobley_6733657_prod
Info: BINARY OUTPUT FILES WILL BE USED
Info: RESTART FILENAME       mobley_6733657_prod.restart
Info: RESTART FREQUENCY      100000
Info: BINARY RESTART FILES WILL BE USED
Info: CUTOFF                 9
Info: PAIRLIST DISTANCE      11
Info: PAIRLIST SHRINK RATE   0.01
Info: PAIRLIST GROW RATE     0.01
Info: PAIRLIST TRIGGER       0.3
Info: PAIRLISTS PER CYCLE    2
Info: PAIRLISTS ENABLED
Info: MARGIN                 2
Info: HYDROGEN GROUP CUTOFF  2.5
Info: PATCH DIMENSION        15.5
Info: ENERGY OUTPUT STEPS    100000
Info: ENERGY EVALUATION STEPS    100000
Info: OUTPUT ENERGY PRECISION 4
Info: CROSSTERM ENERGY INCLUDED IN DIHEDRAL
Info: TIMING OUTPUT STEPS    1000000
Info: PRESSURE OUTPUT STEPS  100000
Info: ALCHEMICAL FEP ON
Info: FEP CURRENT LAMBDA VALUE     1
Info: FEP COMPARISON LAMBDA VALUE  0.95
Info: FEP INTRA-ALCHEMICAL NON-BONDED INTERACTIONS WILL BE RETAINED
Info: FEP INTRA-ALCHEMICAL BONDED INTERACTIONS WILL BE RETAINED
Info: FEP VDW SHIFTING COEFFICIENT 5
Info: FEP ELEC. ACTIVE FOR ANNIHILATED PARTICLES BETWEEN LAMBDA = 0 AND LAMBDA = 0.5
Info: FEP ELEC. ACTIVE FOR EXNIHILATED PARTICLES BETWEEN LAMBDA = 0.5 AND LAMBDA = 1
Info: FEP VDW ACTIVE FOR ANNIHILATED PARTICLES BETWEEN LAMBDA = 0 AND LAMBDA = 1
Info: FEP VDW ACTIVE FOR EXNIHILATED PARTICLES BETWEEN LAMBDA = 0 AND LAMBDA = 1
Info: FEP BOND ACTIVE FOR ANNIHILATED PARTICLES BETWEEN LAMBDA = 1 AND LAMBDA = 1
Info: FEP BOND ACTIVE FOR EXNIHILATED PARTICLES BETWEEN LAMBDA = 0 AND LAMBDA = 0
Info: LANGEVIN DYNAMICS ACTIVE
Info: LANGEVIN TEMPERATURE   300
Info: LANGEVIN USING BBK INTEGRATOR
Info: LANGEVIN DAMPING COEFFICIENT IS 1 INVERSE PS
Info: LANGEVIN DYNAMICS APPLIED TO HYDROGENS
Info: LANGEVIN PISTON PRESSURE CONTROL ACTIVE
Info:        TARGET PRESSURE IS 1.01325 BAR
Info:     OSCILLATION PERIOD IS 50 FS
Info:             DECAY TIME IS 25 FS
Info:     PISTON TEMPERATURE IS 300 K
Info:       PRESSURE CONTROL IS GROUP-BASED
Info:    INITIAL STRAIN RATE IS -7.97065e-07 -7.97065e-07 -7.97065e-07
Info:       CELL FLUCTUATION IS ISOTROPIC
Info: PARTICLE MESH EWALD (PME) ACTIVE
Info: PME TOLERANCE               1e-06
Info: PME EWALD COEFFICIENT       0.348832
Info: PME INTERPOLATION ORDER     4
Info: PME GRID DIMENSIONS         32 36 36
Info: PME MAXIMUM GRID SPACING    1
Info: PME CALCULATION WILL BE PERFORMED ON GPU
Info: FULL ELECTROSTATIC EVALUATION FREQUENCY      2
Info: USING VERLET I (r-RESPA) MTS SCHEME.
Info: C1 SPLITTING OF LONG RANGE ELECTROSTATICS
Info: PLACING ATOMS IN PATCHES BY HYDROGEN GROUPS
Info: RIGID BONDS TO HYDROGEN : ALL
Info:         ERROR TOLERANCE : 1e-08
Info:          MAX ITERATIONS : 100
Info: RIGID WATER USING SETTLE ALGORITHM
Info: RANDOM NUMBER SEED     1743653954
Info: USE HYDROGEN BONDS?    NO
Info: Using AMBER format force field!
Info: AMBER PARM FILE        mobley_6733657.prmtop
Info: COORDINATE PDB         mobley_6733657.pdb
Info: Exclusions will be read from PARM file!
Info: SCNB (VDW SCALING)     2
Info: USING ARITHMETIC MEAN TO COMBINE L-J SIGMA PARAMETERS
Info: BINARY COORDINATES     mobley_6733657_equil.coor
Info: SUMMARY OF PARAMETERS:
Info: 9 BONDS
Info: 12 ANGLES
Info:   12 HARMONIC
Info:   0 COSINE-BASED
Info: 13 DIHEDRAL
Info: 0 IMPROPER
Info: 0 CROSSTERM
Info: 0 VDW
Info: 28 VDW_PAIRS
Info: 0 NBTHOLE_PAIRS
Info: To read alchdata from file: mobley_6733657.pdb
Info: To read alchflag data from column: 5
Info: STRUCTURE SUMMARY:
Info: 2994 ATOMS
Info: 2996 BONDS
Info: 54 ANGLES
Info: 144 DIHEDRALS
Info: 0 IMPROPERS
Info: 0 CROSSTERMS
Info: 3130 EXCLUSIONS
Info: 2976 RIGID BONDS
Info: ALCH: 0 ATOMS TO DISAPPEAR IN FINAL STATE
Info: ALCH: 24 ATOMS TO APPEAR IN FINAL STATE
Info: 6006 DEGREES OF FREEDOM
Info: 1008 HYDROGEN GROUPS
Info: 3 ATOMS IN LARGEST HYDROGEN GROUP
Info: 1008 MIGRATION GROUPS
Info: 3 ATOMS IN LARGEST MIGRATION GROUP
Info: TOTAL MASS = 18245.6 amu
Info: TOTAL CHARGE = -2.09548e-08 e
Info: MASS DENSITY = 0.945167 g/cm^3
Info: ATOM DENSITY = 0.0933992 atoms/A^3
Info: ADDED 0 IMPLICIT EXCLUSIONS
Info: NONBONDED TABLE R-SQUARED SPACING: 0.0625
Info: NONBONDED TABLE SIZE: 705 POINTS
Info: REMOVING COM VELOCITY -0.100245 -0.040661 0.173966
Info: Use 3D box decompostion in PME FFT.
Info: Updated CUDA force table with 4096 elements.
Info: Updated CUDA LJ table with 7 x 7 elements.
Info: Found 27 unique exclusion lists needing 84 bytes
TCL: Running for 1500000 steps
ETITLE: TS BOND ANGLE DIHED IMPRP ELECT VDW BOUNDARY MISC KINETIC TOTAL TEMP POTENTIAL TOTALAVG TEMPAVG PRESSURE GPRESSURE VOLUME PRESSAVG GPRESSAVG
ENERGY: 0 4.4617 57.6533 20.1030 0.0000 -10683.2838 1448.1419 0.0000 0.0000 1796.5010 -7356.4229 301.0458 -9152.9239 -7356.4229 301.0458 -98.9411 -16.1013 32055.9424 -98.9411 -16.1013
ENERGY: 300000 8.1811 60.0189 21.7790 0.0000 -10758.3756 1437.8774 0.0000 0.0000 1746.0028 -7484.5165 292.5836 -9230.5193 -7439.7870 298.8305 143.1131 206.9681 30908.6938 -24.1380 64.7183
ENERGY: 600000 8.0810 58.1881 22.4567 0.0000 -10920.8571 1518.5369 0.0000 0.0000 1748.5604 -7565.0340 293.0122 -9313.5944 -7456.2283 297.4708 296.8056 458.4829 31161.5124 59.9505 159.5704
ENERGY: 900000 10.7011 61.6626 20.6149 0.0000 -10658.5944 1342.4796 0.0000 0.0000 1813.8122 -7409.3239 303.9467 -9223.1361 -7445.2471 299.1743 -821.6063 -759.8298 31461.6749 -13.7966 65.0690
ENERGY: 1200000 4.7445 61.2064 21.5488 0.0000 -10804.7151 1433.5176 0.0000 0.0000 1820.3539 -7463.3440 305.0429 -9283.6979 -7447.4448 300.2586 -98.3393 14.2803 30729.4278 -57.1839 22.4897
ENERGY: 1500000 7.1440 57.7551 20.9965 0.0000 -10832.3223 1482.5397 0.0000 0.0000 1846.8247 -7417.0622 309.4787 -9263.8869 -7448.8772 301.3634 375.0264 473.1110 30891.3367 31.6678 114.7197
TCL: Running FEP window   2: Lambda1 0.95   Lambda2 0.8999999999999999 [dLambda -0.050000000000000044]
TCL: Setting parameter firsttimestep to 0
TCL: Setting parameter alchLambda to 0.95
Info: NONBONDED TABLE R-SQUARED SPACING: 0.0625
Info: NONBONDED TABLE SIZE: 705 POINTS
TCL: Setting parameter alchLambda2 to 0.8999999999999999
Info: NONBONDED TABLE R-SQUARED SPACING: 0.0625
Info: NONBONDED TABLE SIZE: 705 POINTS
TCL: Running for 1500000 steps
ETITLE: TS BOND ANGLE DIHED IMPRP ELECT VDW BOUNDARY MISC KINETIC TOTAL TEMP POTENTIAL TOTALAVG TEMPAVG PRESSURE GPRESSURE VOLUME PRESSAVG GPRESSAVG
ENERGY: 0 7.1440 57.7551 20.9965 0.0000 -10832.0488 1483.5309 0.0000 0.0000 1845.9731 -7416.6491 309.3360 -9262.6222 -7416.6491 309.3360 382.4778 462.5204 30891.3367 382.4778 462.5204
ENERGY: 300000 14.4223 59.6368 22.1591 0.0000 -10761.5105 1482.4182 0.0000 0.0000 1777.6514 -7405.2227 297.8871 -9182.8741 -7447.5686 300.7468 690.8687 726.5773 30953.0935 146.9880 199.7113
ENERGY: 600000 6.2954 62.6184 19.9404 0.0000 -10754.5828 1430.2461 0.0000 0.0000 1736.9104 -7498.5720 291.0600 -9235.4824 -7467.6954 298.7430 183.0131 241.1031 31030.5727 365.2763 406.5695
ENERGY: 900000 5.2961 59.5378 22.7455 0.0000 -10854.2317 1425.2257 0.0000 0.0000 1763.5623 -7577.8641 295.5261 -9341.4265 -7468.6270 299.1576 -266.6450 -281.9029 30837.4113 51.7284 89.9197
ENERGY: 1200000 4.7922 60.7167 22.4911 0.0000 -10768.0762 1447.1387 0.0000 0.0000 1746.7690 -7486.1685 292.7120 -9232.9375 -7469.0128 299.1323 -35.2456 -5.1298 31047.0273 -10.3884 24.7001
ENERGY: 1500000 7.3862 57.7465 21.6927 0.0000 -10821.4534 1464.9550 0.0000 0.0000 1797.2573 -7472.4156 301.1725 -9269.6729 -7478.3082 299.4642 289.5439 354.3707 30547.1312 -1.7071 44.3829
TCL: Running FEP window   3: Lambda1 0.8999999999999999 Lambda2 0.8499999999999999 [dLambda -0.050000000000000044]
TCL: Setting parameter firsttimestep to 0
TCL: Setting parameter alchLambda to 0.8999999999999999
Info: NONBONDED TABLE R-SQUARED SPACING: 0.0625
Info: NONBONDED TABLE SIZE: 705 POINTS
TCL: Setting parameter alchLambda2 to 0.8499999999999999
Info: NONBONDED TABLE R-SQUARED SPACING: 0.0625
Info: NONBONDED TABLE SIZE: 705 POINTS
TCL: Running for 1500000 steps
ETITLE: TS BOND ANGLE DIHED IMPRP ELECT VDW BOUNDARY MISC KINETIC TOTAL TEMP POTENTIAL TOTALAVG TEMPAVG PRESSURE GPRESSURE VOLUME PRESSAVG GPRESSAVG
ENERGY: 0 7.3862 57.7465 21.6927 0.0000 -10820.6702 1465.1769 0.0000 0.0000 1796.3784 -7472.2895 301.0252 -9268.6679 -7472.2895 301.0252 258.8045 341.0922 30547.1312 258.8045 341.0922
ENERGY: 300000 9.7878 58.9022 20.9167 0.0000 -10667.5194 1374.8079 0.0000 0.0000 1762.3451 -7440.7597 295.3221 -9203.1048 -7471.8858 297.3877 -456.6902 -320.9910 30944.9196 -225.7052 -146.1082
ENERGY: 600000 8.1331 62.8612 21.1421 0.0000 -10634.6887 1370.7990 0.0000 0.0000 1749.0662 -7422.6871 293.0970 -9171.7533 -7473.3411 296.6244 -396.2600 -330.6187 31002.4999 -69.7568 8.7571
ENERGY: 900000 5.6531 68.5397 19.8536 0.0000 -10714.2557 1397.2162 0.0000 0.0000 1760.6855 -7462.3074 295.0440 -9222.9929 -7475.7888 296.7496 -244.0239 -190.2466 31183.8233 23.2263 93.9794
ENERGY: 1200000 12.2893 62.5066 20.7207 0.0000 -10779.2553 1388.6983 0.0000 0.0000 1773.4979 -7521.5426 297.1911 -9295.0405 -7474.9972 297.0968 -868.2238 -746.6025 31229.9822 -46.0695 33.0281
ENERGY: 1500000 8.9631 63.9727 20.7207 0.0000 -10859.3427 1475.8814 0.0000 0.0000 1818.0611 -7471.7438 304.6587 -9289.8049 -7473.4540 297.6306 325.8305 370.4295 30839.0596 -53.1379 17.4323
TCL: Running FEP window   4: Lambda1 0.8499999999999999 Lambda2 0.7999999999999998 [dLambda -0.050000000000000044]
TCL: Setting parameter firsttimestep to 0
TCL: Setting parameter alchLambda to 0.8499999999999999
Info: NONBONDED TABLE R-SQUARED SPACING: 0.0625
Info: NONBONDED TABLE SIZE: 705 POINTS
TCL: Setting parameter alchLambda2 to 0.7999999999999998
Info: NONBONDED TABLE R-SQUARED SPACING: 0.0625
Info: NONBONDED TABLE SIZE: 705 POINTS
TCL: Running for 1500000 steps
ETITLE: TS BOND ANGLE DIHED IMPRP ELECT VDW BOUNDARY MISC KINETIC TOTAL TEMP POTENTIAL TOTALAVG TEMPAVG PRESSURE GPRESSURE VOLUME PRESSAVG GPRESSAVG
ENERGY: 0 8.9631 63.9727 20.7207 0.0000 -10859.0195 1476.4909 0.0000 0.0000 1817.1968 -7471.6753 304.5138 -9288.8721 -7471.6753 304.5138 297.1648 359.9258 30839.0596 297.1648 359.9258
ENERGY: 300000 10.7444 59.5737 20.9975 0.0000 -10702.5307 1366.7836 0.0000 0.0000 1834.5172 -7409.9144 307.4163 -9244.4316 -7441.1909 303.6479 -522.6497 -488.5593 30805.0767 -102.1337 -54.7566
ENERGY: 600000 7.0799 62.4060 21.7212 0.0000 -10816.2481 1450.0927 0.0000 0.0000 1764.8598 -7510.0886 295.7435 -9274.9483 -7460.8984 302.7257 -149.1151 -97.5848 31082.9433 110.1465 160.1768
ENERGY: 900000 7.3251 56.7892 22.3264 0.0000 -10625.1860 1335.4462 0.0000 0.0000 1773.6925 -7429.6066 297.2237 -9203.2990 -7467.4822 300.9361 -1013.1086 -962.9110 31733.5524 -98.3151 -45.6544
ENERGY: 1200000 6.1453 60.8645 21.3416 0.0000 -10851.1147 1419.2121 0.0000 0.0000 1776.8397 -7566.7115 297.7510 -9343.5511 -7472.7697 299.9546 -615.1239 -558.8680 31029.2895 -68.5793 -16.3867
ENERGY: 1500000 6.9183 59.0042 20.2980 0.0000 -10781.5371 1444.8658 0.0000 0.0000 1756.0140 -7494.4367 294.2612 -9250.4508 -7474.4932 299.7994 -188.1197 -152.3499 31346.6632 -40.3527 12.4379
TCL: Running FEP window   5: Lambda1 0.7999999999999998 Lambda2 0.7499999999999998 [dLambda -0.050000000000000044]
TCL: Setting parameter firsttimestep to 0
TCL: Setting parameter alchLambda to 0.7999999999999998
Info: NONBONDED TABLE R-SQUARED SPACING: 0.0625
Info: NONBONDED TABLE SIZE: 705 POINTS
TCL: Setting parameter alchLambda2 to 0.7499999999999998
Info: NONBONDED TABLE R-SQUARED SPACING: 0.0625
Info: NONBONDED TABLE SIZE: 705 POINTS
TCL: Running for 1500000 steps
ETITLE: TS BOND ANGLE DIHED IMPRP ELECT VDW BOUNDARY MISC KINETIC TOTAL TEMP POTENTIAL TOTALAVG TEMPAVG PRESSURE GPRESSURE VOLUME PRESSAVG GPRESSAVG
ENERGY: 0 6.9183 59.0042 20.2980 0.0000 -10781.2713 1445.6198 0.0000 0.0000 1755.1524 -7494.2785 294.1168 -9249.4309 -7494.2785 294.1168 -246.2281 -157.7546 31346.6632 -246.2281 -157.7546
ENERGY: 300000 7.8352 60.2808 22.3496 0.0000 -10804.4768 1383.7145 0.0000 0.0000 1728.0342 -7602.2624 289.5726 -9330.2967 -7501.2147 297.3210 -720.4629 -665.7826 30868.5080 97.3450 155.9547
ENERGY: 600000 5.4382 58.9615 21.1928 0.0000 -10719.4017 1411.1627 0.0000 0.0000 1766.3969 -7456.2495 296.0011 -9222.6464 -7489.4824 297.6996 -418.1103 -332.7718 31388.7810 14.6403 85.8885
ENERGY: 900000 7.5874 60.4450 22.1321 0.0000 -10835.3904 1458.1659 0.0000 0.0000 1772.6635 -7514.3964 297.0512 -9287.0599 -7488.2165 297.9089 -77.5160 -16.6425 30962.4815 -116.3911 -41.0676
ENERGY: 1200000 6.7082 56.4544 23.0629 0.0000 -10652.1967 1376.2139 0.0000 0.0000 1701.7889 -7487.9686 285.1745 -9189.7575 -7479.3618 297.3578 -83.9290 -84.6243 30996.7829 -189.2178 -116.7697
ENERGY: 1500000 6.1918 57.1924 21.8347 0.0000 -10829.8365 1409.1912 0.0000 0.0000 1835.9999 -7499.4266 307.6647 -9335.4265 -7478.2338 299.4033 -873.6371 -773.6838 31568.6924 -250.3639 -174.5299
TCL: Running FEP window   6: Lambda1 0.7499999999999998 Lambda2 0.6999999999999997 [dLambda -0.050000000000000044]
TCL: Setting parameter firsttimestep to 0
TCL: Setting parameter alchLambda to 0.7499999999999998
Info: NONBONDED TABLE R-SQUARED SPACING: 0.0625
Info: NONBONDED TABLE SIZE: 705 POINTS
TCL: Setting parameter alchLambda2 to 0.6999999999999997
Info: NONBONDED TABLE R-SQUARED SPACING: 0.0625
Info: NONBONDED TABLE SIZE: 705 POINTS
TCL: Running for 1500000 steps
ETITLE: TS BOND ANGLE DIHED IMPRP ELECT VDW BOUNDARY MISC KINETIC TOTAL TEMP POTENTIAL TOTALAVG TEMPAVG PRESSURE GPRESSURE VOLUME PRESSAVG GPRESSAVG
ENERGY: 0 6.1918 57.1924 21.8347 0.0000 -10829.2313 1409.9235 0.0000 0.0000 1835.1138 -7498.9751 307.5162 -9334.0889 -7498.9751 307.5162 -853.6472 -776.4507 31568.6924 -853.6472 -776.4507
ENERGY: 300000 7.3842 57.7244 21.6189 0.0000 -10749.3252 1412.5179 0.0000 0.0000 1778.7958 -7471.2840 298.0788 -9250.0798 -7435.7962 306.6108 -471.6768 -378.8918 31358.1323 -103.5553 -46.9599
ENERGY: 600000 9.3163 62.4865 22.5666 0.0000 -10798.8519 1493.4615 0.0000 0.0000 1797.2547 -7413.7662 301.1721 -9211.0208 -7442.3909 305.9335 388.4576 422.2514 31124.3295 3.8293 55.2726
ENERGY: 900000 11.7874 65.2946 20.5629 0.0000 -10653.4493 1398.5432 0.0000 0.0000 1808.1881 -7349.0731 303.0042 -9157.2611 -7457.7581 303.2394 -329.8889 -177.2540 31028.4021 -9.3895 54.0638
ENERGY: 1200000 9.0101 55.1960 23.8236 0.0000 -10856.1460 1494.5723 0.0000 0.0000 1810.6920 -7462.8521 303.4238 -9273.5441 -7453.3224 303.3419 607.5300 597.2826 30662.3118 23.5574 81.5634
ENERGY: 1500000 3.9667 69.7914 21.0242 0.0000 -10749.4688 1417.8116 0.0000 0.0000 1790.4760 -7446.3988 300.0361 -9236.8748 -7453.3735 302.8886 -139.4696 -93.3531 30937.7445 24.8643 83.7833
TCL: Running FEP window   7: Lambda1 0.6999999999999997 Lambda2 0.6499999999999997 [dLambda -0.050000000000000044]
TCL: Setting parameter firsttimestep to 0
TCL: Setting parameter alchLambda to 0.6999999999999997
Info: NONBONDED TABLE R-SQUARED SPACING: 0.0625
Info: NONBONDED TABLE SIZE: 705 POINTS
TCL: Setting parameter alchLambda2 to 0.6499999999999997
Info: NONBONDED TABLE R-SQUARED SPACING: 0.0625
Info: NONBONDED TABLE SIZE: 705 POINTS
TCL: Running for 1500000 steps
ETITLE: TS BOND ANGLE DIHED IMPRP ELECT VDW BOUNDARY MISC KINETIC TOTAL TEMP POTENTIAL TOTALAVG TEMPAVG PRESSURE GPRESSURE VOLUME PRESSAVG GPRESSAVG
ENERGY: 0 3.9667 69.7914 21.0242 0.0000 -10749.0928 1418.5417 0.0000 0.0000 1789.5743 -7446.1945 299.8850 -9235.7688 -7446.1945 299.8850 -209.3781 -100.5890 30937.7445 -209.3781 -100.5890
ENERGY: 300000 5.8141 66.1251 21.9117 0.0000 -10761.8281 1349.8404 0.0000 0.0000 1813.6244 -7504.5124 303.9152 -9318.1368 -7437.8243 304.0803 -832.9198 -842.8085 30887.2799 -237.7254 -179.5053
ENERGY: 600000 4.9111 65.0923 20.3354 0.0000 -10716.8826 1441.6894 0.0000 0.0000 1801.9725 -7382.8820 301.9626 -9184.8545 -7421.1925 304.0534 -34.4126 98.1926 31559.1561 -105.8436 -40.8125
ENERGY: 900000 10.2978 56.4652 21.4083 0.0000 -10905.4057 1533.5340 0.0000 0.0000 1775.6702 -7508.0302 297.5551 -9283.7004 -7441.7007 302.2946 380.7785 437.1790 30803.4135 -116.2218 -51.5793
ENERGY: 1200000 5.8753 58.2600 21.2837 0.0000 -10871.9285 1515.3837 0.0000 0.0000 1790.3954 -7480.7305 300.0226 -9271.1259 -7456.5957 302.3683 563.7027 654.8482 30607.1598 -0.4729 62.2052
ENERGY: 1500000 7.4503 66.7128 21.4031 0.0000 -10630.3599 1337.9792 0.0000 0.0000 1842.0880 -7354.7265 308.6849 -9196.8145 -7455.7076 301.8442 -745.6925 -703.0546 31284.8979 -16.1155 40.3144
TCL: Running FEP window   8: Lambda1 0.6499999999999997 Lambda2 0.5999999999999996 [dLambda -0.050000000000000044]
TCL: Setting parameter firsttimestep to 0
TCL: Setting parameter alchLambda to 0.6499999999999997
Info: NONBONDED TABLE R-SQUARED SPACING: 0.0625
Info: NONBONDED TABLE SIZE: 705 POINTS
TCL: Setting parameter alchLambda2 to 0.5999999999999996
Info: NONBONDED TABLE R-SQUARED SPACING: 0.0625
Info: NONBONDED TABLE SIZE: 705 POINTS
TCL: Running for 1500000 steps
ETITLE: TS BOND ANGLE DIHED IMPRP ELECT VDW BOUNDARY MISC KINETIC TOTAL TEMP POTENTIAL TOTALAVG TEMPAVG PRESSURE GPRESSURE VOLUME PRESSAVG GPRESSAVG
ENERGY: 0 7.4503 66.7128 21.4031 0.0000 -10630.2903 1338.9913 0.0000 0.0000 1841.2064 -7354.5265 308.5372 -9195.7329 -7354.5265 308.5372 -782.8003 -706.8411 31284.8979 -782.8003 -706.8411
ENERGY: 300000 13.5390 57.2910 21.5825 0.0000 -10851.5689 1461.0084 0.0000 0.0000 1773.1517 -7524.9963 297.1330 -9298.1480 -7414.1067 304.5690 -276.6813 -142.5767 31081.6833 -527.7478 -463.9714
ENERGY: 600000 5.1755 61.1430 21.8510 0.0000 -10777.4633 1379.6990 0.0000 0.0000 1756.2637 -7553.3311 294.3031 -9309.5948 -7439.9438 302.2548 -635.9114 -525.9810 30815.2877 -221.4279 -168.1753
ENERGY: 900000 10.9945 63.6843 22.0493 0.0000 -10749.1886 1383.6118 0.0000 0.0000 1755.5736 -7513.2751 294.1874 -9268.8487 -7463.9192 300.2523 -580.2391 -505.8370 30905.5697 -266.2841 -209.9609
ENERGY: 1200000 13.1570 60.9152 22.5085 0.0000 -10709.6608 1426.2067 0.0000 0.0000 1805.8415 -7381.0319 302.6110 -9186.8734 -7449.3182 300.6846 -128.3197 -79.4675 30912.1188 -280.0807 -227.6214
ENERGY: 1500000 4.7638 59.1294 22.1876 0.0000 -10727.8476 1439.6356 0.0000 0.0000 1771.4492 -7430.6819 296.8477 -9202.1311 -7448.6307 300.9160 -26.6623 46.9885 31195.8246 -240.4551 -181.0037
TCL: Running FEP window   9: Lambda1 0.5999999999999996 Lambda2 0.5499999999999996 [dLambda -0.050000000000000044]
TCL: Setting parameter firsttimestep to 0
TCL: Setting parameter alchLambda to 0.5999999999999996
Info: NONBONDED TABLE R-SQUARED SPACING: 0.0625
Info: NONBONDED TABLE SIZE: 705 POINTS
TCL: Setting parameter alchLambda2 to 0.5499999999999996
Info: NONBONDED TABLE R-SQUARED SPACING: 0.0625
Info: NONBONDED TABLE SIZE: 705 POINTS
TCL: Running for 1500000 steps
ETITLE: TS BOND ANGLE DIHED IMPRP ELECT VDW BOUNDARY MISC KINETIC TOTAL TEMP POTENTIAL TOTALAVG TEMPAVG PRESSURE GPRESSURE VOLUME PRESSAVG GPRESSAVG
ENERGY: 0 4.7638 59.1294 22.1876 0.0000 -10727.2625 1440.1903 0.0000 0.0000 1770.5427 -7430.4485 296.6958 -9200.9913 -7430.4485 296.6958 -25.7238 44.7471 31195.8246 -25.7238 44.7471
ENERGY: 300000 12.4208 65.5627 20.0167 0.0000 -10861.3142 1460.3298 0.0000 0.0000 1811.8795 -7491.1046 303.6228 -9302.9841 -7446.9940 301.3737 126.4452 238.2896 30440.3378 -45.8717 56.4835
ENERGY: 600000 7.1299 67.4230 21.5253 0.0000 -10826.8233 1436.7236 0.0000 0.0000 1784.7951 -7509.2265 299.0842 -9294.0215 -7464.1148 299.3930 -255.4863 -153.9712 31040.8704 -155.1861 -59.5458
ENERGY: 900000 8.9708 61.7802 22.3901 0.0000 -10840.5163 1453.4600 0.0000 0.0000 1783.5524 -7510.3629 298.8759 -9293.9152 -7469.9615 299.2867 127.3571 172.5883 30912.5526 -95.7748 -12.6160
ENERGY: 1200000 6.4245 60.3091 20.5525 0.0000 -10776.9205 1432.3498 0.0000 0.0000 1846.6682 -7410.6163 309.4525 -9257.2846 -7462.5992 300.5094 76.1299 174.5162 30799.7157 -122.5707 -40.6380
ENERGY: 1500000 7.4857 65.9793 20.6073 0.0000 -10572.7087 1243.3043 0.0000 0.0000 1802.2009 -7433.1311 302.0009 -9235.3320 -7450.9217 300.5431 -1405.5189 -1329.4604 31011.7988 -237.6900 -152.6473
TCL: Running FEP window  10: Lambda1 0.5499999999999996 Lambda2 0.4999999999999996 [dLambda -0.04999999999999999]
TCL: Setting parameter firsttimestep to 0
TCL: Setting parameter alchLambda to 0.5499999999999996
Info: NONBONDED TABLE R-SQUARED SPACING: 0.0625
Info: NONBONDED TABLE SIZE: 705 POINTS
TCL: Setting parameter alchLambda2 to 0.4999999999999996
Info: NONBONDED TABLE R-SQUARED SPACING: 0.0625
Info: NONBONDED TABLE SIZE: 705 POINTS
TCL: Running for 1500000 steps
ETITLE: TS BOND ANGLE DIHED IMPRP ELECT VDW BOUNDARY MISC KINETIC TOTAL TEMP POTENTIAL TOTALAVG TEMPAVG PRESSURE GPRESSURE VOLUME PRESSAVG GPRESSAVG
ENERGY: 0 7.4858 65.9793 20.6073 0.0000 -10572.4227 1244.2458 0.0000 0.0000 1801.3057 -7432.7988 301.8509 -9234.1045 -7432.7988 301.8509 -1419.1698 -1333.6393 31011.7988 -1419.1698 -1333.6393
ENERGY: 300000 9.0065 59.8729 21.2124 0.0000 -10818.1110 1458.7643 0.0000 0.0000 1773.6858 -7495.5691 297.2226 -9269.2549 -7451.3287 301.9001 -184.9980 -79.8146 31056.0672 -373.3484 -309.2373
ENERGY: 600000 6.7129 59.8079 20.7730 0.0000 -10791.8633 1424.3772 0.0000 0.0000 1753.7993 -7526.3931 293.8901 -9280.1924 -7475.3350 299.5440 -426.0458 -354.1810 31097.0531 -355.7761 -285.0319
ENERGY: 900000 11.9111 61.2053 22.3786 0.0000 -10754.3302 1434.6635 0.0000 0.0000 1837.3506 -7386.8211 307.8911 -9224.1717 -7471.9224 300.2461 -496.5159 -508.3834 31232.8255 -176.0059 -112.4847
ENERGY: 1200000 7.4957 62.4434 21.9963 0.0000 -10850.2150 1523.7902 0.0000 0.0000 1834.1999 -7400.2895 307.3631 -9234.4894 -7459.0292 301.9417 552.7728 702.1198 30984.0176 -95.5744 -27.1928
ENERGY: 1500000 5.0986 65.4865 19.4046 0.0000 -10818.8833 1454.0302 0.0000 0.0000 1792.2480 -7482.6154 300.3331 -9274.8634 -7454.0783 301.2090 314.0139 378.5998 30469.8994 -98.2081 -30.2412
TCL: Running FEP window  11: Lambda1 0.4999999999999996 Lambda2 0.4499999999999996 [dLambda -0.04999999999999999]
TCL: Setting parameter firsttimestep to 0
TCL: Setting parameter alchLambda to 0.4999999999999996
Info: NONBONDED TABLE R-SQUARED SPACING: 0.0625
Info: NONBONDED TABLE SIZE: 705 POINTS
TCL: Setting parameter alchLambda2 to 0.4499999999999996
Info: NONBONDED TABLE R-SQUARED SPACING: 0.0625
Info: NONBONDED TABLE SIZE: 705 POINTS
TCL: Running for 1500000 steps
ETITLE: TS BOND ANGLE DIHED IMPRP ELECT VDW BOUNDARY MISC KINETIC TOTAL TEMP POTENTIAL TOTALAVG TEMPAVG PRESSURE GPRESSURE VOLUME PRESSAVG GPRESSAVG
ENERGY: 0 5.0986 65.4865 19.4046 0.0000 -10818.8773 1454.8650 0.0000 0.0000 1791.3059 -7482.7168 300.1752 -9274.0226 -7482.7168 300.1752 283.2308 374.4226 30469.8994 283.2308 374.4226
ENERGY: 300000 8.7096 61.2979 20.8293 0.0000 -10988.5135 1548.9788 0.0000 0.0000 1752.6996 -7595.9982 293.7058 -9348.6978 -7457.9713 299.6406 527.0112 593.9862 30347.3074 -241.5168 -166.4387
ENERGY: 600000 10.0253 62.5010 20.6219 0.0000 -10837.0653 1484.1702 0.0000 0.0000 1723.7813 -7535.9657 288.8599 -9259.7469 -7464.8202 299.4646 311.5019 360.0874 30732.4509 -110.2890 -36.4460
ENERGY: 900000 5.6375 60.9701 20.9760 0.0000 -10688.9131 1396.6943 0.0000 0.0000 1816.3233 -7388.3119 304.3675 -9204.6352 -7451.2709 300.9763 -246.3496 -178.1687 31123.8162 -152.9805 -83.0875
ENERGY: 1200000 7.3326 61.9418 22.4174 0.0000 -10819.9010 1494.0053 0.0000 0.0000 1811.8813 -7422.3226 303.6231 -9234.2039 -7458.0096 300.1257 140.0487 190.6418 30966.7421 -188.6036 -125.3867
ENERGY: 1500000 8.7500 54.7097 22.1318 0.0000 -10772.2230 1410.8085 0.0000 0.0000 1827.9822 -7447.8408 306.3212 -9275.8230 -7455.8982 300.1713 -584.4428 -501.9590 30978.4611 -203.7064 -147.5636
TCL: Running FEP window  12: Lambda1 0.4499999999999996 Lambda2 0.39999999999999963 [dLambda -0.04999999999999999]
TCL: Setting parameter firsttimestep to 0
TCL: Setting parameter alchLambda to 0.4499999999999996
Info: NONBONDED TABLE R-SQUARED SPACING: 0.0625
Info: NONBONDED TABLE SIZE: 705 POINTS
TCL: Setting parameter alchLambda2 to 0.39999999999999963
Info: NONBONDED TABLE R-SQUARED SPACING: 0.0625
Info: NONBONDED TABLE SIZE: 705 POINTS
TCL: Running for 1500000 steps
ETITLE: TS BOND ANGLE DIHED IMPRP ELECT VDW BOUNDARY MISC KINETIC TOTAL TEMP POTENTIAL TOTALAVG TEMPAVG PRESSURE GPRESSURE VOLUME PRESSAVG GPRESSAVG
ENERGY: 0 8.7500 54.7097 22.1318 0.0000 -10772.2225 1411.2205 0.0000 0.0000 1827.0702 -7448.3404 306.1683 -9275.4105 -7448.3404 306.1683 -586.6539 -510.3696 30978.4611 -586.6539 -510.3696
ENERGY: 300000 8.7485 56.7598 21.3747 0.0000 -10902.1475 1524.3865 0.0000 0.0000 1829.4711 -7461.4069 306.5707 -9290.8780 -7468.3444 304.1626 562.8858 576.8329 30842.0472 -155.8584 -105.6584
ENERGY: 600000 6.4582 61.2575 20.5243 0.0000 -10769.4194 1405.4526 0.0000 0.0000 1769.5578 -7506.1690 296.5308 -9275.7268 -7485.4265 301.4950 -610.0519 -599.5478 31299.7464 -151.9845 -102.4007
ENERGY: 900000 10.0495 63.2645 22.7803 0.0000 -10831.7895 1483.4551 0.0000 0.0000 1805.0753 -7447.1648 302.4826 -9252.2401 -7474.3472 301.2374 443.9476 534.4658 30569.2592 -124.7313 -62.5075
ENERGY: 1200000 5.6361 61.2056 21.9979 0.0000 -10662.3833 1409.3541 0.0000 0.0000 1772.3852 -7391.8044 297.0046 -9164.1896 -7472.5007 301.1215 -115.9852 -75.7285 31229.4819 -135.6139 -66.4775
ENERGY: 1500000 6.0572 64.0555 21.7259 0.0000 -10859.2021 1490.8172 0.0000 0.0000 1836.5444 -7440.0019 307.7560 -9276.5463 -7469.8954 301.6873 378.9047 316.5223 30756.0858 -153.1757 -91.4613
TCL: Running FEP window  13: Lambda1 0.39999999999999963 Lambda2 0.34999999999999964 [dLambda -0.04999999999999999]
TCL: Setting parameter firsttimestep to 0
TCL: Setting parameter alchLambda to 0.39999999999999963
Info: NONBONDED TABLE R-SQUARED SPACING: 0.0625
Info: NONBONDED TABLE SIZE: 705 POINTS
TCL: Setting parameter alchLambda2 to 0.34999999999999964
Info: NONBONDED TABLE R-SQUARED SPACING: 0.0625
Info: NONBONDED TABLE SIZE: 705 POINTS
TCL: Running for 1500000 steps
ETITLE: TS BOND ANGLE DIHED IMPRP ELECT VDW BOUNDARY MISC KINETIC TOTAL TEMP POTENTIAL TOTALAVG TEMPAVG PRESSURE GPRESSURE VOLUME PRESSAVG GPRESSAVG
ENERGY: 0 6.0572 64.0555 21.7259 0.0000 -10859.2026 1491.0725 0.0000 0.0000 1835.6534 -7440.6381 307.6067 -9276.2915 -7440.6381 307.6067 234.0904 309.5490 30756.0858 234.0904 309.5490
ENERGY: 300000 10.0511 57.2736 22.2005 0.0000 -10652.9371 1340.5118 0.0000 0.0000 1803.4959 -7419.4042 302.2179 -9222.9001 -7455.6757 303.0233 -893.9493 -826.6329 31106.7128 -68.7565 -21.5011
ENERGY: 600000 4.1999 58.1972 24.7317 0.0000 -10822.8982 1464.7675 0.0000 0.0000 1801.1172 -7469.8848 301.8193 -9271.0020 -7465.0290 300.1110 68.1603 135.5829 31205.6277 -135.3218 -76.7930
ENERGY: 900000 5.0211 70.8813 20.9100 0.0000 -10628.6284 1362.2838 0.0000 0.0000 1781.6551 -7387.8770 298.5580 -9169.5321 -7458.5926 299.2555 -607.6270 -569.7284 31183.9689 -78.4668 -18.7283
ENERGY: 1200000 8.1791 63.7265 21.6815 0.0000 -10647.0211 1373.1167 0.0000 0.0000 1787.6442 -7392.6732 299.5616 -9180.3173 -7457.5293 299.2334 -918.4468 -837.6527 31483.3436 -159.1802 -96.7050
ENERGY: 1500000 11.9723 58.4579 22.4252 0.0000 -10819.0337 1492.5217 0.0000 0.0000 1797.2464 -7436.4102 301.1707 -9233.6566 -7461.2899 300.0613 89.4623 160.4890 30860.5000 -109.7485 -48.7240
TCL: Running FEP window  14: Lambda1 0.34999999999999964 Lambda2 0.29999999999999966 [dLambda -0.04999999999999999]
TCL: Setting parameter firsttimestep to 0
TCL: Setting parameter alchLambda to 0.34999999999999964
Info: NONBONDED TABLE R-SQUARED SPACING: 0.0625
Info: NONBONDED TABLE SIZE: 705 POINTS
TCL: Setting parameter alchLambda2 to 0.29999999999999966
Info: NONBONDED TABLE R-SQUARED SPACING: 0.0625
Info: NONBONDED TABLE SIZE: 705 POINTS
TCL: Running for 1500000 steps
ETITLE: TS BOND ANGLE DIHED IMPRP ELECT VDW BOUNDARY MISC KINETIC TOTAL TEMP POTENTIAL TOTALAVG TEMPAVG PRESSURE GPRESSURE VOLUME PRESSAVG GPRESSAVG
ENERGY: 0 11.9723 58.4579 22.4252 0.0000 -10819.0325 1493.2988 0.0000 0.0000 1796.3397 -7436.5387 301.0187 -9232.8784 -7436.5387 301.0187 73.9490 158.3176 30860.5000 73.9490 158.3176
ENERGY: 300000 6.0784 55.6706 25.1245 0.0000 -10907.4983 1534.9691 0.0000 0.0000 1800.6002 -7485.0555 301.7327 -9285.6557 -7452.2094 300.8580 889.5248 915.7647 30254.1923 129.8378 171.4980
ENERGY: 600000 4.5154 53.6807 22.4309 0.0000 -10837.0997 1482.0684 0.0000 0.0000 1806.7255 -7467.6788 302.7591 -9274.4042 -7461.4214 300.5400 464.2147 529.9267 30594.3050 -66.7371 -23.3848
ENERGY: 900000 4.7428 59.9901 21.2229 0.0000 -10917.6675 1494.0207 0.0000 0.0000 1772.0417 -7565.6494 296.9470 -9337.6911 -7468.4141 299.3159 -57.8591 -45.8166 30814.5686 -18.8952 21.4610
ENERGY: 1200000 5.2655 60.6959 23.7158 0.0000 -10963.3818 1518.9569 0.0000 0.0000 1773.0761 -7581.6716 297.1204 -9354.7477 -7476.2867 299.2970 290.8499 391.2248 30422.3104 -90.3521 -39.7703
ENERGY: 1500000 13.5668 64.5471 20.0863 0.0000 -10866.0796 1472.1382 0.0000 0.0000 1728.2543 -7567.4869 289.6094 -9295.7412 -7484.4963 298.9685 -7.7970 68.1204 30582.7005 -136.8452 -78.1902
TCL: Running FEP window  15: Lambda1 0.29999999999999966 Lambda2 0.24999999999999967 [dLambda -0.04999999999999999]
TCL: Setting parameter firsttimestep to 0
TCL: Setting parameter alchLambda to 0.29999999999999966
Info: NONBONDED TABLE R-SQUARED SPACING: 0.0625
Info: NONBONDED TABLE SIZE: 705 POINTS
TCL: Setting parameter alchLambda2 to 0.24999999999999967
Info: NONBONDED TABLE R-SQUARED SPACING: 0.0625
Info: NONBONDED TABLE SIZE: 705 POINTS
TCL: Running for 1500000 steps
ETITLE: TS BOND ANGLE DIHED IMPRP ELECT VDW BOUNDARY MISC KINETIC TOTAL TEMP POTENTIAL TOTALAVG TEMPAVG PRESSURE GPRESSURE VOLUME PRESSAVG GPRESSAVG
ENERGY: 0 13.5668 64.5471 20.0863 0.0000 -10866.0798 1473.1531 0.0000 0.0000 1727.3584 -7567.3681 289.4593 -9294.7265 -7567.3681 289.4593 -5.9799 68.4191 30582.7005 -5.9799 68.4191
ENERGY: 300000 8.0969 65.6984 22.9873 0.0000 -10827.6408 1452.8682 0.0000 0.0000 1795.8240 -7482.1661 300.9323 -9277.9901 -7476.8335 299.4631 -391.8654 -260.0204 31086.5282 -44.4116 39.6913
ENERGY: 600000 4.3020 68.4624 22.0087 0.0000 -10638.1800 1350.8235 0.0000 0.0000 1754.2798 -7438.3036 293.9706 -9192.5834 -7471.3295 299.8660 -718.8480 -655.5903 31159.1162 -42.5609 34.4752
ENERGY: 900000 8.9262 63.2674 21.5142 0.0000 -10904.6295 1483.3350 0.0000 0.0000 1823.0540 -7504.5328 305.4953 -9327.5868 -7471.4443 301.5792 162.3963 199.8942 30916.2020 -56.9737 16.4121
ENERGY: 1200000 6.9853 59.0737 22.0119 0.0000 -10946.0863 1578.5885 0.0000 0.0000 1875.4046 -7404.0224 314.2679 -9279.4269 -7464.7013 302.8152 776.7445 871.7977 30618.9824 -7.8532 65.0621
ENERGY: 1500000 6.4445 58.1177 22.0521 0.0000 -10830.5599 1500.3735 0.0000 0.0000 1809.1819 -7434.3902 303.1708 -9243.5721 -7459.0045 302.0171 582.1159 655.5033 30569.6621 -27.9731 42.8942
TCL: Running FEP window  16: Lambda1 0.24999999999999967 Lambda2 0.19999999999999968 [dLambda -0.04999999999999999]
TCL: Setting parameter firsttimestep to 0
TCL: Setting parameter alchLambda to 0.24999999999999967
Info: NONBONDED TABLE R-SQUARED SPACING: 0.0625
Info: NONBONDED TABLE SIZE: 705 POINTS
TCL: Setting parameter alchLambda2 to 0.19999999999999968
Info: NONBONDED TABLE R-SQUARED SPACING: 0.0625
Info: NONBONDED TABLE SIZE: 705 POINTS
TCL: Running for 1500000 steps
ETITLE: TS BOND ANGLE DIHED IMPRP ELECT VDW BOUNDARY MISC KINETIC TOTAL TEMP POTENTIAL TOTALAVG TEMPAVG PRESSURE GPRESSURE VOLUME PRESSAVG GPRESSAVG
ENERGY: 0 6.4445 58.1177 22.0521 0.0000 -10830.5608 1500.7175 0.0000 0.0000 1808.3088 -7434.9203 303.0244 -9243.2291 -7434.9203 303.0244 552.3964 654.8168 30569.6621 552.3964 654.8168
ENERGY: 300000 7.3226 59.6876 20.0830 0.0000 -10832.7096 1492.4767 0.0000 0.0000 1751.1452 -7501.9945 293.4453 -9253.1397 -7439.8935 302.1659 403.3708 427.4917 30718.9875 397.4893 455.5637
ENERGY: 600000 11.4352 57.7807 20.4389 0.0000 -10762.1646 1451.1782 0.0000 0.0000 1789.5265 -7431.8050 299.8770 -9221.3315 -7446.3918 300.8472 -234.6998 -200.2602 30910.9620 129.2749 179.9695
ENERGY: 900000 7.0390 57.2080 20.3995 0.0000 -10867.1022 1491.2324 0.0000 0.0000 1777.4733 -7513.7500 297.8572 -9291.2233 -7461.6948 299.7070 -29.8480 72.2652 31082.6501 127.2507 183.7614
ENERGY: 1200000 6.6955 63.0537 20.4063 0.0000 -10690.5835 1355.0368 0.0000 0.0000 1802.9441 -7442.4471 302.1255 -9245.3912 -7463.8390 298.6457 -658.8855 -590.2176 30904.5894 -28.1070 33.4705
ENERGY: 1500000 6.9717 63.2509 22.1190 0.0000 -10754.9253 1429.4533 0.0000 0.0000 1802.7203 -7430.4101 302.0880 -9233.1304 -7458.0585 299.1914 -225.0598 -205.9032 31250.6755 -45.7932 9.6871
TCL: Running FEP window  17: Lambda1 0.19999999999999968 Lambda2 0.1499999999999997 [dLambda -0.04999999999999999]
TCL: Setting parameter firsttimestep to 0
TCL: Setting parameter alchLambda to 0.19999999999999968
Info: NONBONDED TABLE R-SQUARED SPACING: 0.0625
Info: NONBONDED TABLE SIZE: 705 POINTS
TCL: Setting parameter alchLambda2 to 0.1499999999999997
Info: NONBONDED TABLE R-SQUARED SPACING: 0.0625
Info: NONBONDED TABLE SIZE: 705 POINTS
TCL: Running for 1500000 steps
ETITLE: TS BOND ANGLE DIHED IMPRP ELECT VDW BOUNDARY MISC KINETIC TOTAL TEMP POTENTIAL TOTALAVG TEMPAVG PRESSURE GPRESSURE VOLUME PRESSAVG GPRESSAVG
ENERGY: 0 6.9717 63.2509 22.1190 0.0000 -10754.9252 1429.4134 0.0000 0.0000 1801.8234 -7431.3469 301.9376 -9233.1702 -7431.3469 301.9376 -294.1391 -208.2959 31250.6755 -294.1391 -208.2959
ENERGY: 300000 6.1894 56.5461 25.3839 0.0000 -10877.2742 1476.6241 0.0000 0.0000 1811.1069 -7501.4238 303.4933 -9312.5307 -7445.6529 303.0754 52.9274 56.2610 30755.9355 -313.6275 -279.7356
ENERGY: 600000 6.6103 59.1968 22.6261 0.0000 -10833.7240 1469.9192 0.0000 0.0000 1866.6813 -7408.6902 312.8061 -9275.3715 -7452.4893 304.0243 123.9527 184.7547 30835.2723 -155.6103 -110.5097
ENERGY: 900000 7.8867 63.6664 23.6649 0.0000 -10910.0478 1477.6230 0.0000 0.0000 1773.5989 -7563.6079 297.2080 -9337.2069 -7467.7165 301.9214 142.6231 161.1577 30410.7469 -19.4778 32.4418
ENERGY: 1200000 8.8496 63.4585 20.3193 0.0000 -10691.4779 1353.5716 0.0000 0.0000 1787.9139 -7457.3650 299.6068 -9245.2789 -7457.6282 302.3192 -1023.6795 -879.1634 31070.6988 -93.2081 -33.3974
ENERGY: 1500000 6.6073 62.7095 21.2565 0.0000 -10857.0527 1547.5083 0.0000 0.0000 1812.0375 -7406.9336 303.6493 -9218.9711 -7458.3597 301.9576 821.6994 856.7476 30734.5160 -54.5833 2.1222
TCL: Running FEP window  18: Lambda1 0.1499999999999997 Lambda2 0.09999999999999969 [dLambda -0.05 ]
TCL: Setting parameter firsttimestep to 0
TCL: Setting parameter alchLambda to 0.1499999999999997
Info: NONBONDED TABLE R-SQUARED SPACING: 0.0625
Info: NONBONDED TABLE SIZE: 705 POINTS
TCL: Setting parameter alchLambda2 to 0.09999999999999969
Info: NONBONDED TABLE R-SQUARED SPACING: 0.0625
Info: NONBONDED TABLE SIZE: 705 POINTS
TCL: Running for 1500000 steps
ETITLE: TS BOND ANGLE DIHED IMPRP ELECT VDW BOUNDARY MISC KINETIC TOTAL TEMP POTENTIAL TOTALAVG TEMPAVG PRESSURE GPRESSURE VOLUME PRESSAVG GPRESSAVG
ENERGY: 0 6.6073 62.7095 21.2565 0.0000 -10857.0542 1548.3080 0.0000 0.0000 1811.1943 -7406.9787 303.5080 -9218.1730 -7406.9787 303.5080 774.8044 853.5430 30734.5160 774.8044 853.5430
ENERGY: 300000 5.5813 54.6432 22.9905 0.0000 -10724.9734 1378.7847 0.0000 0.0000 1763.4256 -7499.5482 295.5032 -9262.9738 -7487.0582 298.4838 -527.3118 -477.1423 30520.8025 -80.4465 -24.4467
ENERGY: 600000 7.7243 64.5326 22.3505 0.0000 -10788.3430 1435.3295 0.0000 0.0000 1790.9503 -7467.4558 300.1156 -9258.4061 -7477.5311 298.8605 -263.5781 -221.3008 30944.6709 -49.5173 6.3762
ENERGY: 900000 9.7884 59.0742 21.0760 0.0000 -10739.6657 1419.5876 0.0000 0.0000 1780.8902 -7449.2494 298.4298 -9230.1396 -7470.2945 298.7996 -348.5180 -314.3068 30851.2414 -122.1193 -71.9155
ENERGY: 1200000 5.6841 60.7432 22.1143 0.0000 -10839.8467 1496.0411 0.0000 0.0000 1784.9719 -7470.2921 299.1138 -9255.2640 -7468.4904 298.9740 306.4538 382.5867 30453.2223 -125.3552 -66.5651
ENERGY: 1500000 10.5100 63.2648 22.5898 0.0000 -10863.1615 1490.4583 0.0000 0.0000 1781.0012 -7495.3374 298.4484 -9276.3386 -7473.7984 299.8817 -191.1568 -93.1165 30988.7560 -131.4020 -65.0568
TCL: Running FEP window  19: Lambda1 0.09999999999999969 Lambda2 0.049999999999999684 [dLambda -0.05 ]
TCL: Setting parameter firsttimestep to 0
TCL: Setting parameter alchLambda to 0.09999999999999969
Info: NONBONDED TABLE R-SQUARED SPACING: 0.0625
Info: NONBONDED TABLE SIZE: 705 POINTS
TCL: Setting parameter alchLambda2 to 0.049999999999999684
Info: NONBONDED TABLE R-SQUARED SPACING: 0.0625
Info: NONBONDED TABLE SIZE: 705 POINTS
TCL: Running for 1500000 steps
ETITLE: TS BOND ANGLE DIHED IMPRP ELECT VDW BOUNDARY MISC KINETIC TOTAL TEMP POTENTIAL TOTALAVG TEMPAVG PRESSURE GPRESSURE VOLUME PRESSAVG GPRESSAVG
ENERGY: 0 10.5100 63.2648 22.5898 0.0000 -10863.1612 1491.2092 0.0000 0.0000 1780.0876 -7495.4997 298.2953 -9275.5874 -7495.4997 298.2953 -162.4867 -92.0454 30988.7560 -162.4867 -92.0454
ENERGY: 300000 9.6237 60.6769 21.2171 0.0000 -10799.8700 1492.0266 0.0000 0.0000 1805.3854 -7410.9403 302.5345 -9216.3257 -7443.8194 300.5027 195.5445 207.5565 30774.0998 -266.5351 -224.2832
ENERGY: 600000 8.3018 62.2109 22.3091 0.0000 -10635.9001 1348.1423 0.0000 0.0000 1809.0182 -7385.9179 303.1433 -9194.9361 -7435.1377 302.5020 -1068.3414 -978.4898 31291.2668 -393.9940 -343.8779
ENERGY: 900000 8.7989 63.2938 21.3448 0.0000 -10872.5970 1546.0233 0.0000 0.0000 1817.2456 -7415.8905 304.5220 -9233.1362 -7433.1668 302.3365 673.6822 792.9285 30668.4425 -232.2226 -171.9504
ENERGY: 1200000 7.8042 63.3056 19.8853 0.0000 -10824.1672 1496.6250 0.0000 0.0000 1830.2481 -7406.2990 306.7009 -9236.5471 -7439.9028 302.6000 392.2981 440.0753 30400.2337 -243.3818 -188.6957
ENERGY: 1500000 11.3347 56.1174 22.5520 0.0000 -10814.0892 1496.9244 0.0000 0.0000 1781.9329 -7445.2279 298.6045 -9227.1608 -7445.0079 302.0613 631.5108 687.3771 30331.8049 -195.1963 -136.3173
TCL: Running FEP window  20: Lambda1 0.049999999999999684 Lambda2 0.0    [dLambda -0.049999999999999684]
TCL: Setting parameter firsttimestep to 0
TCL: Setting parameter alchLambda to 0.049999999999999684
Info: NONBONDED TABLE R-SQUARED SPACING: 0.0625
Info: NONBONDED TABLE SIZE: 705 POINTS
TCL: Setting parameter alchLambda2 to 0.0
Info: NONBONDED TABLE R-SQUARED SPACING: 0.0625
Info: NONBONDED TABLE SIZE: 705 POINTS
TCL: Running for 1500000 steps
ETITLE: TS BOND ANGLE DIHED IMPRP ELECT VDW BOUNDARY MISC KINETIC TOTAL TEMP POTENTIAL TOTALAVG TEMPAVG PRESSURE GPRESSURE VOLUME PRESSAVG GPRESSAVG
ENERGY: 0 11.3347 56.1174 22.5520 0.0000 -10814.0895 1494.6627 0.0000 0.0000 1781.0335 -7448.3892 298.4538 -9229.4228 -7448.3892 298.4538 591.9981 677.6967 30331.8049 591.9981 677.6967
ENERGY: 300000 10.0894 62.0327 20.2232 0.0000 -10723.4844 1402.7280 0.0000 0.0000 1746.4172 -7481.9940 292.6531 -9228.4112 -7479.4795 298.8220 -813.6215 -778.5233 31269.4706 -184.0024 -107.3295
ENERGY: 600000 9.9329 59.9502 20.8635 0.0000 -10926.6874 1530.8230 0.0000 0.0000 1814.2809 -7490.8370 304.0252 -9305.1179 -7472.7787 299.1258 185.8118 219.4092 30833.0242 -52.5467 8.0025
ENERGY: 900000 8.2075 62.2311 19.8245 0.0000 -10860.3156 1524.7288 0.0000 0.0000 1764.8742 -7480.4494 295.7460 -9245.3236 -7475.3630 299.1772 1018.6386 1006.3190 29853.5726 83.1894 125.0804
ENERGY: 1200000 6.5416 58.7443 23.3053 0.0000 -10933.5145 1562.5998 0.0000 0.0000 1813.8570 -7468.4665 303.9542 -9282.3235 -7468.6380 299.5455 879.4123 899.5351 30366.2613 64.3395 102.7380
ENERGY: 1500000 5.1099 63.2468 20.8395 0.0000 -10792.3911 1482.6367 0.0000 0.0000 1810.1554 -7410.4027 303.3339 -9220.5581 -7470.5246 299.6284 228.6559 300.0843 30527.2805 43.2452 85.7399
TCL: Exiting due to exit command.
