Info: SIMULATION PARAMETERS:
Info: TIMESTEP               2
Info: NUMBER OF STEPS        0
Info: STEPS PER CYCLE        10
Info: PERIODIC CELL BASIS 1  31.0611 0 0
Info: PERIODIC CELL BASIS 2  0 29.7587 0
Info: PERIODIC CELL BASIS 3  0 0 32.9997
Info: PERIODIC CELL CENTER   0 0 0
Info: WRAPPING WATERS AROUND PERIODIC BOUNDARIES ON OUTPUT.
Info: WRAPPING ALL CLUSTERS AROUND PERIODIC BOUNDARIES ON OUTPUT.
Info: FIRST LDB TIMESTEP     50
Info: LAST LDB TIMESTEP     -1
Info: HOM BACKGROUND SCALING 1
Info: PME BACKGROUND SCALING 1
Info: MIN ATOMS PER PATCH    40
Info: EMPTY PATCH LOAD       40 ATOMS
Info: VELOCITY FILE          mobley_3187514_equil.vel
Info: CENTER OF MASS MOVING INITIALLY? NO
Info: DIELECTRIC             1
Info: EXCLUDE                SCALED ONE-FOUR
Info: 1-4 ELECTROSTATICS SCALED BY 0.833333
Info: MODIFIED 1-4 VDW PARAMETERS WILL BE USED
Info: DCD FILENAME           mobley_3187514_prod.dcd
Info: DCD FREQUENCY          100000
Info: DCD FIRST STEP         100000
Info: DCD FILE WILL CONTAIN UNIT CELL DATA
Info: XST FILENAME           mobley_3187514_prod.xst
Info: XST FREQUENCY          100000
Info: NO VELOCITY DCD OUTPUT
Info: NO FORCE DCD OUTPUT
Info: OUTPUT FILENAME        mobley_3187514_prod
Info: BINARY OUTPUT FILES WILL BE USED
Info: RESTART FILENAME       mobley_3187514_prod.restart
Info: RESTART FREQUENCY      100000
Info: BINARY RESTART FILES WILL BE USED
Info: CUTOFF                 9
Info: PAIRLIST DISTANCE      11
Info: PAIRLIST SHRINK RATE   0.01
Info: PAIRLIST GROW RATE     0.01
Info: PAIRLIST TRIGGER       0.3
Info: PAIRLISTS PER CYCLE    2
Info: PAIRLISTS ENABLED
Info: MARGIN                 2
Info: HYDROGEN GROUP CUTOFF  2.5
Info: PATCH DIMENSION        15.5
Info: ENERGY OUTPUT STEPS    100000
Info: ENERGY EVALUATION STEPS    100000
Info: OUTPUT ENERGY PRECISION 4
Info: CROSSTERM ENERGY INCLUDED IN DIHEDRAL
Info: TIMING OUTPUT STEPS    1000000
Info: PRESSURE OUTPUT STEPS  100000
Info: ALCHEMICAL FEP ON
Info: FEP CURRENT LAMBDA VALUE     0
Info: FEP COMPARISON LAMBDA VALUE  0.05
Info: FEP INTRA-ALCHEMICAL NON-BONDED INTERACTIONS WILL BE RETAINED
Info: FEP INTRA-ALCHEMICAL BONDED INTERACTIONS WILL BE RETAINED
Info: FEP VDW SHIFTING COEFFICIENT 5
Info: FEP ELEC. ACTIVE FOR ANNIHILATED PARTICLES BETWEEN LAMBDA = 0 AND LAMBDA = 0.5
Info: FEP ELEC. ACTIVE FOR EXNIHILATED PARTICLES BETWEEN LAMBDA = 0.5 AND LAMBDA = 1
Info: FEP VDW ACTIVE FOR ANNIHILATED PARTICLES BETWEEN LAMBDA = 0 AND LAMBDA = 1
Info: FEP VDW ACTIVE FOR EXNIHILATED PARTICLES BETWEEN LAMBDA = 0 AND LAMBDA = 1
Info: FEP BOND ACTIVE FOR ANNIHILATED PARTICLES BETWEEN LAMBDA = 1 AND LAMBDA = 1
Info: FEP BOND ACTIVE FOR EXNIHILATED PARTICLES BETWEEN LAMBDA = 0 AND LAMBDA = 0
Info: LANGEVIN DYNAMICS ACTIVE
Info: LANGEVIN TEMPERATURE   300
Info: LANGEVIN USING BBK INTEGRATOR
Info: LANGEVIN DAMPING COEFFICIENT IS 1 INVERSE PS
Info: LANGEVIN DYNAMICS APPLIED TO HYDROGENS
Info: LANGEVIN PISTON PRESSURE CONTROL ACTIVE
Info:        TARGET PRESSURE IS 1.01325 BAR
Info:     OSCILLATION PERIOD IS 50 FS
Info:             DECAY TIME IS 25 FS
Info:     PISTON TEMPERATURE IS 300 K
Info:       PRESSURE CONTROL IS GROUP-BASED
Info:    INITIAL STRAIN RATE IS -0.000155514 -0.000155514 -0.000155514
Info:       CELL FLUCTUATION IS ISOTROPIC
Info: PARTICLE MESH EWALD (PME) ACTIVE
Info: PME TOLERANCE               1e-06
Info: PME EWALD COEFFICIENT       0.348832
Info: PME INTERPOLATION ORDER     4
Info: PME GRID DIMENSIONS         32 32 36
Info: PME MAXIMUM GRID SPACING    1
Info: PME CALCULATION WILL BE PERFORMED ON GPU
Info: FULL ELECTROSTATIC EVALUATION FREQUENCY      2
Info: USING VERLET I (r-RESPA) MTS SCHEME.
Info: C1 SPLITTING OF LONG RANGE ELECTROSTATICS
Info: PLACING ATOMS IN PATCHES BY HYDROGEN GROUPS
Info: RIGID BONDS TO HYDROGEN : ALL
Info:         ERROR TOLERANCE : 1e-08
Info:          MAX ITERATIONS : 100
Info: RIGID WATER USING SETTLE ALGORITHM
Info: RANDOM NUMBER SEED     1743588725
Info: USE HYDROGEN BONDS?    NO
Info: Using AMBER format force field!
Info: AMBER PARM FILE        mobley_3187514.prmtop
Info: COORDINATE PDB         mobley_3187514.pdb
Info: Exclusions will be read from PARM file!
Info: SCNB (VDW SCALING)     2
Info: USING ARITHMETIC MEAN TO COMBINE L-J SIGMA PARAMETERS
Info: BINARY COORDINATES     mobley_3187514_equil.coor
Info: SUMMARY OF PARAMETERS:
Info: 8 BONDS
Info: 8 ANGLES
Info:   8 HARMONIC
Info:   0 COSINE-BASED
Info: 4 DIHEDRAL
Info: 0 IMPROPER
Info: 0 CROSSTERM
Info: 0 VDW
Info: 36 VDW_PAIRS
Info: 0 NBTHOLE_PAIRS
Info: To read alchdata from file: mobley_3187514.pdb
Info: To read alchflag data from column: 5
Info: STRUCTURE SUMMARY:
Info: 2993 ATOMS
Info: 2993 BONDS
Info: 27 ANGLES
Info: 41 DIHEDRALS
Info: 0 IMPROPERS
Info: 0 CROSSTERMS
Info: 3051 EXCLUSIONS
Info: 2985 RIGID BONDS
Info: ALCH: 0 ATOMS TO DISAPPEAR IN FINAL STATE
Info: ALCH: 17 ATOMS TO APPEAR IN FINAL STATE
Info: 5994 DEGREES OF FREEDOM
Info: 1000 HYDROGEN GROUPS
Info: 4 ATOMS IN LARGEST HYDROGEN GROUP
Info: 1000 MIGRATION GROUPS
Info: 4 ATOMS IN LARGEST MIGRATION GROUP
Info: TOTAL MASS = 17979 amu
Info: TOTAL CHARGE = 4.09782e-08 e
Info: MASS DENSITY = 0.978781 g/cm^3
Info: ATOM DENSITY = 0.0981221 atoms/A^3
Info: ADDED 0 IMPLICIT EXCLUSIONS
Info: NONBONDED TABLE R-SQUARED SPACING: 0.0625
Info: NONBONDED TABLE SIZE: 705 POINTS
Info: REMOVING COM VELOCITY -0.07448 0.0614768 -0.0108878
Info: Use 3D box decompostion in PME FFT.
Info: Updated CUDA force table with 4096 elements.
Info: Updated CUDA LJ table with 8 x 8 elements.
Info: Found 16 unique exclusion lists needing 36 bytes
TCL: Running for 1500000 steps
ETITLE: TS BOND ANGLE DIHED IMPRP ELECT VDW BOUNDARY MISC KINETIC TOTAL TEMP POTENTIAL TOTALAVG TEMPAVG PRESSURE GPRESSURE VOLUME PRESSAVG GPRESSAVG
ENERGY: 0 1.4930 6.3132 3.3360 0.0000 -10843.8735 1461.4128 0.0000 0.0000 1783.3811 -7587.9375 299.4455 -9371.3186 -7587.9375 299.4455 93.3171 174.8063 30502.8176 93.3171 174.8063
ENERGY: 300000 2.1744 4.9306 4.7928 0.0000 -10768.4479 1425.4713 0.0000 0.0000 1785.8627 -7545.2162 299.8622 -9331.0788 -7596.1553 300.1976 -180.3157 -150.4158 30848.2889 -40.9013 14.0839
ENERGY: 600000 1.1582 8.7792 4.1524 0.0000 -10812.2163 1432.3807 0.0000 0.0000 1772.9540 -7592.7917 297.6947 -9365.7457 -7594.0565 301.1663 -422.1758 -413.9341 31212.1694 41.6968 93.9395
ENERGY: 900000 3.1249 5.1015 4.1295 0.0000 -10841.3554 1458.2009 0.0000 0.0000 1784.2890 -7586.5096 299.5980 -9370.7987 -7588.0275 300.7621 55.8738 157.6453 30349.4022 24.2779 82.1555
ENERGY: 1200000 3.7616 6.1582 1.7856 0.0000 -10841.6402 1379.4920 0.0000 0.0000 1767.9129 -7682.5299 296.8483 -9450.4428 -7595.6446 300.0992 -914.5585 -899.0091 30517.7201 -52.0028 9.2599
ENERGY: 1500000 3.2227 4.3047 4.0028 0.0000 -10926.5309 1532.7412 0.0000 0.0000 1770.2553 -7612.0041 297.2416 -9382.2594 -7592.7610 300.7279 405.5922 444.5559 31086.1386 -29.6090 34.7287
TCL: Running FEP window   2: Lambda1 0.05   Lambda2 0.1    [dLambda 0.05  ]
TCL: Setting parameter firsttimestep to 0
TCL: Setting parameter alchLambda to 0.05
Info: NONBONDED TABLE R-SQUARED SPACING: 0.0625
Info: NONBONDED TABLE SIZE: 705 POINTS
TCL: Setting parameter alchLambda2 to 0.1
Info: NONBONDED TABLE R-SQUARED SPACING: 0.0625
Info: NONBONDED TABLE SIZE: 705 POINTS
TCL: Running for 1500000 steps
ETITLE: TS BOND ANGLE DIHED IMPRP ELECT VDW BOUNDARY MISC KINETIC TOTAL TEMP POTENTIAL TOTALAVG TEMPAVG PRESSURE GPRESSURE VOLUME PRESSAVG GPRESSAVG
ENERGY: 0 3.2227 4.3047 4.0028 0.0000 -10926.5302 1533.7023 0.0000 0.0000 1769.4105 -7611.8871 297.0997 -9381.2976 -7611.8871 297.0997 380.0802 448.6863 31086.1386 380.0802 448.6863
ENERGY: 300000 2.8260 5.7117 4.0024 0.0000 -10917.7819 1473.1846 0.0000 0.0000 1772.3927 -7659.6645 297.6005 -9432.0573 -7584.6376 300.1781 -98.4403 -39.3941 30622.1405 199.0931 247.5291
ENERGY: 600000 1.9001 6.5620 4.1296 0.0000 -10826.3071 1455.0051 0.0000 0.0000 1788.2830 -7570.4273 300.2686 -9358.7103 -7608.4764 299.8963 323.0766 392.2057 30145.2991 236.3545 298.5717
ENERGY: 900000 0.8348 9.5888 3.8464 0.0000 -10868.4243 1460.2495 0.0000 0.0000 1802.7030 -7591.2018 302.6898 -9393.9048 -7611.9354 299.9370 -45.3846 56.8800 30627.0802 104.9225 174.0736
ENERGY: 1200000 4.7208 5.1689 3.3044 0.0000 -10899.5457 1494.4735 0.0000 0.0000 1829.3796 -7562.4985 307.1691 -9391.8781 -7608.6642 300.8363 42.0171 80.2441 30522.0184 24.4783 88.4032
ENERGY: 1500000 3.7017 6.5422 2.0049 0.0000 -10865.4317 1448.3299 0.0000 0.0000 1800.9381 -7603.9150 302.3935 -9404.8531 -7600.4700 300.9292 -114.4841 -36.4707 30419.3675 63.3064 127.2484
TCL: Running FEP window   3: Lambda1 0.1    Lambda2 0.15000000000000002 [dLambda 0.05000000000000002]
TCL: Setting parameter firsttimestep to 0
TCL: Setting parameter alchLambda to 0.1
Info: NONBONDED TABLE R-SQUARED SPACING: 0.0625
Info: NONBONDED TABLE SIZE: 705 POINTS
TCL: Setting parameter alchLambda2 to 0.15000000000000002
Info: NONBONDED TABLE R-SQUARED SPACING: 0.0625
Info: NONBONDED TABLE SIZE: 705 POINTS
TCL: Running for 1500000 steps
ETITLE: TS BOND ANGLE DIHED IMPRP ELECT VDW BOUNDARY MISC KINETIC TOTAL TEMP POTENTIAL TOTALAVG TEMPAVG PRESSURE GPRESSURE VOLUME PRESSAVG GPRESSAVG
ENERGY: 0 3.7017 6.5422 2.0049 0.0000 -10865.4330 1448.9773 0.0000 0.0000 1800.0517 -7604.1554 302.2446 -9404.2070 -7604.1554 302.2446 -117.5741 -29.1440 30419.3675 -117.5741 -29.1440
ENERGY: 300000 2.6928 2.7896 4.5525 0.0000 -10955.0281 1536.6207 0.0000 0.0000 1777.5680 -7630.8044 298.4694 -9408.3724 -7565.0755 301.9515 562.7988 629.2558 30683.1887 -49.6626 27.1338
ENERGY: 600000 3.5818 5.5558 2.5315 0.0000 -10806.0576 1421.9561 0.0000 0.0000 1829.3825 -7543.0499 307.1695 -9372.4324 -7557.2526 303.2389 -382.0851 -300.7199 30784.6163 -59.1289 21.2540
ENERGY: 900000 1.9301 4.7712 5.3439 0.0000 -10911.0972 1508.4223 0.0000 0.0000 1834.6822 -7555.9474 308.0594 -9390.6297 -7565.9246 303.2039 666.3108 730.1590 30154.6013 12.2787 79.9895
ENERGY: 1200000 3.0207 7.8608 3.4187 0.0000 -10947.5946 1566.7847 0.0000 0.0000 1807.8131 -7558.6965 303.5479 -9366.5096 -7573.1243 303.1565 807.9718 881.9816 30607.1161 61.5472 128.7063
ENERGY: 1500000 3.2834 4.6372 3.7368 0.0000 -10658.2895 1340.2436 0.0000 0.0000 1839.1391 -7467.2494 308.8078 -9306.3885 -7565.7222 302.8830 -772.4992 -738.1267 30828.3560 37.0620 97.5366
TCL: Running FEP window   4: Lambda1 0.15000000000000002 Lambda2 0.2    [dLambda 0.04999999999999999]
TCL: Setting parameter firsttimestep to 0
TCL: Setting parameter alchLambda to 0.15000000000000002
Info: NONBONDED TABLE R-SQUARED SPACING: 0.0625
Info: NONBONDED TABLE SIZE: 705 POINTS
TCL: Setting parameter alchLambda2 to 0.2
Info: NONBONDED TABLE R-SQUARED SPACING: 0.0625
Info: NONBONDED TABLE SIZE: 705 POINTS
TCL: Running for 1500000 steps
ETITLE: TS BOND ANGLE DIHED IMPRP ELECT VDW BOUNDARY MISC KINETIC TOTAL TEMP POTENTIAL TOTALAVG TEMPAVG PRESSURE GPRESSURE VOLUME PRESSAVG GPRESSAVG
ENERGY: 0 3.2834 4.6372 3.7368 0.0000 -10658.2895 1340.5956 0.0000 0.0000 1838.2131 -7467.8234 308.6523 -9306.0364 -7467.8234 308.6523 -811.7735 -734.6772 30828.3560 -811.7735 -734.6772
ENERGY: 300000 2.9153 3.8714 1.4656 0.0000 -10881.1063 1504.7281 0.0000 0.0000 1802.7295 -7565.3964 302.6943 -9368.1259 -7577.6170 304.1299 375.8484 425.1134 30700.1645 -444.0525 -383.9875
ENERGY: 600000 2.2919 7.6121 3.8098 0.0000 -10941.5388 1553.0142 0.0000 0.0000 1773.6754 -7601.1354 297.8158 -9374.8108 -7590.2958 301.4314 517.6946 605.3007 30997.7440 -238.1527 -171.1012
ENERGY: 900000 3.9453 6.6359 3.0983 0.0000 -10734.5030 1384.9204 0.0000 0.0000 1732.1672 -7603.7359 290.8462 -9335.9031 -7597.4594 299.2806 -663.6804 -581.0989 30818.5588 -306.1197 -243.2455
ENERGY: 1200000 1.0060 6.2597 7.6868 0.0000 -10878.3010 1470.0568 0.0000 0.0000 1739.6475 -7653.6440 292.1022 -9393.2915 -7592.9945 299.0740 -207.5828 -132.0973 31119.7400 -305.2223 -250.1202
ENERGY: 1500000 2.5909 5.1699 5.2740 0.0000 -10964.5628 1463.6381 0.0000 0.0000 1860.6477 -7627.2422 312.4193 -9487.8899 -7592.2185 300.4888 -265.3875 -218.0761 30389.4264 -296.5509 -238.7474
TCL: Running FEP window   5: Lambda1 0.2    Lambda2 0.25   [dLambda 0.04999999999999999]
TCL: Setting parameter firsttimestep to 0
TCL: Setting parameter alchLambda to 0.2
Info: NONBONDED TABLE R-SQUARED SPACING: 0.0625
Info: NONBONDED TABLE SIZE: 705 POINTS
TCL: Setting parameter alchLambda2 to 0.25
Info: NONBONDED TABLE R-SQUARED SPACING: 0.0625
Info: NONBONDED TABLE SIZE: 705 POINTS
TCL: Running for 1500000 steps
ETITLE: TS BOND ANGLE DIHED IMPRP ELECT VDW BOUNDARY MISC KINETIC TOTAL TEMP POTENTIAL TOTALAVG TEMPAVG PRESSURE GPRESSURE VOLUME PRESSAVG GPRESSAVG
ENERGY: 0 2.5909 5.1699 5.2740 0.0000 -10964.5623 1463.4675 0.0000 0.0000 1859.7537 -7628.3064 312.2691 -9488.0601 -7628.3064 312.2691 -297.1553 -214.6621 30389.4264 -297.1553 -214.6621
ENERGY: 300000 2.0813 3.3587 2.4933 0.0000 -10837.7863 1415.0701 0.0000 0.0000 1754.6481 -7660.1348 294.6210 -9414.7829 -7611.3971 305.4689 -511.0558 -427.4811 30981.5934 -326.5352 -270.6468
ENERGY: 600000 1.4504 7.3684 3.6398 0.0000 -10866.9358 1515.9937 0.0000 0.0000 1763.2573 -7575.2262 296.0665 -9338.4835 -7599.7222 301.3155 303.6547 324.1048 31019.1672 -80.6200 -15.7349
ENERGY: 900000 1.1840 4.8692 3.0405 0.0000 -10813.0701 1411.1044 0.0000 0.0000 1802.6289 -7590.2429 302.6774 -9392.8719 -7605.6395 298.6503 -563.4813 -436.4832 30850.0244 -191.4419 -121.7940
ENERGY: 1200000 1.8474 5.2609 3.7397 0.0000 -10846.7106 1481.3244 0.0000 0.0000 1803.5042 -7551.0341 302.8243 -9354.5383 -7599.8769 299.8253 228.0183 261.1060 30782.2062 -102.5295 -37.5489
ENERGY: 1500000 2.3215 5.0305 3.5083 0.0000 -10851.9029 1440.8604 0.0000 0.0000 1841.4153 -7558.7669 309.1900 -9400.1822 -7588.1670 300.9601 88.0664 98.9197 30522.8406 -58.7054 5.1715
TCL: Running FEP window   6: Lambda1 0.25   Lambda2 0.3    [dLambda 0.04999999999999999]
TCL: Setting parameter firsttimestep to 0
TCL: Setting parameter alchLambda to 0.25
Info: NONBONDED TABLE R-SQUARED SPACING: 0.0625
Info: NONBONDED TABLE SIZE: 705 POINTS
TCL: Setting parameter alchLambda2 to 0.3
Info: NONBONDED TABLE R-SQUARED SPACING: 0.0625
Info: NONBONDED TABLE SIZE: 705 POINTS
TCL: Running for 1500000 steps
ETITLE: TS BOND ANGLE DIHED IMPRP ELECT VDW BOUNDARY MISC KINETIC TOTAL TEMP POTENTIAL TOTALAVG TEMPAVG PRESSURE GPRESSURE VOLUME PRESSAVG GPRESSAVG
ENERGY: 0 2.3215 5.0305 3.5083 0.0000 -10851.9033 1442.1669 0.0000 0.0000 1840.5435 -7558.3326 309.0436 -9398.8761 -7558.3326 309.0436 22.7137 108.3728 30522.8406 22.7137 108.3728
ENERGY: 300000 4.0737 5.2546 6.3372 0.0000 -10856.6426 1513.6993 0.0000 0.0000 1836.7683 -7490.5095 308.4097 -9327.2778 -7553.4258 304.1764 377.3148 434.9822 31021.0374 -124.2176 -54.2907
ENERGY: 600000 3.7081 9.1872 3.3495 0.0000 -10847.0142 1380.2730 0.0000 0.0000 1802.8620 -7647.6344 302.7165 -9450.4964 -7585.5581 302.0560 -725.1760 -669.8759 30649.9201 -370.3485 -294.2408
ENERGY: 900000 2.8794 3.5617 4.8125 0.0000 -10877.9914 1435.5035 0.0000 0.0000 1838.1779 -7593.0562 308.6464 -9431.2342 -7600.4470 303.1343 -127.5243 -61.3663 30275.8507 -432.3800 -354.7003
ENERGY: 1200000 2.0520 3.7169 3.0650 0.0000 -10868.9445 1423.0858 0.0000 0.0000 1778.7961 -7658.2288 298.6756 -9437.0248 -7606.4850 303.3177 -366.8651 -265.1606 30198.3731 -363.8105 -277.0471
ENERGY: 1500000 4.8670 3.0872 3.3494 0.0000 -10929.2689 1496.9149 0.0000 0.0000 1860.3250 -7560.7254 312.3651 -9421.0505 -7605.1238 303.8303 581.7855 618.7845 30338.3968 -361.6169 -287.6111
TCL: Running FEP window   7: Lambda1 0.3    Lambda2 0.35   [dLambda 0.04999999999999999]
TCL: Setting parameter firsttimestep to 0
TCL: Setting parameter alchLambda to 0.3
Info: NONBONDED TABLE R-SQUARED SPACING: 0.0625
Info: NONBONDED TABLE SIZE: 705 POINTS
TCL: Setting parameter alchLambda2 to 0.35
Info: NONBONDED TABLE R-SQUARED SPACING: 0.0625
Info: NONBONDED TABLE SIZE: 705 POINTS
TCL: Running for 1500000 steps
ETITLE: TS BOND ANGLE DIHED IMPRP ELECT VDW BOUNDARY MISC KINETIC TOTAL TEMP POTENTIAL TOTALAVG TEMPAVG PRESSURE GPRESSURE VOLUME PRESSAVG GPRESSAVG
ENERGY: 0 4.8670 3.0872 3.3494 0.0000 -10929.2686 1497.1185 0.0000 0.0000 1859.4187 -7561.4279 312.2129 -9420.8466 -7561.4279 312.2129 547.2988 624.8150 30338.3968 547.2988 624.8150
ENERGY: 300000 2.0781 4.4336 2.1013 0.0000 -10849.8867 1430.3137 0.0000 0.0000 1804.3590 -7606.6010 302.9679 -9410.9600 -7565.9763 305.2010 -235.5571 -205.1675 30828.7030 188.5453 239.2378
ENERGY: 600000 2.4531 6.3266 5.0908 0.0000 -10910.8052 1524.1219 0.0000 0.0000 1804.8477 -7567.9652 303.0499 -9372.8129 -7586.0388 302.8450 464.6929 515.3917 30560.3617 113.9610 158.5473
ENERGY: 900000 3.4226 6.7956 5.8221 0.0000 -10773.9834 1418.4732 0.0000 0.0000 1792.9208 -7546.5490 301.0473 -9339.4698 -7580.8650 301.8464 -330.4776 -278.4127 30873.9648 34.7591 86.0438
ENERGY: 1200000 1.8907 6.7529 5.7621 0.0000 -10856.8273 1445.5329 0.0000 0.0000 1750.8880 -7646.0007 293.9896 -9396.8887 -7587.8968 301.6188 -376.9969 -325.2042 31220.2889 -6.1289 43.3879
ENERGY: 1500000 1.4674 5.5877 4.7241 0.0000 -10894.8424 1497.0288 0.0000 0.0000 1807.3881 -7578.6463 303.4765 -9386.0344 -7591.2418 301.4818 276.8506 364.6661 30604.6112 -69.8405 -15.6739
TCL: Running FEP window   8: Lambda1 0.35   Lambda2 0.39999999999999997 [dLambda 0.04999999999999999]
TCL: Setting parameter firsttimestep to 0
TCL: Setting parameter alchLambda to 0.35
Info: NONBONDED TABLE R-SQUARED SPACING: 0.0625
Info: NONBONDED TABLE SIZE: 705 POINTS
TCL: Setting parameter alchLambda2 to 0.39999999999999997
Info: NONBONDED TABLE R-SQUARED SPACING: 0.0625
Info: NONBONDED TABLE SIZE: 705 POINTS
TCL: Running for 1500000 steps
ETITLE: TS BOND ANGLE DIHED IMPRP ELECT VDW BOUNDARY MISC KINETIC TOTAL TEMP POTENTIAL TOTALAVG TEMPAVG PRESSURE GPRESSURE VOLUME PRESSAVG GPRESSAVG
ENERGY: 0 1.4674 5.5877 4.7241 0.0000 -10894.8436 1497.0294 0.0000 0.0000 1806.5014 -7579.5337 303.3276 -9386.0350 -7579.5337 303.3276 270.9318 369.0731 30604.6112 270.9318 369.0731
ENERGY: 300000 3.3191 4.7807 3.8172 0.0000 -10884.4676 1453.9334 0.0000 0.0000 1737.3234 -7681.2938 291.7120 -9418.6172 -7575.3420 298.2829 -270.0976 -178.8100 30845.3845 288.7475 371.1370
ENERGY: 600000 2.1692 7.0698 2.6667 0.0000 -10936.2318 1517.6324 0.0000 0.0000 1727.8301 -7678.8637 290.1180 -9406.6937 -7589.1060 296.6506 615.5750 768.9319 29968.8944 226.0302 307.3200
ENERGY: 900000 4.8472 6.7493 7.3691 0.0000 -10890.0719 1506.0633 0.0000 0.0000 1772.4745 -7592.5685 297.6142 -9365.0430 -7591.0645 297.5746 114.5205 235.4792 30808.9826 7.8194 94.4853
ENERGY: 1200000 3.6022 9.7955 4.1532 0.0000 -10831.6264 1477.8198 0.0000 0.0000 1754.0125 -7582.2431 294.5143 -9336.2556 -7586.9368 297.6397 44.9925 124.3093 30753.1666 -21.6684 56.5702
ENERGY: 1500000 3.0707 6.4290 2.1315 0.0000 -10881.6711 1420.8433 0.0000 0.0000 1802.3544 -7646.8421 302.6313 -9449.1965 -7586.0591 298.7084 174.8730 157.2507 29934.1466 -19.8064 55.7079
TCL: Running FEP window   9: Lambda1 0.39999999999999997 Lambda2 0.44999999999999996 [dLambda 0.04999999999999999]
TCL: Setting parameter firsttimestep to 0
TCL: Setting parameter alchLambda to 0.39999999999999997
Info: NONBONDED TABLE R-SQUARED SPACING: 0.0625
Info: NONBONDED TABLE SIZE: 705 POINTS
TCL: Setting parameter alchLambda2 to 0.44999999999999996
Info: NONBONDED TABLE R-SQUARED SPACING: 0.0625
Info: NONBONDED TABLE SIZE: 705 POINTS
TCL: Running for 1500000 steps
ETITLE: TS BOND ANGLE DIHED IMPRP ELECT VDW BOUNDARY MISC KINETIC TOTAL TEMP POTENTIAL TOTALAVG TEMPAVG PRESSURE GPRESSURE VOLUME PRESSAVG GPRESSAVG
ENERGY: 0 3.0707 6.4290 2.1315 0.0000 -10881.6714 1420.7953 0.0000 0.0000 1801.4590 -7647.7859 302.4809 -9449.2449 -7647.7859 302.4809 84.1648 158.9960 29934.1466 84.1648 158.9960
ENERGY: 300000 3.3767 3.0484 2.7653 0.0000 -10963.5205 1576.1916 0.0000 0.0000 1787.3214 -7590.8171 300.1071 -9378.1385 -7642.1196 297.7462 839.4461 919.4034 30695.7493 501.1719 548.7614
ENERGY: 600000 1.6968 4.2482 4.8015 0.0000 -10826.2210 1446.1217 0.0000 0.0000 1754.8648 -7614.4880 294.6574 -9369.3528 -7630.9449 298.2057 -187.5725 -110.3272 30882.7803 209.2624 269.4554
ENERGY: 900000 1.9846 3.8452 6.6182 0.0000 -10843.1803 1448.7254 0.0000 0.0000 1781.7621 -7600.2448 299.1737 -9382.0069 -7618.7207 297.8552 -22.1403 69.9544 30558.2119 110.3074 169.8972
ENERGY: 1200000 3.2529 5.8825 2.5190 0.0000 -10860.6690 1439.6756 0.0000 0.0000 1816.8020 -7592.5370 305.0572 -9409.3389 -7609.9319 299.2517 -305.1450 -268.5533 30781.0289 51.9854 112.8821
ENERGY: 1500000 4.7422 5.0060 1.9836 0.0000 -10854.4786 1459.7559 0.0000 0.0000 1767.7278 -7615.2632 296.8172 -9382.9909 -7603.5171 299.5347 -210.8538 -150.0883 30947.9171 -35.6176 24.8594
TCL: Running FEP window  10: Lambda1 0.44999999999999996 Lambda2 0.49999999999999994 [dLambda 0.04999999999999999]
TCL: Setting parameter firsttimestep to 0
TCL: Setting parameter alchLambda to 0.44999999999999996
Info: NONBONDED TABLE R-SQUARED SPACING: 0.0625
Info: NONBONDED TABLE SIZE: 705 POINTS
TCL: Setting parameter alchLambda2 to 0.49999999999999994
Info: NONBONDED TABLE R-SQUARED SPACING: 0.0625
Info: NONBONDED TABLE SIZE: 705 POINTS
TCL: Running for 1500000 steps
ETITLE: TS BOND ANGLE DIHED IMPRP ELECT VDW BOUNDARY MISC KINETIC TOTAL TEMP POTENTIAL TOTALAVG TEMPAVG PRESSURE GPRESSURE VOLUME PRESSAVG GPRESSAVG
ENERGY: 0 4.7422 5.0060 1.9836 0.0000 -10854.4776 1459.6722 0.0000 0.0000 1766.8333 -7616.2404 296.6670 -9383.0737 -7616.2404 296.6670 -230.8124 -146.1578 30947.9171 -230.8124 -146.1578
ENERGY: 300000 2.1252 6.0733 5.8687 0.0000 -10951.5976 1507.5630 0.0000 0.0000 1776.5412 -7653.4260 298.2970 -9429.9673 -7630.0426 300.0925 176.3331 209.0579 30705.5395 -250.5108 -202.5499
ENERGY: 600000 2.3927 4.6897 3.8812 0.0000 -10873.0710 1499.0373 0.0000 0.0000 1830.5048 -7532.5654 307.3580 -9363.0702 -7626.4234 299.1125 615.0315 656.3316 30131.8235 31.1221 91.7436
ENERGY: 900000 5.4945 5.1512 2.8143 0.0000 -11060.5917 1581.3248 0.0000 0.0000 1750.4807 -7715.3262 293.9212 -9465.8069 -7627.8031 298.9526 562.0405 575.4152 30555.4315 83.5942 132.9195
ENERGY: 1200000 1.4823 2.9101 3.4909 0.0000 -10869.2204 1471.0282 0.0000 0.0000 1833.2985 -7557.0104 307.8271 -9390.3089 -7619.8328 300.0193 85.5721 184.3088 30713.8454 84.0758 135.2221
ENERGY: 1500000 5.2058 4.4836 3.7976 0.0000 -10962.6001 1555.6419 0.0000 0.0000 1791.4794 -7601.9918 300.8053 -9393.4713 -7621.3293 300.0508 782.9544 881.4291 30575.8200 106.9615 160.6617
TCL: Running FEP window  11: Lambda1 0.49999999999999994 Lambda2 0.5499999999999999 [dLambda 0.04999999999999999]
TCL: Setting parameter firsttimestep to 0
TCL: Setting parameter alchLambda to 0.49999999999999994
Info: NONBONDED TABLE R-SQUARED SPACING: 0.0625
Info: NONBONDED TABLE SIZE: 705 POINTS
TCL: Setting parameter alchLambda2 to 0.5499999999999999
Info: NONBONDED TABLE R-SQUARED SPACING: 0.0625
Info: NONBONDED TABLE SIZE: 705 POINTS
TCL: Running for 1500000 steps
ETITLE: TS BOND ANGLE DIHED IMPRP ELECT VDW BOUNDARY MISC KINETIC TOTAL TEMP POTENTIAL TOTALAVG TEMPAVG PRESSURE GPRESSURE VOLUME PRESSAVG GPRESSAVG
ENERGY: 0 5.2058 4.4836 3.7976 0.0000 -10962.5993 1555.8340 0.0000 0.0000 1790.5433 -7602.7350 300.6481 -9393.2783 -7602.7350 300.6481 802.3663 888.4631 30575.8200 802.3663 888.4631
ENERGY: 300000 2.9640 8.7366 3.3916 0.0000 -10816.2927 1476.3293 0.0000 0.0000 1742.7554 -7582.1158 292.6241 -9324.8712 -7564.8074 300.0728 197.4334 312.8989 30483.9102 273.3411 366.7906
ENERGY: 600000 2.1736 3.0484 4.8306 0.0000 -10960.8645 1532.8938 0.0000 0.0000 1796.9233 -7620.9948 301.7194 -9417.9181 -7580.8560 300.3342 510.0114 541.2890 30689.6408 360.9106 424.9507
ENERGY: 900000 1.2556 3.8686 4.8689 0.0000 -10862.9375 1524.4424 0.0000 0.0000 1776.6725 -7551.8295 298.3191 -9328.5020 -7590.0920 300.0873 838.1820 970.5892 30514.4567 258.6064 328.0612
ENERGY: 1200000 3.2714 5.9277 3.8399 0.0000 -11025.5892 1552.3279 0.0000 0.0000 1878.0940 -7582.1283 315.3486 -9460.2223 -7581.0381 302.0335 872.3600 829.6455 30487.1013 208.7206 265.1357
ENERGY: 1500000 3.6425 5.8225 2.5091 0.0000 -10851.5785 1489.0780 0.0000 0.0000 1773.6969 -7576.8295 297.8194 -9350.5264 -7589.5966 301.0753 -36.4646 85.7373 30944.9810 135.0217 202.4364
TCL: Running FEP window  12: Lambda1 0.5499999999999999 Lambda2 0.6    [dLambda 0.050000000000000044]
TCL: Setting parameter firsttimestep to 0
TCL: Setting parameter alchLambda to 0.5499999999999999
Info: NONBONDED TABLE R-SQUARED SPACING: 0.0625
Info: NONBONDED TABLE SIZE: 705 POINTS
TCL: Setting parameter alchLambda2 to 0.6
Info: NONBONDED TABLE R-SQUARED SPACING: 0.0625
Info: NONBONDED TABLE SIZE: 705 POINTS
TCL: Running for 1500000 steps
ETITLE: TS BOND ANGLE DIHED IMPRP ELECT VDW BOUNDARY MISC KINETIC TOTAL TEMP POTENTIAL TOTALAVG TEMPAVG PRESSURE GPRESSURE VOLUME PRESSAVG GPRESSAVG
ENERGY: 0 3.6425 5.8225 2.5091 0.0000 -10851.5009 1488.6919 0.0000 0.0000 1772.7881 -7578.0469 297.6668 -9350.8350 -7578.0469 297.6668 3.5041 89.5725 30944.9810 3.5041 89.5725
ENERGY: 300000 1.4692 7.4642 4.7441 0.0000 -10730.6218 1374.9573 0.0000 0.0000 1772.4752 -7569.5118 297.6143 -9341.9870 -7580.0397 299.7899 -584.7231 -526.6084 31032.0239 -262.3288 -178.9493
ENERGY: 600000 2.2910 6.4450 2.9593 0.0000 -10879.6499 1430.9227 0.0000 0.0000 1774.4261 -7662.6058 297.9419 -9437.0319 -7597.0382 299.8570 -472.7221 -354.8421 30506.9845 -139.3279 -43.0962
ENERGY: 900000 3.8929 4.6601 7.4128 0.0000 -10734.0226 1411.1758 0.0000 0.0000 1800.0506 -7506.8304 302.2445 -9306.8810 -7574.0183 301.6566 -158.6819 -170.8221 31016.8430 -109.8819 -24.4193
ENERGY: 1200000 2.9137 3.7675 2.3580 0.0000 -10822.3465 1423.1865 0.0000 0.0000 1813.0289 -7577.0919 304.4236 -9390.1208 -7580.0365 301.6612 -494.7031 -389.5801 30944.1373 -149.0182 -61.5689
ENERGY: 1500000 2.9905 3.2469 2.7435 0.0000 -10764.6803 1345.2958 0.0000 0.0000 1843.1645 -7567.2391 309.4837 -9410.4036 -7575.8911 301.8391 -1100.5983 -1026.7068 31116.8695 -238.1035 -154.5481
TCL: Running FEP window  13: Lambda1 0.6    Lambda2 0.65   [dLambda 0.050000000000000044]
TCL: Setting parameter firsttimestep to 0
TCL: Setting parameter alchLambda to 0.6
Info: NONBONDED TABLE R-SQUARED SPACING: 0.0625
Info: NONBONDED TABLE SIZE: 705 POINTS
TCL: Setting parameter alchLambda2 to 0.65
Info: NONBONDED TABLE R-SQUARED SPACING: 0.0625
Info: NONBONDED TABLE SIZE: 705 POINTS
TCL: Running for 1500000 steps
ETITLE: TS BOND ANGLE DIHED IMPRP ELECT VDW BOUNDARY MISC KINETIC TOTAL TEMP POTENTIAL TOTALAVG TEMPAVG PRESSURE GPRESSURE VOLUME PRESSAVG GPRESSAVG
ENERGY: 0 2.9905 3.2469 2.7435 0.0000 -10764.5009 1345.2897 0.0000 0.0000 1842.2953 -7567.9349 309.3377 -9410.2303 -7567.9349 309.3377 -1106.9890 -1021.6477 31116.8695 -1106.9890 -1021.6477
ENERGY: 300000 1.8346 3.4473 9.2167 0.0000 -10781.2503 1373.9523 0.0000 0.0000 1805.1806 -7587.6189 303.1058 -9392.7994 -7579.9164 305.6282 -776.0657 -757.7181 31213.4636 -470.9125 -391.9374
ENERGY: 600000 3.1863 3.6479 4.4431 0.0000 -10786.1601 1439.2388 0.0000 0.0000 1775.7095 -7559.9347 298.1574 -9335.6442 -7569.5662 302.9834 121.0607 195.5331 30862.9061 -403.7618 -328.8373
ENERGY: 900000 2.0464 4.1295 5.7466 0.0000 -10889.0399 1472.9242 0.0000 0.0000 1774.7959 -7629.3974 298.0040 -9404.1932 -7588.8575 301.4540 107.5165 159.3027 30566.5367 -307.5622 -245.2844
ENERGY: 1200000 4.5764 6.4528 1.8425 0.0000 -10736.3134 1381.1379 0.0000 0.0000 1817.4504 -7524.8534 305.1660 -9342.3038 -7584.5407 301.5236 -483.5441 -456.6068 30765.6045 -318.4149 -257.4086
ENERGY: 1500000 2.2211 6.4401 2.7956 0.0000 -10918.1530 1449.4172 0.0000 0.0000 1796.3397 -7660.9393 301.6214 -9457.2790 -7589.8478 302.4490 -288.9360 -170.6049 30308.7785 -291.7430 -229.5426
TCL: Running FEP window  14: Lambda1 0.65   Lambda2 0.7000000000000001 [dLambda 0.050000000000000044]
TCL: Setting parameter firsttimestep to 0
TCL: Setting parameter alchLambda to 0.65
Info: NONBONDED TABLE R-SQUARED SPACING: 0.0625
Info: NONBONDED TABLE SIZE: 705 POINTS
TCL: Setting parameter alchLambda2 to 0.7000000000000001
Info: NONBONDED TABLE R-SQUARED SPACING: 0.0625
Info: NONBONDED TABLE SIZE: 705 POINTS
TCL: Running for 1500000 steps
ETITLE: TS BOND ANGLE DIHED IMPRP ELECT VDW BOUNDARY MISC KINETIC TOTAL TEMP POTENTIAL TOTALAVG TEMPAVG PRESSURE GPRESSURE VOLUME PRESSAVG GPRESSAVG
ENERGY: 0 2.2211 6.4401 2.7956 0.0000 -10919.0632 1449.4077 0.0000 0.0000 1795.4446 -7662.7541 301.4711 -9458.1988 -7662.7541 301.4711 -257.0191 -166.9590 30308.7785 -257.0191 -166.9590
ENERGY: 300000 1.8075 4.5125 2.6777 0.0000 -10895.6603 1485.2746 0.0000 0.0000 1762.0570 -7639.3309 295.8650 -9401.3879 -7589.5553 301.2971 128.4700 181.0994 30821.6286 14.3135 69.1347
ENERGY: 600000 2.4947 4.8579 2.9653 0.0000 -10762.9014 1380.7989 0.0000 0.0000 1806.9284 -7564.8561 303.3993 -9371.7845 -7588.6446 302.8495 -737.9446 -698.3278 31187.2756 -98.5801 -51.0743
ENERGY: 900000 3.9446 4.1111 4.4989 0.0000 -10978.2150 1563.3613 0.0000 0.0000 1804.8367 -7597.4625 303.0481 -9402.2992 -7599.1221 301.6481 601.9267 651.2166 30775.0983 11.2315 60.3358
ENERGY: 1200000 2.2834 6.6236 7.3835 0.0000 -10776.4795 1392.2039 0.0000 0.0000 1834.7063 -7533.2787 308.0635 -9367.9851 -7604.5069 301.0379 -582.7365 -581.0844 31135.6669 -46.1566 -5.8076
ENERGY: 1500000 2.7846 3.1113 2.2617 0.0000 -10759.3964 1383.8752 0.0000 0.0000 1767.9242 -7599.4394 296.8502 -9367.3636 -7608.1851 300.8842 -545.9028 -531.4312 31150.0642 -28.6312 8.1640
TCL: Running FEP window  15: Lambda1 0.7000000000000001 Lambda2 0.7500000000000001 [dLambda 0.050000000000000044]
TCL: Setting parameter firsttimestep to 0
TCL: Setting parameter alchLambda to 0.7000000000000001
Info: NONBONDED TABLE R-SQUARED SPACING: 0.0625
Info: NONBONDED TABLE SIZE: 705 POINTS
TCL: Setting parameter alchLambda2 to 0.7500000000000001
Info: NONBONDED TABLE R-SQUARED SPACING: 0.0625
Info: NONBONDED TABLE SIZE: 705 POINTS
TCL: Running for 1500000 steps
ETITLE: TS BOND ANGLE DIHED IMPRP ELECT VDW BOUNDARY MISC KINETIC TOTAL TEMP POTENTIAL TOTALAVG TEMPAVG PRESSURE GPRESSURE VOLUME PRESSAVG GPRESSAVG
ENERGY: 0 2.7846 3.1113 2.2617 0.0000 -10760.1548 1384.2251 0.0000 0.0000 1767.0395 -7600.7327 296.7016 -9367.7722 -7600.7327 296.7016 -603.5694 -520.3027 31150.0642 -603.5694 -520.3027
ENERGY: 300000 1.1226 3.5544 5.4101 0.0000 -10894.9144 1489.2696 0.0000 0.0000 1874.7329 -7520.8248 314.7843 -9395.5577 -7588.8750 302.5308 352.7394 465.3426 30498.8653 -235.8183 -160.7576
ENERGY: 600000 4.8712 4.4626 2.1246 0.0000 -10806.9760 1427.6082 0.0000 0.0000 1776.6764 -7591.2330 298.3197 -9367.9095 -7567.3023 302.7919 -508.6615 -460.1481 31401.9741 -467.2971 -392.8824
ENERGY: 900000 1.5481 5.0715 3.3993 0.0000 -10718.5087 1407.4176 0.0000 0.0000 1788.2260 -7512.8461 300.2590 -9301.0722 -7576.5381 302.3377 -153.9020 -119.6434 31003.9972 -296.1870 -233.4252
ENERGY: 1200000 2.7889 3.6505 1.0897 0.0000 -10900.5799 1429.1828 0.0000 0.0000 1839.1680 -7624.6999 308.8126 -9463.8680 -7586.4762 303.0765 -297.8841 -247.3051 30521.5452 -202.9116 -150.7756
ENERGY: 1500000 4.0345 4.0699 5.2747 0.0000 -10813.1416 1475.4883 0.0000 0.0000 1807.8164 -7516.4579 303.5484 -9324.2742 -7582.6233 303.0389 33.7618 216.6491 31020.7008 -156.1465 -92.9294
TCL: Running FEP window  16: Lambda1 0.7500000000000001 Lambda2 0.8000000000000002 [dLambda 0.050000000000000044]
TCL: Setting parameter firsttimestep to 0
TCL: Setting parameter alchLambda to 0.7500000000000001
Info: NONBONDED TABLE R-SQUARED SPACING: 0.0625
Info: NONBONDED TABLE SIZE: 705 POINTS
TCL: Setting parameter alchLambda2 to 0.8000000000000002
Info: NONBONDED TABLE R-SQUARED SPACING: 0.0625
Info: NONBONDED TABLE SIZE: 705 POINTS
TCL: Running for 1500000 steps
ETITLE: TS BOND ANGLE DIHED IMPRP ELECT VDW BOUNDARY MISC KINETIC TOTAL TEMP POTENTIAL TOTALAVG TEMPAVG PRESSURE GPRESSURE VOLUME PRESSAVG GPRESSAVG
ENERGY: 0 4.0345 4.0699 5.2747 0.0000 -10814.8477 1476.3923 0.0000 0.0000 1806.9530 -7518.1233 303.4034 -9325.0763 -7518.1233 303.4034 133.5187 232.9501 31020.7008 133.5187 232.9501
ENERGY: 300000 4.3208 8.2250 4.7082 0.0000 -10700.0595 1371.5909 0.0000 0.0000 1761.9868 -7549.2279 295.8532 -9311.2146 -7602.6321 298.6526 -743.7202 -617.9195 31287.9981 -265.1031 -181.0198
ENERGY: 600000 2.5648 7.6122 2.4980 0.0000 -10894.1635 1472.6490 0.0000 0.0000 1781.6145 -7627.2250 299.1489 -9408.8395 -7605.8470 298.3952 281.5659 295.6544 30280.0475 -189.7442 -115.5899
ENERGY: 900000 3.0704 4.1610 3.6776 0.0000 -10790.3975 1458.0226 0.0000 0.0000 1738.8747 -7582.5911 291.9725 -9321.4658 -7605.1940 297.6653 -323.0431 -232.8874 31536.8382 -372.4965 -292.2720
ENERGY: 1200000 0.8782 7.7863 4.6747 0.0000 -10713.6205 1417.8782 0.0000 0.0000 1778.8538 -7503.5492 298.6853 -9282.4030 -7589.7190 298.5101 -216.3022 -131.3728 31126.9590 -352.2679 -270.9804
ENERGY: 1500000 4.0007 6.3814 4.8158 0.0000 -10818.3659 1451.6138 0.0000 0.0000 1861.4241 -7490.1302 312.5496 -9351.5543 -7582.1375 299.0469 -102.9561 -86.0097 31101.4305 -240.5043 -166.0255
TCL: Running FEP window  17: Lambda1 0.8000000000000002 Lambda2 0.8500000000000002 [dLambda 0.050000000000000044]
TCL: Setting parameter firsttimestep to 0
TCL: Setting parameter alchLambda to 0.8000000000000002
Info: NONBONDED TABLE R-SQUARED SPACING: 0.0625
Info: NONBONDED TABLE SIZE: 705 POINTS
TCL: Setting parameter alchLambda2 to 0.8500000000000002
Info: NONBONDED TABLE R-SQUARED SPACING: 0.0625
Info: NONBONDED TABLE SIZE: 705 POINTS
TCL: Running for 1500000 steps
ETITLE: TS BOND ANGLE DIHED IMPRP ELECT VDW BOUNDARY MISC KINETIC TOTAL TEMP POTENTIAL TOTALAVG TEMPAVG PRESSURE GPRESSURE VOLUME PRESSAVG GPRESSAVG
ENERGY: 0 4.0007 6.3814 4.8158 0.0000 -10819.4125 1451.4535 0.0000 0.0000 1860.5496 -7492.2116 312.4028 -9352.7612 -7492.2116 312.4028 -167.3864 -79.5158 31101.4305 -167.3864 -79.5158
ENERGY: 300000 4.2344 7.7245 2.2264 0.0000 -11015.0622 1606.6778 0.0000 0.0000 1792.7994 -7601.3996 301.0269 -9394.1990 -7564.4837 304.3388 1217.8897 1215.0797 30828.3571 -104.0535 -29.5485
ENERGY: 600000 0.9916 8.5768 5.5743 0.0000 -10993.6733 1495.0825 0.0000 0.0000 1808.5867 -7674.8613 303.6777 -9483.4480 -7565.1014 303.8104 7.5191 51.8275 30683.0427 -39.0126 23.8253
ENERGY: 900000 3.3748 3.0871 5.5164 0.0000 -11021.3606 1554.0056 0.0000 0.0000 1801.6439 -7653.7327 302.5120 -9455.3766 -7580.9073 303.6285 710.6159 811.7536 30468.9302 112.7449 176.1095
ENERGY: 1200000 1.7606 4.9341 3.6420 0.0000 -10753.1009 1415.7412 0.0000 0.0000 1779.5286 -7547.4945 298.7986 -9327.0231 -7578.5948 302.9959 -448.4335 -363.9791 30869.7141 22.5284 84.8296
ENERGY: 1500000 1.8358 7.0233 4.4873 0.0000 -10910.7675 1504.1093 0.0000 0.0000 1848.9549 -7544.3570 310.4559 -9393.3118 -7569.7561 303.7258 676.5872 644.5671 30465.7307 105.1564 159.3359
TCL: Running FEP window  18: Lambda1 0.8500000000000002 Lambda2 0.9000000000000002 [dLambda 0.050000000000000044]
TCL: Setting parameter firsttimestep to 0
TCL: Setting parameter alchLambda to 0.8500000000000002
Info: NONBONDED TABLE R-SQUARED SPACING: 0.0625
Info: NONBONDED TABLE SIZE: 705 POINTS
TCL: Setting parameter alchLambda2 to 0.9000000000000002
Info: NONBONDED TABLE R-SQUARED SPACING: 0.0625
Info: NONBONDED TABLE SIZE: 705 POINTS
TCL: Running for 1500000 steps
ETITLE: TS BOND ANGLE DIHED IMPRP ELECT VDW BOUNDARY MISC KINETIC TOTAL TEMP POTENTIAL TOTALAVG TEMPAVG PRESSURE GPRESSURE VOLUME PRESSAVG GPRESSAVG
ENERGY: 0 1.8358 7.0233 4.4873 0.0000 -10911.5254 1503.9424 0.0000 0.0000 1848.0365 -7546.2000 310.3017 -9394.2366 -7546.2000 310.3017 543.6626 649.8148 30465.7307 543.6626 649.8148
ENERGY: 300000 2.8752 4.4562 4.6886 0.0000 -10781.6876 1362.5033 0.0000 0.0000 1772.9338 -7634.2305 297.6913 -9407.1643 -7594.4501 303.6855 -496.4524 -453.7476 30129.8007 -38.4623 30.0235
ENERGY: 600000 1.2686 5.2672 3.3737 0.0000 -11002.2896 1484.4359 0.0000 0.0000 1750.3955 -7757.5486 293.9069 -9507.9441 -7630.2231 300.0698 -181.8795 -150.6802 30734.7971 5.7742 70.4379
ENERGY: 900000 2.4473 3.4127 4.8372 0.0000 -10831.1030 1364.5968 0.0000 0.0000 1819.9857 -7635.8234 305.5917 -9455.8090 -7625.4114 301.5523 -718.2756 -650.2744 30564.4121 -120.5285 -54.7879
ENERGY: 1200000 3.1622 7.0982 2.2946 0.0000 -11045.6624 1589.8684 0.0000 0.0000 1783.5370 -7659.7019 299.4717 -9443.2389 -7623.9643 300.1671 938.4468 966.8077 30689.6469 -33.3262 27.3525
ENERGY: 1500000 3.3657 6.1681 3.1076 0.0000 -10823.8324 1413.4583 0.0000 0.0000 1723.7928 -7673.9399 289.4401 -9397.7327 -7623.0771 298.7075 -613.3806 -585.4867 31067.6261 -61.1018 3.1539
TCL: Running FEP window  19: Lambda1 0.9000000000000002 Lambda2 0.9500000000000003 [dLambda 0.050000000000000044]
TCL: Setting parameter firsttimestep to 0
TCL: Setting parameter alchLambda to 0.9000000000000002
Info: NONBONDED TABLE R-SQUARED SPACING: 0.0625
Info: NONBONDED TABLE SIZE: 705 POINTS
TCL: Setting parameter alchLambda2 to 0.9500000000000003
Info: NONBONDED TABLE R-SQUARED SPACING: 0.0625
Info: NONBONDED TABLE SIZE: 705 POINTS
TCL: Running for 1500000 steps
ETITLE: TS BOND ANGLE DIHED IMPRP ELECT VDW BOUNDARY MISC KINETIC TOTAL TEMP POTENTIAL TOTALAVG TEMPAVG PRESSURE GPRESSURE VOLUME PRESSAVG GPRESSAVG
ENERGY: 0 3.3657 6.1681 3.1076 0.0000 -10825.5205 1413.3634 0.0000 0.0000 1722.8631 -7676.6526 289.2840 -9399.5157 -7676.6526 289.2840 -658.1815 -578.6508 31067.6261 -658.1815 -578.6508
ENERGY: 300000 2.3488 4.4270 3.3676 0.0000 -10859.2012 1461.4308 0.0000 0.0000 1843.8868 -7543.7402 309.6050 -9387.6271 -7600.1337 299.5569 -47.0615 70.3632 30953.6135 -426.7044 -317.9086
ENERGY: 600000 3.2448 7.4881 2.7881 0.0000 -10828.4165 1447.4036 0.0000 0.0000 1799.8649 -7567.6269 302.2133 -9367.4919 -7575.0012 300.5294 -195.8964 -122.6676 31208.6067 -307.2558 -216.3157
ENERGY: 900000 0.4689 4.4258 4.7823 0.0000 -10938.8730 1525.1198 0.0000 0.0000 1753.5715 -7650.5047 294.4402 -9404.0761 -7586.7758 299.6136 159.8493 187.6890 31279.0680 -228.1714 -148.9288
ENERGY: 1200000 2.1451 5.6304 2.0678 0.0000 -10739.7826 1380.7724 0.0000 0.0000 1771.3658 -7577.8011 297.4280 -9349.1668 -7586.0352 299.9418 -488.4976 -446.2470 30676.9214 -206.0528 -135.4782
ENERGY: 1500000 1.9462 5.5058 1.6067 0.0000 -10786.2450 1385.9406 0.0000 0.0000 1781.9015 -7609.3441 299.1971 -9391.2457 -7582.5098 300.1071 -151.0123 -107.4976 30264.9504 -177.6321 -120.0483
TCL: Running FEP window  20: Lambda1 0.9500000000000003 Lambda2 1.0    [dLambda 0.04999999999999971]
TCL: Setting parameter firsttimestep to 0
TCL: Setting parameter alchLambda to 0.9500000000000003
Info: NONBONDED TABLE R-SQUARED SPACING: 0.0625
Info: NONBONDED TABLE SIZE: 705 POINTS
TCL: Setting parameter alchLambda2 to 1.0
Info: NONBONDED TABLE R-SQUARED SPACING: 0.0625
Info: NONBONDED TABLE SIZE: 705 POINTS
TCL: Running for 1500000 steps
ETITLE: TS BOND ANGLE DIHED IMPRP ELECT VDW BOUNDARY MISC KINETIC TOTAL TEMP POTENTIAL TOTALAVG TEMPAVG PRESSURE GPRESSURE VOLUME PRESSAVG GPRESSAVG
ENERGY: 0 1.9462 5.5058 1.6067 0.0000 -10788.5926 1388.4080 0.0000 0.0000 1781.0040 -7610.1220 299.0464 -9391.1259 -7610.1220 299.0464 -161.6544 -67.7555 30264.9504 -161.6544 -67.7555
ENERGY: 300000 3.7015 4.9183 4.1435 0.0000 -10915.3648 1426.5256 0.0000 0.0000 1759.2309 -7716.8450 295.3905 -9476.0758 -7642.4189 300.4257 -810.8665 -663.4172 30832.6795 27.2423 127.5338
ENERGY: 600000 2.3263 4.1623 3.3562 0.0000 -10897.3857 1448.6166 0.0000 0.0000 1812.1264 -7626.7980 304.2721 -9438.9243 -7642.3598 299.5185 -78.5039 -44.0448 30622.5368 -39.6672 45.3835
ENERGY: 900000 0.8589 3.1915 3.2721 0.0000 -10821.1510 1407.1533 0.0000 0.0000 1792.2940 -7614.3812 300.9421 -9406.6752 -7643.9441 299.6460 -236.2153 -222.4683 30663.7392 86.7036 158.8670
ENERGY: 1200000 2.0802 4.3722 1.8540 0.0000 -10783.2323 1404.3540 0.0000 0.0000 1849.0972 -7521.4747 310.4798 -9370.5719 -7629.1156 301.2336 -246.4524 -218.9581 31082.5824 103.7904 166.1484
ENERGY: 1500000 2.0232 5.5902 5.0296 0.0000 -10813.9770 1487.5077 0.0000 0.0000 1770.0853 -7543.7410 297.2130 -9313.8263 -7623.0945 300.8380 678.6948 788.0862 30669.2281 65.8936 127.3261
TCL: Exiting due to exit command.
