Info: SIMULATION PARAMETERS:
Info: TIMESTEP               2
Info: NUMBER OF STEPS        0
Info: STEPS PER CYCLE        10
Info: PERIODIC CELL BASIS 1  30.0714 0 0
Info: PERIODIC CELL BASIS 2  0 31.1298 0
Info: PERIODIC CELL BASIS 3  0 0 31.4041
Info: PERIODIC CELL CENTER   0 0 0
Info: WRAPPING WATERS AROUND PERIODIC BOUNDARIES ON OUTPUT.
Info: WRAPPING ALL CLUSTERS AROUND PERIODIC BOUNDARIES ON OUTPUT.
Info: FIRST LDB TIMESTEP     50
Info: LAST LDB TIMESTEP     -1
Info: HOM BACKGROUND SCALING 1
Info: PME BACKGROUND SCALING 1
Info: MIN ATOMS PER PATCH    40
Info: EMPTY PATCH LOAD       40 ATOMS
Info: VELOCITY FILE          mobley_3395921_equil.vel
Info: CENTER OF MASS MOVING INITIALLY? NO
Info: DIELECTRIC             1
Info: EXCLUDE                SCALED ONE-FOUR
Info: 1-4 ELECTROSTATICS SCALED BY 0.833333
Info: MODIFIED 1-4 VDW PARAMETERS WILL BE USED
Info: DCD FILENAME           mobley_3395921_prod.dcd
Info: DCD FREQUENCY          100000
Info: DCD FIRST STEP         100000
Info: DCD FILE WILL CONTAIN UNIT CELL DATA
Info: XST FILENAME           mobley_3395921_prod.xst
Info: XST FREQUENCY          100000
Info: NO VELOCITY DCD OUTPUT
Info: NO FORCE DCD OUTPUT
Info: OUTPUT FILENAME        mobley_3395921_prod
Info: BINARY OUTPUT FILES WILL BE USED
Info: RESTART FILENAME       mobley_3395921_prod.restart
Info: RESTART FREQUENCY      100000
Info: BINARY RESTART FILES WILL BE USED
Info: CUTOFF                 9
Info: PAIRLIST DISTANCE      11
Info: PAIRLIST SHRINK RATE   0.01
Info: PAIRLIST GROW RATE     0.01
Info: PAIRLIST TRIGGER       0.3
Info: PAIRLISTS PER CYCLE    2
Info: PAIRLISTS ENABLED
Info: MARGIN                 2
Info: HYDROGEN GROUP CUTOFF  2.5
Info: PATCH DIMENSION        15.5
Info: ENERGY OUTPUT STEPS    100000
Info: ENERGY EVALUATION STEPS    100000
Info: OUTPUT ENERGY PRECISION 4
Info: CROSSTERM ENERGY INCLUDED IN DIHEDRAL
Info: TIMING OUTPUT STEPS    1000000
Info: PRESSURE OUTPUT STEPS  100000
Info: ALCHEMICAL FEP ON
Info: FEP CURRENT LAMBDA VALUE     1
Info: FEP COMPARISON LAMBDA VALUE  0.95
Info: FEP INTRA-ALCHEMICAL NON-BONDED INTERACTIONS WILL BE RETAINED
Info: FEP INTRA-ALCHEMICAL BONDED INTERACTIONS WILL BE RETAINED
Info: FEP VDW SHIFTING COEFFICIENT 5
Info: FEP ELEC. ACTIVE FOR ANNIHILATED PARTICLES BETWEEN LAMBDA = 0 AND LAMBDA = 0.5
Info: FEP ELEC. ACTIVE FOR EXNIHILATED PARTICLES BETWEEN LAMBDA = 0.5 AND LAMBDA = 1
Info: FEP VDW ACTIVE FOR ANNIHILATED PARTICLES BETWEEN LAMBDA = 0 AND LAMBDA = 1
Info: FEP VDW ACTIVE FOR EXNIHILATED PARTICLES BETWEEN LAMBDA = 0 AND LAMBDA = 1
Info: FEP BOND ACTIVE FOR ANNIHILATED PARTICLES BETWEEN LAMBDA = 1 AND LAMBDA = 1
Info: FEP BOND ACTIVE FOR EXNIHILATED PARTICLES BETWEEN LAMBDA = 0 AND LAMBDA = 0
Info: LANGEVIN DYNAMICS ACTIVE
Info: LANGEVIN TEMPERATURE   300
Info: LANGEVIN USING BBK INTEGRATOR
Info: LANGEVIN DAMPING COEFFICIENT IS 1 INVERSE PS
Info: LANGEVIN DYNAMICS APPLIED TO HYDROGENS
Info: LANGEVIN PISTON PRESSURE CONTROL ACTIVE
Info:        TARGET PRESSURE IS 1.01325 BAR
Info:     OSCILLATION PERIOD IS 50 FS
Info:             DECAY TIME IS 25 FS
Info:     PISTON TEMPERATURE IS 300 K
Info:       PRESSURE CONTROL IS GROUP-BASED
Info:    INITIAL STRAIN RATE IS -0.000360779 -0.000360779 -0.000360779
Info:       CELL FLUCTUATION IS ISOTROPIC
Info: PARTICLE MESH EWALD (PME) ACTIVE
Info: PME TOLERANCE               1e-06
Info: PME EWALD COEFFICIENT       0.348832
Info: PME INTERPOLATION ORDER     4
Info: PME GRID DIMENSIONS         32 32 32
Info: PME MAXIMUM GRID SPACING    1
Info: PME CALCULATION WILL BE PERFORMED ON GPU
Info: FULL ELECTROSTATIC EVALUATION FREQUENCY      2
Info: USING VERLET I (r-RESPA) MTS SCHEME.
Info: C1 SPLITTING OF LONG RANGE ELECTROSTATICS
Info: PLACING ATOMS IN PATCHES BY HYDROGEN GROUPS
Info: RIGID BONDS TO HYDROGEN : ALL
Info:         ERROR TOLERANCE : 1e-08
Info:          MAX ITERATIONS : 100
Info: RIGID WATER USING SETTLE ALGORITHM
Info: RANDOM NUMBER SEED     1743596609
Info: USE HYDROGEN BONDS?    NO
Info: Using AMBER format force field!
Info: AMBER PARM FILE        mobley_3395921.prmtop
Info: COORDINATE PDB         mobley_3395921.pdb
Info: Exclusions will be read from PARM file!
Info: SCNB (VDW SCALING)     2
Info: USING ARITHMETIC MEAN TO COMBINE L-J SIGMA PARAMETERS
Info: BINARY COORDINATES     mobley_3395921_equil.coor
Info: SUMMARY OF PARAMETERS:
Info: 6 BONDS
Info: 8 ANGLES
Info:   8 HARMONIC
Info:   0 COSINE-BASED
Info: 11 DIHEDRAL
Info: 0 IMPROPER
Info: 0 CROSSTERM
Info: 0 VDW
Info: 21 VDW_PAIRS
Info: 0 NBTHOLE_PAIRS
Info: To read alchdata from file: mobley_3395921.pdb
Info: To read alchflag data from column: 5
Info: STRUCTURE SUMMARY:
Info: 2905 ATOMS
Info: 2905 BONDS
Info: 31 ANGLES
Info: 52 DIHEDRALS
Info: 0 IMPROPERS
Info: 0 CROSSTERMS
Info: 2975 EXCLUSIONS
Info: 2899 RIGID BONDS
Info: ALCH: 0 ATOMS TO DISAPPEAR IN FINAL STATE
Info: ALCH: 16 ATOMS TO APPEAR IN FINAL STATE
Info: 5816 DEGREES OF FREEDOM
Info: 969 HYDROGEN GROUPS
Info: 3 ATOMS IN LARGEST HYDROGEN GROUP
Info: 969 MIGRATION GROUPS
Info: 3 ATOMS IN LARGEST MIGRATION GROUP
Info: TOTAL MASS = 17435.5 amu
Info: TOTAL CHARGE = -0.000300013 e
Info: MASS DENSITY = 0.984867 g/cm^3
Info: ATOM DENSITY = 0.0988164 atoms/A^3
Info: ADDED 0 IMPLICIT EXCLUSIONS
Info: NONBONDED TABLE R-SQUARED SPACING: 0.0625
Info: NONBONDED TABLE SIZE: 705 POINTS
Info: REMOVING COM VELOCITY -0.0519199 -0.154145 -0.174578
Info: Use 3D box decompostion in PME FFT.
Info: Updated CUDA force table with 4096 elements.
Info: Updated CUDA LJ table with 6 x 6 elements.
Info: Found 17 unique exclusion lists needing 40 bytes
TCL: Running for 1500000 steps
ETITLE: TS BOND ANGLE DIHED IMPRP ELECT VDW BOUNDARY MISC KINETIC TOTAL TEMP POTENTIAL TOTALAVG TEMPAVG PRESSURE GPRESSURE VOLUME PRESSAVG GPRESSAVG
ENERGY: 0 1.1616 8.6315 2.5669 0.0000 -10533.6011 1430.5516 0.0000 0.0000 1725.6498 -7365.0396 298.6198 -9090.6894 -7365.0396 298.6198 378.4843 462.4844 29397.9590 378.4843 462.4844
ENERGY: 300000 1.1005 9.8213 2.7204 0.0000 -10530.7053 1437.4172 0.0000 0.0000 1729.5319 -7350.1140 299.2916 -9079.6460 -7344.1596 298.9743 157.2033 195.9596 29772.4229 -9.4108 65.2365
ENERGY: 600000 1.1337 5.9446 2.4860 0.0000 -10522.1156 1407.1739 0.0000 0.0000 1730.6958 -7374.6816 299.4930 -9105.3774 -7348.6547 300.4260 -8.0506 45.2567 29896.5233 67.1480 136.6578
ENERGY: 900000 5.1146 9.4795 3.3069 0.0000 -10532.3570 1385.9179 0.0000 0.0000 1766.0247 -7362.5134 305.6066 -9128.5381 -7351.8880 300.4224 -415.7648 -336.4861 30042.1856 91.2370 162.5084
ENERGY: 1200000 1.2731 6.7986 2.5939 0.0000 -10517.5950 1391.4702 0.0000 0.0000 1731.3576 -7384.1016 299.6076 -9115.4592 -7355.9740 300.3185 -253.2993 -171.4713 29842.4044 -82.3868 -11.3752
ENERGY: 1500000 3.3831 8.8114 2.9412 0.0000 -10616.6923 1406.3973 0.0000 0.0000 1712.5550 -7482.6044 296.3538 -9195.1594 -7367.4323 299.7859 -313.1220 -211.7853 29561.7874 -70.4998 4.4849
TCL: Running FEP window   2: Lambda1 0.95   Lambda2 0.8999999999999999 [dLambda -0.050000000000000044]
TCL: Setting parameter firsttimestep to 0
TCL: Setting parameter alchLambda to 0.95
Info: NONBONDED TABLE R-SQUARED SPACING: 0.0625
Info: NONBONDED TABLE SIZE: 705 POINTS
TCL: Setting parameter alchLambda2 to 0.8999999999999999
Info: NONBONDED TABLE R-SQUARED SPACING: 0.0625
Info: NONBONDED TABLE SIZE: 705 POINTS
TCL: Running for 1500000 steps
ETITLE: TS BOND ANGLE DIHED IMPRP ELECT VDW BOUNDARY MISC KINETIC TOTAL TEMP POTENTIAL TOTALAVG TEMPAVG PRESSURE GPRESSURE VOLUME PRESSAVG GPRESSAVG
ENERGY: 0 3.3831 8.8114 2.9412 0.0000 -10616.0108 1406.5721 0.0000 0.0000 1711.6928 -7482.6102 296.2046 -9194.3030 -7482.6102 296.2046 -308.9277 -221.4027 29561.7874 -308.9277 -221.4027
ENERGY: 300000 1.0132 10.5204 3.4794 0.0000 -10732.9082 1533.9970 0.0000 0.0000 1747.5496 -7436.3486 302.4095 -9183.8982 -7411.5897 298.2596 815.3823 781.5124 29738.4254 -4.2076 24.7008
ENERGY: 600000 1.7990 6.9584 2.3608 0.0000 -10574.7464 1425.4662 0.0000 0.0000 1709.2193 -7428.9427 295.7766 -9138.1620 -7395.4439 298.8889 406.6741 410.8866 29306.4486 54.5918 91.1472
ENERGY: 900000 1.6574 7.7109 2.5906 0.0000 -10579.1070 1408.6531 0.0000 0.0000 1721.5609 -7436.9342 297.9123 -9158.4951 -7396.7823 297.4394 -115.4135 -43.1505 29797.1181 88.9934 138.0914
ENERGY: 1200000 0.6405 8.9489 2.3840 0.0000 -10423.9452 1392.0569 0.0000 0.0000 1700.4965 -7319.4183 294.2671 -9019.9148 -7393.6243 297.8096 -32.0193 73.9553 29957.9503 230.5831 283.7956
ENERGY: 1500000 2.0040 8.1492 3.6067 0.0000 -10569.2632 1483.1833 0.0000 0.0000 1726.2846 -7346.0355 298.7297 -9072.3200 -7394.1181 298.0850 736.3173 767.7645 29695.7934 165.3393 218.3851
TCL: Running FEP window   3: Lambda1 0.8999999999999999 Lambda2 0.8499999999999999 [dLambda -0.050000000000000044]
TCL: Setting parameter firsttimestep to 0
TCL: Setting parameter alchLambda to 0.8999999999999999
Info: NONBONDED TABLE R-SQUARED SPACING: 0.0625
Info: NONBONDED TABLE SIZE: 705 POINTS
TCL: Setting parameter alchLambda2 to 0.8499999999999999
Info: NONBONDED TABLE R-SQUARED SPACING: 0.0625
Info: NONBONDED TABLE SIZE: 705 POINTS
TCL: Running for 1500000 steps
ETITLE: TS BOND ANGLE DIHED IMPRP ELECT VDW BOUNDARY MISC KINETIC TOTAL TEMP POTENTIAL TOTALAVG TEMPAVG PRESSURE GPRESSURE VOLUME PRESSAVG GPRESSAVG
ENERGY: 0 2.0040 8.1492 3.6067 0.0000 -10568.0729 1482.5159 0.0000 0.0000 1725.4120 -7346.3852 298.5787 -9071.7971 -7346.3852 298.5787 678.1170 752.4361 29695.7934 678.1170 752.4361
ENERGY: 300000 3.6177 7.5402 2.3473 0.0000 -10448.5320 1338.3325 0.0000 0.0000 1724.3359 -7372.3584 298.3925 -9096.6943 -7332.9339 298.9471 -514.2232 -416.6252 29546.2619 -9.1072 70.3594
ENERGY: 600000 1.4389 8.6895 2.8690 0.0000 -10543.0054 1420.4386 0.0000 0.0000 1748.2780 -7361.2914 302.5356 -9109.5694 -7368.7237 297.3296 55.5027 91.8079 29941.0089 17.1828 92.7670
ENERGY: 900000 3.3298 3.9072 2.6637 0.0000 -10567.8991 1466.5586 0.0000 0.0000 1749.8349 -7341.6049 302.8050 -9091.4398 -7369.1580 298.5305 346.6816 382.3197 30090.1261 80.7996 149.6093
ENERGY: 1200000 3.4556 10.6552 2.4323 0.0000 -10294.5238 1253.0977 0.0000 0.0000 1722.2585 -7302.6247 298.0330 -9024.8831 -7370.4953 299.1563 -1237.4398 -1173.7855 30274.0141 -82.5665 -15.3914
ENERGY: 1500000 1.7133 10.1439 2.6320 0.0000 -10456.6813 1369.7029 0.0000 0.0000 1706.6274 -7365.8619 295.3281 -9072.4893 -7364.7313 299.4003 -250.6301 -173.9278 29735.8792 15.0842 80.5870
TCL: Running FEP window   4: Lambda1 0.8499999999999999 Lambda2 0.7999999999999998 [dLambda -0.050000000000000044]
TCL: Setting parameter firsttimestep to 0
TCL: Setting parameter alchLambda to 0.8499999999999999
Info: NONBONDED TABLE R-SQUARED SPACING: 0.0625
Info: NONBONDED TABLE SIZE: 705 POINTS
TCL: Setting parameter alchLambda2 to 0.7999999999999998
Info: NONBONDED TABLE R-SQUARED SPACING: 0.0625
Info: NONBONDED TABLE SIZE: 705 POINTS
TCL: Running for 1500000 steps
ETITLE: TS BOND ANGLE DIHED IMPRP ELECT VDW BOUNDARY MISC KINETIC TOTAL TEMP POTENTIAL TOTALAVG TEMPAVG PRESSURE GPRESSURE VOLUME PRESSAVG GPRESSAVG
ENERGY: 0 1.7133 10.1439 2.6320 0.0000 -10456.0154 1369.7660 0.0000 0.0000 1705.7683 -7365.9920 295.1794 -9071.7603 -7365.9920 295.1794 -278.1911 -182.2246 29735.8792 -278.1911 -182.2246
ENERGY: 300000 0.2716 6.9604 3.3906 0.0000 -10609.0435 1498.6120 0.0000 0.0000 1744.6095 -7355.1994 301.9008 -9099.8090 -7363.2887 298.2721 724.1311 800.8173 29641.6196 57.9049 122.4640
ENERGY: 600000 0.6169 6.2800 2.2754 0.0000 -10680.9386 1532.5380 0.0000 0.0000 1725.7974 -7413.4309 298.6454 -9139.2283 -7368.3023 298.8821 816.3011 844.4225 29777.3953 65.0167 132.9201
ENERGY: 900000 2.6024 5.8657 2.0996 0.0000 -10573.6698 1432.7270 0.0000 0.0000 1725.8313 -7404.5438 298.6512 -9130.3751 -7365.9484 299.8402 -108.9722 -111.3242 30449.5536 76.6189 129.6044
ENERGY: 1200000 1.1743 8.1052 2.3278 0.0000 -10488.8092 1425.4836 0.0000 0.0000 1774.2683 -7277.4499 307.0332 -9051.7182 -7367.6798 299.1022 69.6543 152.4881 29989.1322 62.2540 112.0313
ENERGY: 1500000 2.7489 6.8332 2.5530 0.0000 -10413.8008 1343.6764 0.0000 0.0000 1735.0780 -7322.9112 300.2514 -9057.9892 -7368.4420 299.7890 -544.9957 -442.2619 29848.6039 -16.5784 37.9463
TCL: Running FEP window   5: Lambda1 0.7999999999999998 Lambda2 0.7499999999999998 [dLambda -0.050000000000000044]
TCL: Setting parameter firsttimestep to 0
TCL: Setting parameter alchLambda to 0.7999999999999998
Info: NONBONDED TABLE R-SQUARED SPACING: 0.0625
Info: NONBONDED TABLE SIZE: 705 POINTS
TCL: Setting parameter alchLambda2 to 0.7499999999999998
Info: NONBONDED TABLE R-SQUARED SPACING: 0.0625
Info: NONBONDED TABLE SIZE: 705 POINTS
TCL: Running for 1500000 steps
ETITLE: TS BOND ANGLE DIHED IMPRP ELECT VDW BOUNDARY MISC KINETIC TOTAL TEMP POTENTIAL TOTALAVG TEMPAVG PRESSURE GPRESSURE VOLUME PRESSAVG GPRESSAVG
ENERGY: 0 2.7489 6.8332 2.5530 0.0000 -10413.2708 1344.2610 0.0000 0.0000 1734.1992 -7322.6753 300.0993 -9056.8746 -7322.6753 300.0993 -526.8674 -441.4696 29848.6039 -526.8674 -441.4696
ENERGY: 300000 1.7801 10.5124 3.1348 0.0000 -10484.5541 1360.3578 0.0000 0.0000 1690.9774 -7417.7916 292.6199 -9108.7689 -7388.5411 300.1507 -331.2400 -332.4319 29726.3505 -38.2783 24.4344
ENERGY: 600000 1.3234 7.4945 2.5524 0.0000 -10386.8117 1308.3264 0.0000 0.0000 1736.1165 -7330.9984 300.4311 -9067.1150 -7378.1955 299.3291 -819.7155 -687.6759 29900.5713 -169.0061 -95.8621
ENERGY: 900000 1.2157 6.5035 2.5997 0.0000 -10614.8211 1465.0874 0.0000 0.0000 1729.1453 -7410.2694 299.2247 -9139.4147 -7377.9179 299.0578 530.3311 557.5730 29539.3602 -169.2868 -109.6853
ENERGY: 1200000 0.9722 8.7118 2.6978 0.0000 -10573.7111 1443.6986 0.0000 0.0000 1739.2307 -7378.4000 300.9700 -9117.6307 -7371.7951 299.5865 46.9007 79.0405 29969.3566 -182.7067 -131.1317
ENERGY: 1500000 3.4767 10.4979 2.4006 0.0000 -10526.7444 1443.8737 0.0000 0.0000 1723.5473 -7342.9483 298.2560 -9066.4955 -7367.0654 299.2915 276.6378 337.3836 29752.5113 -132.7874 -84.1179
TCL: Running FEP window   6: Lambda1 0.7499999999999998 Lambda2 0.6999999999999997 [dLambda -0.050000000000000044]
TCL: Setting parameter firsttimestep to 0
TCL: Setting parameter alchLambda to 0.7499999999999998
Info: NONBONDED TABLE R-SQUARED SPACING: 0.0625
Info: NONBONDED TABLE SIZE: 705 POINTS
TCL: Setting parameter alchLambda2 to 0.6999999999999997
Info: NONBONDED TABLE R-SQUARED SPACING: 0.0625
Info: NONBONDED TABLE SIZE: 705 POINTS
TCL: Running for 1500000 steps
ETITLE: TS BOND ANGLE DIHED IMPRP ELECT VDW BOUNDARY MISC KINETIC TOTAL TEMP POTENTIAL TOTALAVG TEMPAVG PRESSURE GPRESSURE VOLUME PRESSAVG GPRESSAVG
ENERGY: 0 3.4767 10.4979 2.4006 0.0000 -10525.8769 1443.8125 0.0000 0.0000 1722.6789 -7343.0103 298.1057 -9065.6892 -7343.0103 298.1057 239.6691 331.2151 29752.5113 239.6691 331.2151
ENERGY: 300000 1.4305 5.9125 2.4581 0.0000 -10534.0675 1410.1895 0.0000 0.0000 1730.9922 -7383.0847 299.5443 -9114.0769 -7367.0899 299.1112 -39.9090 15.1198 29801.6866 24.3193 87.4348
ENERGY: 600000 1.6154 9.6688 2.9734 0.0000 -10493.1952 1381.3276 0.0000 0.0000 1733.5468 -7364.0631 299.9864 -9097.6099 -7366.2034 298.6759 -73.3840 -18.0801 29231.3778 -52.7001 4.4302
ENERGY: 900000 2.7509 7.0524 2.9602 0.0000 -10644.6986 1463.6856 0.0000 0.0000 1765.8503 -7402.3993 305.5764 -9168.2496 -7354.5694 300.6208 372.3798 528.8713 29380.1948 -13.5549 56.1622
ENERGY: 1200000 2.3256 6.7994 2.8829 0.0000 -10439.2034 1382.6767 0.0000 0.0000 1683.4345 -7361.0843 291.3146 -9044.5189 -7350.7638 299.7885 -418.8577 -319.5744 30269.3472 -52.9032 22.4594
ENERGY: 1500000 2.2599 6.4286 2.5974 0.0000 -10488.3347 1378.9253 0.0000 0.0000 1769.1294 -7328.9941 306.1439 -9098.1235 -7348.8124 299.9494 -513.4536 -445.7286 29916.9920 -53.0506 24.0992
TCL: Running FEP window   7: Lambda1 0.6999999999999997 Lambda2 0.6499999999999997 [dLambda -0.050000000000000044]
TCL: Setting parameter firsttimestep to 0
TCL: Setting parameter alchLambda to 0.6999999999999997
Info: NONBONDED TABLE R-SQUARED SPACING: 0.0625
Info: NONBONDED TABLE SIZE: 705 POINTS
TCL: Setting parameter alchLambda2 to 0.6499999999999997
Info: NONBONDED TABLE R-SQUARED SPACING: 0.0625
Info: NONBONDED TABLE SIZE: 705 POINTS
TCL: Running for 1500000 steps
ETITLE: TS BOND ANGLE DIHED IMPRP ELECT VDW BOUNDARY MISC KINETIC TOTAL TEMP POTENTIAL TOTALAVG TEMPAVG PRESSURE GPRESSURE VOLUME PRESSAVG GPRESSAVG
ENERGY: 0 2.2599 6.4286 2.5974 0.0000 -10487.3999 1379.1686 0.0000 0.0000 1768.2775 -7328.6678 305.9965 -9096.9454 -7328.6678 305.9965 -534.0199 -450.2948 29916.9920 -534.0199 -450.2948
ENERGY: 300000 2.1950 4.5125 2.4549 0.0000 -10597.3358 1458.8884 0.0000 0.0000 1738.2732 -7391.0118 300.8043 -9129.2850 -7368.5019 301.4304 207.5860 312.4697 29637.7580 -36.1802 38.9709
ENERGY: 600000 1.8034 8.4886 3.7509 0.0000 -10584.2141 1418.8283 0.0000 0.0000 1719.8586 -7431.4842 297.6177 -9151.3428 -7364.8920 300.0886 -1.6216 104.7423 29412.6799 7.1944 75.2905
ENERGY: 900000 0.9843 6.8063 2.7074 0.0000 -10512.7094 1410.8518 0.0000 0.0000 1774.4140 -7316.9456 307.0584 -9091.3596 -7354.3703 301.2660 -121.7170 -127.9041 30487.6330 -34.8695 29.3636
ENERGY: 1200000 1.1037 3.9767 2.1884 0.0000 -10439.7272 1365.5149 0.0000 0.0000 1747.2914 -7319.6520 302.3649 -9066.9435 -7338.9844 301.2687 -289.1958 -234.4517 29877.4705 -104.1591 -41.2207
ENERGY: 1500000 2.3943 9.4945 2.8094 0.0000 -10365.9370 1303.4776 0.0000 0.0000 1695.1863 -7352.5749 293.3482 -9047.7612 -7336.8814 300.5109 -993.9840 -939.7741 30088.1122 -148.4563 -84.7666
TCL: Running FEP window   8: Lambda1 0.6499999999999997 Lambda2 0.5999999999999996 [dLambda -0.050000000000000044]
TCL: Setting parameter firsttimestep to 0
TCL: Setting parameter alchLambda to 0.6499999999999997
Info: NONBONDED TABLE R-SQUARED SPACING: 0.0625
Info: NONBONDED TABLE SIZE: 705 POINTS
TCL: Setting parameter alchLambda2 to 0.5999999999999996
Info: NONBONDED TABLE R-SQUARED SPACING: 0.0625
Info: NONBONDED TABLE SIZE: 705 POINTS
TCL: Running for 1500000 steps
ETITLE: TS BOND ANGLE DIHED IMPRP ELECT VDW BOUNDARY MISC KINETIC TOTAL TEMP POTENTIAL TOTALAVG TEMPAVG PRESSURE GPRESSURE VOLUME PRESSAVG GPRESSAVG
ENERGY: 0 2.3943 9.4945 2.8094 0.0000 -10365.3618 1303.8098 0.0000 0.0000 1694.3308 -7352.5231 293.2002 -9046.8539 -7352.5231 293.2002 -1043.9331 -943.1127 30088.1122 -1043.9331 -943.1127
ENERGY: 300000 1.6875 7.0675 2.2256 0.0000 -10551.2689 1459.2040 0.0000 0.0000 1769.3790 -7311.7053 306.1871 -9081.0843 -7345.5533 300.3862 51.9034 129.0055 30405.2676 -240.0674 -169.2524
ENERGY: 600000 2.1513 8.7807 2.1564 0.0000 -10438.2205 1362.9806 0.0000 0.0000 1773.0630 -7289.0885 306.8246 -9062.1514 -7353.7608 301.0032 -548.5147 -457.1888 30231.6901 -376.1274 -313.6542
ENERGY: 900000 1.7420 5.7818 2.2339 0.0000 -10422.7730 1347.2843 0.0000 0.0000 1770.9167 -7294.8143 306.4532 -9065.7310 -7350.6610 300.7216 -280.0127 -324.0063 29835.1134 -266.9872 -209.3358
ENERGY: 1200000 1.6050 6.7510 2.8766 0.0000 -10667.6912 1500.0168 0.0000 0.0000 1769.8484 -7386.5933 306.2683 -9156.4417 -7345.7553 301.0054 900.9316 976.9802 29199.9362 -217.9349 -162.3921
ENERGY: 1500000 0.9632 6.0889 2.5923 0.0000 -10452.5522 1341.0975 0.0000 0.0000 1725.3429 -7376.4674 298.5667 -9101.8103 -7347.5334 300.2886 -505.0484 -488.6330 29560.2633 -281.3938 -227.4366
TCL: Running FEP window   9: Lambda1 0.5999999999999996 Lambda2 0.5499999999999996 [dLambda -0.050000000000000044]
TCL: Setting parameter firsttimestep to 0
TCL: Setting parameter alchLambda to 0.5999999999999996
Info: NONBONDED TABLE R-SQUARED SPACING: 0.0625
Info: NONBONDED TABLE SIZE: 705 POINTS
TCL: Setting parameter alchLambda2 to 0.5499999999999996
Info: NONBONDED TABLE R-SQUARED SPACING: 0.0625
Info: NONBONDED TABLE SIZE: 705 POINTS
TCL: Running for 1500000 steps
ETITLE: TS BOND ANGLE DIHED IMPRP ELECT VDW BOUNDARY MISC KINETIC TOTAL TEMP POTENTIAL TOTALAVG TEMPAVG PRESSURE GPRESSURE VOLUME PRESSAVG GPRESSAVG
ENERGY: 0 0.9632 6.0889 2.5923 0.0000 -10452.2414 1341.5056 0.0000 0.0000 1724.5096 -7376.5818 298.4225 -9101.0914 -7376.5818 298.4225 -580.9920 -489.7561 29560.2633 -580.9920 -489.7561
ENERGY: 300000 1.2869 9.4069 2.1755 0.0000 -10631.6155 1464.8818 0.0000 0.0000 1686.9227 -7466.9417 291.9182 -9153.8644 -7384.1039 297.2361 160.1731 297.4988 29492.9736 -206.1919 -120.3768
ENERGY: 600000 0.8612 6.7182 2.4028 0.0000 -10513.0032 1420.9855 0.0000 0.0000 1745.4554 -7336.5801 302.0472 -9082.0356 -7365.7174 298.5517 130.9337 168.2456 29648.6466 14.2492 92.4784
ENERGY: 900000 1.4598 9.9490 4.0967 0.0000 -10439.0453 1408.5619 0.0000 0.0000 1751.4449 -7263.5329 303.0836 -9014.9779 -7357.9340 298.6783 227.8748 274.2273 29885.9053 -7.2912 62.7384
ENERGY: 1200000 0.9024 5.7666 3.0365 0.0000 -10606.0918 1426.7639 0.0000 0.0000 1727.9253 -7441.6970 299.0136 -9169.6223 -7359.8436 299.1604 -307.6955 -169.0950 30073.5312 -101.0728 -23.4309
ENERGY: 1500000 1.1198 6.1102 2.9531 0.0000 -10482.1812 1423.6706 0.0000 0.0000 1659.4330 -7388.8946 287.1612 -9048.3276 -7356.0120 299.3804 -301.7348 -204.5921 30593.4535 -72.3274 2.9732
TCL: Running FEP window  10: Lambda1 0.5499999999999996 Lambda2 0.4999999999999996 [dLambda -0.04999999999999999]
TCL: Setting parameter firsttimestep to 0
TCL: Setting parameter alchLambda to 0.5499999999999996
Info: NONBONDED TABLE R-SQUARED SPACING: 0.0625
Info: NONBONDED TABLE SIZE: 705 POINTS
TCL: Setting parameter alchLambda2 to 0.4999999999999996
Info: NONBONDED TABLE R-SQUARED SPACING: 0.0625
Info: NONBONDED TABLE SIZE: 705 POINTS
TCL: Running for 1500000 steps
ETITLE: TS BOND ANGLE DIHED IMPRP ELECT VDW BOUNDARY MISC KINETIC TOTAL TEMP POTENTIAL TOTALAVG TEMPAVG PRESSURE GPRESSURE VOLUME PRESSAVG GPRESSAVG
ENERGY: 0 1.1198 6.1102 2.9531 0.0000 -10481.5823 1423.4469 0.0000 0.0000 1658.5395 -7389.4130 287.0065 -9047.9524 -7389.4130 287.0065 -305.7002 -214.1499 30593.4535 -305.7002 -214.1499
ENERGY: 300000 0.9032 7.7528 3.9927 0.0000 -10344.9614 1292.3077 0.0000 0.0000 1763.1981 -7276.8069 305.1175 -9040.0050 -7371.8785 297.9002 -836.2260 -762.4949 29951.7986 -265.3859 -204.7410
ENERGY: 600000 0.8199 7.3279 3.4641 0.0000 -10511.4356 1451.2572 0.0000 0.0000 1730.7899 -7317.7767 299.5093 -9048.5666 -7351.2102 299.3143 500.2096 551.6290 29916.7677 38.6809 94.8958
ENERGY: 900000 3.7428 8.1603 2.5128 0.0000 -10482.9341 1400.1322 0.0000 0.0000 1755.1553 -7313.2308 303.7257 -9068.3860 -7331.8489 301.6825 -123.4128 -43.4286 29987.5796 -14.9545 43.1868
ENERGY: 1200000 1.2191 7.8258 2.9466 0.0000 -10688.2563 1548.7380 0.0000 0.0000 1785.9794 -7341.5474 309.0597 -9127.5268 -7342.6911 300.9087 1010.2676 1074.6974 29637.8912 69.3152 133.2508
ENERGY: 1500000 0.4291 9.4513 2.2195 0.0000 -10389.3360 1308.6673 0.0000 0.0000 1719.1944 -7349.3745 297.5027 -9068.5688 -7347.4039 300.3110 -1120.5556 -1044.4101 30813.0153 -38.9370 21.0552
TCL: Running FEP window  11: Lambda1 0.4999999999999996 Lambda2 0.4499999999999996 [dLambda -0.04999999999999999]
TCL: Setting parameter firsttimestep to 0
TCL: Setting parameter alchLambda to 0.4999999999999996
Info: NONBONDED TABLE R-SQUARED SPACING: 0.0625
Info: NONBONDED TABLE SIZE: 705 POINTS
TCL: Setting parameter alchLambda2 to 0.4499999999999996
Info: NONBONDED TABLE R-SQUARED SPACING: 0.0625
Info: NONBONDED TABLE SIZE: 705 POINTS
TCL: Running for 1500000 steps
ETITLE: TS BOND ANGLE DIHED IMPRP ELECT VDW BOUNDARY MISC KINETIC TOTAL TEMP POTENTIAL TOTALAVG TEMPAVG PRESSURE GPRESSURE VOLUME PRESSAVG GPRESSAVG
ENERGY: 0 0.4291 9.4513 2.2195 0.0000 -10389.1928 1309.1125 0.0000 0.0000 1718.3599 -7349.6205 297.3583 -9067.9804 -7349.6205 297.3583 -1130.7578 -1044.5463 30813.0153 -1130.7578 -1044.5463
ENERGY: 300000 0.9934 4.8379 2.5339 0.0000 -10548.2287 1377.3565 0.0000 0.0000 1686.1517 -7476.3553 291.7848 -9162.5070 -7343.8757 303.5488 -670.1407 -586.9921 29945.0198 -368.5464 -279.9078
ENERGY: 600000 1.9420 6.5154 2.1209 0.0000 -10493.8059 1425.4466 0.0000 0.0000 1726.0445 -7331.7364 298.6881 -9057.7809 -7354.3207 301.8242 123.3954 204.1050 29677.9800 -200.2423 -101.5280
ENERGY: 900000 1.8595 8.2499 2.5146 0.0000 -10527.3743 1444.6471 0.0000 0.0000 1728.2049 -7341.8984 299.0620 -9070.1033 -7357.5860 300.4552 325.1624 356.3731 29710.1144 -224.7614 -129.2708
ENERGY: 1200000 0.9849 6.8804 3.4834 0.0000 -10633.7159 1513.1929 0.0000 0.0000 1761.9421 -7347.2321 304.9001 -9109.1742 -7361.4015 300.2442 1024.4563 1096.9985 29110.0453 -122.9392 -34.1983
ENERGY: 1500000 0.8820 7.8020 2.6723 0.0000 -10583.4479 1446.1106 0.0000 0.0000 1755.7456 -7370.2354 303.8278 -9125.9810 -7348.9390 301.2859 518.5425 542.5232 29386.9274 -89.7457 -5.6812
TCL: Running FEP window  12: Lambda1 0.4499999999999996 Lambda2 0.39999999999999963 [dLambda -0.04999999999999999]
TCL: Setting parameter firsttimestep to 0
TCL: Setting parameter alchLambda to 0.4499999999999996
Info: NONBONDED TABLE R-SQUARED SPACING: 0.0625
Info: NONBONDED TABLE SIZE: 705 POINTS
TCL: Setting parameter alchLambda2 to 0.39999999999999963
Info: NONBONDED TABLE R-SQUARED SPACING: 0.0625
Info: NONBONDED TABLE SIZE: 705 POINTS
TCL: Running for 1500000 steps
ETITLE: TS BOND ANGLE DIHED IMPRP ELECT VDW BOUNDARY MISC KINETIC TOTAL TEMP POTENTIAL TOTALAVG TEMPAVG PRESSURE GPRESSURE VOLUME PRESSAVG GPRESSAVG
ENERGY: 0 0.8820 7.8020 2.6723 0.0000 -10583.4476 1446.2302 0.0000 0.0000 1754.9136 -7370.9475 303.6839 -9125.8611 -7370.9475 303.6839 451.6372 538.2950 29386.9274 451.6372 538.2950
ENERGY: 300000 1.8191 5.8075 2.1073 0.0000 -10571.8109 1433.7385 0.0000 0.0000 1721.7447 -7406.5938 297.9441 -9128.3386 -7327.9458 303.7216 149.3102 212.1786 29647.0305 105.3061 148.8846
ENERGY: 600000 1.0799 9.4888 2.6743 0.0000 -10473.7958 1400.3759 0.0000 0.0000 1774.8058 -7285.3712 307.1262 -9060.1769 -7317.0689 303.6798 40.4333 93.2394 29700.0534 180.3373 230.1254
ENERGY: 900000 1.4092 7.7757 3.2077 0.0000 -10512.2984 1436.9091 0.0000 0.0000 1727.4853 -7335.5116 298.9375 -9062.9969 -7331.4924 301.9797 322.4156 338.7964 29826.0727 100.3227 148.0250
ENERGY: 1200000 3.3649 4.8010 3.2981 0.0000 -10447.4260 1398.9968 0.0000 0.0000 1752.1930 -7284.7723 303.2131 -9036.9652 -7328.0259 301.9330 -75.1647 -17.2797 29833.6189 11.5606 59.9623
ENERGY: 1500000 4.1568 5.6681 2.0795 0.0000 -10461.0686 1299.3274 0.0000 0.0000 1754.4386 -7395.3982 303.6017 -9149.8368 -7334.9918 301.7772 -1330.3924 -1289.8767 30135.1609 -53.4705 -5.3291
TCL: Running FEP window  13: Lambda1 0.39999999999999963 Lambda2 0.34999999999999964 [dLambda -0.04999999999999999]
TCL: Setting parameter firsttimestep to 0
TCL: Setting parameter alchLambda to 0.39999999999999963
Info: NONBONDED TABLE R-SQUARED SPACING: 0.0625
Info: NONBONDED TABLE SIZE: 705 POINTS
TCL: Setting parameter alchLambda2 to 0.34999999999999964
Info: NONBONDED TABLE R-SQUARED SPACING: 0.0625
Info: NONBONDED TABLE SIZE: 705 POINTS
TCL: Running for 1500000 steps
ETITLE: TS BOND ANGLE DIHED IMPRP ELECT VDW BOUNDARY MISC KINETIC TOTAL TEMP POTENTIAL TOTALAVG TEMPAVG PRESSURE GPRESSURE VOLUME PRESSAVG GPRESSAVG
ENERGY: 0 4.1568 5.6681 2.0795 0.0000 -10461.0701 1299.6561 0.0000 0.0000 1753.5780 -7395.9316 303.4528 -9149.5096 -7395.9316 303.4528 -1364.0910 -1290.1127 30135.1609 -1364.0910 -1290.1127
ENERGY: 300000 2.2640 9.1915 2.7114 0.0000 -10638.9738 1459.4974 0.0000 0.0000 1757.4656 -7407.8438 304.1255 -9165.3095 -7373.5144 303.4428 369.1032 358.8999 29360.9167 -474.1362 -425.3380
ENERGY: 600000 0.8317 7.8635 2.3942 0.0000 -10548.6588 1420.1951 0.0000 0.0000 1758.9541 -7358.4202 304.3831 -9117.3743 -7387.5555 301.8588 -200.5378 -173.7084 30356.8194 -572.2515 -514.4652
ENERGY: 900000 1.6619 3.9727 2.4155 0.0000 -10543.0860 1394.8099 0.0000 0.0000 1732.9091 -7407.3169 299.8760 -9140.2261 -7390.6931 301.1000 -285.7876 -203.6390 29597.4942 -410.5569 -349.4531
ENERGY: 1200000 2.8567 8.7427 2.2164 0.0000 -10610.1330 1474.4905 0.0000 0.0000 1794.3306 -7327.4961 310.5049 -9121.8267 -7384.6135 301.0975 169.4083 265.4339 30177.2703 -282.4020 -220.3656
ENERGY: 1500000 2.3251 10.0636 3.0559 0.0000 -10415.0725 1381.1766 0.0000 0.0000 1756.2992 -7262.1520 303.9237 -9018.4513 -7370.0547 300.9257 -423.9425 -393.1716 30635.9126 -312.3326 -254.6256
TCL: Running FEP window  14: Lambda1 0.34999999999999964 Lambda2 0.29999999999999966 [dLambda -0.04999999999999999]
TCL: Setting parameter firsttimestep to 0
TCL: Setting parameter alchLambda to 0.34999999999999964
Info: NONBONDED TABLE R-SQUARED SPACING: 0.0625
Info: NONBONDED TABLE SIZE: 705 POINTS
TCL: Setting parameter alchLambda2 to 0.29999999999999966
Info: NONBONDED TABLE R-SQUARED SPACING: 0.0625
Info: NONBONDED TABLE SIZE: 705 POINTS
TCL: Running for 1500000 steps
ETITLE: TS BOND ANGLE DIHED IMPRP ELECT VDW BOUNDARY MISC KINETIC TOTAL TEMP POTENTIAL TOTALAVG TEMPAVG PRESSURE GPRESSURE VOLUME PRESSAVG GPRESSAVG
ENERGY: 0 2.3251 10.0636 3.0559 0.0000 -10415.0709 1380.7465 0.0000 0.0000 1755.4677 -7263.4120 303.7798 -9018.8797 -7263.4120 303.7798 -485.5976 -399.6670 30635.9126 -485.5976 -399.6670
ENERGY: 300000 2.6114 11.8082 3.3284 0.0000 -10437.4599 1375.3813 0.0000 0.0000 1802.1421 -7242.1885 311.8566 -9044.3306 -7260.9373 305.5736 -372.9555 -306.7655 30155.2001 -358.8412 -293.2670
ENERGY: 600000 2.7445 11.7218 2.7744 0.0000 -10496.3646 1385.7207 0.0000 0.0000 1696.2809 -7397.1224 293.5376 -9093.4032 -7304.7400 302.0801 -289.6689 -217.4521 29579.9881 -177.7398 -121.3506
ENERGY: 900000 3.7593 4.9004 2.4288 0.0000 -10483.6647 1398.6593 0.0000 0.0000 1738.8955 -7335.0213 300.9120 -9073.9168 -7309.6694 301.8628 -216.1097 -146.3214 30134.9279 -211.6054 -150.4299
ENERGY: 1200000 1.2491 8.0665 2.8836 0.0000 -10564.5316 1421.3724 0.0000 0.0000 1693.5481 -7437.4120 293.0647 -9130.9600 -7332.0038 301.3533 14.4702 132.1269 29353.3593 -199.0126 -134.1720
ENERGY: 1500000 1.6272 7.3718 2.4025 0.0000 -10494.6307 1393.0182 0.0000 0.0000 1737.1977 -7353.0134 300.6182 -9090.2111 -7337.1378 301.3853 -308.3931 -228.6081 29869.3698 -201.8430 -141.6403
TCL: Running FEP window  15: Lambda1 0.29999999999999966 Lambda2 0.24999999999999967 [dLambda -0.04999999999999999]
TCL: Setting parameter firsttimestep to 0
TCL: Setting parameter alchLambda to 0.29999999999999966
Info: NONBONDED TABLE R-SQUARED SPACING: 0.0625
Info: NONBONDED TABLE SIZE: 705 POINTS
TCL: Setting parameter alchLambda2 to 0.24999999999999967
Info: NONBONDED TABLE R-SQUARED SPACING: 0.0625
Info: NONBONDED TABLE SIZE: 705 POINTS
TCL: Running for 1500000 steps
ETITLE: TS BOND ANGLE DIHED IMPRP ELECT VDW BOUNDARY MISC KINETIC TOTAL TEMP POTENTIAL TOTALAVG TEMPAVG PRESSURE GPRESSURE VOLUME PRESSAVG GPRESSAVG
ENERGY: 0 1.6272 7.3718 2.4025 0.0000 -10494.6321 1392.9701 0.0000 0.0000 1736.3565 -7353.9040 300.4726 -9090.2605 -7353.9040 300.4726 -312.4629 -230.6994 29869.3698 -312.4629 -230.6994
ENERGY: 300000 0.5180 7.9573 2.6435 0.0000 -10459.7020 1409.6325 0.0000 0.0000 1791.7471 -7247.2038 310.0578 -9038.9508 -7320.4276 303.3564 55.7666 129.6304 29838.1541 -71.6450 -4.3406
ENERGY: 600000 2.5433 4.5308 2.5171 0.0000 -10414.3858 1379.0912 0.0000 0.0000 1765.4417 -7260.2616 305.5057 -9025.7033 -7327.9622 302.6138 -18.5382 31.2833 29600.5649 256.7553 321.4372
ENERGY: 900000 6.4040 8.1199 3.9369 0.0000 -10589.3245 1443.5703 0.0000 0.0000 1790.3127 -7336.9807 309.8096 -9127.2934 -7329.7237 303.6880 249.2709 270.1467 29561.1789 123.4267 186.7169
ENERGY: 1200000 0.8838 6.5654 3.4564 0.0000 -10619.3755 1441.7799 0.0000 0.0000 1789.4733 -7377.2166 309.6644 -9166.6900 -7338.8657 303.4835 4.4942 131.2934 29527.4797 56.9603 121.2075
ENERGY: 1500000 3.3971 6.8606 2.5183 0.0000 -10403.9042 1343.4596 0.0000 0.0000 1752.9201 -7294.7484 303.3389 -9047.6685 -7344.1638 303.2412 -601.3769 -591.6021 30183.3637 1.6534 58.9452
TCL: Running FEP window  16: Lambda1 0.24999999999999967 Lambda2 0.19999999999999968 [dLambda -0.04999999999999999]
TCL: Setting parameter firsttimestep to 0
TCL: Setting parameter alchLambda to 0.24999999999999967
Info: NONBONDED TABLE R-SQUARED SPACING: 0.0625
Info: NONBONDED TABLE SIZE: 705 POINTS
TCL: Setting parameter alchLambda2 to 0.19999999999999968
Info: NONBONDED TABLE R-SQUARED SPACING: 0.0625
Info: NONBONDED TABLE SIZE: 705 POINTS
TCL: Running for 1500000 steps
ETITLE: TS BOND ANGLE DIHED IMPRP ELECT VDW BOUNDARY MISC KINETIC TOTAL TEMP POTENTIAL TOTALAVG TEMPAVG PRESSURE GPRESSURE VOLUME PRESSAVG GPRESSAVG
ENERGY: 0 3.3972 6.8606 2.5183 0.0000 -10403.9037 1343.3554 0.0000 0.0000 1752.0512 -7295.7211 303.1885 -9047.7723 -7295.7211 303.1885 -678.5717 -599.4621 30183.3637 -678.5717 -599.4621
ENERGY: 300000 0.8729 5.4707 2.7585 0.0000 -10560.8942 1428.3846 0.0000 0.0000 1721.3551 -7402.0525 297.8766 -9123.4075 -7331.9897 302.6142 -75.7776 13.6708 29690.8406 186.2728 277.2130
ENERGY: 600000 2.0005 6.8633 3.1097 0.0000 -10450.6558 1386.1824 0.0000 0.0000 1687.6143 -7364.8856 292.0379 -9052.4999 -7346.3060 299.5936 -518.6428 -476.2434 30263.3916 32.1559 118.7722
ENERGY: 900000 3.2430 6.2507 3.6291 0.0000 -10546.3480 1525.4601 0.0000 0.0000 1756.9475 -7250.8175 304.0358 -9007.7650 -7326.7226 300.5421 758.2304 812.3515 30203.5113 185.2016 268.3522
ENERGY: 1200000 3.1634 6.9294 2.7040 0.0000 -10503.3143 1431.3769 0.0000 0.0000 1712.4894 -7346.6512 296.3425 -9059.1406 -7334.9770 300.4602 171.6307 270.2802 29845.2775 98.1227 180.7805
ENERGY: 1500000 1.9563 6.6949 2.1729 0.0000 -10487.6187 1397.3876 0.0000 0.0000 1752.3643 -7327.0427 303.2427 -9079.4070 -7350.5542 300.7953 -154.7303 -217.6489 29912.6897 -8.6890 62.4132
TCL: Running FEP window  17: Lambda1 0.19999999999999968 Lambda2 0.1499999999999997 [dLambda -0.04999999999999999]
TCL: Setting parameter firsttimestep to 0
TCL: Setting parameter alchLambda to 0.19999999999999968
Info: NONBONDED TABLE R-SQUARED SPACING: 0.0625
Info: NONBONDED TABLE SIZE: 705 POINTS
TCL: Setting parameter alchLambda2 to 0.1499999999999997
Info: NONBONDED TABLE R-SQUARED SPACING: 0.0625
Info: NONBONDED TABLE SIZE: 705 POINTS
TCL: Running for 1500000 steps
ETITLE: TS BOND ANGLE DIHED IMPRP ELECT VDW BOUNDARY MISC KINETIC TOTAL TEMP POTENTIAL TOTALAVG TEMPAVG PRESSURE GPRESSURE VOLUME PRESSAVG GPRESSAVG
ENERGY: 0 1.9563 6.6949 2.1729 0.0000 -10487.6185 1397.5186 0.0000 0.0000 1751.4844 -7327.7915 303.0905 -9079.2759 -7327.7915 303.0905 -299.9157 -215.7498 29912.6897 -299.9157 -215.7498
ENERGY: 300000 0.9298 13.8256 2.6531 0.0000 -10436.2518 1342.2101 0.0000 0.0000 1790.8454 -7285.7878 309.9018 -9076.6332 -7355.1642 301.5521 -564.4446 -536.6193 29828.0448 -203.4671 -141.0671
ENERGY: 600000 0.9668 14.1002 3.4862 0.0000 -10451.1598 1366.5741 0.0000 0.0000 1736.6856 -7329.3469 300.5296 -9066.0325 -7340.0745 301.9610 -185.7549 -99.4107 29560.9129 -283.3097 -218.3000
ENERGY: 900000 0.6323 7.9408 3.1613 0.0000 -10532.8254 1412.7302 0.0000 0.0000 1724.1018 -7384.2590 298.3520 -9108.3608 -7354.8155 301.7442 -80.7614 -7.2876 29602.8829 -200.7672 -137.1774
ENERGY: 1200000 3.0144 12.2009 2.5618 0.0000 -10681.3011 1495.0549 0.0000 0.0000 1752.7239 -7415.7452 303.3049 -9168.4690 -7364.9832 301.3472 380.4247 459.7353 29289.4293 -94.2852 -32.0013
ENERGY: 1500000 2.0122 6.7129 2.2455 0.0000 -10520.0995 1429.8262 0.0000 0.0000 1734.7623 -7344.5405 300.1967 -9079.3028 -7354.0706 301.6525 320.8611 325.9942 29537.9478 -101.9973 -42.4885
TCL: Running FEP window  18: Lambda1 0.1499999999999997 Lambda2 0.09999999999999969 [dLambda -0.05 ]
TCL: Setting parameter firsttimestep to 0
TCL: Setting parameter alchLambda to 0.1499999999999997
Info: NONBONDED TABLE R-SQUARED SPACING: 0.0625
Info: NONBONDED TABLE SIZE: 705 POINTS
TCL: Setting parameter alchLambda2 to 0.09999999999999969
Info: NONBONDED TABLE R-SQUARED SPACING: 0.0625
Info: NONBONDED TABLE SIZE: 705 POINTS
TCL: Running for 1500000 steps
ETITLE: TS BOND ANGLE DIHED IMPRP ELECT VDW BOUNDARY MISC KINETIC TOTAL TEMP POTENTIAL TOTALAVG TEMPAVG PRESSURE GPRESSURE VOLUME PRESSAVG GPRESSAVG
ENERGY: 0 2.0122 6.7129 2.2455 0.0000 -10520.0996 1429.8361 0.0000 0.0000 1733.8961 -7345.3968 300.0468 -9079.2929 -7345.3968 300.0468 234.1437 324.1156 29537.9478 234.1437 324.1156
ENERGY: 300000 0.3481 12.0334 2.6694 0.0000 -10469.0487 1443.5431 0.0000 0.0000 1753.6215 -7256.8333 303.4603 -9010.4548 -7356.6810 296.9383 285.1403 378.1108 30090.1306 155.0614 208.9345
ENERGY: 600000 2.0085 7.1451 3.1024 0.0000 -10585.7343 1450.9297 0.0000 0.0000 1780.0626 -7342.4861 308.0358 -9122.5487 -7368.3197 298.0702 277.4490 390.4154 29334.8991 152.1097 205.2677
ENERGY: 900000 1.4727 7.4021 2.0515 0.0000 -10408.3161 1356.0222 0.0000 0.0000 1724.2331 -7317.1345 298.3747 -9041.3675 -7359.0450 297.9970 -389.3247 -277.4848 29714.8795 68.9340 128.3317
ENERGY: 1200000 3.1880 6.6163 2.1664 0.0000 -10499.2022 1438.0855 0.0000 0.0000 1739.5862 -7309.5597 301.0315 -9049.1459 -7358.1276 299.1012 98.8742 136.2045 29606.8268 78.4781 133.1992
ENERGY: 1500000 0.3785 6.3723 2.9251 0.0000 -10619.7151 1458.0354 0.0000 0.0000 1717.6595 -7434.3443 297.2371 -9152.0038 -7361.8731 299.1930 -169.1902 -135.7492 30137.0013 71.4307 128.4057
TCL: Running FEP window  19: Lambda1 0.09999999999999969 Lambda2 0.049999999999999684 [dLambda -0.05 ]
TCL: Setting parameter firsttimestep to 0
TCL: Setting parameter alchLambda to 0.09999999999999969
Info: NONBONDED TABLE R-SQUARED SPACING: 0.0625
Info: NONBONDED TABLE SIZE: 705 POINTS
TCL: Setting parameter alchLambda2 to 0.049999999999999684
Info: NONBONDED TABLE R-SQUARED SPACING: 0.0625
Info: NONBONDED TABLE SIZE: 705 POINTS
TCL: Running for 1500000 steps
ETITLE: TS BOND ANGLE DIHED IMPRP ELECT VDW BOUNDARY MISC KINETIC TOTAL TEMP POTENTIAL TOTALAVG TEMPAVG PRESSURE GPRESSURE VOLUME PRESSAVG GPRESSAVG
ENERGY: 0 0.3785 6.3723 2.9251 0.0000 -10619.7161 1458.3779 0.0000 0.0000 1716.8133 -7434.8490 297.0907 -9151.6623 -7434.8490 297.0907 -224.7998 -135.8583 30137.0013 -224.7998 -135.8583
ENERGY: 300000 0.5380 6.9251 3.4516 0.0000 -10641.0868 1489.5030 0.0000 0.0000 1782.3451 -7358.3241 308.4308 -9140.6692 -7370.0496 302.1282 551.1751 581.4274 29530.3712 -46.8236 21.5771
ENERGY: 600000 1.7437 6.8482 3.5457 0.0000 -10560.2843 1438.6243 0.0000 0.0000 1704.3909 -7405.1315 294.9410 -9109.5224 -7373.7373 299.2955 -82.2147 -3.1440 29896.7522 -164.4891 -106.9876
ENERGY: 900000 0.8746 7.0077 2.2205 0.0000 -10282.3796 1294.4027 0.0000 0.0000 1734.3555 -7243.5187 300.1263 -8977.8742 -7347.5399 300.7340 -713.1985 -705.6048 30208.0021 -226.8851 -168.9180
ENERGY: 1200000 0.9766 7.0870 2.9837 0.0000 -10592.0825 1472.6457 0.0000 0.0000 1742.9546 -7365.4349 301.6144 -9108.3895 -7354.4781 300.5725 569.8729 572.5668 29681.6280 -161.4774 -106.2739
ENERGY: 1500000 2.6943 5.6948 2.3157 0.0000 -10412.5022 1339.1329 0.0000 0.0000 1778.4229 -7284.2415 307.7521 -9062.6644 -7350.8534 300.4321 -646.3352 -608.8360 29967.0138 -190.5156 -141.8209
TCL: Running FEP window  20: Lambda1 0.049999999999999684 Lambda2 0.0    [dLambda -0.049999999999999684]
TCL: Setting parameter firsttimestep to 0
TCL: Setting parameter alchLambda to 0.049999999999999684
Info: NONBONDED TABLE R-SQUARED SPACING: 0.0625
Info: NONBONDED TABLE SIZE: 705 POINTS
TCL: Setting parameter alchLambda2 to 0.0
Info: NONBONDED TABLE R-SQUARED SPACING: 0.0625
Info: NONBONDED TABLE SIZE: 705 POINTS
TCL: Running for 1500000 steps
ETITLE: TS BOND ANGLE DIHED IMPRP ELECT VDW BOUNDARY MISC KINETIC TOTAL TEMP POTENTIAL TOTALAVG TEMPAVG PRESSURE GPRESSURE VOLUME PRESSAVG GPRESSAVG
ENERGY: 0 2.6943 5.6948 2.3157 0.0000 -10412.5023 1338.8301 0.0000 0.0000 1777.5667 -7285.4007 307.6039 -9062.9674 -7285.4007 307.6039 -689.5289 -612.7059 29967.0138 -689.5289 -612.7059
ENERGY: 300000 0.6939 5.1960 2.8163 0.0000 -10394.0028 1355.6870 0.0000 0.0000 1754.0939 -7275.5157 303.5420 -9029.6096 -7290.7669 303.8741 -158.0598 -170.9662 29740.1048 73.6075 122.1338
ENERGY: 600000 1.3823 7.7233 2.4890 0.0000 -10525.0541 1440.1980 0.0000 0.0000 1721.2710 -7351.9907 297.8621 -9073.2616 -7309.1062 301.9149 364.8121 336.2127 29737.6507 86.2758 122.7030
ENERGY: 900000 2.0600 5.2730 2.1971 0.0000 -10557.5402 1431.4521 0.0000 0.0000 1725.5191 -7391.0390 298.5972 -9116.5582 -7337.4262 301.1237 82.4894 174.8330 29499.9046 -6.3499 38.8119
ENERGY: 1200000 1.0654 7.5698 2.5396 0.0000 -10540.2569 1405.5054 0.0000 0.0000 1761.4385 -7362.1382 304.8130 -9123.5767 -7332.5367 301.2723 -146.7787 -78.2467 29610.3895 -7.4644 51.1766
ENERGY: 1500000 2.1915 4.4275 2.8555 0.0000 -10559.0677 1379.0005 0.0000 0.0000 1793.7656 -7376.8271 310.4071 -9170.5926 -7345.4664 301.2225 -403.2046 -375.6314 29546.7535 -10.6810 44.0185
TCL: Exiting due to exit command.
