Info: SIMULATION PARAMETERS:
Info: TIMESTEP               2
Info: NUMBER OF STEPS        0
Info: STEPS PER CYCLE        10
Info: PERIODIC CELL BASIS 1  31.6192 0 0
Info: PERIODIC CELL BASIS 2  0 29.9462 0
Info: PERIODIC CELL BASIS 3  0 0 32.0434
Info: PERIODIC CELL CENTER   0 0 0
Info: WRAPPING WATERS AROUND PERIODIC BOUNDARIES ON OUTPUT.
Info: WRAPPING ALL CLUSTERS AROUND PERIODIC BOUNDARIES ON OUTPUT.
Info: FIRST LDB TIMESTEP     50
Info: LAST LDB TIMESTEP     -1
Info: HOM BACKGROUND SCALING 1
Info: PME BACKGROUND SCALING 1
Info: MIN ATOMS PER PATCH    40
Info: EMPTY PATCH LOAD       40 ATOMS
Info: VELOCITY FILE          mobley_3452749_equil.vel
Info: CENTER OF MASS MOVING INITIALLY? NO
Info: DIELECTRIC             1
Info: EXCLUDE                SCALED ONE-FOUR
Info: 1-4 ELECTROSTATICS SCALED BY 0.833333
Info: MODIFIED 1-4 VDW PARAMETERS WILL BE USED
Info: DCD FILENAME           mobley_3452749_prod.dcd
Info: DCD FREQUENCY          100000
Info: DCD FIRST STEP         100000
Info: DCD FILE WILL CONTAIN UNIT CELL DATA
Info: XST FILENAME           mobley_3452749_prod.xst
Info: XST FREQUENCY          100000
Info: NO VELOCITY DCD OUTPUT
Info: NO FORCE DCD OUTPUT
Info: OUTPUT FILENAME        mobley_3452749_prod
Info: BINARY OUTPUT FILES WILL BE USED
Info: RESTART FILENAME       mobley_3452749_prod.restart
Info: RESTART FREQUENCY      100000
Info: BINARY RESTART FILES WILL BE USED
Info: CUTOFF                 9
Info: PAIRLIST DISTANCE      11
Info: PAIRLIST SHRINK RATE   0.01
Info: PAIRLIST GROW RATE     0.01
Info: PAIRLIST TRIGGER       0.3
Info: PAIRLISTS PER CYCLE    2
Info: PAIRLISTS ENABLED
Info: MARGIN                 2
Info: HYDROGEN GROUP CUTOFF  2.5
Info: PATCH DIMENSION        15.5
Info: ENERGY OUTPUT STEPS    100000
Info: ENERGY EVALUATION STEPS    100000
Info: OUTPUT ENERGY PRECISION 4
Info: CROSSTERM ENERGY INCLUDED IN DIHEDRAL
Info: TIMING OUTPUT STEPS    1000000
Info: PRESSURE OUTPUT STEPS  100000
Info: ALCHEMICAL FEP ON
Info: FEP CURRENT LAMBDA VALUE     1
Info: FEP COMPARISON LAMBDA VALUE  0.95
Info: FEP INTRA-ALCHEMICAL NON-BONDED INTERACTIONS WILL BE RETAINED
Info: FEP INTRA-ALCHEMICAL BONDED INTERACTIONS WILL BE RETAINED
Info: FEP VDW SHIFTING COEFFICIENT 5
Info: FEP ELEC. ACTIVE FOR ANNIHILATED PARTICLES BETWEEN LAMBDA = 0 AND LAMBDA = 0.5
Info: FEP ELEC. ACTIVE FOR EXNIHILATED PARTICLES BETWEEN LAMBDA = 0.5 AND LAMBDA = 1
Info: FEP VDW ACTIVE FOR ANNIHILATED PARTICLES BETWEEN LAMBDA = 0 AND LAMBDA = 1
Info: FEP VDW ACTIVE FOR EXNIHILATED PARTICLES BETWEEN LAMBDA = 0 AND LAMBDA = 1
Info: FEP BOND ACTIVE FOR ANNIHILATED PARTICLES BETWEEN LAMBDA = 1 AND LAMBDA = 1
Info: FEP BOND ACTIVE FOR EXNIHILATED PARTICLES BETWEEN LAMBDA = 0 AND LAMBDA = 0
Info: LANGEVIN DYNAMICS ACTIVE
Info: LANGEVIN TEMPERATURE   300
Info: LANGEVIN USING BBK INTEGRATOR
Info: LANGEVIN DAMPING COEFFICIENT IS 1 INVERSE PS
Info: LANGEVIN DYNAMICS APPLIED TO HYDROGENS
Info: LANGEVIN PISTON PRESSURE CONTROL ACTIVE
Info:        TARGET PRESSURE IS 1.01325 BAR
Info:     OSCILLATION PERIOD IS 50 FS
Info:             DECAY TIME IS 25 FS
Info:     PISTON TEMPERATURE IS 300 K
Info:       PRESSURE CONTROL IS GROUP-BASED
Info:    INITIAL STRAIN RATE IS -9.54408e-05 -9.54408e-05 -9.54408e-05
Info:       CELL FLUCTUATION IS ISOTROPIC
Info: PARTICLE MESH EWALD (PME) ACTIVE
Info: PME TOLERANCE               1e-06
Info: PME EWALD COEFFICIENT       0.348832
Info: PME INTERPOLATION ORDER     4
Info: PME GRID DIMENSIONS         32 32 36
Info: PME MAXIMUM GRID SPACING    1
Info: PME CALCULATION WILL BE PERFORMED ON GPU
Info: FULL ELECTROSTATIC EVALUATION FREQUENCY      2
Info: USING VERLET I (r-RESPA) MTS SCHEME.
Info: C1 SPLITTING OF LONG RANGE ELECTROSTATICS
Info: PLACING ATOMS IN PATCHES BY HYDROGEN GROUPS
Info: RIGID BONDS TO HYDROGEN : ALL
Info:         ERROR TOLERANCE : 1e-08
Info:          MAX ITERATIONS : 100
Info: RIGID WATER USING SETTLE ALGORITHM
Info: RANDOM NUMBER SEED     1743639269
Info: USE HYDROGEN BONDS?    NO
Info: Using AMBER format force field!
Info: AMBER PARM FILE        mobley_3452749.prmtop
Info: COORDINATE PDB         mobley_3452749.pdb
Info: Exclusions will be read from PARM file!
Info: SCNB (VDW SCALING)     2
Info: USING ARITHMETIC MEAN TO COMBINE L-J SIGMA PARAMETERS
Info: BINARY COORDINATES     mobley_3452749_equil.coor
Info: SUMMARY OF PARAMETERS:
Info: 6 BONDS
Info: 5 ANGLES
Info:   5 HARMONIC
Info:   0 COSINE-BASED
Info: 3 DIHEDRAL
Info: 0 IMPROPER
Info: 0 CROSSTERM
Info: 0 VDW
Info: 21 VDW_PAIRS
Info: 0 NBTHOLE_PAIRS
Info: To read alchdata from file: mobley_3452749.pdb
Info: To read alchflag data from column: 5
Info: STRUCTURE SUMMARY:
Info: 2985 ATOMS
Info: 2985 BONDS
Info: 36 ANGLES
Info: 48 DIHEDRALS
Info: 0 IMPROPERS
Info: 0 CROSSTERMS
Info: 3060 EXCLUSIONS
Info: 2976 RIGID BONDS
Info: ALCH: 0 ATOMS TO DISAPPEAR IN FINAL STATE
Info: ALCH: 21 ATOMS TO APPEAR IN FINAL STATE
Info: 5979 DEGREES OF FREEDOM
Info: 997 HYDROGEN GROUPS
Info: 4 ATOMS IN LARGEST HYDROGEN GROUP
Info: 997 MIGRATION GROUPS
Info: 4 ATOMS IN LARGEST MIGRATION GROUP
Info: TOTAL MASS = 17920 amu
Info: TOTAL CHARGE = 0.00010002 e
Info: MASS DENSITY = 0.980768 g/cm^3
Info: ATOM DENSITY = 0.0983815 atoms/A^3
Info: ADDED 0 IMPLICIT EXCLUSIONS
Info: NONBONDED TABLE R-SQUARED SPACING: 0.0625
Info: NONBONDED TABLE SIZE: 705 POINTS
Info: REMOVING COM VELOCITY -0.0294365 -0.175043 0.0990838
Info: Use 3D box decompostion in PME FFT.
Info: Updated CUDA force table with 4096 elements.
Info: Updated CUDA LJ table with 6 x 6 elements.
Info: Found 19 unique exclusion lists needing 52 bytes
TCL: Running for 1500000 steps
ETITLE: TS BOND ANGLE DIHED IMPRP ELECT VDW BOUNDARY MISC KINETIC TOTAL TEMP POTENTIAL TOTALAVG TEMPAVG PRESSURE GPRESSURE VOLUME PRESSAVG GPRESSAVG
ENERGY: 0 2.3934 12.5150 1.8405 0.0000 -10839.0673 1456.3058 0.0000 0.0000 1769.8893 -7596.1233 297.9257 -9366.0126 -7596.1233 297.9257 49.6810 137.0869 30341.0678 49.6810 137.0869
ENERGY: 300000 5.1846 7.3113 2.2839 0.0000 -10755.4104 1390.4898 0.0000 0.0000 1844.1955 -7505.9454 310.4336 -9350.1408 -7549.1813 300.8417 -603.0161 -557.4852 30662.4033 -86.0840 -6.9188
ENERGY: 600000 2.0656 5.5496 2.2131 0.0000 -10737.4342 1377.1702 0.0000 0.0000 1802.9163 -7547.5193 303.4851 -9350.4356 -7546.0649 299.6872 -505.3801 -420.9285 30628.5196 -124.6746 -54.6745
ENERGY: 900000 2.0708 8.1869 5.0970 0.0000 -10674.7818 1428.3036 0.0000 0.0000 1795.3385 -7435.7850 302.2095 -9231.1235 -7546.5826 299.6080 195.9348 238.9459 30750.1707 -166.7327 -99.4931
ENERGY: 1200000 5.0590 10.3510 2.5219 0.0000 -10873.2582 1490.8072 0.0000 0.0000 1807.9166 -7556.6026 304.3268 -9364.5192 -7552.8485 300.1025 184.8088 211.1127 30547.5716 -183.3222 -116.9784
ENERGY: 1500000 1.1737 9.1114 2.5329 0.0000 -10784.4167 1495.5734 0.0000 0.0000 1839.1706 -7436.8546 309.5878 -9276.0252 -7546.1895 300.2854 406.2715 440.1165 30699.3060 -125.4207 -65.5667
TCL: Running FEP window   2: Lambda1 0.95   Lambda2 0.8999999999999999 [dLambda -0.050000000000000044]
TCL: Setting parameter firsttimestep to 0
TCL: Setting parameter alchLambda to 0.95
Info: NONBONDED TABLE R-SQUARED SPACING: 0.0625
Info: NONBONDED TABLE SIZE: 705 POINTS
TCL: Setting parameter alchLambda2 to 0.8999999999999999
Info: NONBONDED TABLE R-SQUARED SPACING: 0.0625
Info: NONBONDED TABLE SIZE: 705 POINTS
TCL: Running for 1500000 steps
ETITLE: TS BOND ANGLE DIHED IMPRP ELECT VDW BOUNDARY MISC KINETIC TOTAL TEMP POTENTIAL TOTALAVG TEMPAVG PRESSURE GPRESSURE VOLUME PRESSAVG GPRESSAVG
ENERGY: 0 1.1737 9.1114 2.5330 0.0000 -10783.3315 1495.3317 0.0000 0.0000 1838.2727 -7436.9089 309.4367 -9275.1816 -7436.9089 309.4367 338.1416 423.7264 30699.3060 338.1416 423.7264
ENERGY: 300000 5.0249 8.7456 3.4815 0.0000 -10747.7306 1415.6524 0.0000 0.0000 1784.4550 -7530.3712 300.3775 -9314.8262 -7527.2510 302.2691 -97.0238 -11.7555 30396.1107 -112.0785 -34.7962
ENERGY: 600000 4.7040 7.2384 2.0406 0.0000 -10776.2974 1451.5611 0.0000 0.0000 1814.4230 -7496.3303 305.4220 -9310.7533 -7524.9986 301.5340 -25.0633 32.2637 30743.6455 50.1687 124.1288
ENERGY: 900000 3.3832 9.4160 1.8539 0.0000 -10722.2502 1385.4579 0.0000 0.0000 1815.2249 -7506.9144 305.5570 -9322.1392 -7539.3841 300.0845 -524.5048 -481.7210 31219.7325 -15.4385 52.7835
ENERGY: 1200000 3.9031 9.6508 2.5325 0.0000 -10898.5437 1483.8175 0.0000 0.0000 1835.5604 -7563.0794 308.9801 -9398.6398 -7536.4917 301.5261 -34.2540 37.8932 30739.6211 -3.4626 67.0708
ENERGY: 1500000 2.4651 7.2015 1.6674 0.0000 -10876.5521 1540.1882 0.0000 0.0000 1686.6039 -7638.4260 283.9062 -9325.0299 -7540.9563 300.0076 828.2423 822.9952 30611.9233 74.7474 138.5988
TCL: Running FEP window   3: Lambda1 0.8999999999999999 Lambda2 0.8499999999999999 [dLambda -0.050000000000000044]
TCL: Setting parameter firsttimestep to 0
TCL: Setting parameter alchLambda to 0.8999999999999999
Info: NONBONDED TABLE R-SQUARED SPACING: 0.0625
Info: NONBONDED TABLE SIZE: 705 POINTS
TCL: Setting parameter alchLambda2 to 0.8499999999999999
Info: NONBONDED TABLE R-SQUARED SPACING: 0.0625
Info: NONBONDED TABLE SIZE: 705 POINTS
TCL: Running for 1500000 steps
ETITLE: TS BOND ANGLE DIHED IMPRP ELECT VDW BOUNDARY MISC KINETIC TOTAL TEMP POTENTIAL TOTALAVG TEMPAVG PRESSURE GPRESSURE VOLUME PRESSAVG GPRESSAVG
ENERGY: 0 2.4651 7.2015 1.6674 0.0000 -10876.2503 1540.7487 0.0000 0.0000 1685.7529 -7638.4147 283.7630 -9324.1676 -7638.4147 283.7630 736.2011 816.3891 30611.9233 736.2011 816.3891
ENERGY: 300000 3.0275 7.8195 3.1752 0.0000 -10862.0022 1491.7023 0.0000 0.0000 1770.7505 -7585.5272 298.0706 -9356.2777 -7550.8310 298.3814 -10.3550 77.1951 31193.0530 318.7989 380.1813
ENERGY: 600000 7.1206 8.7309 1.8755 0.0000 -10833.3913 1480.4380 0.0000 0.0000 1848.2478 -7486.9786 311.1158 -9335.2264 -7538.5749 300.3454 50.6233 103.4848 30889.6078 37.5963 102.2959
ENERGY: 900000 2.6151 9.8553 2.0994 0.0000 -10564.5099 1245.8853 0.0000 0.0000 1769.6696 -7534.3852 297.8887 -9304.0548 -7541.0663 299.8005 -1724.8919 -1677.1874 31215.9561 -129.5360 -60.8344
ENERGY: 1200000 3.3386 6.1944 1.9867 0.0000 -10670.9911 1352.8621 0.0000 0.0000 1773.8789 -7532.7303 298.5972 -9306.6092 -7546.4719 299.3101 -844.2374 -836.5393 31117.1636 -108.8391 -42.3279
ENERGY: 1500000 4.6581 9.9139 2.5035 0.0000 -10672.5060 1322.4511 0.0000 0.0000 1792.4495 -7540.5299 301.7232 -9332.9794 -7549.1653 299.0561 -1011.8534 -915.9190 30511.0656 -205.8930 -136.8828
TCL: Running FEP window   4: Lambda1 0.8499999999999999 Lambda2 0.7999999999999998 [dLambda -0.050000000000000044]
TCL: Setting parameter firsttimestep to 0
TCL: Setting parameter alchLambda to 0.8499999999999999
Info: NONBONDED TABLE R-SQUARED SPACING: 0.0625
Info: NONBONDED TABLE SIZE: 705 POINTS
TCL: Setting parameter alchLambda2 to 0.7999999999999998
Info: NONBONDED TABLE R-SQUARED SPACING: 0.0625
Info: NONBONDED TABLE SIZE: 705 POINTS
TCL: Running for 1500000 steps
ETITLE: TS BOND ANGLE DIHED IMPRP ELECT VDW BOUNDARY MISC KINETIC TOTAL TEMP POTENTIAL TOTALAVG TEMPAVG PRESSURE GPRESSURE VOLUME PRESSAVG GPRESSAVG
ENERGY: 0 4.6581 9.9139 2.5035 0.0000 -10672.0207 1322.5208 0.0000 0.0000 1791.5949 -7540.8294 301.5794 -9332.4243 -7540.8294 301.5794 -1017.9696 -927.6139 30511.0656 -1017.9696 -927.6139
ENERGY: 300000 3.9941 7.0470 3.0858 0.0000 -10892.8980 1450.8701 0.0000 0.0000 1756.6394 -7671.2618 295.6953 -9427.9011 -7609.2702 298.7446 -281.0634 -246.0099 30532.2219 -443.0236 -369.5104
ENERGY: 600000 3.1130 11.7441 2.9377 0.0000 -10773.3887 1490.5383 0.0000 0.0000 1792.7459 -7472.3097 301.7731 -9265.0556 -7550.3681 301.2947 158.6702 210.2661 31413.9559 -283.9038 -216.4792
ENERGY: 900000 1.7535 10.3628 2.6390 0.0000 -10652.5398 1352.4430 0.0000 0.0000 1777.0737 -7508.2678 299.1350 -9285.3416 -7541.3210 301.4889 -743.8704 -683.2918 31035.9366 -341.0240 -277.7062
ENERGY: 1200000 4.7041 8.0645 2.4912 0.0000 -10794.2870 1397.3337 0.0000 0.0000 1742.0581 -7639.6355 293.2409 -9381.6936 -7558.6110 300.4789 -504.6638 -446.3198 30425.7040 -294.1810 -228.3194
ENERGY: 1500000 4.7602 9.2594 4.3256 0.0000 -10713.2415 1405.9263 0.0000 0.0000 1822.5688 -7466.4011 306.7932 -9288.9699 -7553.5640 300.8276 -110.2981 -87.8438 30696.9253 -268.0371 -206.1017
TCL: Running FEP window   5: Lambda1 0.7999999999999998 Lambda2 0.7499999999999998 [dLambda -0.050000000000000044]
TCL: Setting parameter firsttimestep to 0
TCL: Setting parameter alchLambda to 0.7999999999999998
Info: NONBONDED TABLE R-SQUARED SPACING: 0.0625
Info: NONBONDED TABLE SIZE: 705 POINTS
TCL: Setting parameter alchLambda2 to 0.7499999999999998
Info: NONBONDED TABLE R-SQUARED SPACING: 0.0625
Info: NONBONDED TABLE SIZE: 705 POINTS
TCL: Running for 1500000 steps
ETITLE: TS BOND ANGLE DIHED IMPRP ELECT VDW BOUNDARY MISC KINETIC TOTAL TEMP POTENTIAL TOTALAVG TEMPAVG PRESSURE GPRESSURE VOLUME PRESSAVG GPRESSAVG
ENERGY: 0 4.7601 9.2595 4.3256 0.0000 -10713.2842 1406.4931 0.0000 0.0000 1821.7012 -7466.7446 306.6472 -9288.4458 -7466.7446 306.6472 -172.7242 -92.7551 30696.9253 -172.7242 -92.7551
ENERGY: 300000 3.1689 7.2903 5.4157 0.0000 -10729.3298 1364.9649 0.0000 0.0000 1761.8896 -7586.6003 296.5791 -9348.4899 -7540.4299 300.2226 -1092.2526 -988.3057 31236.6066 -264.1907 -186.0314
ENERGY: 600000 3.8121 8.4172 1.5720 0.0000 -10775.6933 1418.9993 0.0000 0.0000 1796.0972 -7546.7954 302.3373 -9342.8926 -7552.1115 300.1420 -14.3747 60.5081 30105.0311 -343.6822 -282.4596
ENERGY: 900000 1.3440 9.7244 6.5658 0.0000 -10883.7795 1499.4630 0.0000 0.0000 1746.4099 -7620.2725 293.9734 -9366.6823 -7563.7447 298.0902 140.7773 153.7755 30953.0840 -278.9275 -223.3053
ENERGY: 1200000 3.9363 6.6330 5.3306 0.0000 -10667.1331 1371.1885 0.0000 0.0000 1795.4713 -7484.5734 302.2319 -9280.0447 -7564.7943 297.8274 -656.0769 -519.0862 30877.1678 -229.6834 -173.4924
ENERGY: 1500000 4.8597 6.0859 3.2931 0.0000 -10798.8800 1461.2066 0.0000 0.0000 1807.4195 -7516.0151 304.2431 -9323.4346 -7552.9044 298.8168 -119.6826 -98.0399 30891.1758 -188.9797 -138.3107
TCL: Running FEP window   6: Lambda1 0.7499999999999998 Lambda2 0.6999999999999997 [dLambda -0.050000000000000044]
TCL: Setting parameter firsttimestep to 0
TCL: Setting parameter alchLambda to 0.7499999999999998
Info: NONBONDED TABLE R-SQUARED SPACING: 0.0625
Info: NONBONDED TABLE SIZE: 705 POINTS
TCL: Setting parameter alchLambda2 to 0.6999999999999997
Info: NONBONDED TABLE R-SQUARED SPACING: 0.0625
Info: NONBONDED TABLE SIZE: 705 POINTS
TCL: Running for 1500000 steps
ETITLE: TS BOND ANGLE DIHED IMPRP ELECT VDW BOUNDARY MISC KINETIC TOTAL TEMP POTENTIAL TOTALAVG TEMPAVG PRESSURE GPRESSURE VOLUME PRESSAVG GPRESSAVG
ENERGY: 0 4.8597 6.0859 3.2931 0.0000 -10798.5995 1460.8934 0.0000 0.0000 1806.5615 -7516.9058 304.0987 -9323.4674 -7516.9058 304.0987 -185.9377 -114.2709 30891.1758 -185.9377 -114.2709
ENERGY: 300000 3.5406 7.2629 4.7629 0.0000 -10921.0922 1564.6828 0.0000 0.0000 1832.9219 -7507.9212 308.5360 -9340.8431 -7519.7441 300.0432 756.7632 767.9989 30746.1858 221.4410 272.3811
ENERGY: 600000 2.4232 4.8881 3.5215 0.0000 -10797.2484 1503.0193 0.0000 0.0000 1814.0425 -7469.3539 305.3580 -9283.3964 -7539.8026 299.4735 771.9435 795.4739 30267.0527 268.8775 305.2386
ENERGY: 900000 3.0879 10.5884 1.0416 0.0000 -10744.0007 1405.2592 0.0000 0.0000 1755.9638 -7568.0598 295.5816 -9324.0236 -7544.2176 298.1743 -253.6062 -270.1291 30714.9423 47.9933 85.9333
ENERGY: 1200000 3.3982 15.5799 1.2995 0.0000 -10665.6462 1429.0278 0.0000 0.0000 1818.1105 -7398.2303 306.0428 -9216.3407 -7530.1471 300.0903 176.6710 232.9531 30777.4593 107.1743 151.2884
ENERGY: 1500000 2.7304 7.2458 1.9566 0.0000 -10882.3576 1529.3813 0.0000 0.0000 1753.2836 -7587.7600 295.1304 -9341.0435 -7544.1154 299.7738 470.0396 498.9679 30780.6641 101.8752 146.0448
TCL: Running FEP window   7: Lambda1 0.6999999999999997 Lambda2 0.6499999999999997 [dLambda -0.050000000000000044]
TCL: Setting parameter firsttimestep to 0
TCL: Setting parameter alchLambda to 0.6999999999999997
Info: NONBONDED TABLE R-SQUARED SPACING: 0.0625
Info: NONBONDED TABLE SIZE: 705 POINTS
TCL: Setting parameter alchLambda2 to 0.6499999999999997
Info: NONBONDED TABLE R-SQUARED SPACING: 0.0625
Info: NONBONDED TABLE SIZE: 705 POINTS
TCL: Running for 1500000 steps
ETITLE: TS BOND ANGLE DIHED IMPRP ELECT VDW BOUNDARY MISC KINETIC TOTAL TEMP POTENTIAL TOTALAVG TEMPAVG PRESSURE GPRESSURE VOLUME PRESSAVG GPRESSAVG
ENERGY: 0 2.7304 7.2458 1.9566 0.0000 -10882.3169 1529.7888 0.0000 0.0000 1752.3983 -7588.1970 294.9814 -9340.5953 -7588.1970 294.9814 416.1740 494.2176 30780.6641 416.1740 494.2176
ENERGY: 300000 6.0287 3.9266 2.0778 0.0000 -10857.7876 1455.7880 0.0000 0.0000 1786.4874 -7603.4792 300.7196 -9389.9665 -7557.8432 299.6085 -109.6888 -5.8606 30399.2491 265.7485 341.2465
ENERGY: 600000 2.7722 7.2301 6.1478 0.0000 -10736.9976 1416.5197 0.0000 0.0000 1791.1352 -7513.1926 301.5020 -9304.3278 -7554.1967 299.0706 -319.2576 -297.5898 31143.5733 69.7630 126.4815
ENERGY: 900000 1.8837 9.0951 1.6576 0.0000 -10926.6427 1539.5908 0.0000 0.0000 1694.4914 -7679.9241 285.2339 -9374.4156 -7572.5596 298.0639 609.5650 781.2855 30203.4908 136.2169 216.0611
ENERGY: 1200000 4.1496 7.4441 3.3330 0.0000 -10882.6734 1519.1050 0.0000 0.0000 1775.5178 -7573.1238 298.8731 -9348.6416 -7581.7640 297.6288 292.3928 342.4386 30801.0857 97.6453 170.9825
ENERGY: 1500000 1.5406 9.4438 2.2571 0.0000 -10699.2645 1414.4650 0.0000 0.0000 1785.9609 -7485.5972 300.6310 -9271.5580 -7576.7198 297.8361 48.7424 119.1558 30466.5011 127.7109 196.9500
TCL: Running FEP window   8: Lambda1 0.6499999999999997 Lambda2 0.5999999999999996 [dLambda -0.050000000000000044]
TCL: Setting parameter firsttimestep to 0
TCL: Setting parameter alchLambda to 0.6499999999999997
Info: NONBONDED TABLE R-SQUARED SPACING: 0.0625
Info: NONBONDED TABLE SIZE: 705 POINTS
TCL: Setting parameter alchLambda2 to 0.5999999999999996
Info: NONBONDED TABLE R-SQUARED SPACING: 0.0625
Info: NONBONDED TABLE SIZE: 705 POINTS
TCL: Running for 1500000 steps
ETITLE: TS BOND ANGLE DIHED IMPRP ELECT VDW BOUNDARY MISC KINETIC TOTAL TEMP POTENTIAL TOTALAVG TEMPAVG PRESSURE GPRESSURE VOLUME PRESSAVG GPRESSAVG
ENERGY: 0 1.5406 9.4438 2.2571 0.0000 -10698.9889 1414.8160 0.0000 0.0000 1785.0963 -7485.8352 300.4855 -9270.9314 -7485.8352 300.4855 35.4184 113.4479 30466.5011 35.4184 113.4479
ENERGY: 300000 4.6759 8.7259 2.1180 0.0000 -10714.4160 1425.3458 0.0000 0.0000 1750.1465 -7523.4039 294.6024 -9273.5504 -7522.9833 299.0541 -354.3979 -281.8076 31251.2575 35.9105 110.6510
ENERGY: 600000 3.3124 4.0716 2.5448 0.0000 -10826.8714 1419.9196 0.0000 0.0000 1773.6121 -7623.4109 298.5523 -9397.0230 -7547.4448 298.9631 -335.2300 -256.5922 30337.7618 12.5964 84.2399
ENERGY: 900000 2.4470 5.6443 1.6974 0.0000 -10792.5786 1443.0126 0.0000 0.0000 1773.3067 -7566.4705 298.5009 -9339.7772 -7545.3678 299.8625 163.0221 193.4388 30336.9376 37.2970 94.2939
ENERGY: 1200000 4.3984 9.7192 1.6460 0.0000 -10787.7878 1472.1330 0.0000 0.0000 1837.4526 -7462.4387 309.2986 -9299.8913 -7539.2116 300.0089 228.0822 285.1032 30927.5496 54.3305 111.1220
ENERGY: 1500000 5.0436 9.0131 2.2449 0.0000 -10900.6396 1508.2283 0.0000 0.0000 1755.1893 -7620.9204 295.4512 -9376.1097 -7542.2387 300.4217 429.3929 436.1774 30325.1225 54.4216 107.6001
TCL: Running FEP window   9: Lambda1 0.5999999999999996 Lambda2 0.5499999999999996 [dLambda -0.050000000000000044]
TCL: Setting parameter firsttimestep to 0
TCL: Setting parameter alchLambda to 0.5999999999999996
Info: NONBONDED TABLE R-SQUARED SPACING: 0.0625
Info: NONBONDED TABLE SIZE: 705 POINTS
TCL: Setting parameter alchLambda2 to 0.5499999999999996
Info: NONBONDED TABLE R-SQUARED SPACING: 0.0625
Info: NONBONDED TABLE SIZE: 705 POINTS
TCL: Running for 1500000 steps
ETITLE: TS BOND ANGLE DIHED IMPRP ELECT VDW BOUNDARY MISC KINETIC TOTAL TEMP POTENTIAL TOTALAVG TEMPAVG PRESSURE GPRESSURE VOLUME PRESSAVG GPRESSAVG
ENERGY: 0 5.0436 9.0131 2.2449 0.0000 -10900.5498 1507.8806 0.0000 0.0000 1754.2647 -7622.1029 295.2956 -9376.3676 -7622.1029 295.2956 350.6001 426.7992 30325.1225 350.6001 426.7992
ENERGY: 300000 6.1395 6.2459 1.9303 0.0000 -10851.5822 1445.7927 0.0000 0.0000 1815.3635 -7576.1103 305.5804 -9391.4739 -7612.0866 297.3088 -243.3665 -125.6142 30145.9091 325.2993 411.9662
ENERGY: 600000 2.3548 7.6022 1.8883 0.0000 -10775.1283 1439.0708 0.0000 0.0000 1729.6975 -7594.5147 291.1602 -9324.2122 -7578.9527 297.4776 -461.5167 -395.2645 31260.6965 148.2949 226.8664
ENERGY: 900000 3.0997 5.0765 5.3001 0.0000 -10769.0388 1468.5567 0.0000 0.0000 1836.8396 -7450.1664 309.1954 -9287.0059 -7563.7447 299.5431 426.2193 461.5568 30681.5583 254.7765 321.5084
ENERGY: 1200000 2.5570 7.7348 0.7505 0.0000 -10723.7431 1412.9705 0.0000 0.0000 1755.0030 -7544.7274 295.4199 -9299.7304 -7562.9272 298.2784 -322.4128 -310.7577 30755.9405 111.4290 180.3992
ENERGY: 1500000 3.6074 6.8763 1.9471 0.0000 -10995.0984 1514.5863 0.0000 0.0000 1744.4423 -7723.6391 293.6422 -9468.0813 -7567.1784 298.5934 134.0476 252.6028 30411.8194 73.0318 146.9710
TCL: Running FEP window  10: Lambda1 0.5499999999999996 Lambda2 0.4999999999999996 [dLambda -0.04999999999999999]
TCL: Setting parameter firsttimestep to 0
TCL: Setting parameter alchLambda to 0.5499999999999996
Info: NONBONDED TABLE R-SQUARED SPACING: 0.0625
Info: NONBONDED TABLE SIZE: 705 POINTS
TCL: Setting parameter alchLambda2 to 0.4999999999999996
Info: NONBONDED TABLE R-SQUARED SPACING: 0.0625
Info: NONBONDED TABLE SIZE: 705 POINTS
TCL: Running for 1500000 steps
ETITLE: TS BOND ANGLE DIHED IMPRP ELECT VDW BOUNDARY MISC KINETIC TOTAL TEMP POTENTIAL TOTALAVG TEMPAVG PRESSURE GPRESSURE VOLUME PRESSAVG GPRESSAVG
ENERGY: 0 3.6074 6.8763 1.9471 0.0000 -10995.2286 1514.8230 0.0000 0.0000 1743.5416 -7724.4331 293.4906 -9467.9747 -7724.4331 293.4906 166.4653 245.4101 30411.8194 166.4653 245.4101
ENERGY: 300000 4.3693 11.5274 1.7338 0.0000 -10826.3727 1491.0988 0.0000 0.0000 1822.3969 -7495.2466 306.7643 -9317.6435 -7566.1812 303.1742 426.6124 460.6589 30508.6545 32.2610 79.5802
ENERGY: 600000 4.3738 12.0423 0.9060 0.0000 -10963.7511 1547.2513 0.0000 0.0000 1869.3240 -7529.8537 314.6635 -9399.1777 -7566.4318 302.4927 316.1558 376.6016 31163.6543 140.1922 184.9055
ENERGY: 900000 3.2327 8.5495 2.5751 0.0000 -10789.5638 1449.9937 0.0000 0.0000 1806.3150 -7518.8977 304.0572 -9325.2127 -7553.1092 302.3874 -313.2061 -232.7876 31087.8892 110.4343 166.5780
ENERGY: 1200000 4.3708 6.8497 1.4351 0.0000 -10768.7792 1502.9478 0.0000 0.0000 1790.5281 -7462.6477 301.3998 -9253.1758 -7551.9087 302.1674 732.3275 812.3852 30313.9520 207.3881 265.5971
ENERGY: 1500000 4.9641 7.0133 3.0132 0.0000 -10849.7955 1507.2868 0.0000 0.0000 1761.7383 -7565.7798 296.5536 -9327.5181 -7554.2891 301.2128 511.5533 548.9166 30544.5952 157.7496 215.5822
TCL: Running FEP window  11: Lambda1 0.4999999999999996 Lambda2 0.4499999999999996 [dLambda -0.04999999999999999]
TCL: Setting parameter firsttimestep to 0
TCL: Setting parameter alchLambda to 0.4999999999999996
Info: NONBONDED TABLE R-SQUARED SPACING: 0.0625
Info: NONBONDED TABLE SIZE: 705 POINTS
TCL: Setting parameter alchLambda2 to 0.4499999999999996
Info: NONBONDED TABLE R-SQUARED SPACING: 0.0625
Info: NONBONDED TABLE SIZE: 705 POINTS
TCL: Running for 1500000 steps
ETITLE: TS BOND ANGLE DIHED IMPRP ELECT VDW BOUNDARY MISC KINETIC TOTAL TEMP POTENTIAL TOTALAVG TEMPAVG PRESSURE GPRESSURE VOLUME PRESSAVG GPRESSAVG
ENERGY: 0 4.9641 7.0133 3.0132 0.0000 -10850.3047 1507.4311 0.0000 0.0000 1760.8766 -7567.0064 296.4086 -9327.8830 -7567.0064 296.4086 453.6594 541.5433 30544.5952 453.6594 541.5433
ENERGY: 300000 9.0655 4.4571 3.7550 0.0000 -10787.4894 1462.2002 0.0000 0.0000 1808.2604 -7499.7511 304.3847 -9308.0115 -7531.4455 297.3388 -423.4721 -399.4694 31327.5439 -13.7362 47.8017
ENERGY: 600000 1.6224 5.1419 1.1674 0.0000 -10772.4203 1437.6518 0.0000 0.0000 1838.6025 -7488.2343 309.4922 -9326.8368 -7527.1012 299.4316 143.5912 247.5828 30284.2407 88.1442 158.4670
ENERGY: 900000 2.7851 10.2029 1.5805 0.0000 -10901.1519 1541.2597 0.0000 0.0000 1801.2540 -7544.0698 303.2053 -9345.3237 -7517.6227 299.7855 711.6232 788.1962 30428.1435 89.9894 163.5437
ENERGY: 1200000 2.2333 8.0022 2.0149 0.0000 -10788.0959 1461.4848 0.0000 0.0000 1777.0829 -7537.2778 299.1366 -9314.3607 -7511.0379 300.3848 154.7073 214.2326 30572.8600 77.9953 154.8397
ENERGY: 1500000 3.5465 8.4145 1.9719 0.0000 -10674.3695 1368.2499 0.0000 0.0000 1785.1913 -7506.9955 300.5015 -9292.1868 -7516.1728 300.3542 -667.4083 -682.5140 30908.9484 -29.2091 40.9693
TCL: Running FEP window  12: Lambda1 0.4499999999999996 Lambda2 0.39999999999999963 [dLambda -0.04999999999999999]
TCL: Setting parameter firsttimestep to 0
TCL: Setting parameter alchLambda to 0.4499999999999996
Info: NONBONDED TABLE R-SQUARED SPACING: 0.0625
Info: NONBONDED TABLE SIZE: 705 POINTS
TCL: Setting parameter alchLambda2 to 0.39999999999999963
Info: NONBONDED TABLE R-SQUARED SPACING: 0.0625
Info: NONBONDED TABLE SIZE: 705 POINTS
TCL: Running for 1500000 steps
ETITLE: TS BOND ANGLE DIHED IMPRP ELECT VDW BOUNDARY MISC KINETIC TOTAL TEMP POTENTIAL TOTALAVG TEMPAVG PRESSURE GPRESSURE VOLUME PRESSAVG GPRESSAVG
ENERGY: 0 3.5465 8.4145 1.9719 0.0000 -10674.3699 1368.3385 0.0000 0.0000 1784.2769 -7507.8217 300.3475 -9292.0986 -7507.8217 300.3475 -762.3197 -691.5006 30908.9484 -762.3197 -691.5006
ENERGY: 300000 2.3087 10.4651 2.4630 0.0000 -10934.8032 1591.0813 0.0000 0.0000 1753.4208 -7575.0642 295.1535 -9328.4851 -7533.1770 298.4413 997.1786 1092.6054 30757.0574 110.4304 200.8844
ENERGY: 600000 1.5594 11.1889 2.8736 0.0000 -10820.5672 1452.4112 0.0000 0.0000 1749.3881 -7603.1461 294.4747 -9352.5342 -7558.5901 296.8861 -159.8046 -145.8242 30879.7832 153.7536 221.9719
ENERGY: 900000 3.7966 5.0038 2.3401 0.0000 -10685.7086 1392.7591 0.0000 0.0000 1723.2194 -7558.5896 290.0697 -9281.8090 -7555.4645 296.4799 -285.9668 -226.2511 30457.7107 -27.2042 43.2130
ENERGY: 1200000 4.0800 10.9682 3.2189 0.0000 -10840.5282 1479.4443 0.0000 0.0000 1772.1673 -7570.6494 298.3091 -9342.8168 -7548.4548 296.7617 -86.1020 20.9270 30627.8212 -75.0077 -5.1281
ENERGY: 1500000 4.7165 10.7232 3.3484 0.0000 -10687.2543 1386.3688 0.0000 0.0000 1782.8785 -7499.2190 300.1122 -9282.0975 -7543.2359 297.4751 -431.0904 -348.4305 30576.0946 -148.1860 -79.8807
TCL: Running FEP window  13: Lambda1 0.39999999999999963 Lambda2 0.34999999999999964 [dLambda -0.04999999999999999]
TCL: Setting parameter firsttimestep to 0
TCL: Setting parameter alchLambda to 0.39999999999999963
Info: NONBONDED TABLE R-SQUARED SPACING: 0.0625
Info: NONBONDED TABLE SIZE: 705 POINTS
TCL: Setting parameter alchLambda2 to 0.34999999999999964
Info: NONBONDED TABLE R-SQUARED SPACING: 0.0625
Info: NONBONDED TABLE SIZE: 705 POINTS
TCL: Running for 1500000 steps
ETITLE: TS BOND ANGLE DIHED IMPRP ELECT VDW BOUNDARY MISC KINETIC TOTAL TEMP POTENTIAL TOTALAVG TEMPAVG PRESSURE GPRESSURE VOLUME PRESSAVG GPRESSAVG
ENERGY: 0 4.7165 10.7232 3.3484 0.0000 -10687.2542 1386.7116 0.0000 0.0000 1781.9707 -7499.7839 299.9593 -9281.7546 -7499.7839 299.9593 -423.9915 -351.6470 30576.0946 -423.9915 -351.6470
ENERGY: 300000 2.2427 11.8586 1.9191 0.0000 -10924.8646 1521.8201 0.0000 0.0000 1780.7609 -7606.2632 299.7557 -9387.0241 -7553.9337 298.0579 441.8986 457.6578 30426.4009 -226.9141 -168.1375
ENERGY: 600000 2.4946 6.9773 2.5016 0.0000 -10797.4407 1392.9125 0.0000 0.0000 1805.0656 -7587.4892 303.8469 -9392.5547 -7559.2607 298.4377 -419.2981 -333.3422 30147.5429 -341.0169 -268.1087
ENERGY: 900000 3.2260 7.1851 3.3402 0.0000 -10839.6263 1485.0350 0.0000 0.0000 1800.2938 -7540.5462 303.0437 -9340.8399 -7566.0162 297.2435 -89.5366 -14.4988 31022.2396 -262.5147 -196.9650
ENERGY: 1200000 4.6394 14.6204 2.2185 0.0000 -10689.1282 1347.0681 0.0000 0.0000 1781.4527 -7539.1290 299.8721 -9320.5817 -7557.6440 297.6747 -1075.0185 -1046.5484 30912.0186 -284.8311 -221.5846
ENERGY: 1500000 3.7092 4.6857 2.3108 0.0000 -10913.1381 1570.0646 0.0000 0.0000 1763.2286 -7569.1391 296.8045 -9332.3678 -7552.5852 298.4076 769.2449 808.8501 30477.3445 -171.4938 -108.7127
TCL: Running FEP window  14: Lambda1 0.34999999999999964 Lambda2 0.29999999999999966 [dLambda -0.04999999999999999]
TCL: Setting parameter firsttimestep to 0
TCL: Setting parameter alchLambda to 0.34999999999999964
Info: NONBONDED TABLE R-SQUARED SPACING: 0.0625
Info: NONBONDED TABLE SIZE: 705 POINTS
TCL: Setting parameter alchLambda2 to 0.29999999999999966
Info: NONBONDED TABLE R-SQUARED SPACING: 0.0625
Info: NONBONDED TABLE SIZE: 705 POINTS
TCL: Running for 1500000 steps
ETITLE: TS BOND ANGLE DIHED IMPRP ELECT VDW BOUNDARY MISC KINETIC TOTAL TEMP POTENTIAL TOTALAVG TEMPAVG PRESSURE GPRESSURE VOLUME PRESSAVG GPRESSAVG
ENERGY: 0 3.7093 4.6857 2.3108 0.0000 -10913.1377 1569.5672 0.0000 0.0000 1762.3663 -7570.4985 296.6593 -9332.8648 -7570.4985 296.6593 706.7242 797.7030 30477.3445 706.7242 797.7030
ENERGY: 300000 2.6100 7.7475 3.0425 0.0000 -10715.2148 1415.3916 0.0000 0.0000 1783.0316 -7503.3916 300.1379 -9286.4232 -7564.8702 295.4503 -158.8008 -64.8371 30523.9456 27.4060 88.9503
ENERGY: 600000 3.8534 10.7044 3.0965 0.0000 -10774.6167 1435.2294 0.0000 0.0000 1827.8939 -7493.8392 307.6896 -9321.7331 -7536.3472 299.5227 -55.8102 -19.8108 30514.2131 -1.3056 58.3478
ENERGY: 900000 4.8478 6.0388 1.1154 0.0000 -10865.3861 1512.4701 0.0000 0.0000 1765.3538 -7575.5602 297.1622 -9340.9140 -7537.5453 298.3262 440.3469 505.6904 30390.8877 104.7771 163.4556
ENERGY: 1200000 3.3362 7.7343 4.6808 0.0000 -10690.7849 1387.8503 0.0000 0.0000 1750.0611 -7537.1222 294.5880 -9287.1833 -7541.2089 298.3667 -636.1591 -593.2491 31157.0768 -39.9016 22.5485
ENERGY: 1500000 2.6895 5.6774 3.2536 0.0000 -10765.7458 1385.4923 0.0000 0.0000 1764.4009 -7604.2321 297.0018 -9368.6330 -7538.6340 298.3746 -555.2636 -576.8735 30384.4780 2.1460 55.0246
TCL: Running FEP window  15: Lambda1 0.29999999999999966 Lambda2 0.24999999999999967 [dLambda -0.04999999999999999]
TCL: Setting parameter firsttimestep to 0
TCL: Setting parameter alchLambda to 0.29999999999999966
Info: NONBONDED TABLE R-SQUARED SPACING: 0.0625
Info: NONBONDED TABLE SIZE: 705 POINTS
TCL: Setting parameter alchLambda2 to 0.24999999999999967
Info: NONBONDED TABLE R-SQUARED SPACING: 0.0625
Info: NONBONDED TABLE SIZE: 705 POINTS
TCL: Running for 1500000 steps
ETITLE: TS BOND ANGLE DIHED IMPRP ELECT VDW BOUNDARY MISC KINETIC TOTAL TEMP POTENTIAL TOTALAVG TEMPAVG PRESSURE GPRESSURE VOLUME PRESSAVG GPRESSAVG
ENERGY: 0 2.6895 5.6774 3.2536 0.0000 -10765.7470 1386.0118 0.0000 0.0000 1763.5378 -7604.5769 296.8565 -9368.1147 -7604.5769 296.8565 -655.7944 -576.3510 30384.4780 -655.7944 -576.3510
ENERGY: 300000 1.2370 12.8573 1.6491 0.0000 -10842.4791 1485.9837 0.0000 0.0000 1815.8477 -7524.9043 305.6619 -9340.7520 -7556.6878 300.0525 467.6675 570.2368 30349.1842 -327.7674 -241.6376
ENERGY: 600000 3.6644 6.3798 4.4863 0.0000 -10812.8289 1431.7742 0.0000 0.0000 1800.6933 -7565.8310 303.1109 -9366.5243 -7581.1411 300.3533 -236.6531 -215.7057 30528.4257 -387.6958 -320.0155
ENERGY: 900000 2.3641 8.8482 2.5421 0.0000 -10900.1476 1568.1167 0.0000 0.0000 1828.5122 -7489.7642 307.7937 -9318.2764 -7580.6476 299.5415 1163.1177 1232.7750 30026.1966 -188.1142 -121.0633
ENERGY: 1200000 2.3844 9.0792 1.4888 0.0000 -10900.9550 1557.5960 0.0000 0.0000 1815.2327 -7515.1739 305.5583 -9330.4066 -7576.7241 299.4760 647.1662 720.2094 30409.0684 -76.9245 -4.6257
ENERGY: 1500000 3.2612 6.4289 3.1076 0.0000 -10740.4229 1431.6522 0.0000 0.0000 1811.3611 -7484.6119 304.9066 -9295.9730 -7561.6335 301.2725 -106.6923 -106.5032 30861.3002 -38.2622 24.1836
TCL: Running FEP window  16: Lambda1 0.24999999999999967 Lambda2 0.19999999999999968 [dLambda -0.04999999999999999]
TCL: Setting parameter firsttimestep to 0
TCL: Setting parameter alchLambda to 0.24999999999999967
Info: NONBONDED TABLE R-SQUARED SPACING: 0.0625
Info: NONBONDED TABLE SIZE: 705 POINTS
TCL: Setting parameter alchLambda2 to 0.19999999999999968
Info: NONBONDED TABLE R-SQUARED SPACING: 0.0625
Info: NONBONDED TABLE SIZE: 705 POINTS
TCL: Running for 1500000 steps
ETITLE: TS BOND ANGLE DIHED IMPRP ELECT VDW BOUNDARY MISC KINETIC TOTAL TEMP POTENTIAL TOTALAVG TEMPAVG PRESSURE GPRESSURE VOLUME PRESSAVG GPRESSAVG
ENERGY: 0 3.2612 6.4289 3.1076 0.0000 -10740.4220 1431.8913 0.0000 0.0000 1810.4326 -7485.3004 304.7503 -9295.7330 -7485.3004 304.7503 -200.3373 -109.5806 30861.3002 -200.3373 -109.5806
ENERGY: 300000 3.0148 11.9402 5.3675 0.0000 -10786.0181 1400.4557 0.0000 0.0000 1780.8601 -7584.3798 299.7724 -9365.2398 -7564.2398 300.4023 -501.9012 -495.5296 30508.5328 -173.4959 -91.6964
ENERGY: 600000 4.2244 6.2278 2.1819 0.0000 -10745.0807 1416.4344 0.0000 0.0000 1885.6353 -7430.3769 317.4092 -9316.0122 -7547.6124 301.8456 -251.9286 -236.3288 30561.2967 -132.4211 -71.4959
ENERGY: 900000 5.9475 6.5342 3.6866 0.0000 -10859.0684 1521.2447 0.0000 0.0000 1786.9380 -7534.7174 300.7955 -9321.6555 -7553.9195 300.9666 -2.3483 -44.9281 31130.4025 -28.5976 21.4346
ENERGY: 1200000 1.0433 12.3881 4.7309 0.0000 -10780.7652 1422.9327 0.0000 0.0000 1788.0581 -7551.6122 300.9840 -9339.6703 -7557.4587 300.9270 -264.6700 -176.8230 30386.7277 64.8331 116.9867
ENERGY: 1500000 3.0297 5.5488 1.0426 0.0000 -10676.2972 1421.4144 0.0000 0.0000 1754.4132 -7490.8485 295.3206 -9245.2617 -7553.7342 299.8734 128.0083 118.3214 30459.4177 114.3665 154.0481
TCL: Running FEP window  17: Lambda1 0.19999999999999968 Lambda2 0.1499999999999997 [dLambda -0.04999999999999999]
TCL: Setting parameter firsttimestep to 0
TCL: Setting parameter alchLambda to 0.19999999999999968
Info: NONBONDED TABLE R-SQUARED SPACING: 0.0625
Info: NONBONDED TABLE SIZE: 705 POINTS
TCL: Setting parameter alchLambda2 to 0.1499999999999997
Info: NONBONDED TABLE R-SQUARED SPACING: 0.0625
Info: NONBONDED TABLE SIZE: 705 POINTS
TCL: Running for 1500000 steps
ETITLE: TS BOND ANGLE DIHED IMPRP ELECT VDW BOUNDARY MISC KINETIC TOTAL TEMP POTENTIAL TOTALAVG TEMPAVG PRESSURE GPRESSURE VOLUME PRESSAVG GPRESSAVG
ENERGY: 0 3.0297 5.5488 1.0426 0.0000 -10676.2963 1420.4768 0.0000 0.0000 1753.5283 -7492.6701 295.1716 -9246.1985 -7492.6701 295.1716 40.2987 109.3572 30459.4177 40.2987 109.3572
ENERGY: 300000 2.9771 5.1740 3.6602 0.0000 -10709.3618 1438.4528 0.0000 0.0000 1751.2562 -7507.8415 294.7892 -9259.0977 -7490.7501 298.3412 -268.8128 -201.7213 31013.0321 -292.8639 -222.6674
ENERGY: 600000 3.9698 10.2863 2.0849 0.0000 -10946.9228 1566.2631 0.0000 0.0000 1764.3432 -7599.9755 296.9921 -9364.3187 -7513.5459 298.7419 832.3953 936.6938 30175.3555 -60.9428 12.0539
ENERGY: 900000 0.8452 9.5804 1.8238 0.0000 -10771.8019 1412.1107 0.0000 0.0000 1769.7770 -7577.6647 297.9068 -9347.4417 -7531.3230 299.0696 -476.1300 -430.0533 30773.9444 -61.3159 2.9801
ENERGY: 1200000 2.1482 6.3052 4.9520 0.0000 -10915.3026 1475.2770 0.0000 0.0000 1793.8086 -7632.8116 301.9520 -9426.6202 -7543.7280 299.3845 -370.8246 -299.9519 30742.5617 -72.0014 -10.0626
ENERGY: 1500000 2.8659 8.8746 1.7540 0.0000 -10803.1635 1443.9229 0.0000 0.0000 1754.7354 -7591.0107 295.3748 -9345.7460 -7542.9982 298.9349 -340.1483 -296.5379 30908.4749 -91.3518 -26.6695
TCL: Running FEP window  18: Lambda1 0.1499999999999997 Lambda2 0.09999999999999969 [dLambda -0.05 ]
TCL: Setting parameter firsttimestep to 0
TCL: Setting parameter alchLambda to 0.1499999999999997
Info: NONBONDED TABLE R-SQUARED SPACING: 0.0625
Info: NONBONDED TABLE SIZE: 705 POINTS
TCL: Setting parameter alchLambda2 to 0.09999999999999969
Info: NONBONDED TABLE R-SQUARED SPACING: 0.0625
Info: NONBONDED TABLE SIZE: 705 POINTS
TCL: Running for 1500000 steps
ETITLE: TS BOND ANGLE DIHED IMPRP ELECT VDW BOUNDARY MISC KINETIC TOTAL TEMP POTENTIAL TOTALAVG TEMPAVG PRESSURE GPRESSURE VOLUME PRESSAVG GPRESSAVG
ENERGY: 0 2.8659 8.8746 1.7540 0.0000 -10803.1664 1443.6154 0.0000 0.0000 1753.8644 -7592.1920 295.2282 -9346.0564 -7592.1920 295.2282 -379.2544 -299.5651 30908.4749 -379.2544 -299.5651
ENERGY: 300000 4.5257 10.2597 2.1290 0.0000 -10811.2692 1430.2377 0.0000 0.0000 1795.4097 -7568.7074 302.2215 -9364.1171 -7556.0326 300.2206 -461.8625 -446.6368 30984.1363 -395.2198 -332.9534
ENERGY: 600000 3.9001 8.4434 3.2058 0.0000 -10734.5239 1388.0247 0.0000 0.0000 1799.0247 -7531.9253 302.8300 -9330.9500 -7555.7032 299.3861 -527.3226 -530.5091 30643.1291 -349.3589 -306.0670
ENERGY: 900000 2.7417 12.7602 3.2273 0.0000 -10775.2596 1486.8293 0.0000 0.0000 1809.0957 -7460.6054 304.5253 -9269.7011 -7525.0701 300.3491 154.7551 177.7631 30986.6223 -293.0001 -252.1320
ENERGY: 1200000 3.4992 10.2638 0.8844 0.0000 -10790.8820 1450.0602 0.0000 0.0000 1809.3736 -7516.8006 304.5721 -9326.1743 -7526.3497 300.7544 -166.0214 -119.2673 30462.5060 -250.3397 -208.4241
ENERGY: 1500000 2.6945 5.0651 2.2529 0.0000 -10870.1473 1484.2856 0.0000 0.0000 1769.5944 -7606.2548 297.8760 -9375.8492 -7528.2583 300.4678 -106.6165 -21.1042 30725.7193 -179.5147 -139.7100
TCL: Running FEP window  19: Lambda1 0.09999999999999969 Lambda2 0.049999999999999684 [dLambda -0.05 ]
TCL: Setting parameter firsttimestep to 0
TCL: Setting parameter alchLambda to 0.09999999999999969
Info: NONBONDED TABLE R-SQUARED SPACING: 0.0625
Info: NONBONDED TABLE SIZE: 705 POINTS
TCL: Setting parameter alchLambda2 to 0.049999999999999684
Info: NONBONDED TABLE R-SQUARED SPACING: 0.0625
Info: NONBONDED TABLE SIZE: 705 POINTS
TCL: Running for 1500000 steps
ETITLE: TS BOND ANGLE DIHED IMPRP ELECT VDW BOUNDARY MISC KINETIC TOTAL TEMP POTENTIAL TOTALAVG TEMPAVG PRESSURE GPRESSURE VOLUME PRESSAVG GPRESSAVG
ENERGY: 0 2.6945 5.0651 2.2529 0.0000 -10870.1470 1484.0967 0.0000 0.0000 1768.7110 -7607.3268 297.7273 -9376.0378 -7607.3268 297.7273 -124.8029 -24.8265 30725.7193 -124.8029 -24.8265
ENERGY: 300000 1.1378 7.8018 3.6419 0.0000 -10935.6302 1531.9834 0.0000 0.0000 1781.9428 -7609.1226 299.9546 -9391.0654 -7581.9212 302.0023 372.2503 485.0261 30147.0931 289.5243 362.2484
ENERGY: 600000 7.0577 5.8974 3.0536 0.0000 -10754.2137 1422.2905 0.0000 0.0000 1715.0834 -7600.8311 288.7002 -9315.9145 -7578.2902 300.8924 -414.5978 -311.9699 30337.3408 136.2827 205.4070
ENERGY: 900000 4.2158 11.8898 2.4109 0.0000 -10808.7027 1481.3035 0.0000 0.0000 1819.1321 -7489.7505 306.2147 -9308.8826 -7567.4700 300.7139 109.3907 183.6429 30773.7456 76.7351 147.1572
ENERGY: 1200000 2.9540 9.1581 2.3085 0.0000 -10747.4359 1432.0648 0.0000 0.0000 1747.1771 -7553.7734 294.1025 -9300.9505 -7563.9434 300.9257 -464.8048 -368.9397 31171.3745 50.8050 126.7695
ENERGY: 1500000 5.2238 7.0683 2.8772 0.0000 -10824.6527 1536.5142 0.0000 0.0000 1779.4337 -7493.5355 299.5323 -9272.9692 -7558.4254 300.2011 619.9058 658.7486 30584.7767 41.0380 114.8184
TCL: Running FEP window  20: Lambda1 0.049999999999999684 Lambda2 0.0    [dLambda -0.049999999999999684]
TCL: Setting parameter firsttimestep to 0
TCL: Setting parameter alchLambda to 0.049999999999999684
Info: NONBONDED TABLE R-SQUARED SPACING: 0.0625
Info: NONBONDED TABLE SIZE: 705 POINTS
TCL: Setting parameter alchLambda2 to 0.0
Info: NONBONDED TABLE R-SQUARED SPACING: 0.0625
Info: NONBONDED TABLE SIZE: 705 POINTS
TCL: Running for 1500000 steps
ETITLE: TS BOND ANGLE DIHED IMPRP ELECT VDW BOUNDARY MISC KINETIC TOTAL TEMP POTENTIAL TOTALAVG TEMPAVG PRESSURE GPRESSURE VOLUME PRESSAVG GPRESSAVG
ENERGY: 0 5.2238 7.0683 2.8772 0.0000 -10824.6516 1535.2202 0.0000 0.0000 1778.5191 -7495.7431 299.3783 -9274.2623 -7495.7431 299.3783 573.9366 649.2281 30584.7767 573.9366 649.2281
ENERGY: 300000 4.4283 7.6504 4.5505 0.0000 -10789.0900 1403.7625 0.0000 0.0000 1787.7037 -7580.9946 300.9244 -9368.6983 -7512.4440 302.6081 -261.9627 -212.5760 29978.7990 -156.0649 -96.4517
ENERGY: 600000 8.6237 7.9153 1.5785 0.0000 -10787.1597 1454.2916 0.0000 0.0000 1765.0870 -7549.6636 297.1173 -9314.7506 -7535.3566 301.2380 -272.5469 -147.0546 30728.5050 -132.6867 -62.5330
ENERGY: 900000 4.3400 6.0527 2.8661 0.0000 -10866.0200 1462.9252 0.0000 0.0000 1760.4567 -7629.3792 296.3379 -9389.8359 -7540.9157 299.1446 -328.7450 -317.1234 30601.4117 -205.6678 -138.4423
ENERGY: 1200000 2.4807 9.6982 0.6064 0.0000 -10774.9571 1412.0763 0.0000 0.0000 1759.3274 -7590.7681 296.1478 -9350.0955 -7540.4686 299.1814 -434.7652 -362.1985 30315.6149 -288.4294 -220.1458
ENERGY: 1500000 1.3122 9.0149 1.8099 0.0000 -10725.6014 1428.6282 0.0000 0.0000 1793.2042 -7491.6320 301.8503 -9284.8362 -7531.6127 299.2812 191.4385 219.0542 30024.7708 -203.2200 -135.1994
TCL: Exiting due to exit command.
