Info: SIMULATION PARAMETERS:
Info: TIMESTEP               2
Info: NUMBER OF STEPS        0
Info: STEPS PER CYCLE        10
Info: PERIODIC CELL BASIS 1  32.2266 0 0
Info: PERIODIC CELL BASIS 2  0 31.0596 0
Info: PERIODIC CELL BASIS 3  0 0 30.5427
Info: PERIODIC CELL CENTER   0 0 0
Info: WRAPPING WATERS AROUND PERIODIC BOUNDARIES ON OUTPUT.
Info: WRAPPING ALL CLUSTERS AROUND PERIODIC BOUNDARIES ON OUTPUT.
Info: FIRST LDB TIMESTEP     50
Info: LAST LDB TIMESTEP     -1
Info: HOM BACKGROUND SCALING 1
Info: PME BACKGROUND SCALING 1
Info: MIN ATOMS PER PATCH    40
Info: EMPTY PATCH LOAD       40 ATOMS
Info: VELOCITY FILE          mobley_8320545_equil.vel
Info: CENTER OF MASS MOVING INITIALLY? NO
Info: DIELECTRIC             1
Info: EXCLUDE                SCALED ONE-FOUR
Info: 1-4 ELECTROSTATICS SCALED BY 0.833333
Info: MODIFIED 1-4 VDW PARAMETERS WILL BE USED
Info: DCD FILENAME           mobley_8320545_prod.dcd
Info: DCD FREQUENCY          100000
Info: DCD FIRST STEP         100000
Info: DCD FILE WILL CONTAIN UNIT CELL DATA
Info: XST FILENAME           mobley_8320545_prod.xst
Info: XST FREQUENCY          100000
Info: NO VELOCITY DCD OUTPUT
Info: NO FORCE DCD OUTPUT
Info: OUTPUT FILENAME        mobley_8320545_prod
Info: BINARY OUTPUT FILES WILL BE USED
Info: RESTART FILENAME       mobley_8320545_prod.restart
Info: RESTART FREQUENCY      100000
Info: BINARY RESTART FILES WILL BE USED
Info: CUTOFF                 9
Info: PAIRLIST DISTANCE      11
Info: PAIRLIST SHRINK RATE   0.01
Info: PAIRLIST GROW RATE     0.01
Info: PAIRLIST TRIGGER       0.3
Info: PAIRLISTS PER CYCLE    2
Info: PAIRLISTS ENABLED
Info: MARGIN                 2
Info: HYDROGEN GROUP CUTOFF  2.5
Info: PATCH DIMENSION        15.5
Info: ENERGY OUTPUT STEPS    100000
Info: ENERGY EVALUATION STEPS    100000
Info: OUTPUT ENERGY PRECISION 4
Info: CROSSTERM ENERGY INCLUDED IN DIHEDRAL
Info: TIMING OUTPUT STEPS    1000000
Info: PRESSURE OUTPUT STEPS  100000
Info: ALCHEMICAL FEP ON
Info: FEP CURRENT LAMBDA VALUE     0
Info: FEP COMPARISON LAMBDA VALUE  0.05
Info: FEP INTRA-ALCHEMICAL NON-BONDED INTERACTIONS WILL BE RETAINED
Info: FEP INTRA-ALCHEMICAL BONDED INTERACTIONS WILL BE RETAINED
Info: FEP VDW SHIFTING COEFFICIENT 5
Info: FEP ELEC. ACTIVE FOR ANNIHILATED PARTICLES BETWEEN LAMBDA = 0 AND LAMBDA = 0.5
Info: FEP ELEC. ACTIVE FOR EXNIHILATED PARTICLES BETWEEN LAMBDA = 0.5 AND LAMBDA = 1
Info: FEP VDW ACTIVE FOR ANNIHILATED PARTICLES BETWEEN LAMBDA = 0 AND LAMBDA = 1
Info: FEP VDW ACTIVE FOR EXNIHILATED PARTICLES BETWEEN LAMBDA = 0 AND LAMBDA = 1
Info: FEP BOND ACTIVE FOR ANNIHILATED PARTICLES BETWEEN LAMBDA = 1 AND LAMBDA = 1
Info: FEP BOND ACTIVE FOR EXNIHILATED PARTICLES BETWEEN LAMBDA = 0 AND LAMBDA = 0
Info: LANGEVIN DYNAMICS ACTIVE
Info: LANGEVIN TEMPERATURE   300
Info: LANGEVIN USING BBK INTEGRATOR
Info: LANGEVIN DAMPING COEFFICIENT IS 1 INVERSE PS
Info: LANGEVIN DYNAMICS APPLIED TO HYDROGENS
Info: LANGEVIN PISTON PRESSURE CONTROL ACTIVE
Info:        TARGET PRESSURE IS 1.01325 BAR
Info:     OSCILLATION PERIOD IS 50 FS
Info:             DECAY TIME IS 25 FS
Info:     PISTON TEMPERATURE IS 300 K
Info:       PRESSURE CONTROL IS GROUP-BASED
Info:    INITIAL STRAIN RATE IS 0.000182891 0.000182891 0.000182891
Info:       CELL FLUCTUATION IS ISOTROPIC
Info: PARTICLE MESH EWALD (PME) ACTIVE
Info: PME TOLERANCE               1e-06
Info: PME EWALD COEFFICIENT       0.348832
Info: PME INTERPOLATION ORDER     4
Info: PME GRID DIMENSIONS         36 32 32
Info: PME MAXIMUM GRID SPACING    1
Info: PME CALCULATION WILL BE PERFORMED ON GPU
Info: FULL ELECTROSTATIC EVALUATION FREQUENCY      2
Info: USING VERLET I (r-RESPA) MTS SCHEME.
Info: C1 SPLITTING OF LONG RANGE ELECTROSTATICS
Info: PLACING ATOMS IN PATCHES BY HYDROGEN GROUPS
Info: RIGID BONDS TO HYDROGEN : ALL
Info:         ERROR TOLERANCE : 1e-08
Info:          MAX ITERATIONS : 100
Info: RIGID WATER USING SETTLE ALGORITHM
Info: RANDOM NUMBER SEED     1743679945
Info: USE HYDROGEN BONDS?    NO
Info: Using AMBER format force field!
Info: AMBER PARM FILE        mobley_8320545.prmtop
Info: COORDINATE PDB         mobley_8320545.pdb
Info: Exclusions will be read from PARM file!
Info: SCNB (VDW SCALING)     2
Info: USING ARITHMETIC MEAN TO COMBINE L-J SIGMA PARAMETERS
Info: BINARY COORDINATES     mobley_8320545_equil.coor
Info: SUMMARY OF PARAMETERS:
Info: 7 BONDS
Info: 8 ANGLES
Info:   8 HARMONIC
Info:   0 COSINE-BASED
Info: 2 DIHEDRAL
Info: 0 IMPROPER
Info: 0 CROSSTERM
Info: 0 VDW
Info: 28 VDW_PAIRS
Info: 0 NBTHOLE_PAIRS
Info: To read alchdata from file: mobley_8320545.pdb
Info: To read alchflag data from column: 5
Info: STRUCTURE SUMMARY:
Info: 2965 ATOMS
Info: 2964 BONDS
Info: 15 ANGLES
Info: 15 DIHEDRALS
Info: 0 IMPROPERS
Info: 0 CROSSTERMS
Info: 2994 EXCLUSIONS
Info: 2960 RIGID BONDS
Info: ALCH: 0 ATOMS TO DISAPPEAR IN FINAL STATE
Info: ALCH: 10 ATOMS TO APPEAR IN FINAL STATE
Info: 5935 DEGREES OF FREEDOM
Info: 990 HYDROGEN GROUPS
Info: 4 ATOMS IN LARGEST HYDROGEN GROUP
Info: 990 MIGRATION GROUPS
Info: 4 ATOMS IN LARGEST MIGRATION GROUP
Info: TOTAL MASS = 17820.8 amu
Info: TOTAL CHARGE = 7.45058e-09 e
Info: MASS DENSITY = 0.967988 g/cm^3
Info: ATOM DENSITY = 0.0969857 atoms/A^3
Info: ADDED 0 IMPLICIT EXCLUSIONS
Info: NONBONDED TABLE R-SQUARED SPACING: 0.0625
Info: NONBONDED TABLE SIZE: 705 POINTS
Info: REDUCING NUMBER OF PATCHES TO IMPROVE LOAD BALANCE
Info: REMOVING COM VELOCITY 0.0665221 0.00040307 -0.0229535
Info: Use 3D box decompostion in PME FFT.
Info: Updated CUDA force table with 4096 elements.
Info: Updated CUDA LJ table with 7 x 7 elements.
Info: Found 13 unique exclusion lists needing 20 bytes
TCL: Running for 1500000 steps
ETITLE: TS BOND ANGLE DIHED IMPRP ELECT VDW BOUNDARY MISC KINETIC TOTAL TEMP POTENTIAL TOTALAVG TEMPAVG PRESSURE GPRESSURE VOLUME PRESSAVG GPRESSAVG
ENERGY: 0 1.5716 4.1248 0.5846 0.0000 -10716.1235 1416.5678 0.0000 0.0000 1812.5564 -7480.7182 307.3698 -9293.2746 -7480.7182 307.3698 -90.7431 -14.2247 30571.5319 -90.7431 -14.2247
ENERGY: 300000 1.8178 2.9255 0.1989 0.0000 -10730.4131 1447.0411 0.0000 0.0000 1756.8762 -7521.5537 297.9276 -9278.4298 -7507.3887 301.0178 87.7479 101.6847 30554.5745 -400.2952 -364.0684
ENERGY: 600000 0.8200 4.0657 0.7242 0.0000 -10762.9036 1415.8550 0.0000 0.0000 1822.0484 -7519.3902 308.9794 -9341.4386 -7520.2398 301.3453 -674.7099 -554.1799 30956.7233 -363.6371 -314.1934
ENERGY: 900000 1.0132 2.4241 2.4044 0.0000 -10643.4479 1403.1941 0.0000 0.0000 1768.7701 -7465.6421 299.9446 -9234.4122 -7519.6247 301.2101 -169.2184 -152.2484 30733.9381 -376.7966 -316.1734
ENERGY: 1200000 0.4537 4.9166 0.9413 0.0000 -10734.6605 1449.8531 0.0000 0.0000 1759.0341 -7519.4616 298.2936 -9278.4957 -7519.5100 300.4571 147.7579 153.3130 30581.7293 -377.2887 -319.3780
ENERGY: 1500000 1.8285 2.9664 0.9942 0.0000 -10721.0385 1442.4177 0.0000 0.0000 1740.3873 -7532.4444 295.1315 -9272.8316 -7511.0077 300.3531 192.9639 235.2471 30388.7256 -342.8397 -278.7274
TCL: Running FEP window   2: Lambda1 0.05   Lambda2 0.1    [dLambda 0.05  ]
TCL: Setting parameter firsttimestep to 0
TCL: Setting parameter alchLambda to 0.05
Info: NONBONDED TABLE R-SQUARED SPACING: 0.0625
Info: NONBONDED TABLE SIZE: 705 POINTS
TCL: Setting parameter alchLambda2 to 0.1
Info: NONBONDED TABLE R-SQUARED SPACING: 0.0625
Info: NONBONDED TABLE SIZE: 705 POINTS
TCL: Running for 1500000 steps
ETITLE: TS BOND ANGLE DIHED IMPRP ELECT VDW BOUNDARY MISC KINETIC TOTAL TEMP POTENTIAL TOTALAVG TEMPAVG PRESSURE GPRESSURE VOLUME PRESSAVG GPRESSAVG
ENERGY: 0 1.8285 2.9664 0.9942 0.0000 -10721.0400 1443.2106 0.0000 0.0000 1739.5764 -7532.4639 294.9940 -9272.0403 -7532.4639 294.9940 144.8880 236.8229 30388.7256 144.8880 236.8229
ENERGY: 300000 1.5091 2.6613 0.2337 0.0000 -10669.6734 1399.0928 0.0000 0.0000 1776.9678 -7489.2087 301.3348 -9266.1765 -7498.7622 300.7707 -156.5678 -120.5543 30426.5376 -54.8317 0.3066
ENERGY: 600000 0.7932 4.2137 0.0969 0.0000 -10794.4371 1471.5813 0.0000 0.0000 1775.0099 -7542.7421 301.0027 -9317.7520 -7516.5339 302.1792 189.5539 276.0579 30119.0406 118.4036 187.7889
ENERGY: 900000 1.0325 3.3262 0.5292 0.0000 -10720.2154 1500.6764 0.0000 0.0000 1784.2317 -7430.4194 302.5666 -9214.6512 -7508.4447 301.8022 646.7620 659.4585 30572.4611 113.0758 172.2816
ENERGY: 1200000 2.7549 3.9835 0.0332 0.0000 -10788.4582 1460.7329 0.0000 0.0000 1799.9263 -7521.0275 305.2280 -9320.9538 -7509.9772 302.5752 -42.6911 3.0354 30488.4931 94.4001 155.8117
ENERGY: 1500000 1.8418 3.0073 0.3926 0.0000 -10853.7738 1529.5692 0.0000 0.0000 1761.6192 -7557.3437 298.7320 -9318.9630 -7521.5557 302.1673 749.1257 816.6870 30253.9178 215.8995 282.1795
TCL: Running FEP window   3: Lambda1 0.1    Lambda2 0.15000000000000002 [dLambda 0.05000000000000002]
TCL: Setting parameter firsttimestep to 0
TCL: Setting parameter alchLambda to 0.1
Info: NONBONDED TABLE R-SQUARED SPACING: 0.0625
Info: NONBONDED TABLE SIZE: 705 POINTS
TCL: Setting parameter alchLambda2 to 0.15000000000000002
Info: NONBONDED TABLE R-SQUARED SPACING: 0.0625
Info: NONBONDED TABLE SIZE: 705 POINTS
TCL: Running for 1500000 steps
ETITLE: TS BOND ANGLE DIHED IMPRP ELECT VDW BOUNDARY MISC KINETIC TOTAL TEMP POTENTIAL TOTALAVG TEMPAVG PRESSURE GPRESSURE VOLUME PRESSAVG GPRESSAVG
ENERGY: 0 1.8418 3.0073 0.3926 0.0000 -10853.7737 1530.0076 0.0000 0.0000 1760.7339 -7557.7905 298.5818 -9318.5244 -7557.7905 298.5818 741.0102 818.2891 30253.9178 741.0102 818.2891
ENERGY: 300000 3.3955 3.1284 0.0162 0.0000 -10877.4729 1475.1611 0.0000 0.0000 1769.9325 -7625.8392 300.1417 -9395.7717 -7592.2601 298.5621 108.0843 160.2740 29913.6000 399.5779 452.3284
ENERGY: 600000 2.3090 4.7627 0.9059 0.0000 -10747.7750 1456.0779 0.0000 0.0000 1792.5702 -7491.1493 303.9806 -9283.7195 -7569.6094 297.8953 237.9053 245.5762 30217.7541 300.4821 348.5625
ENERGY: 900000 0.1053 3.1414 0.0333 0.0000 -10633.3943 1380.0267 0.0000 0.0000 1757.1700 -7492.9177 297.9775 -9250.0877 -7564.4407 295.7827 -360.5650 -425.7796 30646.9837 178.2956 220.4253
ENERGY: 1200000 3.4810 3.4088 0.1870 0.0000 -10734.7867 1372.8034 0.0000 0.0000 1805.8184 -7549.0881 306.2272 -9354.9065 -7545.6429 298.1188 -1028.7375 -918.5984 30869.1474 74.8557 125.0500
ENERGY: 1500000 0.2282 2.9309 0.3887 0.0000 -10792.6898 1429.1241 0.0000 0.0000 1819.5575 -7540.4605 308.5570 -9360.0180 -7545.1638 299.2301 -392.7741 -326.0068 30597.6703 11.1956 64.2050
TCL: Running FEP window   4: Lambda1 0.15000000000000002 Lambda2 0.2    [dLambda 0.04999999999999999]
TCL: Setting parameter firsttimestep to 0
TCL: Setting parameter alchLambda to 0.15000000000000002
Info: NONBONDED TABLE R-SQUARED SPACING: 0.0625
Info: NONBONDED TABLE SIZE: 705 POINTS
TCL: Setting parameter alchLambda2 to 0.2
Info: NONBONDED TABLE R-SQUARED SPACING: 0.0625
Info: NONBONDED TABLE SIZE: 705 POINTS
TCL: Running for 1500000 steps
ETITLE: TS BOND ANGLE DIHED IMPRP ELECT VDW BOUNDARY MISC KINETIC TOTAL TEMP POTENTIAL TOTALAVG TEMPAVG PRESSURE GPRESSURE VOLUME PRESSAVG GPRESSAVG
ENERGY: 0 0.2282 2.9309 0.3887 0.0000 -10792.6887 1429.6027 0.0000 0.0000 1818.7104 -7540.8278 308.4134 -9359.5382 -7540.8278 308.4134 -410.2840 -326.1118 30597.6703 -410.2840 -326.1118
ENERGY: 300000 1.8128 2.5018 0.0451 0.0000 -10857.9746 1552.5580 0.0000 0.0000 1723.7672 -7577.2896 292.3131 -9301.0569 -7513.9040 303.5425 520.2360 641.2354 30866.5937 -118.5216 -36.8982
ENERGY: 600000 0.4300 2.7371 0.8189 0.0000 -10928.6416 1517.5056 0.0000 0.0000 1757.5922 -7649.5578 298.0491 -9407.1501 -7518.5486 303.3891 172.7901 200.7538 30338.4432 -74.9629 -2.6616
ENERGY: 900000 2.3752 4.4634 0.5117 0.0000 -10821.4995 1451.7734 0.0000 0.0000 1724.0005 -7638.3752 292.3527 -9362.3757 -7537.8810 301.3979 -166.0223 -127.1424 30332.6203 88.6765 155.4712
ENERGY: 1200000 0.6327 5.6752 0.2323 0.0000 -10747.9238 1416.6678 0.0000 0.0000 1781.3312 -7543.3846 302.0747 -9324.7158 -7537.6991 301.4398 -119.4207 6.3451 30029.4254 -39.0059 33.5951
ENERGY: 1500000 0.5926 2.4570 0.0350 0.0000 -10807.3675 1492.5876 0.0000 0.0000 1803.4763 -7508.2191 305.8300 -9311.6953 -7532.2426 301.6451 382.4378 458.6673 30461.0528 52.1609 124.0750
TCL: Running FEP window   5: Lambda1 0.2    Lambda2 0.25   [dLambda 0.04999999999999999]
TCL: Setting parameter firsttimestep to 0
TCL: Setting parameter alchLambda to 0.2
Info: NONBONDED TABLE R-SQUARED SPACING: 0.0625
Info: NONBONDED TABLE SIZE: 705 POINTS
TCL: Setting parameter alchLambda2 to 0.25
Info: NONBONDED TABLE R-SQUARED SPACING: 0.0625
Info: NONBONDED TABLE SIZE: 705 POINTS
TCL: Running for 1500000 steps
ETITLE: TS BOND ANGLE DIHED IMPRP ELECT VDW BOUNDARY MISC KINETIC TOTAL TEMP POTENTIAL TOTALAVG TEMPAVG PRESSURE GPRESSURE VOLUME PRESSAVG GPRESSAVG
ENERGY: 0 0.5926 2.4570 0.0350 0.0000 -10807.3688 1492.5629 0.0000 0.0000 1802.6171 -7509.1041 305.6843 -9311.7212 -7509.1041 305.6843 387.7150 461.9266 30461.0528 387.7150 461.9266
ENERGY: 300000 3.7090 4.2754 0.0995 0.0000 -10579.9858 1314.5062 0.0000 0.0000 1767.5034 -7489.8922 299.7298 -9257.3956 -7523.4784 301.4510 -1332.7274 -1276.3162 31089.0222 -266.3363 -191.8304
ENERGY: 600000 0.6777 2.8137 0.4443 0.0000 -10816.9583 1504.1832 0.0000 0.0000 1798.9381 -7509.9015 305.0604 -9308.8396 -7536.1723 301.6552 355.2139 385.8641 30657.3615 -190.3040 -115.7848
ENERGY: 900000 0.2492 4.6599 0.1758 0.0000 -10776.0016 1451.5935 0.0000 0.0000 1765.7580 -7553.5652 299.4338 -9319.3232 -7543.7435 299.9593 -62.2744 -58.3508 30445.8863 -30.9419 33.9684
ENERGY: 1200000 1.5912 3.0727 0.1411 0.0000 -10612.3425 1365.2462 0.0000 0.0000 1781.2839 -7461.0074 302.0667 -9242.2913 -7545.8877 299.8234 -577.2455 -514.3983 30678.5400 25.9773 85.9504
ENERGY: 1500000 2.6677 7.0175 0.0814 0.0000 -10820.5035 1479.6558 0.0000 0.0000 1779.9539 -7551.1272 301.8411 -9331.0811 -7551.8539 299.9719 -138.2616 -30.7246 30446.4846 18.0892 87.3034
TCL: Running FEP window   6: Lambda1 0.25   Lambda2 0.3    [dLambda 0.04999999999999999]
TCL: Setting parameter firsttimestep to 0
TCL: Setting parameter alchLambda to 0.25
Info: NONBONDED TABLE R-SQUARED SPACING: 0.0625
Info: NONBONDED TABLE SIZE: 705 POINTS
TCL: Setting parameter alchLambda2 to 0.3
Info: NONBONDED TABLE R-SQUARED SPACING: 0.0625
Info: NONBONDED TABLE SIZE: 705 POINTS
TCL: Running for 1500000 steps
ETITLE: TS BOND ANGLE DIHED IMPRP ELECT VDW BOUNDARY MISC KINETIC TOTAL TEMP POTENTIAL TOTALAVG TEMPAVG PRESSURE GPRESSURE VOLUME PRESSAVG GPRESSAVG
ENERGY: 0 2.6677 7.0175 0.0814 0.0000 -10820.5049 1481.4397 0.0000 0.0000 1779.0871 -7550.2116 301.6941 -9329.2987 -7550.2116 301.6941 -98.6089 -18.4617 30446.4846 -98.6089 -18.4617
ENERGY: 300000 0.3648 5.8396 0.8031 0.0000 -10779.7449 1489.6770 0.0000 0.0000 1748.2949 -7534.7655 296.4725 -9283.0605 -7536.1600 302.2535 558.0301 645.4433 29956.0602 149.0908 204.4293
ENERGY: 600000 0.7172 3.4907 0.4734 0.0000 -10815.2821 1504.2705 0.0000 0.0000 1775.0772 -7531.2531 301.0141 -9306.3303 -7540.9013 301.0289 357.1599 481.8262 30434.6661 214.9032 275.3547
ENERGY: 900000 1.3773 2.8323 0.1519 0.0000 -10727.6447 1473.3590 0.0000 0.0000 1796.6992 -7453.2250 304.6808 -9249.9242 -7523.3886 301.3102 357.5237 422.6971 30455.6285 139.1242 194.1023
ENERGY: 1200000 1.4448 3.9018 0.3778 0.0000 -10796.9496 1472.2099 0.0000 0.0000 1755.4175 -7563.5978 297.6803 -9319.0153 -7525.6411 301.4653 69.1916 128.1063 30508.1290 150.0300 197.7495
ENERGY: 1500000 0.5568 3.4270 0.4445 0.0000 -10678.9312 1442.9939 0.0000 0.0000 1747.6797 -7483.8293 296.3681 -9231.5090 -7527.1244 300.4972 206.5666 231.0877 30605.5376 99.2108 147.5923
TCL: Running FEP window   7: Lambda1 0.3    Lambda2 0.35   [dLambda 0.04999999999999999]
TCL: Setting parameter firsttimestep to 0
TCL: Setting parameter alchLambda to 0.3
Info: NONBONDED TABLE R-SQUARED SPACING: 0.0625
Info: NONBONDED TABLE SIZE: 705 POINTS
TCL: Setting parameter alchLambda2 to 0.35
Info: NONBONDED TABLE R-SQUARED SPACING: 0.0625
Info: NONBONDED TABLE SIZE: 705 POINTS
TCL: Running for 1500000 steps
ETITLE: TS BOND ANGLE DIHED IMPRP ELECT VDW BOUNDARY MISC KINETIC TOTAL TEMP POTENTIAL TOTALAVG TEMPAVG PRESSURE GPRESSURE VOLUME PRESSAVG GPRESSAVG
ENERGY: 0 0.5568 3.4270 0.4445 0.0000 -10678.9312 1442.9275 0.0000 0.0000 1746.7958 -7484.7796 296.2182 -9231.5753 -7484.7796 296.2182 145.7325 235.3904 30605.5376 145.7325 235.3904
ENERGY: 300000 3.1920 3.2262 0.6931 0.0000 -10873.4363 1481.4772 0.0000 0.0000 1784.8736 -7599.9742 302.6754 -9384.8478 -7565.1946 296.2488 258.3437 259.5633 30231.7841 -71.5539 -21.1998
ENERGY: 600000 0.5705 3.5012 0.2514 0.0000 -10708.7515 1426.7203 0.0000 0.0000 1728.5527 -7549.1554 293.1246 -9277.7081 -7561.4548 296.3531 -157.0316 -93.5559 30603.4825 -96.4036 -36.6351
ENERGY: 900000 0.7291 7.1078 0.3045 0.0000 -10871.0100 1474.3170 0.0000 0.0000 1774.4320 -7614.1196 300.9047 -9388.5516 -7551.6635 297.2896 -57.8576 37.8376 30338.3020 -146.8842 -82.6443
ENERGY: 1200000 4.3413 2.0974 0.3710 0.0000 -10757.1813 1430.6780 0.0000 0.0000 1748.9189 -7570.7748 296.5783 -9319.6937 -7542.2355 298.6047 -329.2340 -239.3296 30877.7723 -177.3605 -115.2390
ENERGY: 1500000 0.6605 4.8230 0.3411 0.0000 -10698.5856 1429.8463 0.0000 0.0000 1786.5446 -7476.3701 302.9588 -9262.9147 -7535.8996 299.3440 89.2935 125.0588 30355.8405 -181.0971 -126.4731
TCL: Running FEP window   8: Lambda1 0.35   Lambda2 0.39999999999999997 [dLambda 0.04999999999999999]
TCL: Setting parameter firsttimestep to 0
TCL: Setting parameter alchLambda to 0.35
Info: NONBONDED TABLE R-SQUARED SPACING: 0.0625
Info: NONBONDED TABLE SIZE: 705 POINTS
TCL: Setting parameter alchLambda2 to 0.39999999999999997
Info: NONBONDED TABLE R-SQUARED SPACING: 0.0625
Info: NONBONDED TABLE SIZE: 705 POINTS
TCL: Running for 1500000 steps
ETITLE: TS BOND ANGLE DIHED IMPRP ELECT VDW BOUNDARY MISC KINETIC TOTAL TEMP POTENTIAL TOTALAVG TEMPAVG PRESSURE GPRESSURE VOLUME PRESSAVG GPRESSAVG
ENERGY: 0 0.6605 4.8230 0.3411 0.0000 -10698.5858 1431.0349 0.0000 0.0000 1785.6511 -7476.0752 302.8072 -9261.7263 -7476.0752 302.8072 50.9746 133.6517 30355.8405 50.9746 133.6517
ENERGY: 300000 0.0429 3.4573 0.2027 0.0000 -10716.3673 1393.5344 0.0000 0.0000 1823.3414 -7495.7886 309.1987 -9319.1300 -7515.9750 300.9219 -579.6471 -497.5650 30859.0032 147.1535 220.5878
ENERGY: 600000 2.7926 3.3107 0.3991 0.0000 -10770.2157 1501.0730 0.0000 0.0000 1781.9233 -7480.7169 302.1751 -9262.6402 -7519.6767 300.2496 482.1400 492.8962 30484.0625 181.9592 246.2087
ENERGY: 900000 0.9021 4.7080 0.0629 0.0000 -10683.3009 1425.8455 0.0000 0.0000 1717.8838 -7533.8984 291.3154 -9251.7823 -7527.0862 298.6304 -131.3494 -94.4437 30683.4573 52.0803 110.6500
ENERGY: 1200000 2.2284 7.1261 0.0655 0.0000 -10767.1854 1444.1984 0.0000 0.0000 1773.1902 -7540.3769 300.6942 -9313.5670 -7533.6718 298.5718 -271.1194 -214.2292 30817.2713 -45.4945 13.3678
ENERGY: 1500000 2.0364 4.2287 0.3765 0.0000 -10688.8628 1393.5377 0.0000 0.0000 1784.4915 -7504.1920 302.6106 -9288.6835 -7524.3158 299.1847 -479.4764 -430.4041 30706.7027 -78.8726 -17.4183
TCL: Running FEP window   9: Lambda1 0.39999999999999997 Lambda2 0.44999999999999996 [dLambda 0.04999999999999999]
TCL: Setting parameter firsttimestep to 0
TCL: Setting parameter alchLambda to 0.39999999999999997
Info: NONBONDED TABLE R-SQUARED SPACING: 0.0625
Info: NONBONDED TABLE SIZE: 705 POINTS
TCL: Setting parameter alchLambda2 to 0.44999999999999996
Info: NONBONDED TABLE R-SQUARED SPACING: 0.0625
Info: NONBONDED TABLE SIZE: 705 POINTS
TCL: Running for 1500000 steps
ETITLE: TS BOND ANGLE DIHED IMPRP ELECT VDW BOUNDARY MISC KINETIC TOTAL TEMP POTENTIAL TOTALAVG TEMPAVG PRESSURE GPRESSURE VOLUME PRESSAVG GPRESSAVG
ENERGY: 0 2.0364 4.2287 0.3765 0.0000 -10688.8631 1393.2599 0.0000 0.0000 1783.6382 -7505.3235 302.4659 -9288.9617 -7505.3235 302.4659 -508.7471 -429.7291 30706.7027 -508.7471 -429.7291
ENERGY: 300000 0.5330 4.0817 0.0967 0.0000 -10857.4550 1516.9211 0.0000 0.0000 1769.9862 -7565.8362 300.1508 -9335.8224 -7557.3346 298.0114 687.3622 771.4952 30034.2711 273.2547 344.3737
ENERGY: 600000 2.2812 5.3600 0.0842 0.0000 -10745.9025 1365.1319 0.0000 0.0000 1701.3820 -7671.6633 288.5171 -9373.0453 -7552.8109 297.5905 -1142.3879 -1112.7491 30748.0427 47.7087 102.0313
ENERGY: 900000 1.4495 3.7098 0.0181 0.0000 -10764.3528 1457.5758 0.0000 0.0000 1801.1644 -7500.4351 305.4380 -9301.5996 -7551.2080 299.2386 125.9463 121.4309 30337.7645 74.7473 120.6215
ENERGY: 1200000 1.1484 5.5581 0.1642 0.0000 -10829.8426 1493.9866 0.0000 0.0000 1744.7397 -7584.2456 295.8696 -9328.9853 -7551.6610 299.2669 137.8194 196.1758 30467.5217 143.7425 185.7406
ENERGY: 1500000 2.5097 3.3965 0.0542 0.0000 -10634.3779 1348.6189 0.0000 0.0000 1782.3823 -7497.4163 302.2529 -9279.7986 -7544.8986 299.6333 -866.4718 -709.3307 31063.9915 52.1313 100.1600
TCL: Running FEP window  10: Lambda1 0.44999999999999996 Lambda2 0.49999999999999994 [dLambda 0.04999999999999999]
TCL: Setting parameter firsttimestep to 0
TCL: Setting parameter alchLambda to 0.44999999999999996
Info: NONBONDED TABLE R-SQUARED SPACING: 0.0625
Info: NONBONDED TABLE SIZE: 705 POINTS
TCL: Setting parameter alchLambda2 to 0.49999999999999994
Info: NONBONDED TABLE R-SQUARED SPACING: 0.0625
Info: NONBONDED TABLE SIZE: 705 POINTS
TCL: Running for 1500000 steps
ETITLE: TS BOND ANGLE DIHED IMPRP ELECT VDW BOUNDARY MISC KINETIC TOTAL TEMP POTENTIAL TOTALAVG TEMPAVG PRESSURE GPRESSURE VOLUME PRESSAVG GPRESSAVG
ENERGY: 0 2.5097 3.3965 0.0542 0.0000 -10634.3791 1348.4853 0.0000 0.0000 1781.4835 -7498.4498 302.1005 -9279.9334 -7498.4498 302.1005 -785.7287 -706.6520 31063.9915 -785.7287 -706.6520
ENERGY: 300000 0.2318 4.5571 0.0472 0.0000 -10798.0760 1527.1798 0.0000 0.0000 1730.6210 -7535.4390 293.4754 -9266.0600 -7501.4845 302.0270 756.6599 765.6001 30646.0724 8.9212 59.2326
ENERGY: 600000 1.1724 3.9567 0.3105 0.0000 -10694.1148 1439.6832 0.0000 0.0000 1748.0257 -7500.9663 296.4268 -9248.9920 -7510.2146 301.2950 -172.4956 -145.5711 31184.3388 -118.3283 -66.2198
ENERGY: 900000 0.6876 5.2585 0.0703 0.0000 -10764.6920 1453.0616 0.0000 0.0000 1758.5771 -7547.0370 298.2161 -9305.6141 -7515.3264 301.2039 -50.0143 4.2307 30579.6056 -178.6284 -122.2862
ENERGY: 1200000 1.1136 6.8307 0.2694 0.0000 -10805.6672 1448.7292 0.0000 0.0000 1730.5853 -7618.1389 293.4693 -9348.7242 -7542.4310 299.7290 74.6423 121.8976 30179.5755 -52.1340 -4.5307
ENERGY: 1500000 1.2553 2.7722 0.0324 0.0000 -10791.4062 1523.2661 0.0000 0.0000 1731.8963 -7532.1838 293.6916 -9264.0801 -7537.1529 299.8327 678.1545 663.2659 30483.1328 -65.7648 -28.6859
TCL: Running FEP window  11: Lambda1 0.49999999999999994 Lambda2 0.5499999999999999 [dLambda 0.04999999999999999]
TCL: Setting parameter firsttimestep to 0
TCL: Setting parameter alchLambda to 0.49999999999999994
Info: NONBONDED TABLE R-SQUARED SPACING: 0.0625
Info: NONBONDED TABLE SIZE: 705 POINTS
TCL: Setting parameter alchLambda2 to 0.5499999999999999
Info: NONBONDED TABLE R-SQUARED SPACING: 0.0625
Info: NONBONDED TABLE SIZE: 705 POINTS
TCL: Running for 1500000 steps
ETITLE: TS BOND ANGLE DIHED IMPRP ELECT VDW BOUNDARY MISC KINETIC TOTAL TEMP POTENTIAL TOTALAVG TEMPAVG PRESSURE GPRESSURE VOLUME PRESSAVG GPRESSAVG
ENERGY: 0 1.2553 2.7722 0.0324 0.0000 -10791.4070 1522.7844 0.0000 0.0000 1730.9964 -7533.5662 293.5390 -9264.5627 -7533.5662 293.5390 581.6017 663.2395 30483.1328 581.6017 663.2395
ENERGY: 300000 0.6444 3.8467 0.2372 0.0000 -10752.0770 1424.3690 0.0000 0.0000 1762.4333 -7560.5464 298.8700 -9322.9797 -7556.1432 297.5399 -283.4457 -192.6643 30544.3629 -332.1465 -276.1451
ENERGY: 600000 0.6546 2.1916 0.0760 0.0000 -10833.7634 1469.6938 0.0000 0.0000 1791.5533 -7569.5941 303.8081 -9361.1475 -7555.9448 298.6933 230.8104 293.4273 30335.9404 -234.1419 -180.3700
ENERGY: 900000 1.1908 2.2839 0.3432 0.0000 -10812.7298 1488.0379 0.0000 0.0000 1817.7815 -7503.0924 308.2559 -9320.8740 -7540.8913 300.2043 354.4127 442.1122 30310.0280 -307.4091 -244.1243
ENERGY: 1200000 0.4434 2.8742 0.3981 0.0000 -10846.9249 1509.3086 0.0000 0.0000 1743.6956 -7590.2050 295.6925 -9333.9007 -7554.4948 298.8449 491.1467 515.8098 30352.5090 -179.5784 -116.6627
ENERGY: 1500000 3.0527 3.3180 1.1368 0.0000 -10773.6039 1391.3971 0.0000 0.0000 1789.8101 -7584.8893 303.5125 -9374.6994 -7557.5304 299.2719 -610.8736 -631.0453 30591.9262 -151.4130 -92.2164
TCL: Running FEP window  12: Lambda1 0.5499999999999999 Lambda2 0.6    [dLambda 0.050000000000000044]
TCL: Setting parameter firsttimestep to 0
TCL: Setting parameter alchLambda to 0.5499999999999999
Info: NONBONDED TABLE R-SQUARED SPACING: 0.0625
Info: NONBONDED TABLE SIZE: 705 POINTS
TCL: Setting parameter alchLambda2 to 0.6
Info: NONBONDED TABLE R-SQUARED SPACING: 0.0625
Info: NONBONDED TABLE SIZE: 705 POINTS
TCL: Running for 1500000 steps
ETITLE: TS BOND ANGLE DIHED IMPRP ELECT VDW BOUNDARY MISC KINETIC TOTAL TEMP POTENTIAL TOTALAVG TEMPAVG PRESSURE GPRESSURE VOLUME PRESSAVG GPRESSAVG
ENERGY: 0 3.0527 3.3180 1.1368 0.0000 -10773.6297 1391.0409 0.0000 0.0000 1788.9389 -7586.1424 303.3648 -9375.0813 -7586.1424 303.3648 -714.1751 -629.5556 30591.9262 -714.1751 -629.5556
ENERGY: 300000 0.3629 2.9045 0.0723 0.0000 -10886.0898 1540.0210 0.0000 0.0000 1782.1609 -7560.5681 302.2154 -9342.7290 -7534.6636 300.2820 641.0923 678.6431 30299.6645 -26.2265 41.7757
ENERGY: 600000 0.7647 1.4079 1.4497 0.0000 -10718.8200 1441.6940 0.0000 0.0000 1769.1528 -7504.3508 300.0095 -9273.5036 -7537.2938 298.8218 -127.2289 -104.2731 31002.5317 63.9594 129.1333
ENERGY: 900000 0.8622 3.4741 0.0320 0.0000 -10759.5521 1451.4998 0.0000 0.0000 1741.7488 -7561.9353 295.3624 -9303.6841 -7552.7585 298.1090 -77.5868 -7.5045 30790.2499 -21.0275 32.2576
ENERGY: 1200000 0.3977 2.4734 0.2659 0.0000 -10714.4738 1420.7274 0.0000 0.0000 1805.2748 -7485.3346 306.1350 -9290.6094 -7538.5737 298.9160 -167.5191 -95.8109 30646.3449 -68.7812 -9.6652
ENERGY: 1500000 0.3728 4.3091 0.1657 0.0000 -10720.2007 1432.7367 0.0000 0.0000 1734.9131 -7547.7032 294.2032 -9282.6164 -7548.1806 298.2099 -452.5923 -418.8843 31282.5872 -138.5825 -80.8628
TCL: Running FEP window  13: Lambda1 0.6    Lambda2 0.65   [dLambda 0.050000000000000044]
TCL: Setting parameter firsttimestep to 0
TCL: Setting parameter alchLambda to 0.6
Info: NONBONDED TABLE R-SQUARED SPACING: 0.0625
Info: NONBONDED TABLE SIZE: 705 POINTS
TCL: Setting parameter alchLambda2 to 0.65
Info: NONBONDED TABLE R-SQUARED SPACING: 0.0625
Info: NONBONDED TABLE SIZE: 705 POINTS
TCL: Running for 1500000 steps
ETITLE: TS BOND ANGLE DIHED IMPRP ELECT VDW BOUNDARY MISC KINETIC TOTAL TEMP POTENTIAL TOTALAVG TEMPAVG PRESSURE GPRESSURE VOLUME PRESSAVG GPRESSAVG
ENERGY: 0 0.3728 4.3091 0.1657 0.0000 -10720.2550 1432.3357 0.0000 0.0000 1734.0339 -7549.0377 294.0541 -9283.0716 -7549.0377 294.0541 -491.2888 -418.2655 31282.5872 -491.2888 -418.2655
ENERGY: 300000 2.5285 5.9157 0.0322 0.0000 -10756.0829 1440.4144 0.0000 0.0000 1796.6759 -7510.5162 304.6768 -9307.1921 -7572.9691 299.2077 -147.5105 -83.6993 30428.4394 -53.9666 15.9708
ENERGY: 600000 0.5565 3.1564 0.1310 0.0000 -10807.2095 1465.5869 0.0000 0.0000 1751.8520 -7585.9268 297.0757 -9337.7787 -7563.0244 300.5054 112.3916 260.8515 30205.2866 -102.7234 -28.9659
ENERGY: 900000 1.1759 4.5973 0.1993 0.0000 -10733.1426 1402.8663 0.0000 0.0000 1805.1664 -7519.1375 306.1166 -9324.3039 -7549.7728 301.7699 -546.0005 -456.6555 30726.5511 -89.9563 -22.4976
ENERGY: 1200000 0.3947 3.7514 0.1289 0.0000 -10704.5049 1398.4762 0.0000 0.0000 1763.2046 -7538.5491 299.0008 -9301.7537 -7559.8499 299.7222 -385.9337 -296.9355 30507.7706 -43.1806 24.6069
ENERGY: 1500000 1.9813 3.6908 1.3248 0.0000 -10611.9736 1370.8876 0.0000 0.0000 1761.3870 -7472.7021 298.6926 -9234.0891 -7549.3455 299.2032 -475.1031 -424.3566 30727.7524 -40.9342 25.6013
TCL: Running FEP window  14: Lambda1 0.65   Lambda2 0.7000000000000001 [dLambda 0.050000000000000044]
TCL: Setting parameter firsttimestep to 0
TCL: Setting parameter alchLambda to 0.65
Info: NONBONDED TABLE R-SQUARED SPACING: 0.0625
Info: NONBONDED TABLE SIZE: 705 POINTS
TCL: Setting parameter alchLambda2 to 0.7000000000000001
Info: NONBONDED TABLE R-SQUARED SPACING: 0.0625
Info: NONBONDED TABLE SIZE: 705 POINTS
TCL: Running for 1500000 steps
ETITLE: TS BOND ANGLE DIHED IMPRP ELECT VDW BOUNDARY MISC KINETIC TOTAL TEMP POTENTIAL TOTALAVG TEMPAVG PRESSURE GPRESSURE VOLUME PRESSAVG GPRESSAVG
ENERGY: 0 1.9813 3.6908 1.3248 0.0000 -10612.1695 1371.4319 0.0000 0.0000 1760.5050 -7473.2357 298.5430 -9233.7408 -7473.2357 298.5430 -486.6215 -413.9131 30727.7524 -486.6215 -413.9131
ENERGY: 300000 1.5884 2.2632 0.2014 0.0000 -10743.2685 1442.5361 0.0000 0.0000 1753.5876 -7543.0918 297.3700 -9296.6794 -7510.1678 300.4518 186.9615 235.7025 30291.0415 -198.8603 -140.0335
ENERGY: 600000 1.7788 5.0511 0.6981 0.0000 -10634.2132 1420.0821 0.0000 0.0000 1819.9691 -7386.6338 308.6268 -9206.6029 -7496.1663 301.3160 118.5976 173.8637 30452.0431 -32.8309 36.0812
ENERGY: 900000 0.5687 6.2704 0.2807 0.0000 -10819.5628 1479.9222 0.0000 0.0000 1767.9061 -7564.6146 299.7981 -9332.5207 -7497.8027 301.5624 166.9316 206.4518 30464.0082 -92.6243 -22.7658
ENERGY: 1200000 0.4546 3.3589 0.4678 0.0000 -10692.7604 1445.2577 0.0000 0.0000 1770.9705 -7472.2509 300.3177 -9243.2214 -7513.5692 301.2621 360.0214 378.0789 30308.0949 -39.4534 22.8262
ENERGY: 1500000 0.3567 4.5796 0.1124 0.0000 -10824.3529 1430.2237 0.0000 0.0000 1742.6239 -7646.4566 295.5108 -9389.0806 -7532.3842 300.2663 -424.9922 -418.3059 30755.7845 -43.3154 13.5138
TCL: Running FEP window  15: Lambda1 0.7000000000000001 Lambda2 0.7500000000000001 [dLambda 0.050000000000000044]
TCL: Setting parameter firsttimestep to 0
TCL: Setting parameter alchLambda to 0.7000000000000001
Info: NONBONDED TABLE R-SQUARED SPACING: 0.0625
Info: NONBONDED TABLE SIZE: 705 POINTS
TCL: Setting parameter alchLambda2 to 0.7500000000000001
Info: NONBONDED TABLE R-SQUARED SPACING: 0.0625
Info: NONBONDED TABLE SIZE: 705 POINTS
TCL: Running for 1500000 steps
ETITLE: TS BOND ANGLE DIHED IMPRP ELECT VDW BOUNDARY MISC KINETIC TOTAL TEMP POTENTIAL TOTALAVG TEMPAVG PRESSURE GPRESSURE VOLUME PRESSAVG GPRESSAVG
ENERGY: 0 0.3567 4.5796 0.1124 0.0000 -10824.4546 1429.9762 0.0000 0.0000 1741.6713 -7647.7584 295.3492 -9389.4297 -7647.7584 295.3492 -496.0785 -411.2294 30755.7845 -496.0785 -411.2294
ENERGY: 300000 0.0693 4.4676 0.0311 0.0000 -10849.4625 1458.7466 0.0000 0.0000 1754.9267 -7631.2213 297.5971 -9386.1480 -7597.8980 298.5179 -220.3337 -166.8893 30680.5527 -483.9777 -412.1237
ENERGY: 600000 1.7522 3.6278 0.4216 0.0000 -10714.4280 1440.8652 0.0000 0.0000 1769.6374 -7498.1239 300.0917 -9267.7613 -7569.8152 299.7845 207.4184 277.9501 30127.1553 -218.9126 -159.4151
ENERGY: 900000 0.5168 5.3616 0.1495 0.0000 -10768.6832 1426.6005 0.0000 0.0000 1794.5072 -7541.5477 304.3090 -9336.0548 -7560.5324 300.3978 -2.9766 58.1615 30114.7055 -169.3680 -112.1203
ENERGY: 1200000 2.3428 3.0821 0.0228 0.0000 -10671.1386 1378.8750 0.0000 0.0000 1775.1363 -7511.6797 301.0242 -9286.8160 -7560.0751 300.2623 -729.6970 -624.9254 31128.4005 -217.4897 -158.7609
ENERGY: 1500000 1.0310 4.5655 0.4115 0.0000 -10838.2925 1500.6567 0.0000 0.0000 1741.4436 -7590.1842 295.3106 -9331.6279 -7552.8670 300.2445 495.5626 502.1215 30351.2920 -101.4845 -48.5137
TCL: Running FEP window  16: Lambda1 0.7500000000000001 Lambda2 0.8000000000000002 [dLambda 0.050000000000000044]
TCL: Setting parameter firsttimestep to 0
TCL: Setting parameter alchLambda to 0.7500000000000001
Info: NONBONDED TABLE R-SQUARED SPACING: 0.0625
Info: NONBONDED TABLE SIZE: 705 POINTS
TCL: Setting parameter alchLambda2 to 0.8000000000000002
Info: NONBONDED TABLE R-SQUARED SPACING: 0.0625
Info: NONBONDED TABLE SIZE: 705 POINTS
TCL: Running for 1500000 steps
ETITLE: TS BOND ANGLE DIHED IMPRP ELECT VDW BOUNDARY MISC KINETIC TOTAL TEMP POTENTIAL TOTALAVG TEMPAVG PRESSURE GPRESSURE VOLUME PRESSAVG GPRESSAVG
ENERGY: 0 1.0310 4.5655 0.4115 0.0000 -10838.6742 1500.3051 0.0000 0.0000 1740.5678 -7591.7934 295.1621 -9332.3612 -7591.7934 295.1621 423.3399 505.1392 30351.2920 423.3399 505.1392
ENERGY: 300000 1.4749 6.2548 0.0733 0.0000 -10694.7078 1389.9517 0.0000 0.0000 1814.8033 -7482.1497 307.7508 -9296.9530 -7525.8069 303.2043 -491.4061 -385.8996 30722.3465 166.3027 247.4895
ENERGY: 600000 1.2436 5.4723 0.1828 0.0000 -10750.9838 1446.3863 0.0000 0.0000 1785.3271 -7512.3717 302.7523 -9297.6988 -7510.1725 302.1307 -57.4855 22.2384 30545.5911 -66.6986 18.1488
ENERGY: 900000 1.8150 4.6435 0.1040 0.0000 -10712.6195 1373.2921 0.0000 0.0000 1771.1830 -7561.5818 300.3538 -9332.7648 -7532.6376 300.6164 -706.4517 -592.6593 30666.8180 49.0460 128.7568
ENERGY: 1200000 0.7842 3.7959 0.1643 0.0000 -10804.5772 1441.1811 0.0000 0.0000 1788.4522 -7570.1994 303.2823 -9358.6516 -7544.7819 300.3816 -282.7595 -260.0999 30683.5554 -56.5672 17.4778
ENERGY: 1500000 1.2546 8.2182 0.1068 0.0000 -10597.4085 1351.9807 0.0000 0.0000 1805.6361 -7430.2123 306.1963 -9235.8483 -7536.0481 300.2547 -771.8451 -706.1720 30963.3653 -54.9746 14.7097
TCL: Running FEP window  17: Lambda1 0.8000000000000002 Lambda2 0.8500000000000002 [dLambda 0.050000000000000044]
TCL: Setting parameter firsttimestep to 0
TCL: Setting parameter alchLambda to 0.8000000000000002
Info: NONBONDED TABLE R-SQUARED SPACING: 0.0625
Info: NONBONDED TABLE SIZE: 705 POINTS
TCL: Setting parameter alchLambda2 to 0.8500000000000002
Info: NONBONDED TABLE R-SQUARED SPACING: 0.0625
Info: NONBONDED TABLE SIZE: 705 POINTS
TCL: Running for 1500000 steps
ETITLE: TS BOND ANGLE DIHED IMPRP ELECT VDW BOUNDARY MISC KINETIC TOTAL TEMP POTENTIAL TOTALAVG TEMPAVG PRESSURE GPRESSURE VOLUME PRESSAVG GPRESSAVG
ENERGY: 0 1.2546 8.2182 0.1068 0.0000 -10597.4734 1351.6383 0.0000 0.0000 1804.7767 -7431.4788 306.0505 -9236.2556 -7431.4788 306.0505 -773.7251 -703.8353 30963.3653 -773.7251 -703.8353
ENERGY: 300000 0.3845 7.7901 0.3650 0.0000 -10808.1329 1532.1387 0.0000 0.0000 1772.1255 -7495.3291 300.5136 -9267.4546 -7504.9880 301.5273 691.0213 713.2378 30705.0925 198.5056 271.4936
ENERGY: 600000 1.1926 3.2955 0.6988 0.0000 -10723.2414 1349.4680 0.0000 0.0000 1765.2096 -7603.3768 299.3408 -9368.5865 -7524.9223 300.1794 -710.3988 -610.4321 30185.9871 -11.7112 64.4934
ENERGY: 900000 0.9331 4.9886 1.0916 0.0000 -10686.5107 1333.5337 0.0000 0.0000 1789.1561 -7556.8076 303.4016 -9345.9636 -7535.6423 301.4263 -439.0985 -363.2764 30048.4461 2.9078 60.7292
ENERGY: 1200000 1.1395 7.7423 0.1161 0.0000 -10852.1896 1532.1077 0.0000 0.0000 1763.3329 -7547.7512 299.0226 -9311.0841 -7526.9603 302.1261 575.8755 654.1454 30588.8381 135.3169 190.0412
ENERGY: 1500000 0.5210 6.2748 0.3241 0.0000 -10737.5808 1442.6864 0.0000 0.0000 1815.8058 -7471.9686 307.9208 -9287.7745 -7519.1080 302.1635 33.4510 61.0624 30715.6661 105.9104 152.7083
TCL: Running FEP window  18: Lambda1 0.8500000000000002 Lambda2 0.9000000000000002 [dLambda 0.050000000000000044]
TCL: Setting parameter firsttimestep to 0
TCL: Setting parameter alchLambda to 0.8500000000000002
Info: NONBONDED TABLE R-SQUARED SPACING: 0.0625
Info: NONBONDED TABLE SIZE: 705 POINTS
TCL: Setting parameter alchLambda2 to 0.9000000000000002
Info: NONBONDED TABLE R-SQUARED SPACING: 0.0625
Info: NONBONDED TABLE SIZE: 705 POINTS
TCL: Running for 1500000 steps
ETITLE: TS BOND ANGLE DIHED IMPRP ELECT VDW BOUNDARY MISC KINETIC TOTAL TEMP POTENTIAL TOTALAVG TEMPAVG PRESSURE GPRESSURE VOLUME PRESSAVG GPRESSAVG
ENERGY: 0 0.5210 6.2748 0.3241 0.0000 -10738.2444 1443.3469 0.0000 0.0000 1814.9116 -7472.8660 307.7692 -9287.7777 -7472.8660 307.7692 -3.9770 75.0854 30715.6661 -3.9770 75.0854
ENERGY: 300000 1.9315 2.7779 0.5030 0.0000 -10728.7054 1434.2129 0.0000 0.0000 1772.8395 -7516.4406 300.6347 -9289.2801 -7555.5964 300.4199 -98.6695 -13.2922 30781.4506 -200.7830 -109.3564
ENERGY: 600000 0.9007 3.9045 0.1036 0.0000 -10788.8904 1393.8891 0.0000 0.0000 1760.6260 -7629.4665 298.5635 -9390.0925 -7556.5727 301.1439 -493.5420 -431.2402 30037.2990 -316.1960 -238.7893
ENERGY: 900000 0.7670 4.5895 0.1556 0.0000 -10640.2815 1404.7988 0.0000 0.0000 1784.7751 -7445.1954 302.6587 -9229.9706 -7553.8410 300.3250 43.0033 87.7429 30400.8447 -249.1452 -183.7770
ENERGY: 1200000 0.6325 4.1972 0.5451 0.0000 -10699.2197 1373.7434 0.0000 0.0000 1838.3363 -7481.7652 311.7415 -9320.1015 -7549.0857 300.6584 -695.0282 -598.5053 30700.2517 -283.7194 -226.3373
ENERGY: 1500000 1.8415 2.5184 0.0099 0.0000 -10687.2893 1441.8713 0.0000 0.0000 1829.5483 -7411.4999 310.2512 -9241.0482 -7554.1052 300.5235 -51.4281 80.2039 30969.9962 -213.8950 -146.8583
TCL: Running FEP window  19: Lambda1 0.9000000000000002 Lambda2 0.9500000000000003 [dLambda 0.050000000000000044]
TCL: Setting parameter firsttimestep to 0
TCL: Setting parameter alchLambda to 0.9000000000000002
Info: NONBONDED TABLE R-SQUARED SPACING: 0.0625
Info: NONBONDED TABLE SIZE: 705 POINTS
TCL: Setting parameter alchLambda2 to 0.9500000000000003
Info: NONBONDED TABLE R-SQUARED SPACING: 0.0625
Info: NONBONDED TABLE SIZE: 705 POINTS
TCL: Running for 1500000 steps
ETITLE: TS BOND ANGLE DIHED IMPRP ELECT VDW BOUNDARY MISC KINETIC TOTAL TEMP POTENTIAL TOTALAVG TEMPAVG PRESSURE GPRESSURE VOLUME PRESSAVG GPRESSAVG
ENERGY: 0 1.8415 2.5184 0.0099 0.0000 -10687.6325 1441.6000 0.0000 0.0000 1828.6456 -7413.0172 310.0982 -9241.6627 -7413.0172 310.0982 14.0917 86.0655 30969.9962 14.0917 86.0655
ENERGY: 300000 1.3062 3.4112 0.5125 0.0000 -10860.4467 1479.4192 0.0000 0.0000 1784.5916 -7591.2059 302.6276 -9375.7976 -7551.8103 298.7933 182.3403 159.7305 30586.3973 -15.4675 29.3179
ENERGY: 600000 1.1676 5.1470 0.2643 0.0000 -10735.3295 1390.1654 0.0000 0.0000 1782.7266 -7555.8587 302.3113 -9338.5853 -7535.5482 299.7303 -526.7305 -462.2930 30376.0639 -24.9991 16.9470
ENERGY: 900000 2.6555 4.5778 0.1007 0.0000 -10787.0727 1463.1234 0.0000 0.0000 1770.5244 -7546.0910 300.2421 -9316.6154 -7509.1751 301.3922 332.9117 364.7814 30401.3172 -84.1977 -30.5890
ENERGY: 1200000 1.1323 4.7261 0.2119 0.0000 -10813.6821 1460.9428 0.0000 0.0000 1762.5589 -7584.1101 298.8913 -9346.6690 -7504.7592 302.2830 -105.5181 -68.5265 31037.7180 -35.4801 13.6967
ENERGY: 1500000 0.7287 3.2048 0.2125 0.0000 -10709.3153 1415.1768 0.0000 0.0000 1726.4930 -7563.4996 292.7753 -9289.9925 -7518.8141 301.4263 -404.0705 -357.4486 30911.0904 -81.6523 -30.9731
TCL: Running FEP window  20: Lambda1 0.9500000000000003 Lambda2 1.0    [dLambda 0.04999999999999971]
TCL: Setting parameter firsttimestep to 0
TCL: Setting parameter alchLambda to 0.9500000000000003
Info: NONBONDED TABLE R-SQUARED SPACING: 0.0625
Info: NONBONDED TABLE SIZE: 705 POINTS
TCL: Setting parameter alchLambda2 to 1.0
Info: NONBONDED TABLE R-SQUARED SPACING: 0.0625
Info: NONBONDED TABLE SIZE: 705 POINTS
TCL: Running for 1500000 steps
ETITLE: TS BOND ANGLE DIHED IMPRP ELECT VDW BOUNDARY MISC KINETIC TOTAL TEMP POTENTIAL TOTALAVG TEMPAVG PRESSURE GPRESSURE VOLUME PRESSAVG GPRESSAVG
ENERGY: 0 0.7287 3.2048 0.2125 0.0000 -10709.6632 1415.1750 0.0000 0.0000 1725.5953 -7564.7469 292.6231 -9290.3422 -7564.7469 292.6231 -431.3220 -350.0251 30911.0904 -431.3220 -350.0251
ENERGY: 300000 3.0272 4.5007 0.4162 0.0000 -10615.0160 1345.4720 0.0000 0.0000 1766.9989 -7494.6009 299.6442 -9261.5999 -7504.8244 300.9049 -655.9236 -624.4798 30849.1970 -150.4031 -115.3231
ENERGY: 600000 0.5316 9.1065 0.1485 0.0000 -10788.0735 1463.8510 0.0000 0.0000 1719.6389 -7594.7971 291.6130 -9314.4360 -7520.3802 300.0220 135.1771 243.4651 30354.2572 -230.1492 -176.7976
ENERGY: 900000 1.4598 4.0655 0.1811 0.0000 -10797.1459 1444.8454 0.0000 0.0000 1793.1956 -7553.3986 304.0866 -9346.5942 -7518.9970 301.9016 -23.8035 93.7722 30111.8945 -123.0177 -67.9950
ENERGY: 1200000 1.7245 2.8227 0.5667 0.0000 -10676.0198 1367.9892 0.0000 0.0000 1838.2191 -7464.6975 311.7216 -9302.9166 -7514.6185 302.0515 -631.4245 -536.1294 30605.8838 -111.4853 -53.6366
ENERGY: 1500000 1.1194 10.4148 0.1367 0.0000 -10741.5627 1429.7285 0.0000 0.0000 1795.5962 -7504.5671 304.4937 -9300.1633 -7519.9075 301.4467 78.4343 150.0033 29989.3263 -71.4061 -9.9077
TCL: Exiting due to exit command.
