Info: SIMULATION PARAMETERS:
Info: TIMESTEP               2
Info: NUMBER OF STEPS        0
Info: STEPS PER CYCLE        10
Info: PERIODIC CELL BASIS 1  30.8269 0 0
Info: PERIODIC CELL BASIS 2  0 29.4285 0
Info: PERIODIC CELL BASIS 3  0 0 32.7733
Info: PERIODIC CELL CENTER   0 0 0
Info: WRAPPING WATERS AROUND PERIODIC BOUNDARIES ON OUTPUT.
Info: WRAPPING ALL CLUSTERS AROUND PERIODIC BOUNDARIES ON OUTPUT.
Info: FIRST LDB TIMESTEP     50
Info: LAST LDB TIMESTEP     -1
Info: HOM BACKGROUND SCALING 1
Info: PME BACKGROUND SCALING 1
Info: MIN ATOMS PER PATCH    40
Info: EMPTY PATCH LOAD       40 ATOMS
Info: VELOCITY FILE          mobley_7608462_equil.vel
Info: CENTER OF MASS MOVING INITIALLY? NO
Info: DIELECTRIC             1
Info: EXCLUDE                SCALED ONE-FOUR
Info: 1-4 ELECTROSTATICS SCALED BY 0.833333
Info: MODIFIED 1-4 VDW PARAMETERS WILL BE USED
Info: DCD FILENAME           mobley_7608462_prod.dcd
Info: DCD FREQUENCY          100000
Info: DCD FIRST STEP         100000
Info: DCD FILE WILL CONTAIN UNIT CELL DATA
Info: XST FILENAME           mobley_7608462_prod.xst
Info: XST FREQUENCY          100000
Info: NO VELOCITY DCD OUTPUT
Info: NO FORCE DCD OUTPUT
Info: OUTPUT FILENAME        mobley_7608462_prod
Info: BINARY OUTPUT FILES WILL BE USED
Info: RESTART FILENAME       mobley_7608462_prod.restart
Info: RESTART FREQUENCY      100000
Info: BINARY RESTART FILES WILL BE USED
Info: CUTOFF                 9
Info: PAIRLIST DISTANCE      11
Info: PAIRLIST SHRINK RATE   0.01
Info: PAIRLIST GROW RATE     0.01
Info: PAIRLIST TRIGGER       0.3
Info: PAIRLISTS PER CYCLE    2
Info: PAIRLISTS ENABLED
Info: MARGIN                 2
Info: HYDROGEN GROUP CUTOFF  2.5
Info: PATCH DIMENSION        15.5
Info: ENERGY OUTPUT STEPS    100000
Info: ENERGY EVALUATION STEPS    100000
Info: OUTPUT ENERGY PRECISION 4
Info: CROSSTERM ENERGY INCLUDED IN DIHEDRAL
Info: TIMING OUTPUT STEPS    1000000
Info: PRESSURE OUTPUT STEPS  100000
Info: ALCHEMICAL FEP ON
Info: FEP CURRENT LAMBDA VALUE     0
Info: FEP COMPARISON LAMBDA VALUE  0.05
Info: FEP INTRA-ALCHEMICAL NON-BONDED INTERACTIONS WILL BE RETAINED
Info: FEP INTRA-ALCHEMICAL BONDED INTERACTIONS WILL BE RETAINED
Info: FEP VDW SHIFTING COEFFICIENT 5
Info: FEP ELEC. ACTIVE FOR ANNIHILATED PARTICLES BETWEEN LAMBDA = 0 AND LAMBDA = 0.5
Info: FEP ELEC. ACTIVE FOR EXNIHILATED PARTICLES BETWEEN LAMBDA = 0.5 AND LAMBDA = 1
Info: FEP VDW ACTIVE FOR ANNIHILATED PARTICLES BETWEEN LAMBDA = 0 AND LAMBDA = 1
Info: FEP VDW ACTIVE FOR EXNIHILATED PARTICLES BETWEEN LAMBDA = 0 AND LAMBDA = 1
Info: FEP BOND ACTIVE FOR ANNIHILATED PARTICLES BETWEEN LAMBDA = 1 AND LAMBDA = 1
Info: FEP BOND ACTIVE FOR EXNIHILATED PARTICLES BETWEEN LAMBDA = 0 AND LAMBDA = 0
Info: LANGEVIN DYNAMICS ACTIVE
Info: LANGEVIN TEMPERATURE   300
Info: LANGEVIN USING BBK INTEGRATOR
Info: LANGEVIN DAMPING COEFFICIENT IS 1 INVERSE PS
Info: LANGEVIN DYNAMICS APPLIED TO HYDROGENS
Info: LANGEVIN PISTON PRESSURE CONTROL ACTIVE
Info:        TARGET PRESSURE IS 1.01325 BAR
Info:     OSCILLATION PERIOD IS 50 FS
Info:             DECAY TIME IS 25 FS
Info:     PISTON TEMPERATURE IS 300 K
Info:       PRESSURE CONTROL IS GROUP-BASED
Info:    INITIAL STRAIN RATE IS -0.000168801 -0.000168801 -0.000168801
Info:       CELL FLUCTUATION IS ISOTROPIC
Info: PARTICLE MESH EWALD (PME) ACTIVE
Info: PME TOLERANCE               1e-06
Info: PME EWALD COEFFICIENT       0.348832
Info: PME INTERPOLATION ORDER     4
Info: PME GRID DIMENSIONS         32 32 36
Info: PME MAXIMUM GRID SPACING    1
Info: PME CALCULATION WILL BE PERFORMED ON GPU
Info: FULL ELECTROSTATIC EVALUATION FREQUENCY      2
Info: USING VERLET I (r-RESPA) MTS SCHEME.
Info: C1 SPLITTING OF LONG RANGE ELECTROSTATICS
Info: PLACING ATOMS IN PATCHES BY HYDROGEN GROUPS
Info: RIGID BONDS TO HYDROGEN : ALL
Info:         ERROR TOLERANCE : 1e-08
Info:          MAX ITERATIONS : 100
Info: RIGID WATER USING SETTLE ALGORITHM
Info: RANDOM NUMBER SEED     1743538785
Info: USE HYDROGEN BONDS?    NO
Info: Using AMBER format force field!
Info: AMBER PARM FILE        mobley_7608462.prmtop
Info: COORDINATE PDB         mobley_7608462.pdb
Info: Exclusions will be read from PARM file!
Info: SCNB (VDW SCALING)     2
Info: USING ARITHMETIC MEAN TO COMBINE L-J SIGMA PARAMETERS
Info: BINARY COORDINATES     mobley_7608462_equil.coor
Info: SUMMARY OF PARAMETERS:
Info: 5 BONDS
Info: 3 ANGLES
Info:   3 HARMONIC
Info:   0 COSINE-BASED
Info: 2 DIHEDRAL
Info: 0 IMPROPER
Info: 0 CROSSTERM
Info: 0 VDW
Info: 15 VDW_PAIRS
Info: 0 NBTHOLE_PAIRS
Info: To read alchdata from file: mobley_7608462.pdb
Info: To read alchflag data from column: 5
Info: STRUCTURE SUMMARY:
Info: 2916 ATOMS
Info: 2916 BONDS
Info: 18 ANGLES
Info: 30 DIHEDRALS
Info: 0 IMPROPERS
Info: 0 CROSSTERMS
Info: 2955 EXCLUSIONS
Info: 2909 RIGID BONDS
Info: ALCH: 0 ATOMS TO DISAPPEAR IN FINAL STATE
Info: ALCH: 12 ATOMS TO APPEAR IN FINAL STATE
Info: 5839 DEGREES OF FREEDOM
Info: 975 HYDROGEN GROUPS
Info: 3 ATOMS IN LARGEST HYDROGEN GROUP
Info: 975 MIGRATION GROUPS
Info: 3 ATOMS IN LARGEST MIGRATION GROUP
Info: TOTAL MASS = 17552 amu
Info: TOTAL CHARGE = 9.99775e-05 e
Info: MASS DENSITY = 0.980323 g/cm^3
Info: ATOM DENSITY = 0.0980777 atoms/A^3
Info: ADDED 0 IMPLICIT EXCLUSIONS
Info: NONBONDED TABLE R-SQUARED SPACING: 0.0625
Info: NONBONDED TABLE SIZE: 705 POINTS
Info: REMOVING COM VELOCITY 0.1759 0.0319602 0.0435805
Info: Use 3D box decompostion in PME FFT.
Info: Updated CUDA force table with 4096 elements.
Info: Updated CUDA LJ table with 5 x 5 elements.
Info: Found 14 unique exclusion lists needing 24 bytes
TCL: Running for 1500000 steps
ETITLE: TS BOND ANGLE DIHED IMPRP ELECT VDW BOUNDARY MISC KINETIC TOTAL TEMP POTENTIAL TOTALAVG TEMPAVG PRESSURE GPRESSURE VOLUME PRESSAVG GPRESSAVG
ENERGY: 0 0.8353 0.6446 3.6992 0.0000 -10642.1997 1452.8863 0.0000 0.0000 1779.0485 -7405.0857 306.6477 -9184.1342 -7405.0857 306.6477 295.1296 378.3563 29731.5391 295.1296 378.3563
ENERGY: 300000 7.8624 3.3522 1.3825 0.0000 -10416.2297 1360.1357 0.0000 0.0000 1711.8506 -7331.6462 295.0651 -9043.4969 -7364.2215 298.0902 -656.4217 -576.1413 30217.4596 -191.9328 -143.9483
ENERGY: 600000 2.3094 4.5456 1.6407 0.0000 -10523.5731 1390.7345 0.0000 0.0000 1751.2026 -7373.1404 301.8480 -9124.3430 -7378.8719 297.9058 -434.3608 -351.8741 30105.1463 -254.3765 -201.5042
ENERGY: 900000 2.5107 3.9652 4.1418 0.0000 -10464.4458 1387.7422 0.0000 0.0000 1738.2167 -7327.8691 299.6097 -9066.0859 -7377.8222 298.8629 -60.0961 -42.4418 29652.5578 -237.8267 -183.5447
ENERGY: 1200000 0.7169 1.2037 5.1684 0.0000 -10685.8780 1487.6324 0.0000 0.0000 1801.2314 -7389.9253 310.4713 -9191.1567 -7382.0985 299.3616 460.3513 468.3384 29826.3125 -191.1633 -139.4086
ENERGY: 1500000 1.2691 4.1642 4.2392 0.0000 -10554.0273 1430.0710 0.0000 0.0000 1704.1417 -7410.1420 293.7363 -9114.2836 -7378.9983 299.5281 110.1206 136.9319 29830.7690 -145.1441 -98.1636
TCL: Running FEP window   2: Lambda1 0.05   Lambda2 0.1    [dLambda 0.05  ]
TCL: Setting parameter firsttimestep to 0
TCL: Setting parameter alchLambda to 0.05
Info: NONBONDED TABLE R-SQUARED SPACING: 0.0625
Info: NONBONDED TABLE SIZE: 705 POINTS
TCL: Setting parameter alchLambda2 to 0.1
Info: NONBONDED TABLE R-SQUARED SPACING: 0.0625
Info: NONBONDED TABLE SIZE: 705 POINTS
TCL: Running for 1500000 steps
ETITLE: TS BOND ANGLE DIHED IMPRP ELECT VDW BOUNDARY MISC KINETIC TOTAL TEMP POTENTIAL TOTALAVG TEMPAVG PRESSURE GPRESSURE VOLUME PRESSAVG GPRESSAVG
ENERGY: 0 1.2691 4.1643 4.2392 0.0000 -10554.0271 1432.7215 0.0000 0.0000 1703.3092 -7408.3238 293.5928 -9111.6330 -7408.3238 293.5928 45.3505 144.0868 29830.7690 45.3505 144.0868
ENERGY: 300000 1.9554 3.3667 2.3080 0.0000 -10649.4391 1484.5741 0.0000 0.0000 1730.4372 -7426.7977 298.2688 -9157.2349 -7395.6980 300.0403 296.8608 351.2212 29613.0252 141.7442 195.9224
ENERGY: 600000 1.5873 2.5820 1.5853 0.0000 -10480.2414 1384.1452 0.0000 0.0000 1807.2139 -7283.1277 311.5025 -9090.3416 -7375.5618 303.3382 165.8691 188.0604 29747.7308 231.1651 285.3753
ENERGY: 900000 1.9367 2.0856 3.1997 0.0000 -10606.3149 1467.5002 0.0000 0.0000 1714.9402 -7416.6525 295.5976 -9131.5927 -7400.4757 299.7135 325.8171 405.9139 29889.7040 149.3062 205.9160
ENERGY: 1200000 0.7827 1.3560 3.9002 0.0000 -10640.9279 1441.2725 0.0000 0.0000 1809.4114 -7384.2051 311.8812 -9193.6165 -7404.9059 300.3530 146.0248 152.2997 29941.8336 115.2096 163.2006
ENERGY: 1500000 2.5703 3.2293 4.4465 0.0000 -10611.0285 1443.2506 0.0000 0.0000 1764.5692 -7392.9625 304.1520 -9157.5318 -7402.9638 300.4260 -31.1551 29.9748 29893.9134 103.1806 159.2717
TCL: Running FEP window   3: Lambda1 0.1    Lambda2 0.15000000000000002 [dLambda 0.05000000000000002]
TCL: Setting parameter firsttimestep to 0
TCL: Setting parameter alchLambda to 0.1
Info: NONBONDED TABLE R-SQUARED SPACING: 0.0625
Info: NONBONDED TABLE SIZE: 705 POINTS
TCL: Setting parameter alchLambda2 to 0.15000000000000002
Info: NONBONDED TABLE R-SQUARED SPACING: 0.0625
Info: NONBONDED TABLE SIZE: 705 POINTS
TCL: Running for 1500000 steps
ETITLE: TS BOND ANGLE DIHED IMPRP ELECT VDW BOUNDARY MISC KINETIC TOTAL TEMP POTENTIAL TOTALAVG TEMPAVG PRESSURE GPRESSURE VOLUME PRESSAVG GPRESSAVG
ENERGY: 0 2.5703 3.2293 4.4465 0.0000 -10611.0284 1446.3612 0.0000 0.0000 1763.7004 -7390.7207 304.0022 -9154.4211 -7390.7207 304.0022 -45.6307 44.1824 29893.9134 -45.6307 44.1824
ENERGY: 300000 2.2685 2.6436 3.5110 0.0000 -10561.1691 1390.8845 0.0000 0.0000 1779.9471 -7381.9145 306.8026 -9161.8616 -7391.0940 300.1330 -40.3531 -22.6555 29432.2307 -416.9868 -356.2066
ENERGY: 600000 1.3638 2.1700 2.5312 0.0000 -10503.7204 1389.2079 0.0000 0.0000 1741.0447 -7367.4028 300.0971 -9108.4475 -7391.0459 300.7231 -451.0928 -358.5988 30260.1934 -247.0474 -183.0917
ENERGY: 900000 3.5577 1.7354 2.9705 0.0000 -10687.5098 1490.1430 0.0000 0.0000 1747.7853 -7441.3178 301.2590 -9189.1031 -7407.6038 300.1221 247.4684 264.5034 29926.0059 -362.7122 -306.2613
ENERGY: 1200000 1.8274 1.8247 3.0521 0.0000 -10501.6599 1413.5328 0.0000 0.0000 1735.9907 -7345.4323 299.2260 -9081.4230 -7405.9875 299.6103 81.5384 163.7220 29945.2581 -277.2794 -221.5599
ENERGY: 1500000 1.5470 2.5388 2.0639 0.0000 -10563.5876 1408.0286 0.0000 0.0000 1748.3201 -7401.0892 301.3511 -9149.4093 -7404.9848 298.7260 -283.3932 -230.3707 29931.3093 -274.8982 -222.0354
TCL: Running FEP window   4: Lambda1 0.15000000000000002 Lambda2 0.2    [dLambda 0.04999999999999999]
TCL: Setting parameter firsttimestep to 0
TCL: Setting parameter alchLambda to 0.15000000000000002
Info: NONBONDED TABLE R-SQUARED SPACING: 0.0625
Info: NONBONDED TABLE SIZE: 705 POINTS
TCL: Setting parameter alchLambda2 to 0.2
Info: NONBONDED TABLE R-SQUARED SPACING: 0.0625
Info: NONBONDED TABLE SIZE: 705 POINTS
TCL: Running for 1500000 steps
ETITLE: TS BOND ANGLE DIHED IMPRP ELECT VDW BOUNDARY MISC KINETIC TOTAL TEMP POTENTIAL TOTALAVG TEMPAVG PRESSURE GPRESSURE VOLUME PRESSAVG GPRESSAVG
ENERGY: 0 1.5471 2.5388 2.0639 0.0000 -10563.5850 1408.1588 0.0000 0.0000 1747.4278 -7401.8486 301.1974 -9149.2764 -7401.8486 301.1974 -300.5274 -229.7217 29931.3093 -300.5274 -229.7217
ENERGY: 300000 4.0230 1.1157 1.2752 0.0000 -10523.8820 1375.3866 0.0000 0.0000 1716.2479 -7425.8335 295.8230 -9142.0814 -7417.4729 298.5411 -423.5203 -441.1391 29431.3136 -516.9606 -483.1719
ENERGY: 600000 0.5355 2.1875 1.0900 0.0000 -10615.7396 1479.0175 0.0000 0.0000 1736.9779 -7395.9312 299.3961 -9132.9090 -7394.1834 299.1902 573.0650 667.4100 29707.7512 -297.4944 -253.8296
ENERGY: 900000 4.0829 5.3862 1.9027 0.0000 -10596.2177 1454.8352 0.0000 0.0000 1727.4117 -7402.5991 297.7473 -9130.0108 -7395.3827 299.8689 -152.9520 -67.1167 30152.9106 -355.0817 -297.6672
ENERGY: 1200000 3.3432 3.5047 3.5841 0.0000 -10692.2232 1528.0042 0.0000 0.0000 1754.5798 -7399.2072 302.4301 -9153.7871 -7385.6320 300.1213 975.8859 1032.7340 29672.1089 -268.2441 -211.5569
ENERGY: 1500000 1.3020 2.7528 2.7824 0.0000 -10592.4485 1435.3663 0.0000 0.0000 1780.0067 -7370.2382 306.8128 -9150.2449 -7383.0230 300.7760 147.8007 164.8381 29677.9032 -229.3860 -176.0129
TCL: Running FEP window   5: Lambda1 0.2    Lambda2 0.25   [dLambda 0.04999999999999999]
TCL: Setting parameter firsttimestep to 0
TCL: Setting parameter alchLambda to 0.2
Info: NONBONDED TABLE R-SQUARED SPACING: 0.0625
Info: NONBONDED TABLE SIZE: 705 POINTS
TCL: Setting parameter alchLambda2 to 0.25
Info: NONBONDED TABLE R-SQUARED SPACING: 0.0625
Info: NONBONDED TABLE SIZE: 705 POINTS
TCL: Running for 1500000 steps
ETITLE: TS BOND ANGLE DIHED IMPRP ELECT VDW BOUNDARY MISC KINETIC TOTAL TEMP POTENTIAL TOTALAVG TEMPAVG PRESSURE GPRESSURE VOLUME PRESSAVG GPRESSAVG
ENERGY: 0 1.3020 2.7528 2.7824 0.0000 -10592.4481 1435.6275 0.0000 0.0000 1779.1220 -7370.8613 306.6604 -9149.9833 -7370.8613 306.6604 84.1511 166.4029 29677.9032 84.1511 166.4029
ENERGY: 300000 1.7378 2.7095 4.6626 0.0000 -10592.6467 1430.1578 0.0000 0.0000 1743.9004 -7409.4786 300.5893 -9153.3790 -7372.5591 306.6718 -26.6914 -24.6907 29910.7062 219.7943 279.9887
ENERGY: 600000 2.0576 1.0172 4.3659 0.0000 -10524.8080 1418.4229 0.0000 0.0000 1699.4870 -7399.4575 292.9340 -9098.9445 -7371.3895 301.8454 -288.3550 -206.0735 30325.1135 -7.7364 55.9702
ENERGY: 900000 0.9813 2.2554 3.9853 0.0000 -10545.2568 1423.5091 0.0000 0.0000 1702.9029 -7411.6228 293.5228 -9114.5257 -7380.5431 301.2138 81.5339 112.6901 30086.1883 43.7213 102.6550
ENERGY: 1200000 1.4105 5.0871 0.9752 0.0000 -10554.2887 1362.8598 0.0000 0.0000 1779.0536 -7404.9025 306.6486 -9183.9561 -7371.1558 302.7572 -887.8476 -833.6000 30262.8195 91.5836 152.9039
ENERGY: 1500000 2.5736 2.9014 4.2587 0.0000 -10564.9947 1386.6875 0.0000 0.0000 1751.2269 -7417.3467 301.8522 -9168.5736 -7383.8616 302.0190 -343.9896 -227.7859 29779.7198 32.6771 93.6394
TCL: Running FEP window   6: Lambda1 0.25   Lambda2 0.3    [dLambda 0.04999999999999999]
TCL: Setting parameter firsttimestep to 0
TCL: Setting parameter alchLambda to 0.25
Info: NONBONDED TABLE R-SQUARED SPACING: 0.0625
Info: NONBONDED TABLE SIZE: 705 POINTS
TCL: Setting parameter alchLambda2 to 0.3
Info: NONBONDED TABLE R-SQUARED SPACING: 0.0625
Info: NONBONDED TABLE SIZE: 705 POINTS
TCL: Running for 1500000 steps
ETITLE: TS BOND ANGLE DIHED IMPRP ELECT VDW BOUNDARY MISC KINETIC TOTAL TEMP POTENTIAL TOTALAVG TEMPAVG PRESSURE GPRESSURE VOLUME PRESSAVG GPRESSAVG
ENERGY: 0 2.5736 2.9014 4.2587 0.0000 -10564.9958 1386.7574 0.0000 0.0000 1750.3895 -7418.1154 301.7078 -9168.5049 -7418.1154 301.7078 -299.4464 -222.0874 29779.7198 -299.4464 -222.0874
ENERGY: 300000 2.2217 2.4527 1.7335 0.0000 -10643.8463 1426.7445 0.0000 0.0000 1707.1795 -7503.5144 294.2599 -9210.6939 -7404.1812 298.6311 -263.0318 -174.9337 29860.8160 -43.5998 25.9299
ENERGY: 600000 1.7550 1.7700 1.2782 0.0000 -10581.6187 1401.0490 0.0000 0.0000 1710.6257 -7465.1409 294.8539 -9175.7666 -7421.5590 297.6936 -313.7530 -287.5020 30323.6285 -114.1292 -46.1859
ENERGY: 900000 1.1331 2.4241 1.6289 0.0000 -10599.1801 1440.4992 0.0000 0.0000 1748.9444 -7404.5503 301.4588 -9153.4947 -7410.5575 299.0294 -61.9171 27.8565 30020.3889 -10.0708 62.2028
ENERGY: 1200000 1.1840 1.6312 2.2759 0.0000 -10575.0811 1362.3097 0.0000 0.0000 1770.9301 -7436.7504 305.2483 -9207.6804 -7402.4744 300.1207 -889.0070 -810.5561 30005.2848 -63.1587 2.5281
ENERGY: 1500000 2.6684 4.3614 2.9943 0.0000 -10741.4609 1535.7897 0.0000 0.0000 1716.4195 -7479.2277 295.8526 -9195.6472 -7403.7946 300.8691 713.7791 754.2569 29839.9082 -13.1666 47.3723
TCL: Running FEP window   7: Lambda1 0.3    Lambda2 0.35   [dLambda 0.04999999999999999]
TCL: Setting parameter firsttimestep to 0
TCL: Setting parameter alchLambda to 0.3
Info: NONBONDED TABLE R-SQUARED SPACING: 0.0625
Info: NONBONDED TABLE SIZE: 705 POINTS
TCL: Setting parameter alchLambda2 to 0.35
Info: NONBONDED TABLE R-SQUARED SPACING: 0.0625
Info: NONBONDED TABLE SIZE: 705 POINTS
TCL: Running for 1500000 steps
ETITLE: TS BOND ANGLE DIHED IMPRP ELECT VDW BOUNDARY MISC KINETIC TOTAL TEMP POTENTIAL TOTALAVG TEMPAVG PRESSURE GPRESSURE VOLUME PRESSAVG GPRESSAVG
ENERGY: 0 2.6684 4.3614 2.9944 0.0000 -10741.4582 1536.2814 0.0000 0.0000 1715.6134 -7479.5393 295.7136 -9195.1527 -7479.5393 295.7136 667.8600 758.9972 29839.9082 667.8600 758.9972
ENERGY: 300000 2.3713 2.0701 2.1202 0.0000 -10551.0368 1352.4386 0.0000 0.0000 1731.1289 -7460.9076 298.3880 -9192.0365 -7454.1841 294.4978 -805.1213 -764.3064 30110.4953 -234.0490 -161.6546
ENERGY: 600000 2.0477 4.7472 1.5099 0.0000 -10620.2302 1393.5828 0.0000 0.0000 1813.4050 -7404.9376 312.5696 -9218.3426 -7438.5325 299.2357 -544.5485 -410.1047 29781.6385 -136.8912 -55.3928
ENERGY: 900000 1.3173 1.5590 1.8884 0.0000 -10499.4616 1408.3681 0.0000 0.0000 1720.2750 -7366.0538 296.5171 -9086.3287 -7428.3581 299.6421 -304.9366 -191.4535 30499.2000 -8.0687 80.2681
ENERGY: 1200000 1.6484 1.9540 4.5009 0.0000 -10522.2035 1398.9781 0.0000 0.0000 1797.1928 -7317.9292 309.7752 -9115.1220 -7415.2570 300.3567 1.4666 94.9270 29900.7067 -23.8372 55.1840
ENERGY: 1500000 2.1357 3.9889 0.8313 0.0000 -10666.3939 1477.3128 0.0000 0.0000 1810.6582 -7371.4671 312.0961 -9182.1253 -7410.5233 300.6072 481.4212 534.7571 29476.1161 -112.2697 -34.1304
TCL: Running FEP window   8: Lambda1 0.35   Lambda2 0.39999999999999997 [dLambda 0.04999999999999999]
TCL: Setting parameter firsttimestep to 0
TCL: Setting parameter alchLambda to 0.35
Info: NONBONDED TABLE R-SQUARED SPACING: 0.0625
Info: NONBONDED TABLE SIZE: 705 POINTS
TCL: Setting parameter alchLambda2 to 0.39999999999999997
Info: NONBONDED TABLE R-SQUARED SPACING: 0.0625
Info: NONBONDED TABLE SIZE: 705 POINTS
TCL: Running for 1500000 steps
ETITLE: TS BOND ANGLE DIHED IMPRP ELECT VDW BOUNDARY MISC KINETIC TOTAL TEMP POTENTIAL TOTALAVG TEMPAVG PRESSURE GPRESSURE VOLUME PRESSAVG GPRESSAVG
ENERGY: 0 2.1357 3.9889 0.8313 0.0000 -10666.3955 1476.8866 0.0000 0.0000 1809.7935 -7372.7595 311.9471 -9182.5530 -7372.7595 311.9471 443.8522 535.1629 29476.1161 443.8522 535.1629
ENERGY: 300000 2.5244 1.7819 2.0952 0.0000 -10633.7566 1420.7465 0.0000 0.0000 1755.6153 -7450.9933 302.6086 -9206.6086 -7386.7989 301.1388 -344.2038 -254.2555 29908.4040 66.2012 164.0793
ENERGY: 600000 4.9687 1.4592 2.1277 0.0000 -10580.4968 1423.6827 0.0000 0.0000 1692.6912 -7455.5673 291.7626 -9148.2585 -7413.5661 296.6473 -186.8985 -141.1810 30069.5707 122.4696 195.2877
ENERGY: 900000 2.9767 2.8053 3.6426 0.0000 -10493.0651 1401.7494 0.0000 0.0000 1731.1611 -7350.7300 298.3935 -9081.8911 -7406.1399 298.2378 119.6865 194.6153 30031.8476 38.2342 103.8916
ENERGY: 1200000 3.9956 1.0612 3.4103 0.0000 -10595.2238 1458.4114 0.0000 0.0000 1720.8362 -7407.5092 296.6139 -9128.3454 -7405.4782 297.7362 136.5099 268.0336 29890.4555 22.7799 89.4447
ENERGY: 1500000 2.0112 6.0033 3.2650 0.0000 -10580.0709 1388.4975 0.0000 0.0000 1773.6815 -7406.6125 305.7226 -9180.2940 -7396.5155 298.4811 -358.1865 -282.9030 29768.9580 -28.2407 43.6327
TCL: Running FEP window   9: Lambda1 0.39999999999999997 Lambda2 0.44999999999999996 [dLambda 0.04999999999999999]
TCL: Setting parameter firsttimestep to 0
TCL: Setting parameter alchLambda to 0.39999999999999997
Info: NONBONDED TABLE R-SQUARED SPACING: 0.0625
Info: NONBONDED TABLE SIZE: 705 POINTS
TCL: Setting parameter alchLambda2 to 0.44999999999999996
Info: NONBONDED TABLE R-SQUARED SPACING: 0.0625
Info: NONBONDED TABLE SIZE: 705 POINTS
TCL: Running for 1500000 steps
ETITLE: TS BOND ANGLE DIHED IMPRP ELECT VDW BOUNDARY MISC KINETIC TOTAL TEMP POTENTIAL TOTALAVG TEMPAVG PRESSURE GPRESSURE VOLUME PRESSAVG GPRESSAVG
ENERGY: 0 2.0112 6.0033 3.2650 0.0000 -10580.0677 1388.3486 0.0000 0.0000 1772.8518 -7407.5880 305.5796 -9180.4397 -7407.5880 305.5796 -374.0109 -280.0169 29768.9580 -374.0109 -280.0169
ENERGY: 300000 3.4457 3.4193 3.3384 0.0000 -10498.1015 1396.4267 0.0000 0.0000 1722.2468 -7369.2247 296.8570 -9091.4715 -7387.6758 302.2191 27.0145 58.7805 29740.4842 30.9568 89.9729
ENERGY: 600000 3.2626 1.2865 2.3511 0.0000 -10437.4540 1367.1257 0.0000 0.0000 1754.8089 -7308.6192 302.4696 -9063.4281 -7367.8655 304.2724 -414.7561 -375.3295 30319.5036 2.5989 54.4660
ENERGY: 900000 2.3239 2.6313 2.6590 0.0000 -10459.4166 1349.8764 0.0000 0.0000 1714.9583 -7386.9677 295.6007 -9101.9260 -7372.3824 302.7923 -659.4985 -576.1987 30210.2783 36.2205 94.6524
ENERGY: 1200000 2.6901 3.9531 1.4298 0.0000 -10577.5305 1387.3453 0.0000 0.0000 1762.9132 -7419.1989 303.8665 -9182.1122 -7385.5255 302.3609 -630.4862 -594.7129 30026.7055 -59.5380 -5.2166
ENERGY: 1500000 6.0016 2.2959 4.2396 0.0000 -10665.7448 1540.6771 0.0000 0.0000 1753.5747 -7358.9558 302.2569 -9112.5305 -7387.7986 302.3573 1251.3772 1317.7328 29693.2789 82.7740 140.7952
TCL: Running FEP window  10: Lambda1 0.44999999999999996 Lambda2 0.49999999999999994 [dLambda 0.04999999999999999]
TCL: Setting parameter firsttimestep to 0
TCL: Setting parameter alchLambda to 0.44999999999999996
Info: NONBONDED TABLE R-SQUARED SPACING: 0.0625
Info: NONBONDED TABLE SIZE: 705 POINTS
TCL: Setting parameter alchLambda2 to 0.49999999999999994
Info: NONBONDED TABLE R-SQUARED SPACING: 0.0625
Info: NONBONDED TABLE SIZE: 705 POINTS
TCL: Running for 1500000 steps
ETITLE: TS BOND ANGLE DIHED IMPRP ELECT VDW BOUNDARY MISC KINETIC TOTAL TEMP POTENTIAL TOTALAVG TEMPAVG PRESSURE GPRESSURE VOLUME PRESSAVG GPRESSAVG
ENERGY: 0 6.0016 2.2959 4.2396 0.0000 -10665.7451 1540.5094 0.0000 0.0000 1752.6888 -7360.0098 302.1042 -9112.6986 -7360.0098 302.1042 1236.1789 1319.0117 29693.2789 1236.1789 1319.0117
ENERGY: 300000 1.3425 3.2730 3.0346 0.0000 -10596.8250 1390.1513 0.0000 0.0000 1718.0189 -7481.0047 296.1283 -9199.0237 -7430.5335 302.3319 -433.9538 -279.7403 29513.1337 159.2385 241.5909
ENERGY: 600000 1.4850 2.0262 0.9821 0.0000 -10621.2230 1469.3595 0.0000 0.0000 1706.8709 -7440.4993 294.2067 -9147.3702 -7431.0143 298.7699 5.2256 97.5470 30258.1978 -177.9371 -98.9806
ENERGY: 900000 0.4366 3.0545 5.2052 0.0000 -10502.1009 1363.8264 0.0000 0.0000 1778.6279 -7350.9503 306.5752 -9129.5782 -7407.7099 300.3499 -502.4567 -453.9098 30126.7142 -283.4254 -204.0542
ENERGY: 1200000 3.9255 2.0886 4.3132 0.0000 -10509.1816 1408.9814 0.0000 0.0000 1760.3520 -7329.5210 303.4250 -9089.8729 -7407.3530 300.1140 -144.8859 -52.7922 30314.4972 -232.0431 -155.1840
ENERGY: 1500000 1.8090 3.9485 2.6270 0.0000 -10610.5566 1415.0171 0.0000 0.0000 1744.9967 -7442.1584 300.7783 -9187.1551 -7411.7637 300.3363 -389.8053 -320.4827 30056.7064 -184.3000 -107.5159
TCL: Running FEP window  11: Lambda1 0.49999999999999994 Lambda2 0.5499999999999999 [dLambda 0.04999999999999999]
TCL: Setting parameter firsttimestep to 0
TCL: Setting parameter alchLambda to 0.49999999999999994
Info: NONBONDED TABLE R-SQUARED SPACING: 0.0625
Info: NONBONDED TABLE SIZE: 705 POINTS
TCL: Setting parameter alchLambda2 to 0.5499999999999999
Info: NONBONDED TABLE R-SQUARED SPACING: 0.0625
Info: NONBONDED TABLE SIZE: 705 POINTS
TCL: Running for 1500000 steps
ETITLE: TS BOND ANGLE DIHED IMPRP ELECT VDW BOUNDARY MISC KINETIC TOTAL TEMP POTENTIAL TOTALAVG TEMPAVG PRESSURE GPRESSURE VOLUME PRESSAVG GPRESSAVG
ENERGY: 0 1.8090 3.9485 2.6270 0.0000 -10610.5545 1414.5785 0.0000 0.0000 1744.1461 -7443.4455 300.6317 -9187.5915 -7443.4455 300.6317 -403.8475 -318.0076 30056.7064 -403.8475 -318.0076
ENERGY: 300000 1.3183 2.0835 4.9607 0.0000 -10650.5626 1461.3593 0.0000 0.0000 1759.9955 -7420.8454 303.3636 -9180.8409 -7422.9563 301.7340 437.3519 450.9648 29738.6339 69.1721 129.4854
ENERGY: 600000 2.5901 1.6604 4.6798 0.0000 -10478.1276 1405.6329 0.0000 0.0000 1758.2437 -7305.3206 303.0617 -9063.5644 -7401.0162 302.6516 -84.9099 -32.0494 30255.4867 238.0183 285.2249
ENERGY: 900000 3.3147 1.7182 1.8954 0.0000 -10430.1406 1360.8415 0.0000 0.0000 1753.7524 -7308.6184 302.2875 -9062.3707 -7396.2162 301.7595 -218.4983 -177.8628 30117.2102 274.4818 326.5399
ENERGY: 1200000 2.3403 3.9615 2.2342 0.0000 -10611.4898 1452.4976 0.0000 0.0000 1745.3579 -7405.0983 300.8406 -9150.4563 -7397.1586 301.2509 -255.9320 -152.3434 30726.1956 155.6129 210.8505
ENERGY: 1500000 2.9172 2.9100 3.4243 0.0000 -10803.3018 1554.7246 0.0000 0.0000 1706.9934 -7532.3323 294.2278 -9239.3257 -7405.7842 300.8457 695.3511 754.4590 29626.5950 157.1785 212.0982
TCL: Running FEP window  12: Lambda1 0.5499999999999999 Lambda2 0.6    [dLambda 0.050000000000000044]
TCL: Setting parameter firsttimestep to 0
TCL: Setting parameter alchLambda to 0.5499999999999999
Info: NONBONDED TABLE R-SQUARED SPACING: 0.0625
Info: NONBONDED TABLE SIZE: 705 POINTS
TCL: Setting parameter alchLambda2 to 0.6
Info: NONBONDED TABLE R-SQUARED SPACING: 0.0625
Info: NONBONDED TABLE SIZE: 705 POINTS
TCL: Running for 1500000 steps
ETITLE: TS BOND ANGLE DIHED IMPRP ELECT VDW BOUNDARY MISC KINETIC TOTAL TEMP POTENTIAL TOTALAVG TEMPAVG PRESSURE GPRESSURE VOLUME PRESSAVG GPRESSAVG
ENERGY: 0 2.9172 2.9100 3.4243 0.0000 -10803.3278 1554.7244 0.0000 0.0000 1706.0882 -7533.2637 294.0718 -9239.3519 -7533.2637 294.0718 669.6401 755.8171 29626.5950 669.6401 755.8171
ENERGY: 300000 1.9496 2.6075 2.8440 0.0000 -10690.9031 1470.7055 0.0000 0.0000 1746.3459 -7466.4505 301.0109 -9212.7964 -7470.6441 296.1626 155.7961 220.9318 29757.0929 150.8471 240.7678
ENERGY: 600000 1.4447 4.1744 5.3312 0.0000 -10556.7405 1417.8729 0.0000 0.0000 1744.0712 -7383.8460 300.6188 -9127.9171 -7444.6578 299.5210 -149.8553 -150.8942 30321.1678 -38.8471 25.4107
ENERGY: 900000 0.4833 2.3243 1.6497 0.0000 -10616.2205 1456.2506 0.0000 0.0000 1684.5725 -7470.9403 290.3632 -9155.5128 -7429.7835 299.8295 358.6669 411.1553 29732.5980 17.7940 75.8247
ENERGY: 1200000 1.3633 4.8017 2.2354 0.0000 -10499.4213 1397.9846 0.0000 0.0000 1694.9883 -7398.0480 292.1586 -9093.0363 -7425.5759 299.5981 -381.4571 -298.3364 30621.7472 -19.1373 34.2996
ENERGY: 1500000 2.5308 2.9324 1.7347 0.0000 -10697.0987 1473.9415 0.0000 0.0000 1739.8141 -7476.1451 299.8850 -9215.9592 -7425.4178 299.6181 154.3343 137.8120 29822.1677 10.7960 62.0229
TCL: Running FEP window  13: Lambda1 0.6    Lambda2 0.65   [dLambda 0.050000000000000044]
TCL: Setting parameter firsttimestep to 0
TCL: Setting parameter alchLambda to 0.6
Info: NONBONDED TABLE R-SQUARED SPACING: 0.0625
Info: NONBONDED TABLE SIZE: 705 POINTS
TCL: Setting parameter alchLambda2 to 0.65
Info: NONBONDED TABLE R-SQUARED SPACING: 0.0625
Info: NONBONDED TABLE SIZE: 705 POINTS
TCL: Running for 1500000 steps
ETITLE: TS BOND ANGLE DIHED IMPRP ELECT VDW BOUNDARY MISC KINETIC TOTAL TEMP POTENTIAL TOTALAVG TEMPAVG PRESSURE GPRESSURE VOLUME PRESSAVG GPRESSAVG
ENERGY: 0 2.5308 2.9324 1.7347 0.0000 -10697.1839 1473.6137 0.0000 0.0000 1738.8983 -7477.4739 299.7272 -9216.3722 -7477.4739 299.7272 63.2701 139.1930 29822.1677 63.2701 139.1930
ENERGY: 300000 3.0224 1.0215 1.9940 0.0000 -10639.8065 1479.6288 0.0000 0.0000 1759.7308 -7394.4091 303.3180 -9154.1399 -7416.6763 302.7865 599.7183 663.7107 29566.3980 220.3421 264.2910
ENERGY: 600000 0.8365 3.4136 3.7618 0.0000 -10556.6111 1414.4381 0.0000 0.0000 1739.1858 -7394.9753 299.7767 -9134.1611 -7403.1752 301.4072 -92.2289 -40.2277 30310.5349 67.9531 128.6207
ENERGY: 900000 1.6006 3.3641 1.4924 0.0000 -10535.8881 1384.7111 0.0000 0.0000 1707.2751 -7437.4448 294.2764 -9144.7199 -7391.1063 301.2102 -502.1827 -435.5155 30186.8372 -22.3194 39.5594
ENERGY: 1200000 1.9310 2.0259 3.2612 0.0000 -10611.5165 1417.4815 0.0000 0.0000 1773.2778 -7413.5392 305.6530 -9186.8170 -7386.0508 302.9010 -232.9853 -127.4333 29927.6903 -79.0180 -13.8446
ENERGY: 1500000 1.8979 2.1879 2.2700 0.0000 -10504.5765 1419.9350 0.0000 0.0000 1712.1196 -7366.1662 295.1114 -9078.2858 -7382.0190 303.3099 -108.9467 -63.2084 30650.2965 -74.8004 -12.4246
TCL: Running FEP window  14: Lambda1 0.65   Lambda2 0.7000000000000001 [dLambda 0.050000000000000044]
TCL: Setting parameter firsttimestep to 0
TCL: Setting parameter alchLambda to 0.65
Info: NONBONDED TABLE R-SQUARED SPACING: 0.0625
Info: NONBONDED TABLE SIZE: 705 POINTS
TCL: Setting parameter alchLambda2 to 0.7000000000000001
Info: NONBONDED TABLE R-SQUARED SPACING: 0.0625
Info: NONBONDED TABLE SIZE: 705 POINTS
TCL: Running for 1500000 steps
ETITLE: TS BOND ANGLE DIHED IMPRP ELECT VDW BOUNDARY MISC KINETIC TOTAL TEMP POTENTIAL TOTALAVG TEMPAVG PRESSURE GPRESSURE VOLUME PRESSAVG GPRESSAVG
ENERGY: 0 1.8979 2.1879 2.2700 0.0000 -10504.3696 1420.0020 0.0000 0.0000 1711.2532 -7366.7587 294.9621 -9078.0119 -7366.7587 294.9621 -132.6457 -54.2316 30650.2965 -132.6457 -54.2316
ENERGY: 300000 3.5510 2.8081 2.8075 0.0000 -10576.7352 1401.5960 0.0000 0.0000 1726.5044 -7439.4682 297.5909 -9165.9726 -7428.3975 297.7229 -376.3413 -323.8846 30435.6415 47.5109 101.8618
ENERGY: 600000 1.6459 1.5675 3.7342 0.0000 -10424.2983 1333.4622 0.0000 0.0000 1745.8128 -7338.0757 300.9190 -9083.8885 -7420.6188 298.5950 -485.3354 -461.9856 29918.9034 -262.2136 -201.1587
ENERGY: 900000 1.4069 2.1126 2.9457 0.0000 -10645.7118 1453.3708 0.0000 0.0000 1712.5008 -7473.3750 295.1771 -9185.8758 -7412.1918 300.0022 304.1937 326.4501 29797.9088 -105.5113 -47.7442
ENERGY: 1200000 1.4018 4.0833 4.5822 0.0000 -10456.8398 1372.3597 0.0000 0.0000 1744.4579 -7329.9550 300.6854 -9074.4129 -7398.3995 299.6646 -259.6433 -211.1946 30509.6366 -108.3771 -53.3616
ENERGY: 1500000 1.1538 1.8000 3.3687 0.0000 -10567.2403 1507.0975 0.0000 0.0000 1724.6824 -7329.1379 297.2768 -9053.8203 -7399.5093 298.2810 1070.1855 1221.8010 29480.7773 -44.7702 15.5668
TCL: Running FEP window  15: Lambda1 0.7000000000000001 Lambda2 0.7500000000000001 [dLambda 0.050000000000000044]
TCL: Setting parameter firsttimestep to 0
TCL: Setting parameter alchLambda to 0.7000000000000001
Info: NONBONDED TABLE R-SQUARED SPACING: 0.0625
Info: NONBONDED TABLE SIZE: 705 POINTS
TCL: Setting parameter alchLambda2 to 0.7500000000000001
Info: NONBONDED TABLE R-SQUARED SPACING: 0.0625
Info: NONBONDED TABLE SIZE: 705 POINTS
TCL: Running for 1500000 steps
ETITLE: TS BOND ANGLE DIHED IMPRP ELECT VDW BOUNDARY MISC KINETIC TOTAL TEMP POTENTIAL TOTALAVG TEMPAVG PRESSURE GPRESSURE VOLUME PRESSAVG GPRESSAVG
ENERGY: 0 1.1538 1.8000 3.3687 0.0000 -10567.2489 1506.8264 0.0000 0.0000 1723.7859 -7330.3141 297.1223 -9054.1000 -7330.3141 297.1223 1150.0976 1228.1321 29480.7773 1150.0976 1228.1321
ENERGY: 300000 4.7340 3.9617 3.9992 0.0000 -10502.1636 1360.3000 0.0000 0.0000 1743.5729 -7385.5958 300.5329 -9129.1687 -7422.3725 299.6459 -341.4971 -197.3830 30055.4389 78.2023 154.7598
ENERGY: 600000 1.1955 3.2828 2.4472 0.0000 -10710.4335 1561.6901 0.0000 0.0000 1722.5559 -7419.2620 296.9103 -9141.8179 -7405.0825 300.1391 1089.4022 1171.6932 29801.7974 331.3559 404.0962
ENERGY: 900000 2.9233 2.7709 0.7459 0.0000 -10446.1663 1352.0209 0.0000 0.0000 1768.1031 -7319.6021 304.7611 -9087.7052 -7394.3985 299.6958 -527.5439 -391.5902 30152.3993 77.0116 160.3187
ENERGY: 1200000 1.2618 3.7979 2.0645 0.0000 -10650.8509 1459.4877 0.0000 0.0000 1776.5229 -7407.7161 306.2124 -9184.2390 -7397.8810 299.6299 308.1426 438.7645 29722.1142 104.1699 186.1831
ENERGY: 1500000 1.8471 3.0367 2.0141 0.0000 -10609.3491 1444.7181 0.0000 0.0000 1720.4437 -7437.2894 296.5462 -9157.7330 -7393.8585 300.7812 -72.1046 -3.6464 30455.3005 167.7697 244.3555
TCL: Running FEP window  16: Lambda1 0.7500000000000001 Lambda2 0.8000000000000002 [dLambda 0.050000000000000044]
TCL: Setting parameter firsttimestep to 0
TCL: Setting parameter alchLambda to 0.7500000000000001
Info: NONBONDED TABLE R-SQUARED SPACING: 0.0625
Info: NONBONDED TABLE SIZE: 705 POINTS
TCL: Setting parameter alchLambda2 to 0.8000000000000002
Info: NONBONDED TABLE R-SQUARED SPACING: 0.0625
Info: NONBONDED TABLE SIZE: 705 POINTS
TCL: Running for 1500000 steps
ETITLE: TS BOND ANGLE DIHED IMPRP ELECT VDW BOUNDARY MISC KINETIC TOTAL TEMP POTENTIAL TOTALAVG TEMPAVG PRESSURE GPRESSURE VOLUME PRESSAVG GPRESSAVG
ENERGY: 0 1.8471 3.0367 2.0141 0.0000 -10609.3794 1444.3398 0.0000 0.0000 1719.5362 -7438.6055 296.3898 -9158.1417 -7438.6055 296.3898 -75.7530 -2.3610 30455.3005 -75.7530 -2.3610
ENERGY: 300000 1.9246 2.6828 1.3078 0.0000 -10680.5186 1468.2987 0.0000 0.0000 1780.3790 -7425.9257 306.8770 -9206.3047 -7413.7553 302.3792 307.3826 347.4458 29701.2074 28.4311 64.4144
ENERGY: 600000 0.3873 1.4610 1.0121 0.0000 -10627.6692 1474.2828 0.0000 0.0000 1694.7028 -7455.8232 292.1094 -9150.5260 -7427.7782 299.8349 586.4863 599.4015 29772.2492 166.9743 197.3102
ENERGY: 900000 2.6818 3.1146 3.0332 0.0000 -10477.8855 1359.6797 0.0000 0.0000 1769.9223 -7339.4539 305.0746 -9109.3762 -7404.1138 300.8744 -202.1617 -206.2745 29959.4561 104.9877 140.0865
ENERGY: 1200000 3.4405 2.1778 3.9470 0.0000 -10498.4092 1357.7201 0.0000 0.0000 1702.7356 -7428.3881 293.4939 -9131.1237 -7413.1303 299.8379 -372.4222 -355.0294 29874.3302 40.8166 76.5512
ENERGY: 1500000 0.7493 4.2274 2.5691 0.0000 -10483.8979 1314.7785 0.0000 0.0000 1695.9808 -7465.5928 292.3296 -9161.5736 -7417.0813 298.7875 -1129.7919 -1061.8249 30418.5513 -101.5664 -64.4950
TCL: Running FEP window  17: Lambda1 0.8000000000000002 Lambda2 0.8500000000000002 [dLambda 0.050000000000000044]
TCL: Setting parameter firsttimestep to 0
TCL: Setting parameter alchLambda to 0.8000000000000002
Info: NONBONDED TABLE R-SQUARED SPACING: 0.0625
Info: NONBONDED TABLE SIZE: 705 POINTS
TCL: Setting parameter alchLambda2 to 0.8500000000000002
Info: NONBONDED TABLE R-SQUARED SPACING: 0.0625
Info: NONBONDED TABLE SIZE: 705 POINTS
TCL: Running for 1500000 steps
ETITLE: TS BOND ANGLE DIHED IMPRP ELECT VDW BOUNDARY MISC KINETIC TOTAL TEMP POTENTIAL TOTALAVG TEMPAVG PRESSURE GPRESSURE VOLUME PRESSAVG GPRESSAVG
ENERGY: 0 0.7493 4.2274 2.5691 0.0000 -10484.0813 1314.1818 0.0000 0.0000 1695.0989 -7467.2548 292.1776 -9162.3537 -7467.2548 292.1776 -1167.5979 -1063.8183 30418.5513 -1167.5979 -1063.8183
ENERGY: 300000 1.6174 2.1678 3.8141 0.0000 -10565.9989 1374.4764 0.0000 0.0000 1773.5486 -7410.3747 305.6997 -9183.9233 -7373.6958 302.6382 -697.8830 -567.0644 30210.9553 -629.9987 -538.1345
ENERGY: 600000 2.0409 1.8703 3.5563 0.0000 -10622.2151 1461.1754 0.0000 0.0000 1755.2260 -7398.3462 302.5415 -9153.5722 -7380.4769 300.9679 270.1012 369.0407 30122.1270 -477.8159 -383.2919
ENERGY: 900000 1.2415 2.4701 3.0492 0.0000 -10480.1827 1361.5862 0.0000 0.0000 1776.5586 -7335.2771 306.2185 -9111.8357 -7393.6546 299.8055 -505.3599 -433.7298 30369.8912 -519.7901 -432.9967
ENERGY: 1200000 2.3011 2.4834 1.6348 0.0000 -10598.6207 1443.4025 0.0000 0.0000 1705.0165 -7443.7824 293.8871 -9148.7989 -7397.7926 299.6013 56.2315 110.7518 29834.7340 -478.6407 -403.6866
ENERGY: 1500000 2.4026 2.5883 5.0721 0.0000 -10438.7873 1363.6846 0.0000 0.0000 1761.5911 -7303.4486 303.6386 -9065.0397 -7391.9292 299.8217 -20.6664 54.7626 29740.2264 -338.0748 -263.9023
TCL: Running FEP window  18: Lambda1 0.8500000000000002 Lambda2 0.9000000000000002 [dLambda 0.050000000000000044]
TCL: Setting parameter firsttimestep to 0
TCL: Setting parameter alchLambda to 0.8500000000000002
Info: NONBONDED TABLE R-SQUARED SPACING: 0.0625
Info: NONBONDED TABLE SIZE: 705 POINTS
TCL: Setting parameter alchLambda2 to 0.9000000000000002
Info: NONBONDED TABLE R-SQUARED SPACING: 0.0625
Info: NONBONDED TABLE SIZE: 705 POINTS
TCL: Running for 1500000 steps
ETITLE: TS BOND ANGLE DIHED IMPRP ELECT VDW BOUNDARY MISC KINETIC TOTAL TEMP POTENTIAL TOTALAVG TEMPAVG PRESSURE GPRESSURE VOLUME PRESSAVG GPRESSAVG
ENERGY: 0 2.4026 2.5883 5.0721 0.0000 -10438.6754 1363.3526 0.0000 0.0000 1760.7217 -7304.5380 303.4888 -9065.2597 -7304.5380 303.4888 -23.5849 57.4332 29740.2264 -23.5849 57.4332
ENERGY: 300000 5.1523 4.0162 4.8076 0.0000 -10425.3469 1312.2620 0.0000 0.0000 1713.7512 -7385.3577 295.3926 -9099.1089 -7339.8325 304.2849 -799.8321 -722.4833 30317.6076 -178.9642 -104.5370
ENERGY: 600000 1.8364 1.9739 4.4737 0.0000 -10569.5811 1393.9804 0.0000 0.0000 1684.0828 -7483.2338 290.2788 -9167.3166 -7363.3587 303.0866 -341.3521 -270.7423 30061.7964 53.5408 116.3788
ENERGY: 900000 1.3651 4.1203 4.8757 0.0000 -10378.0375 1311.6617 0.0000 0.0000 1759.8657 -7296.1490 303.3412 -9056.0147 -7367.1860 302.1203 -776.6861 -635.9700 30442.1649 -74.8462 -10.1204
ENERGY: 1200000 3.9724 4.0691 2.7243 0.0000 -10443.6981 1356.7863 0.0000 0.0000 1817.5783 -7258.5677 313.2889 -9076.1461 -7364.9153 302.8551 -211.5908 -146.6600 29980.1084 -47.9680 17.0029
ENERGY: 1500000 2.5234 3.4052 2.4532 0.0000 -10521.7398 1375.1888 0.0000 0.0000 1757.7565 -7380.4127 302.9777 -9138.1692 -7381.7543 301.9136 -492.9860 -343.5238 30138.8993 -33.0112 39.7760
TCL: Running FEP window  19: Lambda1 0.9000000000000002 Lambda2 0.9500000000000003 [dLambda 0.050000000000000044]
TCL: Setting parameter firsttimestep to 0
TCL: Setting parameter alchLambda to 0.9000000000000002
Info: NONBONDED TABLE R-SQUARED SPACING: 0.0625
Info: NONBONDED TABLE SIZE: 705 POINTS
TCL: Setting parameter alchLambda2 to 0.9500000000000003
Info: NONBONDED TABLE R-SQUARED SPACING: 0.0625
Info: NONBONDED TABLE SIZE: 705 POINTS
TCL: Running for 1500000 steps
ETITLE: TS BOND ANGLE DIHED IMPRP ELECT VDW BOUNDARY MISC KINETIC TOTAL TEMP POTENTIAL TOTALAVG TEMPAVG PRESSURE GPRESSURE VOLUME PRESSAVG GPRESSAVG
ENERGY: 0 2.5234 3.4052 2.4532 0.0000 -10522.3579 1374.8581 0.0000 0.0000 1756.8885 -7382.2295 302.8281 -9139.1179 -7382.2295 302.8281 -422.3971 -343.2602 30138.8993 -422.3971 -343.2602
ENERGY: 300000 2.0010 3.0013 3.2960 0.0000 -10470.6378 1341.5558 0.0000 0.0000 1765.9311 -7354.8526 304.3867 -9120.7838 -7370.9188 303.1045 -617.0402 -533.6076 30405.7508 -79.5825 -21.1645
ENERGY: 600000 1.4009 1.6999 1.7141 0.0000 -10441.8609 1427.5708 0.0000 0.0000 1736.4639 -7273.0113 299.3075 -9009.4752 -7350.7294 302.5121 242.1984 292.3843 30458.3926 93.5586 142.9371
ENERGY: 900000 4.8067 1.4395 2.3732 0.0000 -10637.5085 1453.3652 0.0000 0.0000 1776.8451 -7398.6787 306.2679 -9175.5238 -7349.1146 302.5619 -119.2592 3.1678 30243.3965 55.0649 116.1887
ENERGY: 1200000 1.4112 2.7909 2.8056 0.0000 -10581.6772 1398.1749 0.0000 0.0000 1752.2453 -7424.2493 302.0277 -9176.4946 -7363.5365 302.1476 -133.7501 -14.5581 29786.7976 16.1242 79.3293
ENERGY: 1500000 2.5853 2.4808 1.7279 0.0000 -10554.6932 1375.3817 0.0000 0.0000 1747.0567 -7425.4609 301.1334 -9172.5176 -7382.2471 301.8460 -318.4325 -272.7316 29900.3831 -64.2394 3.1493
TCL: Running FEP window  20: Lambda1 0.9500000000000003 Lambda2 1.0    [dLambda 0.04999999999999971]
TCL: Setting parameter firsttimestep to 0
TCL: Setting parameter alchLambda to 0.9500000000000003
Info: NONBONDED TABLE R-SQUARED SPACING: 0.0625
Info: NONBONDED TABLE SIZE: 705 POINTS
TCL: Setting parameter alchLambda2 to 1.0
Info: NONBONDED TABLE R-SQUARED SPACING: 0.0625
Info: NONBONDED TABLE SIZE: 705 POINTS
TCL: Running for 1500000 steps
ETITLE: TS BOND ANGLE DIHED IMPRP ELECT VDW BOUNDARY MISC KINETIC TOTAL TEMP POTENTIAL TOTALAVG TEMPAVG PRESSURE GPRESSURE VOLUME PRESSAVG GPRESSAVG
ENERGY: 0 2.5853 2.4808 1.7279 0.0000 -10555.5383 1375.1778 0.0000 0.0000 1746.2289 -7427.3378 300.9907 -9173.5666 -7427.3378 300.9907 -348.9437 -266.5347 29900.3831 -348.9437 -266.5347
ENERGY: 300000 2.2494 2.2765 2.4723 0.0000 -10507.5002 1383.6803 0.0000 0.0000 1692.2197 -7424.6019 291.6813 -9116.8216 -7433.3425 296.8162 -140.1702 -107.3898 30176.9580 -205.1699 -123.0300
ENERGY: 600000 1.7188 4.3870 2.8556 0.0000 -10753.6046 1479.4530 0.0000 0.0000 1722.6689 -7542.5212 296.9298 -9265.1901 -7419.5612 298.4922 341.4177 399.8987 29498.9766 -218.7808 -151.3265
ENERGY: 900000 4.7135 3.7048 2.4434 0.0000 -10525.1834 1369.7273 0.0000 0.0000 1816.7356 -7327.8589 313.1437 -9144.5945 -7402.3241 299.9358 -366.7412 -256.4381 29892.8421 -268.8766 -199.1551
ENERGY: 1200000 3.2929 3.0805 5.2775 0.0000 -10505.8054 1369.0284 0.0000 0.0000 1745.7503 -7379.3759 300.9082 -9125.1261 -7401.3050 300.2695 -303.3721 -243.5941 30109.3682 -221.0504 -150.8106
ENERGY: 1500000 5.1215 4.0407 2.8877 0.0000 -10460.2517 1324.6032 0.0000 0.0000 1739.2938 -7384.3048 299.7953 -9123.5987 -7400.9383 300.0937 -1034.1825 -950.7130 30611.8952 -213.9451 -143.1291
TCL: Exiting due to exit command.
