Info: SIMULATION PARAMETERS:
Info: TIMESTEP               2
Info: NUMBER OF STEPS        0
Info: STEPS PER CYCLE        10
Info: PERIODIC CELL BASIS 1  29.9781 0 0
Info: PERIODIC CELL BASIS 2  0 33.1234 0
Info: PERIODIC CELL BASIS 3  0 0 30.6143
Info: PERIODIC CELL CENTER   0 0 0
Info: WRAPPING WATERS AROUND PERIODIC BOUNDARIES ON OUTPUT.
Info: WRAPPING ALL CLUSTERS AROUND PERIODIC BOUNDARIES ON OUTPUT.
Info: FIRST LDB TIMESTEP     50
Info: LAST LDB TIMESTEP     -1
Info: HOM BACKGROUND SCALING 1
Info: PME BACKGROUND SCALING 1
Info: MIN ATOMS PER PATCH    40
Info: EMPTY PATCH LOAD       40 ATOMS
Info: VELOCITY FILE          mobley_9121449_equil.vel
Info: CENTER OF MASS MOVING INITIALLY? NO
Info: DIELECTRIC             1
Info: EXCLUDE                SCALED ONE-FOUR
Info: 1-4 ELECTROSTATICS SCALED BY 0.833333
Info: MODIFIED 1-4 VDW PARAMETERS WILL BE USED
Info: DCD FILENAME           mobley_9121449_prod.dcd
Info: DCD FREQUENCY          100000
Info: DCD FIRST STEP         100000
Info: DCD FILE WILL CONTAIN UNIT CELL DATA
Info: XST FILENAME           mobley_9121449_prod.xst
Info: XST FREQUENCY          100000
Info: NO VELOCITY DCD OUTPUT
Info: NO FORCE DCD OUTPUT
Info: OUTPUT FILENAME        mobley_9121449_prod
Info: BINARY OUTPUT FILES WILL BE USED
Info: RESTART FILENAME       mobley_9121449_prod.restart
Info: RESTART FREQUENCY      100000
Info: BINARY RESTART FILES WILL BE USED
Info: CUTOFF                 9
Info: PAIRLIST DISTANCE      11
Info: PAIRLIST SHRINK RATE   0.01
Info: PAIRLIST GROW RATE     0.01
Info: PAIRLIST TRIGGER       0.3
Info: PAIRLISTS PER CYCLE    2
Info: PAIRLISTS ENABLED
Info: MARGIN                 2
Info: HYDROGEN GROUP CUTOFF  2.5
Info: PATCH DIMENSION        15.5
Info: ENERGY OUTPUT STEPS    100000
Info: ENERGY EVALUATION STEPS    100000
Info: OUTPUT ENERGY PRECISION 4
Info: CROSSTERM ENERGY INCLUDED IN DIHEDRAL
Info: TIMING OUTPUT STEPS    1000000
Info: PRESSURE OUTPUT STEPS  100000
Info: ALCHEMICAL FEP ON
Info: FEP CURRENT LAMBDA VALUE     0
Info: FEP COMPARISON LAMBDA VALUE  0.05
Info: FEP INTRA-ALCHEMICAL NON-BONDED INTERACTIONS WILL BE RETAINED
Info: FEP INTRA-ALCHEMICAL BONDED INTERACTIONS WILL BE RETAINED
Info: FEP VDW SHIFTING COEFFICIENT 5
Info: FEP ELEC. ACTIVE FOR ANNIHILATED PARTICLES BETWEEN LAMBDA = 0 AND LAMBDA = 0.5
Info: FEP ELEC. ACTIVE FOR EXNIHILATED PARTICLES BETWEEN LAMBDA = 0.5 AND LAMBDA = 1
Info: FEP VDW ACTIVE FOR ANNIHILATED PARTICLES BETWEEN LAMBDA = 0 AND LAMBDA = 1
Info: FEP VDW ACTIVE FOR EXNIHILATED PARTICLES BETWEEN LAMBDA = 0 AND LAMBDA = 1
Info: FEP BOND ACTIVE FOR ANNIHILATED PARTICLES BETWEEN LAMBDA = 1 AND LAMBDA = 1
Info: FEP BOND ACTIVE FOR EXNIHILATED PARTICLES BETWEEN LAMBDA = 0 AND LAMBDA = 0
Info: LANGEVIN DYNAMICS ACTIVE
Info: LANGEVIN TEMPERATURE   300
Info: LANGEVIN USING BBK INTEGRATOR
Info: LANGEVIN DAMPING COEFFICIENT IS 1 INVERSE PS
Info: LANGEVIN DYNAMICS APPLIED TO HYDROGENS
Info: LANGEVIN PISTON PRESSURE CONTROL ACTIVE
Info:        TARGET PRESSURE IS 1.01325 BAR
Info:     OSCILLATION PERIOD IS 50 FS
Info:             DECAY TIME IS 25 FS
Info:     PISTON TEMPERATURE IS 300 K
Info:       PRESSURE CONTROL IS GROUP-BASED
Info:    INITIAL STRAIN RATE IS 0.000290126 0.000290126 0.000290126
Info:       CELL FLUCTUATION IS ISOTROPIC
Info: PARTICLE MESH EWALD (PME) ACTIVE
Info: PME TOLERANCE               1e-06
Info: PME EWALD COEFFICIENT       0.348832
Info: PME INTERPOLATION ORDER     4
Info: PME GRID DIMENSIONS         32 36 32
Info: PME MAXIMUM GRID SPACING    1
Info: PME CALCULATION WILL BE PERFORMED ON GPU
Info: FULL ELECTROSTATIC EVALUATION FREQUENCY      2
Info: USING VERLET I (r-RESPA) MTS SCHEME.
Info: C1 SPLITTING OF LONG RANGE ELECTROSTATICS
Info: PLACING ATOMS IN PATCHES BY HYDROGEN GROUPS
Info: RIGID BONDS TO HYDROGEN : ALL
Info:         ERROR TOLERANCE : 1e-08
Info:          MAX ITERATIONS : 100
Info: RIGID WATER USING SETTLE ALGORITHM
Info: RANDOM NUMBER SEED     1743506853
Info: USE HYDROGEN BONDS?    NO
Info: Using AMBER format force field!
Info: AMBER PARM FILE        mobley_9121449.prmtop
Info: COORDINATE PDB         mobley_9121449.pdb
Info: Exclusions will be read from PARM file!
Info: SCNB (VDW SCALING)     2
Info: USING ARITHMETIC MEAN TO COMBINE L-J SIGMA PARAMETERS
Info: BINARY COORDINATES     mobley_9121449_equil.coor
Info: SUMMARY OF PARAMETERS:
Info: 7 BONDS
Info: 6 ANGLES
Info:   6 HARMONIC
Info:   0 COSINE-BASED
Info: 3 DIHEDRAL
Info: 0 IMPROPER
Info: 0 CROSSTERM
Info: 0 VDW
Info: 21 VDW_PAIRS
Info: 0 NBTHOLE_PAIRS
Info: To read alchdata from file: mobley_9121449.pdb
Info: To read alchflag data from column: 5
Info: STRUCTURE SUMMARY:
Info: 2956 ATOMS
Info: 2955 BONDS
Info: 14 ANGLES
Info: 13 DIHEDRALS
Info: 0 IMPROPERS
Info: 0 CROSSTERMS
Info: 2982 EXCLUSIONS
Info: 2952 RIGID BONDS
Info: ALCH: 0 ATOMS TO DISAPPEAR IN FINAL STATE
Info: ALCH: 10 ATOMS TO APPEAR IN FINAL STATE
Info: 5916 DEGREES OF FREEDOM
Info: 986 HYDROGEN GROUPS
Info: 4 ATOMS IN LARGEST HYDROGEN GROUP
Info: 986 MIGRATION GROUPS
Info: 4 ATOMS IN LARGEST MIGRATION GROUP
Info: TOTAL MASS = 17745.8 amu
Info: TOTAL CHARGE = 1.16415e-08 e
Info: MASS DENSITY = 0.969375 g/cm^3
Info: ATOM DENSITY = 0.0972392 atoms/A^3
Info: ADDED 0 IMPLICIT EXCLUSIONS
Info: NONBONDED TABLE R-SQUARED SPACING: 0.0625
Info: NONBONDED TABLE SIZE: 705 POINTS
Info: REMOVING COM VELOCITY 0.29479 -0.128151 -0.0723335
Info: Use 3D box decompostion in PME FFT.
Info: Updated CUDA force table with 4096 elements.
Info: Updated CUDA LJ table with 6 x 6 elements.
Info: Found 13 unique exclusion lists needing 20 bytes
TCL: Running for 1500000 steps
ETITLE: TS BOND ANGLE DIHED IMPRP ELECT VDW BOUNDARY MISC KINETIC TOTAL TEMP POTENTIAL TOTALAVG TEMPAVG PRESSURE GPRESSURE VOLUME PRESSAVG GPRESSAVG
ENERGY: 0 0.5272 2.0414 0.0374 0.0000 -10557.0086 1328.4953 0.0000 0.0000 1739.2004 -7486.7068 295.8774 -9225.9072 -7486.7068 295.8774 -808.4100 -725.8117 30399.2640 -808.4100 -725.8117
ENERGY: 300000 0.3423 6.4923 0.2406 0.0000 -10804.2019 1543.0493 0.0000 0.0000 1775.9165 -7478.1609 302.1237 -9254.0774 -7491.2476 299.0076 738.2743 820.2456 30325.3339 298.5851 359.2622
ENERGY: 600000 2.1953 2.3996 0.0653 0.0000 -10786.0571 1416.7509 0.0000 0.0000 1777.3001 -7587.3459 302.3591 -9364.6461 -7482.2261 300.1004 -645.9392 -558.1970 30749.1874 39.1510 95.7145
ENERGY: 900000 3.5183 2.6480 0.4353 0.0000 -10574.1914 1356.4846 0.0000 0.0000 1753.1088 -7457.9964 298.2436 -9211.1052 -7486.9434 299.2803 -625.0698 -597.2800 30394.2453 -96.3022 -41.9836
ENERGY: 1200000 0.1224 4.8347 2.0524 0.0000 -10698.8974 1451.0975 0.0000 0.0000 1745.9509 -7494.8395 297.0258 -9240.7904 -7506.4383 298.6883 438.7807 507.7000 30074.3842 -7.7571 48.7922
ENERGY: 1500000 1.1803 3.5681 0.1237 0.0000 -10701.7712 1397.8604 0.0000 0.0000 1758.1220 -7540.9167 299.0964 -9299.0387 -7510.0110 299.0865 -149.6879 -131.3566 30179.7095 50.0461 96.3494
TCL: Running FEP window   2: Lambda1 0.05   Lambda2 0.1    [dLambda 0.05  ]
TCL: Setting parameter firsttimestep to 0
TCL: Setting parameter alchLambda to 0.05
Info: NONBONDED TABLE R-SQUARED SPACING: 0.0625
Info: NONBONDED TABLE SIZE: 705 POINTS
TCL: Setting parameter alchLambda2 to 0.1
Info: NONBONDED TABLE R-SQUARED SPACING: 0.0625
Info: NONBONDED TABLE SIZE: 705 POINTS
TCL: Running for 1500000 steps
ETITLE: TS BOND ANGLE DIHED IMPRP ELECT VDW BOUNDARY MISC KINETIC TOTAL TEMP POTENTIAL TOTALAVG TEMPAVG PRESSURE GPRESSURE VOLUME PRESSAVG GPRESSAVG
ENERGY: 0 1.1803 3.5681 0.1237 0.0000 -10701.7704 1399.5578 0.0000 0.0000 1757.2357 -7540.1048 298.9457 -9297.3405 -7540.1048 298.9457 -202.9138 -125.6356 30179.7095 -202.9138 -125.6356
ENERGY: 300000 0.3350 3.1720 0.0843 0.0000 -10763.3704 1461.3252 0.0000 0.0000 1734.3792 -7564.0746 295.0572 -9298.4539 -7502.2969 300.7371 89.2658 116.3376 30165.4227 -299.0235 -255.3787
ENERGY: 600000 0.7649 4.5235 0.0557 0.0000 -10555.2092 1405.8898 0.0000 0.0000 1731.1499 -7412.8254 294.5079 -9143.9753 -7504.5269 298.8632 -49.8105 -18.4933 30539.6787 -83.3083 -48.5728
ENERGY: 900000 0.0129 3.9729 0.2515 0.0000 -10768.5821 1530.3938 0.0000 0.0000 1835.0198 -7398.9313 312.1785 -9233.9510 -7501.4533 300.6954 793.6434 904.4717 30479.7629 -30.7558 16.7238
ENERGY: 1200000 0.1013 6.1006 0.2087 0.0000 -10551.6916 1392.3647 0.0000 0.0000 1810.5883 -7342.3279 308.0221 -9152.9162 -7494.4098 300.9169 -101.5981 -8.8861 30544.7620 -85.6628 -38.5234
ENERGY: 1500000 0.1805 4.1529 0.0799 0.0000 -10669.9838 1405.7659 0.0000 0.0000 1756.2430 -7503.5615 298.7768 -9259.8045 -7497.7661 300.3282 -310.4888 -220.2191 30564.5029 -18.6057 33.6049
TCL: Running FEP window   3: Lambda1 0.1    Lambda2 0.15000000000000002 [dLambda 0.05000000000000002]
TCL: Setting parameter firsttimestep to 0
TCL: Setting parameter alchLambda to 0.1
Info: NONBONDED TABLE R-SQUARED SPACING: 0.0625
Info: NONBONDED TABLE SIZE: 705 POINTS
TCL: Setting parameter alchLambda2 to 0.15000000000000002
Info: NONBONDED TABLE R-SQUARED SPACING: 0.0625
Info: NONBONDED TABLE SIZE: 705 POINTS
TCL: Running for 1500000 steps
ETITLE: TS BOND ANGLE DIHED IMPRP ELECT VDW BOUNDARY MISC KINETIC TOTAL TEMP POTENTIAL TOTALAVG TEMPAVG PRESSURE GPRESSURE VOLUME PRESSAVG GPRESSAVG
ENERGY: 0 0.1805 4.1529 0.0799 0.0000 -10669.9848 1406.9729 0.0000 0.0000 1755.3683 -7503.2303 298.6280 -9258.5985 -7503.2303 298.6280 -281.3859 -211.5058 30564.5029 -281.3859 -211.5058
ENERGY: 300000 0.3339 2.6995 0.3758 0.0000 -10617.3462 1385.6201 0.0000 0.0000 1802.1971 -7426.1198 306.5946 -9228.3169 -7478.1131 302.7580 -238.7381 -182.4829 30358.1644 -98.4972 -39.1881
ENERGY: 600000 0.8763 2.5766 0.0082 0.0000 -10699.3649 1396.6934 0.0000 0.0000 1726.8881 -7572.3223 293.7828 -9299.2104 -7487.6417 300.9075 -585.4230 -512.5475 30524.9586 -202.5792 -149.7474
ENERGY: 900000 0.6239 3.1181 0.3058 0.0000 -10823.6315 1547.6155 0.0000 0.0000 1776.6904 -7495.2778 302.2553 -9271.9681 -7497.0489 300.5849 1060.2571 1073.3306 29988.0323 -13.1273 53.6374
ENERGY: 1200000 0.7514 5.0228 0.1898 0.0000 -10750.8317 1439.5760 0.0000 0.0000 1754.8840 -7550.4077 298.5456 -9305.2917 -7506.3956 300.8099 -158.3948 -74.6691 30256.1160 -49.4309 20.3941
ENERGY: 1500000 0.7913 3.2127 0.3185 0.0000 -10777.8015 1467.2194 0.0000 0.0000 1761.3858 -7544.8738 299.6517 -9306.2595 -7514.7517 300.4338 112.0620 159.0873 30079.6506 24.9681 92.3784
TCL: Running FEP window   4: Lambda1 0.15000000000000002 Lambda2 0.2    [dLambda 0.04999999999999999]
TCL: Setting parameter firsttimestep to 0
TCL: Setting parameter alchLambda to 0.15000000000000002
Info: NONBONDED TABLE R-SQUARED SPACING: 0.0625
Info: NONBONDED TABLE SIZE: 705 POINTS
TCL: Setting parameter alchLambda2 to 0.2
Info: NONBONDED TABLE R-SQUARED SPACING: 0.0625
Info: NONBONDED TABLE SIZE: 705 POINTS
TCL: Running for 1500000 steps
ETITLE: TS BOND ANGLE DIHED IMPRP ELECT VDW BOUNDARY MISC KINETIC TOTAL TEMP POTENTIAL TOTALAVG TEMPAVG PRESSURE GPRESSURE VOLUME PRESSAVG GPRESSAVG
ENERGY: 0 0.7913 3.2127 0.3185 0.0000 -10777.8017 1468.3232 0.0000 0.0000 1760.5193 -7544.6367 299.5043 -9305.1559 -7544.6367 299.5043 78.9744 165.5964 30079.6506 78.9744 165.5964
ENERGY: 300000 0.9677 4.2453 0.6079 0.0000 -10616.3091 1390.3171 0.0000 0.0000 1804.9497 -7415.2215 307.0629 -9220.1712 -7441.7202 303.0557 -300.4682 -245.6315 30428.7966 -64.9447 2.9674
ENERGY: 600000 1.1871 8.0024 0.5302 0.0000 -10648.6262 1363.5256 0.0000 0.0000 1794.7178 -7480.6631 305.3222 -9275.3809 -7470.5189 303.8222 -548.1650 -421.3634 30145.3671 -109.8364 -48.7577
ENERGY: 900000 1.6192 5.5779 0.1061 0.0000 -10836.5233 1505.3549 0.0000 0.0000 1758.2987 -7565.5665 299.1265 -9323.8652 -7494.3709 302.7508 363.1075 447.8312 30331.1088 6.8759 81.5015
ENERGY: 1200000 1.5413 1.2604 0.0174 0.0000 -10809.3472 1475.3883 0.0000 0.0000 1783.8261 -7547.3137 303.4693 -9331.1398 -7496.1262 302.3929 130.5259 222.2515 30111.1840 1.6692 73.1803
ENERGY: 1500000 0.4559 4.4040 0.6053 0.0000 -10703.3289 1483.8828 0.0000 0.0000 1720.8103 -7493.1707 292.7489 -9213.9809 -7493.9870 301.5940 360.2026 421.1087 30443.9167 34.4320 102.2887
TCL: Running FEP window   5: Lambda1 0.2    Lambda2 0.25   [dLambda 0.04999999999999999]
TCL: Setting parameter firsttimestep to 0
TCL: Setting parameter alchLambda to 0.2
Info: NONBONDED TABLE R-SQUARED SPACING: 0.0625
Info: NONBONDED TABLE SIZE: 705 POINTS
TCL: Setting parameter alchLambda2 to 0.25
Info: NONBONDED TABLE R-SQUARED SPACING: 0.0625
Info: NONBONDED TABLE SIZE: 705 POINTS
TCL: Running for 1500000 steps
ETITLE: TS BOND ANGLE DIHED IMPRP ELECT VDW BOUNDARY MISC KINETIC TOTAL TEMP POTENTIAL TOTALAVG TEMPAVG PRESSURE GPRESSURE VOLUME PRESSAVG GPRESSAVG
ENERGY: 0 0.4559 4.4040 0.6053 0.0000 -10703.3267 1484.6323 0.0000 0.0000 1719.8986 -7493.3306 292.5938 -9213.2292 -7493.3306 292.5938 330.7415 428.2814 30443.9167 330.7415 428.2814
ENERGY: 300000 0.5772 5.5856 0.2156 0.0000 -10639.1792 1422.0706 0.0000 0.0000 1796.4432 -7414.2871 305.6157 -9210.7303 -7484.4176 300.1536 14.9951 119.5403 30456.8645 50.0957 124.3817
ENERGY: 600000 0.3781 3.6010 0.1436 0.0000 -10653.6379 1465.3850 0.0000 0.0000 1698.1739 -7485.9562 288.8979 -9184.1302 -7490.6883 299.5990 274.2383 336.5410 30547.6768 26.2954 94.8132
ENERGY: 900000 0.8472 1.7333 0.2106 0.0000 -10741.3937 1402.1220 0.0000 0.0000 1755.7135 -7580.7671 298.6867 -9336.4806 -7500.6057 299.3677 -541.6766 -473.5936 30203.7009 -131.0957 -62.0544
ENERGY: 1200000 0.1357 4.8457 0.5121 0.0000 -10738.3089 1520.5373 0.0000 0.0000 1723.0461 -7489.2320 293.1292 -9212.2781 -7505.2973 297.8932 782.2966 837.8359 29994.2454 -42.5481 26.7112
ENERGY: 1500000 0.3670 3.9160 0.1329 0.0000 -10766.7929 1454.9983 0.0000 0.0000 1764.3882 -7542.9905 300.1624 -9307.3787 -7516.5575 298.6654 -53.3295 -24.1779 30166.7394 25.3723 89.2411
TCL: Running FEP window   6: Lambda1 0.25   Lambda2 0.3    [dLambda 0.04999999999999999]
TCL: Setting parameter firsttimestep to 0
TCL: Setting parameter alchLambda to 0.25
Info: NONBONDED TABLE R-SQUARED SPACING: 0.0625
Info: NONBONDED TABLE SIZE: 705 POINTS
TCL: Setting parameter alchLambda2 to 0.3
Info: NONBONDED TABLE R-SQUARED SPACING: 0.0625
Info: NONBONDED TABLE SIZE: 705 POINTS
TCL: Running for 1500000 steps
ETITLE: TS BOND ANGLE DIHED IMPRP ELECT VDW BOUNDARY MISC KINETIC TOTAL TEMP POTENTIAL TOTALAVG TEMPAVG PRESSURE GPRESSURE VOLUME PRESSAVG GPRESSAVG
ENERGY: 0 0.3670 3.9160 0.1329 0.0000 -10766.7928 1454.9465 0.0000 0.0000 1763.4990 -7543.9314 300.0112 -9307.4304 -7543.9314 300.0112 -102.5490 -21.7522 30166.7394 -102.5490 -21.7522
ENERGY: 300000 0.0405 2.4295 1.2821 0.0000 -10835.0657 1525.9063 0.0000 0.0000 1720.6991 -7584.7081 292.7299 -9305.4072 -7540.4579 296.4177 550.9751 596.2300 30274.1427 12.6910 67.9593
ENERGY: 600000 1.9898 4.1050 0.3743 0.0000 -10737.4288 1422.2655 0.0000 0.0000 1706.7798 -7601.9144 290.3620 -9308.6942 -7534.5522 298.7959 -292.7923 -174.8995 30521.2858 -46.0741 30.3361
ENERGY: 900000 1.7534 0.7943 0.0341 0.0000 -10717.5930 1444.7376 0.0000 0.0000 1764.9146 -7505.3590 300.2520 -9270.2735 -7524.8473 299.7757 -152.0217 -66.0314 30780.0138 -121.9776 -52.6005
ENERGY: 1200000 1.3809 4.6152 0.0342 0.0000 -10814.8922 1451.7176 0.0000 0.0000 1755.3655 -7601.7788 298.6275 -9357.1443 -7539.8009 298.9841 76.1675 141.6236 29859.3785 -144.5595 -76.1169
ENERGY: 1500000 2.9189 5.0630 1.0299 0.0000 -10733.8888 1491.0725 0.0000 0.0000 1778.7428 -7455.0617 302.6045 -9233.8045 -7526.5214 299.4265 161.4797 245.8177 30777.8524 -167.0176 -94.4859
TCL: Running FEP window   7: Lambda1 0.3    Lambda2 0.35   [dLambda 0.04999999999999999]
TCL: Setting parameter firsttimestep to 0
TCL: Setting parameter alchLambda to 0.3
Info: NONBONDED TABLE R-SQUARED SPACING: 0.0625
Info: NONBONDED TABLE SIZE: 705 POINTS
TCL: Setting parameter alchLambda2 to 0.35
Info: NONBONDED TABLE R-SQUARED SPACING: 0.0625
Info: NONBONDED TABLE SIZE: 705 POINTS
TCL: Running for 1500000 steps
ETITLE: TS BOND ANGLE DIHED IMPRP ELECT VDW BOUNDARY MISC KINETIC TOTAL TEMP POTENTIAL TOTALAVG TEMPAVG PRESSURE GPRESSURE VOLUME PRESSAVG GPRESSAVG
ENERGY: 0 2.9189 5.0630 1.0299 0.0000 -10733.8889 1491.3827 0.0000 0.0000 1777.8424 -7455.6520 302.4513 -9233.4944 -7455.6520 302.4513 175.7824 248.5491 30777.8524 175.7824 248.5491
ENERGY: 300000 2.1931 1.4356 0.0504 0.0000 -10705.4399 1481.4052 0.0000 0.0000 1803.8877 -7416.4678 306.8822 -9220.3556 -7462.0815 303.7085 902.4617 958.4431 29803.6713 180.9469 215.5255
ENERGY: 600000 0.3228 5.7273 0.3239 0.0000 -10510.1698 1373.9036 0.0000 0.0000 1804.7940 -7325.0982 307.0364 -9129.8922 -7453.4403 302.2436 -309.6150 -300.0941 30882.9970 179.9121 220.3490
ENERGY: 900000 1.4929 2.1498 1.5751 0.0000 -10666.8928 1392.6777 0.0000 0.0000 1794.5930 -7474.4043 305.3010 -9268.9973 -7464.7253 301.2450 -282.1050 -182.8977 30371.7004 8.5701 58.1178
ENERGY: 1200000 1.9060 3.2592 0.0334 0.0000 -10782.8326 1472.2721 0.0000 0.0000 1780.0041 -7525.3579 302.8191 -9305.3620 -7480.9088 301.3986 275.7898 360.7153 30084.2584 108.5019 161.2088
ENERGY: 1500000 0.7538 3.6009 0.1982 0.0000 -10627.8925 1414.3111 0.0000 0.0000 1725.2677 -7483.7609 293.5072 -9209.0286 -7484.2722 301.4851 -166.5483 -132.1073 30707.3198 101.0717 157.5640
TCL: Running FEP window   8: Lambda1 0.35   Lambda2 0.39999999999999997 [dLambda 0.04999999999999999]
TCL: Setting parameter firsttimestep to 0
TCL: Setting parameter alchLambda to 0.35
Info: NONBONDED TABLE R-SQUARED SPACING: 0.0625
Info: NONBONDED TABLE SIZE: 705 POINTS
TCL: Setting parameter alchLambda2 to 0.39999999999999997
Info: NONBONDED TABLE R-SQUARED SPACING: 0.0625
Info: NONBONDED TABLE SIZE: 705 POINTS
TCL: Running for 1500000 steps
ETITLE: TS BOND ANGLE DIHED IMPRP ELECT VDW BOUNDARY MISC KINETIC TOTAL TEMP POTENTIAL TOTALAVG TEMPAVG PRESSURE GPRESSURE VOLUME PRESSAVG GPRESSAVG
ENERGY: 0 0.7538 3.6009 0.1982 0.0000 -10627.8942 1414.6622 0.0000 0.0000 1724.4019 -7484.2772 293.3599 -9208.6792 -7484.2772 293.3599 -212.4893 -125.4366 30707.3198 -212.4893 -125.4366
ENERGY: 300000 0.2480 4.6401 0.6622 0.0000 -10702.2868 1385.3137 0.0000 0.0000 1820.3598 -7491.0628 309.6845 -9311.4226 -7491.5995 300.6286 -441.9266 -342.8149 30331.1501 -478.1060 -399.4362
ENERGY: 600000 0.5864 2.0278 0.2584 0.0000 -10692.2674 1455.3647 0.0000 0.0000 1747.2509 -7486.7791 297.2470 -9234.0300 -7502.0084 301.2514 52.5844 133.4516 30630.2537 -268.3110 -195.1712
ENERGY: 900000 0.7647 1.9763 1.1419 0.0000 -10915.8489 1534.2537 0.0000 0.0000 1799.4142 -7578.2980 306.1212 -9377.7122 -7502.3342 302.1972 536.5423 606.7309 30051.8402 -209.3508 -140.6503
ENERGY: 1200000 0.2753 3.6868 0.1480 0.0000 -10595.3228 1344.8156 0.0000 0.0000 1711.0349 -7535.3621 291.0859 -9246.3971 -7508.2976 301.0614 -814.2131 -834.3183 30558.0482 -181.1294 -113.3188
ENERGY: 1500000 0.0448 3.7440 0.0330 0.0000 -10768.8195 1484.6392 0.0000 0.0000 1774.0159 -7506.3426 301.8003 -9280.3585 -7514.7424 300.8031 611.7184 707.1853 29795.4399 -73.7869 -8.7765
TCL: Running FEP window   9: Lambda1 0.39999999999999997 Lambda2 0.44999999999999996 [dLambda 0.04999999999999999]
TCL: Setting parameter firsttimestep to 0
TCL: Setting parameter alchLambda to 0.39999999999999997
Info: NONBONDED TABLE R-SQUARED SPACING: 0.0625
Info: NONBONDED TABLE SIZE: 705 POINTS
TCL: Setting parameter alchLambda2 to 0.44999999999999996
Info: NONBONDED TABLE R-SQUARED SPACING: 0.0625
Info: NONBONDED TABLE SIZE: 705 POINTS
TCL: Running for 1500000 steps
ETITLE: TS BOND ANGLE DIHED IMPRP ELECT VDW BOUNDARY MISC KINETIC TOTAL TEMP POTENTIAL TOTALAVG TEMPAVG PRESSURE GPRESSURE VOLUME PRESSAVG GPRESSAVG
ENERGY: 0 0.0448 3.7440 0.0330 0.0000 -10768.8196 1484.9678 0.0000 0.0000 1773.1235 -7506.9064 301.6485 -9280.0299 -7506.9064 301.6485 607.7133 713.0206 29795.4399 607.7133 713.0206
ENERGY: 300000 0.4793 3.9167 1.1299 0.0000 -10667.1996 1420.6519 0.0000 0.0000 1810.6060 -7430.4158 308.0251 -9241.0218 -7466.7873 303.5783 -176.9960 -165.0401 30509.9426 -108.9176 -63.5505
ENERGY: 600000 1.1099 4.0397 1.3865 0.0000 -10669.9469 1407.2245 0.0000 0.0000 1776.5535 -7479.6328 302.2320 -9256.1863 -7460.0367 304.4031 -132.6011 -151.6376 30333.4448 -262.9527 -225.5114
ENERGY: 900000 0.6980 4.6586 0.2462 0.0000 -10574.8999 1408.3683 0.0000 0.0000 1779.2900 -7381.6388 302.6976 -9160.9288 -7460.2843 303.9237 -112.2277 -38.7890 30842.9957 -261.4687 -220.7446
ENERGY: 1200000 1.2816 3.0229 0.2015 0.0000 -10682.0809 1445.7861 0.0000 0.0000 1786.5271 -7445.2616 303.9288 -9231.7887 -7461.1403 304.6446 -27.0652 78.7279 30566.3493 -221.6224 -173.1213
ENERGY: 1500000 0.3766 2.4040 0.1420 0.0000 -10663.4284 1417.4166 0.0000 0.0000 1772.2522 -7470.8371 301.5003 -9243.0893 -7463.2886 304.3061 -261.6306 -205.8115 30691.6640 -214.5921 -162.4834
TCL: Running FEP window  10: Lambda1 0.44999999999999996 Lambda2 0.49999999999999994 [dLambda 0.04999999999999999]
TCL: Setting parameter firsttimestep to 0
TCL: Setting parameter alchLambda to 0.44999999999999996
Info: NONBONDED TABLE R-SQUARED SPACING: 0.0625
Info: NONBONDED TABLE SIZE: 705 POINTS
TCL: Setting parameter alchLambda2 to 0.49999999999999994
Info: NONBONDED TABLE R-SQUARED SPACING: 0.0625
Info: NONBONDED TABLE SIZE: 705 POINTS
TCL: Running for 1500000 steps
ETITLE: TS BOND ANGLE DIHED IMPRP ELECT VDW BOUNDARY MISC KINETIC TOTAL TEMP POTENTIAL TOTALAVG TEMPAVG PRESSURE GPRESSURE VOLUME PRESSAVG GPRESSAVG
ENERGY: 0 0.3766 2.4040 0.1420 0.0000 -10663.4290 1417.4754 0.0000 0.0000 1771.3823 -7471.6488 301.3523 -9243.0311 -7471.6488 301.3523 -274.3797 -199.7013 30691.6640 -274.3797 -199.7013
ENERGY: 300000 0.2695 11.4960 0.1720 0.0000 -10657.6847 1429.9102 0.0000 0.0000 1771.9470 -7443.8901 301.4484 -9215.8371 -7493.0697 300.5266 77.9687 108.7392 30576.0310 36.9987 82.3062
ENERGY: 600000 2.0007 5.1676 0.2024 0.0000 -10847.7410 1544.3913 0.0000 0.0000 1748.6712 -7547.3079 297.4886 -9295.9791 -7522.1618 297.8459 834.9867 877.3807 30477.0864 322.9245 363.3479
ENERGY: 900000 0.9334 4.8260 0.0225 0.0000 -10681.6254 1381.0902 0.0000 0.0000 1734.4406 -7560.3126 295.0677 -9294.7532 -7533.9674 297.3741 -640.8476 -600.2691 30608.3201 94.4164 142.4754
ENERGY: 1200000 0.6121 3.3349 0.0196 0.0000 -10859.4239 1432.7575 0.0000 0.0000 1811.8341 -7610.8657 308.2341 -9422.6998 -7553.1465 297.5463 -343.1893 -265.4907 30186.3744 -22.0738 26.9826
ENERGY: 1500000 1.0583 4.4168 0.0812 0.0000 -10753.6922 1420.9588 0.0000 0.0000 1751.6847 -7575.4924 298.0013 -9327.1772 -7549.4952 297.6672 -180.8248 -105.3679 29904.3494 -73.7710 -24.4529
TCL: Running FEP window  11: Lambda1 0.49999999999999994 Lambda2 0.5499999999999999 [dLambda 0.04999999999999999]
TCL: Setting parameter firsttimestep to 0
TCL: Setting parameter alchLambda to 0.49999999999999994
Info: NONBONDED TABLE R-SQUARED SPACING: 0.0625
Info: NONBONDED TABLE SIZE: 705 POINTS
TCL: Setting parameter alchLambda2 to 0.5499999999999999
Info: NONBONDED TABLE R-SQUARED SPACING: 0.0625
Info: NONBONDED TABLE SIZE: 705 POINTS
TCL: Running for 1500000 steps
ETITLE: TS BOND ANGLE DIHED IMPRP ELECT VDW BOUNDARY MISC KINETIC TOTAL TEMP POTENTIAL TOTALAVG TEMPAVG PRESSURE GPRESSURE VOLUME PRESSAVG GPRESSAVG
ENERGY: 0 1.0583 4.4168 0.0812 0.0000 -10753.6908 1422.2506 0.0000 0.0000 1750.7858 -7575.0980 297.8484 -9325.8838 -7575.0980 297.8484 -196.6902 -93.5283 29904.3494 -196.6902 -93.5283
ENERGY: 300000 1.6191 2.4370 0.1288 0.0000 -10889.0294 1586.9802 0.0000 0.0000 1683.0071 -7614.8573 286.3177 -9297.8643 -7545.6069 295.9690 1220.0889 1231.9894 30178.7212 283.7963 330.4928
ENERGY: 600000 0.2412 3.0987 0.9634 0.0000 -10630.2415 1380.5855 0.0000 0.0000 1775.6402 -7469.7125 302.0767 -9245.3527 -7520.8415 298.6758 -192.0487 -154.6837 30130.1603 257.0185 302.7702
ENERGY: 900000 1.5247 4.4603 0.1940 0.0000 -10656.2043 1446.4793 0.0000 0.0000 1726.8607 -7476.6851 293.7782 -9203.5459 -7494.0073 299.7277 123.7494 96.2963 30641.2909 99.9631 128.2580
ENERGY: 1200000 0.3034 4.1029 0.0623 0.0000 -10738.5941 1439.8724 0.0000 0.0000 1804.2301 -7490.0228 306.9405 -9294.2530 -7495.6433 300.1645 -226.3319 -231.6900 30937.4136 -63.3631 -40.2439
ENERGY: 1500000 1.3188 5.6096 0.1937 0.0000 -10794.7992 1480.6920 0.0000 0.0000 1723.4306 -7583.5546 293.1946 -9306.9852 -7503.5450 300.0050 132.8405 107.5111 30665.2491 -70.8027 -40.5704
TCL: Running FEP window  12: Lambda1 0.5499999999999999 Lambda2 0.6    [dLambda 0.050000000000000044]
TCL: Setting parameter firsttimestep to 0
TCL: Setting parameter alchLambda to 0.5499999999999999
Info: NONBONDED TABLE R-SQUARED SPACING: 0.0625
Info: NONBONDED TABLE SIZE: 705 POINTS
TCL: Setting parameter alchLambda2 to 0.6
Info: NONBONDED TABLE R-SQUARED SPACING: 0.0625
Info: NONBONDED TABLE SIZE: 705 POINTS
TCL: Running for 1500000 steps
ETITLE: TS BOND ANGLE DIHED IMPRP ELECT VDW BOUNDARY MISC KINETIC TOTAL TEMP POTENTIAL TOTALAVG TEMPAVG PRESSURE GPRESSURE VOLUME PRESSAVG GPRESSAVG
ENERGY: 0 1.3188 5.6096 0.1937 0.0000 -10794.7171 1480.4841 0.0000 0.0000 1722.5864 -7584.5246 293.0510 -9307.1110 -7584.5246 293.0510 27.0152 110.9146 30665.2491 27.0152 110.9146
ENERGY: 300000 0.0308 4.1933 0.3025 0.0000 -10742.0035 1503.2551 0.0000 0.0000 1794.9076 -7439.3142 305.3545 -9234.2218 -7541.3262 299.5438 340.4528 455.9128 30744.9979 -297.0366 -226.8184
ENERGY: 600000 0.8794 5.1141 0.0610 0.0000 -10642.3252 1378.1361 0.0000 0.0000 1818.0670 -7440.0676 309.2944 -9258.1345 -7524.2015 300.2419 -595.5359 -584.0568 31058.7487 -184.8890 -124.1725
ENERGY: 900000 0.4943 2.5334 0.0366 0.0000 -10689.6528 1373.0895 0.0000 0.0000 1735.2103 -7578.2885 295.1986 -9313.4989 -7534.3675 298.9834 -877.3313 -832.0555 30589.0796 -264.2702 -204.7201
ENERGY: 1200000 1.2593 5.9770 1.6200 0.0000 -10695.4647 1427.8830 0.0000 0.0000 1753.8829 -7504.8425 298.3753 -9258.7254 -7526.0224 298.6729 -66.3260 -100.3558 30352.0101 -142.2661 -84.6569
ENERGY: 1500000 0.7968 5.4836 0.1853 0.0000 -10505.8430 1316.5797 0.0000 0.0000 1785.0419 -7397.7556 303.6761 -9182.7975 -7510.7587 299.3778 -1008.0741 -930.3130 30867.1917 -151.0702 -91.4963
TCL: Running FEP window  13: Lambda1 0.6    Lambda2 0.65   [dLambda 0.050000000000000044]
TCL: Setting parameter firsttimestep to 0
TCL: Setting parameter alchLambda to 0.6
Info: NONBONDED TABLE R-SQUARED SPACING: 0.0625
Info: NONBONDED TABLE SIZE: 705 POINTS
TCL: Setting parameter alchLambda2 to 0.65
Info: NONBONDED TABLE R-SQUARED SPACING: 0.0625
Info: NONBONDED TABLE SIZE: 705 POINTS
TCL: Running for 1500000 steps
ETITLE: TS BOND ANGLE DIHED IMPRP ELECT VDW BOUNDARY MISC KINETIC TOTAL TEMP POTENTIAL TOTALAVG TEMPAVG PRESSURE GPRESSURE VOLUME PRESSAVG GPRESSAVG
ENERGY: 0 0.7968 5.4836 0.1853 0.0000 -10506.0376 1316.5103 0.0000 0.0000 1784.1441 -7398.9175 303.5234 -9183.0616 -7398.9175 303.5234 -997.3423 -926.4687 30867.1917 -997.3423 -926.4687
ENERGY: 300000 1.1667 3.0869 0.0089 0.0000 -10838.5695 1498.8525 0.0000 0.0000 1816.1706 -7519.2839 308.9718 -9335.4545 -7517.5350 304.4707 131.7630 212.3192 30529.4270 -87.9702 -37.5006
ENERGY: 600000 1.1620 2.8662 0.2752 0.0000 -10711.0218 1433.4007 0.0000 0.0000 1737.2037 -7536.1141 295.5377 -9273.3178 -7519.6645 300.2980 -219.9925 -143.2593 30738.2339 -127.4539 -70.2104
ENERGY: 900000 1.7118 8.9948 0.4469 0.0000 -10756.4552 1478.8757 0.0000 0.0000 1789.9191 -7476.5070 304.5058 -9266.4260 -7505.9087 301.8455 506.7981 577.6774 30190.1735 -79.9276 -29.5237
ENERGY: 1200000 0.8991 3.0102 0.0685 0.0000 -10774.4701 1446.9834 0.0000 0.0000 1784.1617 -7539.3472 303.5264 -9323.5090 -7500.1600 301.6652 -144.8273 -27.7114 30197.6958 -134.9686 -92.0079
ENERGY: 1500000 0.4531 3.5850 0.7261 0.0000 -10655.9716 1393.6502 0.0000 0.0000 1857.1116 -7400.4457 315.9368 -9257.5573 -7490.3139 302.4690 -71.2754 -21.5885 30211.6290 -222.2923 -176.4087
TCL: Running FEP window  14: Lambda1 0.65   Lambda2 0.7000000000000001 [dLambda 0.050000000000000044]
TCL: Setting parameter firsttimestep to 0
TCL: Setting parameter alchLambda to 0.65
Info: NONBONDED TABLE R-SQUARED SPACING: 0.0625
Info: NONBONDED TABLE SIZE: 705 POINTS
TCL: Setting parameter alchLambda2 to 0.7000000000000001
Info: NONBONDED TABLE R-SQUARED SPACING: 0.0625
Info: NONBONDED TABLE SIZE: 705 POINTS
TCL: Running for 1500000 steps
ETITLE: TS BOND ANGLE DIHED IMPRP ELECT VDW BOUNDARY MISC KINETIC TOTAL TEMP POTENTIAL TOTALAVG TEMPAVG PRESSURE GPRESSURE VOLUME PRESSAVG GPRESSAVG
ENERGY: 0 0.4531 3.5850 0.7261 0.0000 -10655.8360 1394.0694 0.0000 0.0000 1856.2564 -7400.7460 315.7913 -9257.0025 -7400.7460 315.7913 -83.9472 -6.9694 30211.6290 -83.9472 -6.9694
ENERGY: 300000 2.3314 3.3914 0.1917 0.0000 -10871.1795 1481.5719 0.0000 0.0000 1786.2622 -7597.4308 303.8837 -9383.6930 -7489.0456 306.7380 72.6636 123.8449 30165.6263 6.1337 47.5212
ENERGY: 600000 0.3358 4.1915 0.1301 0.0000 -10696.0054 1441.6002 0.0000 0.0000 1788.6982 -7461.0495 304.2981 -9249.7477 -7488.2879 302.9020 -86.2467 18.7774 30718.5136 6.7370 60.0479
ENERGY: 900000 0.4809 2.1695 0.0348 0.0000 -10673.9622 1435.5969 0.0000 0.0000 1742.9325 -7492.7476 296.5124 -9235.6801 -7495.3400 301.2019 137.5228 220.6678 30277.7143 115.1559 177.2055
ENERGY: 1200000 0.4637 9.7555 0.0959 0.0000 -10679.7793 1427.3996 0.0000 0.0000 1747.1389 -7494.9258 297.2280 -9242.0647 -7493.9295 300.9830 -177.1365 -74.1518 30693.7549 68.9941 127.4586
ENERGY: 1500000 0.4517 3.7381 0.0639 0.0000 -10722.3219 1440.1020 0.0000 0.0000 1744.9901 -7532.9760 296.8624 -9277.9661 -7494.4129 300.3661 -195.9877 -137.7592 30674.3002 -44.1556 10.8627
TCL: Running FEP window  15: Lambda1 0.7000000000000001 Lambda2 0.7500000000000001 [dLambda 0.050000000000000044]
TCL: Setting parameter firsttimestep to 0
TCL: Setting parameter alchLambda to 0.7000000000000001
Info: NONBONDED TABLE R-SQUARED SPACING: 0.0625
Info: NONBONDED TABLE SIZE: 705 POINTS
TCL: Setting parameter alchLambda2 to 0.7500000000000001
Info: NONBONDED TABLE R-SQUARED SPACING: 0.0625
Info: NONBONDED TABLE SIZE: 705 POINTS
TCL: Running for 1500000 steps
ETITLE: TS BOND ANGLE DIHED IMPRP ELECT VDW BOUNDARY MISC KINETIC TOTAL TEMP POTENTIAL TOTALAVG TEMPAVG PRESSURE GPRESSURE VOLUME PRESSAVG GPRESSAVG
ENERGY: 0 0.4517 3.7381 0.0639 0.0000 -10722.3621 1440.4654 0.0000 0.0000 1744.1147 -7533.5282 296.7135 -9277.6429 -7533.5282 296.7135 -219.1977 -127.6285 30674.3002 -219.1977 -127.6285
ENERGY: 300000 3.7522 4.1843 0.1707 0.0000 -10763.2793 1468.4547 0.0000 0.0000 1736.4742 -7550.2432 295.4136 -9286.7174 -7531.8437 296.9284 169.6196 187.2617 30706.0743 -179.4906 -127.4172
ENERGY: 600000 0.4493 6.6411 0.5600 0.0000 -10826.3313 1542.3883 0.0000 0.0000 1750.5531 -7525.7395 297.8088 -9276.2926 -7526.8487 297.2337 815.3046 859.6498 30500.0005 -102.0060 -45.7259
ENERGY: 900000 2.6110 3.5677 0.0651 0.0000 -10818.5512 1496.6288 0.0000 0.0000 1744.5455 -7571.1332 296.7868 -9315.6787 -7527.5116 298.1946 215.4391 292.3118 30536.9448 -118.4780 -59.9849
ENERGY: 1200000 1.3438 5.5128 0.1218 0.0000 -10666.9912 1446.3442 0.0000 0.0000 1754.2197 -7459.4489 298.4326 -9213.6686 -7516.4908 297.8579 123.5639 194.1228 30692.7203 -45.8999 15.0383
ENERGY: 1500000 0.9811 3.2176 0.1655 0.0000 -10980.2973 1593.1675 0.0000 0.0000 1740.8260 -7641.9398 296.1540 -9382.7658 -7525.2344 297.8508 1001.8928 1045.5099 29773.5359 13.5975 75.5036
TCL: Running FEP window  16: Lambda1 0.7500000000000001 Lambda2 0.8000000000000002 [dLambda 0.050000000000000044]
TCL: Setting parameter firsttimestep to 0
TCL: Setting parameter alchLambda to 0.7500000000000001
Info: NONBONDED TABLE R-SQUARED SPACING: 0.0625
Info: NONBONDED TABLE SIZE: 705 POINTS
TCL: Setting parameter alchLambda2 to 0.8000000000000002
Info: NONBONDED TABLE R-SQUARED SPACING: 0.0625
Info: NONBONDED TABLE SIZE: 705 POINTS
TCL: Running for 1500000 steps
ETITLE: TS BOND ANGLE DIHED IMPRP ELECT VDW BOUNDARY MISC KINETIC TOTAL TEMP POTENTIAL TOTALAVG TEMPAVG PRESSURE GPRESSURE VOLUME PRESSAVG GPRESSAVG
ENERGY: 0 0.9811 3.2176 0.1655 0.0000 -10980.6440 1593.2201 0.0000 0.0000 1739.9469 -7643.1130 296.0044 -9383.0599 -7643.1130 296.0044 967.2620 1051.9865 29773.5359 967.2620 1051.9865
ENERGY: 300000 0.2505 3.7131 1.1740 0.0000 -10740.8182 1431.1249 0.0000 0.0000 1790.2513 -7514.3046 304.5623 -9304.5558 -7549.9618 300.5311 -17.9302 48.4517 30237.0808 461.6268 537.1621
ENERGY: 600000 0.3050 2.9120 0.0627 0.0000 -10717.6627 1436.1029 0.0000 0.0000 1762.0608 -7516.2193 299.7665 -9278.2801 -7572.0557 298.1929 -255.4301 -219.8158 30784.1997 124.7334 194.2403
ENERGY: 900000 0.4237 4.3828 1.2293 0.0000 -10799.6463 1480.3386 0.0000 0.0000 1802.4755 -7510.7964 306.6420 -9313.2719 -7563.4908 299.1090 606.5291 619.3041 29950.6858 156.7627 222.1111
ENERGY: 1200000 0.8724 3.5757 0.5538 0.0000 -10922.9392 1590.8527 0.0000 0.0000 1788.4328 -7538.6518 304.2530 -9327.0846 -7544.1445 299.8918 1028.7481 1115.9880 30328.6783 116.6564 177.3652
ENERGY: 1500000 2.1125 5.3539 0.5974 0.0000 -10634.4193 1436.0195 0.0000 0.0000 1716.0802 -7474.2559 291.9442 -9190.3361 -7532.6302 298.6909 36.4748 177.4270 30885.9363 101.1283 169.5434
TCL: Running FEP window  17: Lambda1 0.8000000000000002 Lambda2 0.8500000000000002 [dLambda 0.050000000000000044]
TCL: Setting parameter firsttimestep to 0
TCL: Setting parameter alchLambda to 0.8000000000000002
Info: NONBONDED TABLE R-SQUARED SPACING: 0.0625
Info: NONBONDED TABLE SIZE: 705 POINTS
TCL: Setting parameter alchLambda2 to 0.8500000000000002
Info: NONBONDED TABLE R-SQUARED SPACING: 0.0625
Info: NONBONDED TABLE SIZE: 705 POINTS
TCL: Running for 1500000 steps
ETITLE: TS BOND ANGLE DIHED IMPRP ELECT VDW BOUNDARY MISC KINETIC TOTAL TEMP POTENTIAL TOTALAVG TEMPAVG PRESSURE GPRESSURE VOLUME PRESSAVG GPRESSAVG
ENERGY: 0 2.1125 5.3539 0.5974 0.0000 -10634.6077 1435.7237 0.0000 0.0000 1715.1993 -7475.6210 291.7943 -9190.8203 -7475.6210 291.7943 95.6288 180.2297 30885.9363 95.6288 180.2297
ENERGY: 300000 1.0598 3.5618 0.4054 0.0000 -10688.0338 1363.2883 0.0000 0.0000 1764.9759 -7554.7426 300.2624 -9319.7185 -7526.2624 297.4740 -1020.2398 -911.6948 31015.7818 -414.2800 -330.3263
ENERGY: 600000 1.0737 3.1345 0.1306 0.0000 -10733.5808 1477.5523 0.0000 0.0000 1785.3250 -7466.3648 303.7243 -9251.6897 -7523.3992 298.2251 -29.2595 57.4735 30923.2683 -335.1488 -259.7922
ENERGY: 900000 1.0454 6.6187 0.0422 0.0000 -10684.8345 1397.2056 0.0000 0.0000 1724.9155 -7555.0071 293.4473 -9279.9226 -7527.3206 297.9109 -265.2299 -225.3706 30210.3114 -209.1125 -151.6153
ENERGY: 1200000 0.1394 4.7116 0.1891 0.0000 -10749.5392 1431.7778 0.0000 0.0000 1694.7376 -7617.9836 288.3133 -9312.7213 -7523.7463 297.8347 -110.9745 3.1647 30166.4363 -113.0720 -49.6219
ENERGY: 1500000 1.7088 7.1732 0.0617 0.0000 -10750.7951 1449.7216 0.0000 0.0000 1797.3514 -7494.7783 305.7702 -9292.1297 -7516.6796 298.2477 132.7455 246.2267 30058.8300 -54.7223 6.1956
TCL: Running FEP window  18: Lambda1 0.8500000000000002 Lambda2 0.9000000000000002 [dLambda 0.050000000000000044]
TCL: Setting parameter firsttimestep to 0
TCL: Setting parameter alchLambda to 0.8500000000000002
Info: NONBONDED TABLE R-SQUARED SPACING: 0.0625
Info: NONBONDED TABLE SIZE: 705 POINTS
TCL: Setting parameter alchLambda2 to 0.9000000000000002
Info: NONBONDED TABLE R-SQUARED SPACING: 0.0625
Info: NONBONDED TABLE SIZE: 705 POINTS
TCL: Running for 1500000 steps
ETITLE: TS BOND ANGLE DIHED IMPRP ELECT VDW BOUNDARY MISC KINETIC TOTAL TEMP POTENTIAL TOTALAVG TEMPAVG PRESSURE GPRESSURE VOLUME PRESSAVG GPRESSAVG
ENERGY: 0 1.7088 7.1732 0.0617 0.0000 -10750.8637 1449.5003 0.0000 0.0000 1796.4981 -7495.9214 305.6251 -9292.4196 -7495.9214 305.6251 162.4510 253.1019 30058.8300 162.4510 253.1019
ENERGY: 300000 1.1726 9.1601 0.2065 0.0000 -10577.3204 1370.8725 0.0000 0.0000 1757.3693 -7438.5394 298.9684 -9195.9088 -7516.6108 299.0254 -136.5103 -93.8416 30120.0692 -483.2730 -410.2803
ENERGY: 600000 0.0943 7.5775 0.4661 0.0000 -10741.8063 1446.1685 0.0000 0.0000 1742.6993 -7544.8006 296.4727 -9287.4999 -7518.5618 298.4038 47.1099 102.9315 30584.2720 -268.4702 -203.4796
ENERGY: 900000 1.7942 6.7147 0.8197 0.0000 -10682.3313 1413.5369 0.0000 0.0000 1765.3550 -7494.1109 300.3269 -9259.4659 -7500.8690 298.9778 -304.3261 -298.8647 30670.1450 -239.9175 -177.0552
ENERGY: 1200000 2.2189 3.3728 0.2145 0.0000 -10799.4741 1477.5343 0.0000 0.0000 1775.2137 -7540.9200 302.0041 -9316.1336 -7493.9165 299.6378 346.0316 433.6475 30104.4952 -97.5812 -35.3198
ENERGY: 1500000 2.7390 2.2753 0.1226 0.0000 -10593.7098 1347.2634 0.0000 0.0000 1776.3134 -7464.9961 302.1912 -9241.3096 -7495.6319 299.2384 -499.9630 -419.9612 30426.5057 -104.2537 -39.4155
TCL: Running FEP window  19: Lambda1 0.9000000000000002 Lambda2 0.9500000000000003 [dLambda 0.050000000000000044]
TCL: Setting parameter firsttimestep to 0
TCL: Setting parameter alchLambda to 0.9000000000000002
Info: NONBONDED TABLE R-SQUARED SPACING: 0.0625
Info: NONBONDED TABLE SIZE: 705 POINTS
TCL: Setting parameter alchLambda2 to 0.9500000000000003
Info: NONBONDED TABLE R-SQUARED SPACING: 0.0625
Info: NONBONDED TABLE SIZE: 705 POINTS
TCL: Running for 1500000 steps
ETITLE: TS BOND ANGLE DIHED IMPRP ELECT VDW BOUNDARY MISC KINETIC TOTAL TEMP POTENTIAL TOTALAVG TEMPAVG PRESSURE GPRESSURE VOLUME PRESSAVG GPRESSAVG
ENERGY: 0 2.7391 2.2753 0.1226 0.0000 -10593.8393 1347.1446 0.0000 0.0000 1775.4534 -7466.1043 302.0449 -9241.5578 -7466.1043 302.0449 -507.6289 -416.0770 30426.5057 -507.6289 -416.0770
ENERGY: 300000 1.7460 5.3784 0.4987 0.0000 -10736.8534 1445.3707 0.0000 0.0000 1762.1596 -7521.6999 299.7833 -9283.8595 -7521.1570 302.7174 226.5321 275.7575 30092.5907 219.0356 309.5995
ENERGY: 600000 2.5833 5.0002 0.0437 0.0000 -10646.3482 1407.7698 0.0000 0.0000 1741.2303 -7489.7209 296.2228 -9230.9512 -7514.7375 301.9056 -238.9909 -173.1705 30721.7885 -7.5650 69.2985
ENERGY: 900000 0.9856 1.4140 0.0752 0.0000 -10696.0518 1401.9360 0.0000 0.0000 1772.9696 -7518.6715 301.6223 -9291.6411 -7515.5895 301.9791 -288.4538 -251.9644 30685.0159 -61.8445 9.4822
ENERGY: 1200000 0.4603 3.0757 0.2036 0.0000 -10640.3253 1354.3486 0.0000 0.0000 1762.2336 -7520.0034 299.7959 -9282.2370 -7513.5639 300.8244 -343.2710 -310.7100 29875.2951 -163.6902 -92.7681
ENERGY: 1500000 1.7152 3.8004 0.4485 0.0000 -10704.5490 1367.2505 0.0000 0.0000 1771.6336 -7559.7008 301.3951 -9331.3344 -7523.2098 300.7489 -473.8213 -408.1478 30082.5359 -167.6926 -97.6243
TCL: Running FEP window  20: Lambda1 0.9500000000000003 Lambda2 1.0    [dLambda 0.04999999999999971]
TCL: Setting parameter firsttimestep to 0
TCL: Setting parameter alchLambda to 0.9500000000000003
Info: NONBONDED TABLE R-SQUARED SPACING: 0.0625
Info: NONBONDED TABLE SIZE: 705 POINTS
TCL: Setting parameter alchLambda2 to 1.0
Info: NONBONDED TABLE R-SQUARED SPACING: 0.0625
Info: NONBONDED TABLE SIZE: 705 POINTS
TCL: Running for 1500000 steps
ETITLE: TS BOND ANGLE DIHED IMPRP ELECT VDW BOUNDARY MISC KINETIC TOTAL TEMP POTENTIAL TOTALAVG TEMPAVG PRESSURE GPRESSURE VOLUME PRESSAVG GPRESSAVG
ENERGY: 0 1.7152 3.8004 0.4485 0.0000 -10704.7908 1367.1974 0.0000 0.0000 1770.7136 -7560.9157 301.2385 -9331.6293 -7560.9157 301.2385 -492.9634 -399.4004 30082.5359 -492.9634 -399.4004
ENERGY: 300000 1.7445 8.8668 0.2293 0.0000 -10669.1577 1448.0338 0.0000 0.0000 1700.7489 -7509.5344 289.3360 -9210.2833 -7499.5777 299.6103 119.6934 164.8373 30651.0555 -44.6698 -14.9575
ENERGY: 600000 0.6972 5.9156 0.0751 0.0000 -10636.9135 1385.9246 0.0000 0.0000 1751.5593 -7492.7418 297.9800 -9244.3010 -7495.1805 300.4940 -239.4390 -277.1357 30462.5085 -132.4447 -113.5601
ENERGY: 900000 1.0127 4.3760 0.0744 0.0000 -10760.7430 1450.8086 0.0000 0.0000 1778.0972 -7526.3740 302.4947 -9304.4712 -7502.4359 299.6445 -70.3800 -45.0164 30514.1292 17.2157 49.8356
ENERGY: 1200000 0.6309 6.0270 0.5920 0.0000 -10875.6284 1484.8425 0.0000 0.0000 1755.2179 -7628.3181 298.6024 -9383.5360 -7512.4657 300.1945 3.1365 40.4438 30623.5818 -12.7299 22.1055
ENERGY: 1500000 1.9748 3.1040 2.2261 0.0000 -10775.0969 1510.5533 0.0000 0.0000 1782.5546 -7474.6841 303.2530 -9257.2387 -7511.5743 300.0548 789.1386 791.3368 30297.6281 8.3023 42.5552
TCL: Exiting due to exit command.
