Info: SIMULATION PARAMETERS:
Info: TIMESTEP               2
Info: NUMBER OF STEPS        0
Info: STEPS PER CYCLE        10
Info: PERIODIC CELL BASIS 1  31.0427 0 0
Info: PERIODIC CELL BASIS 2  0 31.2706 0
Info: PERIODIC CELL BASIS 3  0 0 31.6749
Info: PERIODIC CELL CENTER   0 0 0
Info: WRAPPING WATERS AROUND PERIODIC BOUNDARIES ON OUTPUT.
Info: WRAPPING ALL CLUSTERS AROUND PERIODIC BOUNDARIES ON OUTPUT.
Info: FIRST LDB TIMESTEP     50
Info: LAST LDB TIMESTEP     -1
Info: HOM BACKGROUND SCALING 1
Info: PME BACKGROUND SCALING 1
Info: MIN ATOMS PER PATCH    40
Info: EMPTY PATCH LOAD       40 ATOMS
Info: VELOCITY FILE          mobley_1708457_equil.vel
Info: CENTER OF MASS MOVING INITIALLY? NO
Info: DIELECTRIC             1
Info: EXCLUDE                SCALED ONE-FOUR
Info: 1-4 ELECTROSTATICS SCALED BY 0.833333
Info: MODIFIED 1-4 VDW PARAMETERS WILL BE USED
Info: DCD FILENAME           mobley_1708457_prod.dcd
Info: DCD FREQUENCY          100000
Info: DCD FIRST STEP         100000
Info: DCD FILE WILL CONTAIN UNIT CELL DATA
Info: XST FILENAME           mobley_1708457_prod.xst
Info: XST FREQUENCY          100000
Info: NO VELOCITY DCD OUTPUT
Info: NO FORCE DCD OUTPUT
Info: OUTPUT FILENAME        mobley_1708457_prod
Info: BINARY OUTPUT FILES WILL BE USED
Info: RESTART FILENAME       mobley_1708457_prod.restart
Info: RESTART FREQUENCY      100000
Info: BINARY RESTART FILES WILL BE USED
Info: CUTOFF                 9
Info: PAIRLIST DISTANCE      11
Info: PAIRLIST SHRINK RATE   0.01
Info: PAIRLIST GROW RATE     0.01
Info: PAIRLIST TRIGGER       0.3
Info: PAIRLISTS PER CYCLE    2
Info: PAIRLISTS ENABLED
Info: MARGIN                 2
Info: HYDROGEN GROUP CUTOFF  2.5
Info: PATCH DIMENSION        15.5
Info: ENERGY OUTPUT STEPS    100000
Info: ENERGY EVALUATION STEPS    100000
Info: OUTPUT ENERGY PRECISION 4
Info: CROSSTERM ENERGY INCLUDED IN DIHEDRAL
Info: TIMING OUTPUT STEPS    1000000
Info: PRESSURE OUTPUT STEPS  100000
Info: ALCHEMICAL FEP ON
Info: FEP CURRENT LAMBDA VALUE     0
Info: FEP COMPARISON LAMBDA VALUE  0.05
Info: FEP INTRA-ALCHEMICAL NON-BONDED INTERACTIONS WILL BE RETAINED
Info: FEP INTRA-ALCHEMICAL BONDED INTERACTIONS WILL BE RETAINED
Info: FEP VDW SHIFTING COEFFICIENT 5
Info: FEP ELEC. ACTIVE FOR ANNIHILATED PARTICLES BETWEEN LAMBDA = 0 AND LAMBDA = 0.5
Info: FEP ELEC. ACTIVE FOR EXNIHILATED PARTICLES BETWEEN LAMBDA = 0.5 AND LAMBDA = 1
Info: FEP VDW ACTIVE FOR ANNIHILATED PARTICLES BETWEEN LAMBDA = 0 AND LAMBDA = 1
Info: FEP VDW ACTIVE FOR EXNIHILATED PARTICLES BETWEEN LAMBDA = 0 AND LAMBDA = 1
Info: FEP BOND ACTIVE FOR ANNIHILATED PARTICLES BETWEEN LAMBDA = 1 AND LAMBDA = 1
Info: FEP BOND ACTIVE FOR EXNIHILATED PARTICLES BETWEEN LAMBDA = 0 AND LAMBDA = 0
Info: LANGEVIN DYNAMICS ACTIVE
Info: LANGEVIN TEMPERATURE   300
Info: LANGEVIN USING BBK INTEGRATOR
Info: LANGEVIN DAMPING COEFFICIENT IS 1 INVERSE PS
Info: LANGEVIN DYNAMICS APPLIED TO HYDROGENS
Info: LANGEVIN PISTON PRESSURE CONTROL ACTIVE
Info:        TARGET PRESSURE IS 1.01325 BAR
Info:     OSCILLATION PERIOD IS 50 FS
Info:             DECAY TIME IS 25 FS
Info:     PISTON TEMPERATURE IS 300 K
Info:       PRESSURE CONTROL IS GROUP-BASED
Info:    INITIAL STRAIN RATE IS -0.000172367 -0.000172367 -0.000172367
Info:       CELL FLUCTUATION IS ISOTROPIC
Info: PARTICLE MESH EWALD (PME) ACTIVE
Info: PME TOLERANCE               1e-06
Info: PME EWALD COEFFICIENT       0.348832
Info: PME INTERPOLATION ORDER     4
Info: PME GRID DIMENSIONS         32 32 32
Info: PME MAXIMUM GRID SPACING    1
Info: PME CALCULATION WILL BE PERFORMED ON GPU
Info: FULL ELECTROSTATIC EVALUATION FREQUENCY      2
Info: USING VERLET I (r-RESPA) MTS SCHEME.
Info: C1 SPLITTING OF LONG RANGE ELECTROSTATICS
Info: PLACING ATOMS IN PATCHES BY HYDROGEN GROUPS
Info: RIGID BONDS TO HYDROGEN : ALL
Info:         ERROR TOLERANCE : 1e-08
Info:          MAX ITERATIONS : 100
Info: RIGID WATER USING SETTLE ALGORITHM
Info: RANDOM NUMBER SEED     1743508451
Info: USE HYDROGEN BONDS?    NO
Info: Using AMBER format force field!
Info: AMBER PARM FILE        mobley_1708457.prmtop
Info: COORDINATE PDB         mobley_1708457.pdb
Info: Exclusions will be read from PARM file!
Info: SCNB (VDW SCALING)     2
Info: USING ARITHMETIC MEAN TO COMBINE L-J SIGMA PARAMETERS
Info: BINARY COORDINATES     mobley_1708457_equil.coor
Info: SUMMARY OF PARAMETERS:
Info: 5 BONDS
Info: 5 ANGLES
Info:   5 HARMONIC
Info:   0 COSINE-BASED
Info: 1 DIHEDRAL
Info: 0 IMPROPER
Info: 0 CROSSTERM
Info: 0 VDW
Info: 21 VDW_PAIRS
Info: 0 NBTHOLE_PAIRS
Info: To read alchdata from file: mobley_1708457.pdb
Info: To read alchflag data from column: 5
Info: STRUCTURE SUMMARY:
Info: 2981 ATOMS
Info: 2980 BONDS
Info: 18 ANGLES
Info: 18 DIHEDRALS
Info: 0 IMPROPERS
Info: 0 CROSSTERMS
Info: 3016 EXCLUSIONS
Info: 2976 RIGID BONDS
Info: ALCH: 0 ATOMS TO DISAPPEAR IN FINAL STATE
Info: ALCH: 11 ATOMS TO APPEAR IN FINAL STATE
Info: 5967 DEGREES OF FREEDOM
Info: 995 HYDROGEN GROUPS
Info: 4 ATOMS IN LARGEST HYDROGEN GROUP
Info: 995 MIGRATION GROUPS
Info: 4 ATOMS IN LARGEST MIGRATION GROUP
Info: TOTAL MASS = 17930 amu
Info: TOTAL CHARGE = -0.000100002 e
Info: MASS DENSITY = 0.968336 g/cm^3
Info: ATOM DENSITY = 0.0969504 atoms/A^3
Info: ADDED 0 IMPLICIT EXCLUSIONS
Info: NONBONDED TABLE R-SQUARED SPACING: 0.0625
Info: NONBONDED TABLE SIZE: 705 POINTS
Info: REDUCING NUMBER OF PATCHES TO IMPROVE LOAD BALANCE
Info: REMOVING COM VELOCITY 0.104665 0.0822888 0.162763
Info: Use 3D box decompostion in PME FFT.
Info: Updated CUDA force table with 4096 elements.
Info: Updated CUDA LJ table with 6 x 6 elements.
Info: Found 14 unique exclusion lists needing 24 bytes
TCL: Running for 1500000 steps
ETITLE: TS BOND ANGLE DIHED IMPRP ELECT VDW BOUNDARY MISC KINETIC TOTAL TEMP POTENTIAL TOTALAVG TEMPAVG PRESSURE GPRESSURE VOLUME PRESSAVG GPRESSAVG
ENERGY: 0 1.6595 5.8779 0.5269 0.0000 -10893.7135 1440.6342 0.0000 0.0000 1735.2963 -7709.7188 292.6901 -9445.0150 -7709.7188 292.6901 -226.9138 -149.7125 30747.6900 -226.9138 -149.7125
ENERGY: 300000 1.7777 5.4829 0.5979 0.0000 -10846.1115 1399.6603 0.0000 0.0000 1717.9282 -7720.6643 289.7606 -9438.5926 -7705.4662 297.0946 -668.1511 -641.0544 31200.0984 -115.3128 -53.9776
ENERGY: 600000 0.8474 6.2511 1.0771 0.0000 -10861.7656 1454.2858 0.0000 0.0000 1788.7418 -7610.5624 301.7046 -9399.3042 -7656.8911 298.6351 162.6501 209.2335 30429.8106 -152.5689 -86.7865
ENERGY: 900000 1.0610 6.5716 0.2841 0.0000 -10947.1471 1486.5886 0.0000 0.0000 1779.7716 -7672.8702 300.1917 -9452.6418 -7671.7401 299.0968 226.7866 362.5562 30341.9779 -35.8988 31.9073
ENERGY: 1200000 0.6854 4.9806 0.7745 0.0000 -10856.6765 1407.6168 0.0000 0.0000 1756.1644 -7686.4549 296.2099 -9442.6193 -7673.0998 298.9543 -274.0086 -243.8810 30360.2489 -30.6424 29.1976
ENERGY: 1500000 3.6980 5.2139 0.4513 0.0000 -11010.1856 1535.1093 0.0000 0.0000 1799.0986 -7666.6143 303.4515 -9465.7130 -7661.6149 299.5976 641.1996 674.7855 30484.0537 -40.9433 16.0969
TCL: Running FEP window   2: Lambda1 0.05   Lambda2 0.1    [dLambda 0.05  ]
TCL: Setting parameter firsttimestep to 0
TCL: Setting parameter alchLambda to 0.05
Info: NONBONDED TABLE R-SQUARED SPACING: 0.0625
Info: NONBONDED TABLE SIZE: 705 POINTS
TCL: Setting parameter alchLambda2 to 0.1
Info: NONBONDED TABLE R-SQUARED SPACING: 0.0625
Info: NONBONDED TABLE SIZE: 705 POINTS
TCL: Running for 1500000 steps
ETITLE: TS BOND ANGLE DIHED IMPRP ELECT VDW BOUNDARY MISC KINETIC TOTAL TEMP POTENTIAL TOTALAVG TEMPAVG PRESSURE GPRESSURE VOLUME PRESSAVG GPRESSAVG
ENERGY: 0 3.6980 5.2139 0.4513 0.0000 -11010.1847 1537.0819 0.0000 0.0000 1798.1929 -7665.5467 303.2987 -9463.7396 -7665.5467 303.2987 587.1100 677.6774 30484.0537 587.1100 677.6774
ENERGY: 300000 0.9415 4.6147 0.6132 0.0000 -10835.6981 1370.2755 0.0000 0.0000 1818.1486 -7641.1045 306.6647 -9459.2532 -7661.1240 304.1286 -865.9603 -761.5851 30840.6367 -114.7214 -37.3853
ENERGY: 600000 2.0518 3.2454 0.8147 0.0000 -10822.0637 1405.3136 0.0000 0.0000 1820.9977 -7589.6405 307.1452 -9410.6382 -7676.6700 301.0215 -266.8726 -205.4087 30743.6221 -7.9125 49.9206
ENERGY: 900000 1.6459 6.4131 0.3005 0.0000 -11074.5611 1513.1828 0.0000 0.0000 1781.5886 -7771.4302 300.4981 -9553.0188 -7680.9018 301.4902 -35.0470 91.0895 30535.4590 61.0939 133.7937
ENERGY: 1200000 0.2618 4.7200 0.1604 0.0000 -10903.1620 1437.1736 0.0000 0.0000 1771.3050 -7689.5411 298.7636 -9460.8461 -7687.5206 301.4631 -253.3266 -190.3912 30562.7524 43.7587 108.9964
ENERGY: 1500000 1.8969 2.8406 0.6047 0.0000 -11207.5644 1637.8381 0.0000 0.0000 1763.7533 -7800.6307 297.4899 -9564.3841 -7694.2248 300.5262 1148.0584 1173.3033 30225.3092 168.8844 235.4089
TCL: Running FEP window   3: Lambda1 0.1    Lambda2 0.15000000000000002 [dLambda 0.05000000000000002]
TCL: Setting parameter firsttimestep to 0
TCL: Setting parameter alchLambda to 0.1
Info: NONBONDED TABLE R-SQUARED SPACING: 0.0625
Info: NONBONDED TABLE SIZE: 705 POINTS
TCL: Setting parameter alchLambda2 to 0.15000000000000002
Info: NONBONDED TABLE R-SQUARED SPACING: 0.0625
Info: NONBONDED TABLE SIZE: 705 POINTS
TCL: Running for 1500000 steps
ETITLE: TS BOND ANGLE DIHED IMPRP ELECT VDW BOUNDARY MISC KINETIC TOTAL TEMP POTENTIAL TOTALAVG TEMPAVG PRESSURE GPRESSURE VOLUME PRESSAVG GPRESSAVG
ENERGY: 0 1.8969 2.8406 0.6047 0.0000 -11207.5641 1637.6997 0.0000 0.0000 1762.8652 -7801.6569 297.3401 -9564.5221 -7801.6569 297.3401 1094.4855 1174.7528 30225.3092 1094.4855 1174.7528
ENERGY: 300000 0.1767 7.3576 1.0055 0.0000 -10949.8988 1457.8355 0.0000 0.0000 1815.0296 -7668.4938 306.1386 -9483.5234 -7678.4667 303.0135 -248.3793 -154.2816 30584.5156 224.6138 292.1676
ENERGY: 600000 3.6120 8.2619 0.2581 0.0000 -10909.2225 1434.4674 0.0000 0.0000 1778.4378 -7684.1854 299.9667 -9462.6231 -7669.0960 302.2881 -200.1735 -153.2353 30660.8212 33.6240 103.4316
ENERGY: 900000 1.4118 4.1841 0.7836 0.0000 -10855.1737 1386.9328 0.0000 0.0000 1790.2738 -7671.5876 301.9630 -9461.8614 -7668.7803 301.7840 -695.8982 -639.4307 30910.2172 -78.9853 -10.0038
ENERGY: 1200000 0.7828 7.4773 0.4333 0.0000 -10953.1381 1451.1418 0.0000 0.0000 1790.2653 -7703.0376 301.9616 -9493.3029 -7672.5502 300.9947 -184.4802 -96.8792 30606.4951 -119.5495 -41.1400
ENERGY: 1500000 0.9659 7.1897 0.5604 0.0000 -11014.6873 1544.8212 0.0000 0.0000 1767.5161 -7693.6339 298.1245 -9461.1500 -7681.9225 300.2602 660.5115 671.7523 30467.3039 -63.2734 9.3520
TCL: Running FEP window   4: Lambda1 0.15000000000000002 Lambda2 0.2    [dLambda 0.04999999999999999]
TCL: Setting parameter firsttimestep to 0
TCL: Setting parameter alchLambda to 0.15000000000000002
Info: NONBONDED TABLE R-SQUARED SPACING: 0.0625
Info: NONBONDED TABLE SIZE: 705 POINTS
TCL: Setting parameter alchLambda2 to 0.2
Info: NONBONDED TABLE R-SQUARED SPACING: 0.0625
Info: NONBONDED TABLE SIZE: 705 POINTS
TCL: Running for 1500000 steps
ETITLE: TS BOND ANGLE DIHED IMPRP ELECT VDW BOUNDARY MISC KINETIC TOTAL TEMP POTENTIAL TOTALAVG TEMPAVG PRESSURE GPRESSURE VOLUME PRESSAVG GPRESSAVG
ENERGY: 0 0.9659 7.1897 0.5604 0.0000 -11014.6871 1544.5455 0.0000 0.0000 1766.6612 -7694.7643 297.9803 -9461.4256 -7694.7643 297.9803 598.0124 672.1104 30467.3039 598.0124 672.1104
ENERGY: 300000 1.2142 3.3395 0.8126 0.0000 -11064.9389 1509.8419 0.0000 0.0000 1807.1694 -7742.5614 304.8128 -9549.7307 -7681.8650 299.6123 90.6518 51.0353 30706.2815 -27.7141 15.3657
ENERGY: 600000 2.4824 4.9598 0.8262 0.0000 -10890.5164 1442.4770 0.0000 0.0000 1770.4615 -7669.3096 298.6213 -9439.7711 -7690.9894 298.5855 -206.4496 -151.5643 30743.1514 -136.6544 -95.4433
ENERGY: 900000 3.3502 4.7173 0.2263 0.0000 -10811.9600 1416.6241 0.0000 0.0000 1799.9248 -7587.1173 303.5909 -9387.0421 -7670.2620 299.5804 -274.5816 -218.1840 30645.7842 -90.1968 -41.6710
ENERGY: 1200000 0.4934 4.2325 0.5557 0.0000 -11095.3460 1592.4907 0.0000 0.0000 1790.2119 -7707.3618 301.9526 -9497.5737 -7684.5346 300.1838 948.7397 1007.0792 30439.5930 1.6978 39.3750
ENERGY: 1500000 1.5969 2.9008 1.2555 0.0000 -10873.7134 1412.2862 0.0000 0.0000 1779.1469 -7676.5272 300.0863 -9455.6741 -7669.3080 299.9616 -531.0035 -416.6570 31061.7378 -28.5936 19.8580
TCL: Running FEP window   5: Lambda1 0.2    Lambda2 0.25   [dLambda 0.04999999999999999]
TCL: Setting parameter firsttimestep to 0
TCL: Setting parameter alchLambda to 0.2
Info: NONBONDED TABLE R-SQUARED SPACING: 0.0625
Info: NONBONDED TABLE SIZE: 705 POINTS
TCL: Setting parameter alchLambda2 to 0.25
Info: NONBONDED TABLE R-SQUARED SPACING: 0.0625
Info: NONBONDED TABLE SIZE: 705 POINTS
TCL: Running for 1500000 steps
ETITLE: TS BOND ANGLE DIHED IMPRP ELECT VDW BOUNDARY MISC KINETIC TOTAL TEMP POTENTIAL TOTALAVG TEMPAVG PRESSURE GPRESSURE VOLUME PRESSAVG GPRESSAVG
ENERGY: 0 1.5969 2.9008 1.2555 0.0000 -10873.7124 1412.7635 0.0000 0.0000 1778.2439 -7676.9519 299.9340 -9455.1958 -7676.9519 299.9340 -497.7995 -410.8972 31061.7378 -497.7995 -410.8972
ENERGY: 300000 0.7285 6.1239 2.1167 0.0000 -10853.3204 1407.4741 0.0000 0.0000 1735.1003 -7701.7769 292.6570 -9436.8772 -7641.4391 301.1362 -495.4283 -444.1222 30688.1156 -306.3744 -239.3395
ENERGY: 600000 1.2779 4.7636 0.1604 0.0000 -10936.9728 1514.6838 0.0000 0.0000 1782.0275 -7634.0595 300.5722 -9416.0871 -7658.1635 299.5461 496.7979 538.0030 30741.9891 -74.6095 -11.8279
ENERGY: 900000 0.7061 7.9230 0.2494 0.0000 -10827.4678 1415.2219 0.0000 0.0000 1783.9176 -7619.4497 300.8910 -9403.3674 -7647.2103 299.7802 -105.5461 -25.8238 30397.0615 -130.3009 -73.6756
ENERGY: 1200000 3.9120 6.2483 0.1549 0.0000 -10855.9941 1412.5510 0.0000 0.0000 1789.6884 -7643.4395 301.8643 -9433.1278 -7648.4822 299.9449 -175.8499 -104.0700 30506.5458 -180.1872 -123.5868
ENERGY: 1500000 0.1396 2.9396 0.3196 0.0000 -10890.4063 1486.3401 0.0000 0.0000 1771.5623 -7629.1051 298.8070 -9400.6674 -7645.0853 300.1915 119.4685 213.3446 30965.2721 -144.8116 -80.0257
TCL: Running FEP window   6: Lambda1 0.25   Lambda2 0.3    [dLambda 0.04999999999999999]
TCL: Setting parameter firsttimestep to 0
TCL: Setting parameter alchLambda to 0.25
Info: NONBONDED TABLE R-SQUARED SPACING: 0.0625
Info: NONBONDED TABLE SIZE: 705 POINTS
TCL: Setting parameter alchLambda2 to 0.3
Info: NONBONDED TABLE R-SQUARED SPACING: 0.0625
Info: NONBONDED TABLE SIZE: 705 POINTS
TCL: Running for 1500000 steps
ETITLE: TS BOND ANGLE DIHED IMPRP ELECT VDW BOUNDARY MISC KINETIC TOTAL TEMP POTENTIAL TOTALAVG TEMPAVG PRESSURE GPRESSURE VOLUME PRESSAVG GPRESSAVG
ENERGY: 0 0.1396 2.9395 0.3196 0.0000 -10890.4061 1486.2273 0.0000 0.0000 1770.6606 -7630.1195 298.6549 -9400.7801 -7630.1195 298.6549 147.3371 217.3514 30965.2721 147.3371 217.3514
ENERGY: 300000 0.4894 7.0943 0.1628 0.0000 -10940.8366 1450.0614 0.0000 0.0000 1801.3994 -7681.6294 303.8396 -9483.0288 -7680.8636 299.0774 113.3758 148.4254 30167.3240 -81.5065 -30.0914
ENERGY: 600000 2.0911 5.9214 0.7698 0.0000 -11041.9735 1577.0444 0.0000 0.0000 1800.9392 -7655.2076 303.7620 -9456.1468 -7669.6627 302.5168 869.4376 903.4057 30876.9889 41.0114 88.9754
ENERGY: 900000 1.1487 7.4879 0.5294 0.0000 -10898.8296 1459.6075 0.0000 0.0000 1763.1247 -7666.9315 297.3838 -9430.0562 -7664.5281 300.8940 209.1801 273.0255 30417.4968 4.9709 64.2418
ENERGY: 1200000 0.9093 6.1226 1.2691 0.0000 -10839.1444 1398.8395 0.0000 0.0000 1831.1827 -7600.8213 308.8631 -9432.0040 -7657.3992 301.7623 -294.5825 -241.2227 30647.9844 -54.0378 -1.0842
ENERGY: 1500000 0.4971 5.4555 2.0958 0.0000 -10880.0769 1388.6053 0.0000 0.0000 1784.4574 -7698.9659 300.9820 -9483.4233 -7665.9780 300.8043 -789.2289 -758.2108 30866.0479 -192.0623 -141.0954
TCL: Running FEP window   7: Lambda1 0.3    Lambda2 0.35   [dLambda 0.04999999999999999]
TCL: Setting parameter firsttimestep to 0
TCL: Setting parameter alchLambda to 0.3
Info: NONBONDED TABLE R-SQUARED SPACING: 0.0625
Info: NONBONDED TABLE SIZE: 705 POINTS
TCL: Setting parameter alchLambda2 to 0.35
Info: NONBONDED TABLE R-SQUARED SPACING: 0.0625
Info: NONBONDED TABLE SIZE: 705 POINTS
TCL: Running for 1500000 steps
ETITLE: TS BOND ANGLE DIHED IMPRP ELECT VDW BOUNDARY MISC KINETIC TOTAL TEMP POTENTIAL TOTALAVG TEMPAVG PRESSURE GPRESSURE VOLUME PRESSAVG GPRESSAVG
ENERGY: 0 0.4971 5.4555 2.0958 0.0000 -10880.0773 1389.2546 0.0000 0.0000 1783.5658 -7699.2086 300.8316 -9482.7744 -7699.2086 300.8316 -836.8577 -752.0455 30866.0479 -836.8577 -752.0455
ENERGY: 300000 1.3641 3.4320 1.0491 0.0000 -10769.6829 1325.4019 0.0000 0.0000 1758.1230 -7680.3129 296.5402 -9438.4358 -7659.1262 301.8161 -1097.0546 -1040.0283 30859.9165 -497.6776 -442.0979
ENERGY: 600000 0.2744 5.8970 0.5404 0.0000 -10957.8589 1502.9493 0.0000 0.0000 1756.2629 -7691.9349 296.2265 -9448.1978 -7671.0633 301.0510 265.9764 393.2241 30585.0464 -167.6176 -107.5024
ENERGY: 900000 1.9697 7.2104 1.4443 0.0000 -10985.8531 1459.3134 0.0000 0.0000 1742.7478 -7773.1674 293.9469 -9515.9152 -7679.7194 299.4609 -140.5886 -57.4140 30344.4940 -86.4264 -26.4691
ENERGY: 1200000 1.6522 6.4379 2.2613 0.0000 -10855.7109 1498.8615 0.0000 0.0000 1809.1554 -7537.3427 305.1478 -9346.4980 -7657.7627 299.8068 523.6341 588.1708 30780.2434 -63.2486 -4.8150
ENERGY: 1500000 1.6818 3.3065 0.1398 0.0000 -10847.1525 1409.9837 0.0000 0.0000 1779.4168 -7652.6239 300.1318 -9432.0407 -7665.4161 299.8462 -450.0869 -365.7126 31050.7161 -150.7693 -89.0081
TCL: Running FEP window   8: Lambda1 0.35   Lambda2 0.39999999999999997 [dLambda 0.04999999999999999]
TCL: Setting parameter firsttimestep to 0
TCL: Setting parameter alchLambda to 0.35
Info: NONBONDED TABLE R-SQUARED SPACING: 0.0625
Info: NONBONDED TABLE SIZE: 705 POINTS
TCL: Setting parameter alchLambda2 to 0.39999999999999997
Info: NONBONDED TABLE R-SQUARED SPACING: 0.0625
Info: NONBONDED TABLE SIZE: 705 POINTS
TCL: Running for 1500000 steps
ETITLE: TS BOND ANGLE DIHED IMPRP ELECT VDW BOUNDARY MISC KINETIC TOTAL TEMP POTENTIAL TOTALAVG TEMPAVG PRESSURE GPRESSURE VOLUME PRESSAVG GPRESSAVG
ENERGY: 0 1.6818 3.3065 0.1398 0.0000 -10847.1509 1410.8156 0.0000 0.0000 1778.5176 -7652.6896 299.9801 -9431.2072 -7652.6896 299.9801 -442.3876 -357.5801 31050.7161 -442.3876 -357.5801
ENERGY: 300000 0.7966 3.5490 1.2791 0.0000 -10938.5471 1480.5160 0.0000 0.0000 1789.8312 -7662.5751 301.8884 -9452.4063 -7643.4454 301.8831 261.3805 349.2127 30273.7798 -137.5671 -65.0954
ENERGY: 600000 1.5491 3.1279 0.6084 0.0000 -10865.5628 1374.9119 0.0000 0.0000 1834.8662 -7650.4994 309.4844 -9485.3655 -7639.5379 302.5219 -684.4523 -626.8281 30582.9568 -67.2976 -4.3928
ENERGY: 900000 3.9799 2.4336 1.3749 0.0000 -10955.0205 1500.6859 0.0000 0.0000 1792.0911 -7654.4550 302.2696 -9446.5462 -7657.5493 302.9645 544.4415 621.6984 30369.7724 37.1478 101.8437
ENERGY: 1200000 4.1645 6.3195 0.4569 0.0000 -11058.7190 1551.4896 0.0000 0.0000 1787.2177 -7709.0707 301.4476 -9496.2884 -7663.4030 301.6385 671.3944 761.3265 30400.9829 54.0404 116.5902
ENERGY: 1500000 1.0480 6.2792 0.9396 0.0000 -10858.9347 1494.4017 0.0000 0.0000 1784.2687 -7571.9975 300.9502 -9356.2662 -7649.1763 301.9920 305.6289 409.5665 30830.6697 57.5916 124.6998
TCL: Running FEP window   9: Lambda1 0.39999999999999997 Lambda2 0.44999999999999996 [dLambda 0.04999999999999999]
TCL: Setting parameter firsttimestep to 0
TCL: Setting parameter alchLambda to 0.39999999999999997
Info: NONBONDED TABLE R-SQUARED SPACING: 0.0625
Info: NONBONDED TABLE SIZE: 705 POINTS
TCL: Setting parameter alchLambda2 to 0.44999999999999996
Info: NONBONDED TABLE R-SQUARED SPACING: 0.0625
Info: NONBONDED TABLE SIZE: 705 POINTS
TCL: Running for 1500000 steps
ETITLE: TS BOND ANGLE DIHED IMPRP ELECT VDW BOUNDARY MISC KINETIC TOTAL TEMP POTENTIAL TOTALAVG TEMPAVG PRESSURE GPRESSURE VOLUME PRESSAVG GPRESSAVG
ENERGY: 0 1.0480 6.2792 0.9396 0.0000 -10858.9341 1494.0949 0.0000 0.0000 1783.3429 -7573.2295 300.7940 -9356.5724 -7573.2295 300.7940 332.1584 410.7010 30830.6697 332.1584 410.7010
ENERGY: 300000 1.8174 3.7033 0.6973 0.0000 -10884.4577 1462.3790 0.0000 0.0000 1731.6989 -7684.1619 292.0833 -9415.8607 -7642.4678 296.8158 112.8445 152.7978 30570.4061 423.6590 490.2830
ENERGY: 600000 3.7301 6.1502 1.6878 0.0000 -10973.7988 1503.8388 0.0000 0.0000 1808.2918 -7650.1002 305.0021 -9458.3919 -7646.9389 298.4404 550.3709 601.6024 30211.8329 322.8575 382.1618
ENERGY: 900000 0.9550 6.1442 0.9578 0.0000 -10819.1378 1454.6324 0.0000 0.0000 1794.6559 -7561.7925 302.7022 -9356.4485 -7642.2427 298.7806 -30.2564 49.0222 30695.1549 200.3403 263.2835
ENERGY: 1200000 0.5007 2.8706 0.8766 0.0000 -10945.2480 1454.3895 0.0000 0.0000 1801.3876 -7685.2230 303.8376 -9486.6106 -7649.3928 298.3542 -144.9037 -135.2487 30712.3902 109.9701 165.6503
ENERGY: 1500000 0.6900 5.0982 1.7098 0.0000 -11017.6086 1501.8817 0.0000 0.0000 1783.8854 -7724.3435 300.8855 -9508.2289 -7657.0600 298.4606 53.9780 164.8321 30611.7134 114.3927 178.7112
TCL: Running FEP window  10: Lambda1 0.44999999999999996 Lambda2 0.49999999999999994 [dLambda 0.04999999999999999]
TCL: Setting parameter firsttimestep to 0
TCL: Setting parameter alchLambda to 0.44999999999999996
Info: NONBONDED TABLE R-SQUARED SPACING: 0.0625
Info: NONBONDED TABLE SIZE: 705 POINTS
TCL: Setting parameter alchLambda2 to 0.49999999999999994
Info: NONBONDED TABLE R-SQUARED SPACING: 0.0625
Info: NONBONDED TABLE SIZE: 705 POINTS
TCL: Running for 1500000 steps
ETITLE: TS BOND ANGLE DIHED IMPRP ELECT VDW BOUNDARY MISC KINETIC TOTAL TEMP POTENTIAL TOTALAVG TEMPAVG PRESSURE GPRESSURE VOLUME PRESSAVG GPRESSAVG
ENERGY: 0 0.6900 5.0982 1.7098 0.0000 -11017.6090 1501.6705 0.0000 0.0000 1783.0332 -7725.4072 300.7418 -9508.4405 -7725.4072 300.7418 86.8042 169.4434 30611.7134 86.8042 169.4434
ENERGY: 300000 2.9513 5.5786 0.5823 0.0000 -10886.4052 1456.6268 0.0000 0.0000 1797.5836 -7623.0826 303.1960 -9420.6662 -7661.9527 301.0272 -124.5896 -117.6962 31319.9547 -431.4042 -367.4186
ENERGY: 600000 1.0750 5.9075 2.3957 0.0000 -10925.5989 1417.5640 0.0000 0.0000 1769.2887 -7729.3679 298.4235 -9498.6566 -7662.6690 299.8037 -423.4230 -330.9310 30421.5557 -360.9797 -291.3324
ENERGY: 900000 0.0893 4.4487 0.9073 0.0000 -10684.8439 1336.0968 0.0000 0.0000 1760.9740 -7582.3278 297.0211 -9343.3018 -7651.9516 300.3356 -655.9091 -618.1627 30873.9058 -252.7087 -197.7519
ENERGY: 1200000 1.7707 5.0810 0.3939 0.0000 -10883.0670 1456.4249 0.0000 0.0000 1815.6378 -7603.7587 306.2412 -9419.3965 -7649.9427 300.8526 -91.3135 -2.3266 30928.7433 -251.5428 -191.5087
ENERGY: 1500000 0.7927 6.6738 0.2502 0.0000 -10793.2444 1408.3757 0.0000 0.0000 1782.7177 -7594.4343 300.6886 -9377.1520 -7642.0648 301.2049 -169.9327 -87.9982 30844.0349 -166.4138 -106.2217
TCL: Running FEP window  11: Lambda1 0.49999999999999994 Lambda2 0.5499999999999999 [dLambda 0.04999999999999999]
TCL: Setting parameter firsttimestep to 0
TCL: Setting parameter alchLambda to 0.49999999999999994
Info: NONBONDED TABLE R-SQUARED SPACING: 0.0625
Info: NONBONDED TABLE SIZE: 705 POINTS
TCL: Setting parameter alchLambda2 to 0.5499999999999999
Info: NONBONDED TABLE R-SQUARED SPACING: 0.0625
Info: NONBONDED TABLE SIZE: 705 POINTS
TCL: Running for 1500000 steps
ETITLE: TS BOND ANGLE DIHED IMPRP ELECT VDW BOUNDARY MISC KINETIC TOTAL TEMP POTENTIAL TOTALAVG TEMPAVG PRESSURE GPRESSURE VOLUME PRESSAVG GPRESSAVG
ENERGY: 0 0.7927 6.6738 0.2502 0.0000 -10793.2451 1408.3508 0.0000 0.0000 1781.8321 -7595.3455 300.5392 -9377.1776 -7595.3455 300.5392 -174.0036 -83.3175 30844.0349 -174.0036 -83.3175
ENERGY: 300000 1.6565 5.1890 0.2990 0.0000 -11077.7067 1599.3870 0.0000 0.0000 1752.2813 -7718.8938 295.5549 -9471.1752 -7641.1314 297.8230 1241.9597 1207.2979 30348.9473 265.8181 304.4938
ENERGY: 600000 0.6488 7.8904 0.4696 0.0000 -10821.9570 1377.7054 0.0000 0.0000 1738.2842 -7696.9585 293.1940 -9435.2428 -7645.7804 299.8131 -576.4315 -514.8293 30467.6622 108.9384 171.3735
ENERGY: 900000 0.2180 7.7407 0.2689 0.0000 -10725.8248 1339.6711 0.0000 0.0000 1750.6322 -7627.2939 295.2768 -9377.9261 -7649.5243 299.4121 -893.2036 -855.3980 30916.0166 -33.8485 26.1776
ENERGY: 1200000 1.2485 5.1970 0.3882 0.0000 -10952.9119 1472.1795 0.0000 0.0000 1726.8278 -7747.0708 291.2617 -9473.8986 -7658.4499 298.3793 -40.5666 -89.2939 30929.7860 4.6589 56.7132
ENERGY: 1500000 2.3293 3.7478 0.8619 0.0000 -10925.6580 1482.0599 0.0000 0.0000 1712.8724 -7723.7867 288.9079 -9436.6591 -7654.1401 298.5028 389.8035 485.1055 30253.1575 -24.0856 31.6755
TCL: Running FEP window  12: Lambda1 0.5499999999999999 Lambda2 0.6    [dLambda 0.050000000000000044]
TCL: Setting parameter firsttimestep to 0
TCL: Setting parameter alchLambda to 0.5499999999999999
Info: NONBONDED TABLE R-SQUARED SPACING: 0.0625
Info: NONBONDED TABLE SIZE: 705 POINTS
TCL: Setting parameter alchLambda2 to 0.6
Info: NONBONDED TABLE R-SQUARED SPACING: 0.0625
Info: NONBONDED TABLE SIZE: 705 POINTS
TCL: Running for 1500000 steps
ETITLE: TS BOND ANGLE DIHED IMPRP ELECT VDW BOUNDARY MISC KINETIC TOTAL TEMP POTENTIAL TOTALAVG TEMPAVG PRESSURE GPRESSURE VOLUME PRESSAVG GPRESSAVG
ENERGY: 0 2.3294 3.7477 0.8619 0.0000 -10925.4862 1481.9630 0.0000 0.0000 1712.0312 -7724.5529 288.7660 -9436.5841 -7724.5529 288.7660 395.8184 493.1612 30253.1575 395.8184 493.1612
ENERGY: 300000 0.8655 3.8144 0.6499 0.0000 -10866.1077 1394.6268 0.0000 0.0000 1752.1423 -7714.0088 295.5315 -9466.1511 -7681.8200 295.5224 -675.6257 -651.8271 31015.3268 -4.8359 68.4872
ENERGY: 600000 0.5812 5.6072 0.9012 0.0000 -10933.6756 1461.8803 0.0000 0.0000 1800.8656 -7663.8401 303.7496 -9464.7057 -7693.1934 297.4727 250.4244 290.4287 30166.2246 69.6661 132.3132
ENERGY: 900000 0.3290 7.8739 0.2501 0.0000 -10870.7182 1414.8616 0.0000 0.0000 1771.4622 -7675.9415 298.7901 -9447.4036 -7686.9875 297.8393 -408.0442 -313.7530 30495.2397 -106.6232 -48.8173
ENERGY: 1200000 0.4581 7.0997 0.0658 0.0000 -11002.3280 1502.8030 0.0000 0.0000 1810.4492 -7681.4524 305.3660 -9491.9015 -7691.9445 298.2543 370.8611 388.4765 30578.6501 -68.2225 -14.2000
ENERGY: 1500000 1.0122 5.2152 0.2684 0.0000 -10949.4135 1466.8276 0.0000 0.0000 1795.7165 -7680.3736 302.8811 -9476.0901 -7687.4229 298.9568 -137.8339 -89.1841 30825.0005 -52.7995 -1.5892
TCL: Running FEP window  13: Lambda1 0.6    Lambda2 0.65   [dLambda 0.050000000000000044]
TCL: Setting parameter firsttimestep to 0
TCL: Setting parameter alchLambda to 0.6
Info: NONBONDED TABLE R-SQUARED SPACING: 0.0625
Info: NONBONDED TABLE SIZE: 705 POINTS
TCL: Setting parameter alchLambda2 to 0.65
Info: NONBONDED TABLE R-SQUARED SPACING: 0.0625
Info: NONBONDED TABLE SIZE: 705 POINTS
TCL: Running for 1500000 steps
ETITLE: TS BOND ANGLE DIHED IMPRP ELECT VDW BOUNDARY MISC KINETIC TOTAL TEMP POTENTIAL TOTALAVG TEMPAVG PRESSURE GPRESSURE VOLUME PRESSAVG GPRESSAVG
ENERGY: 0 1.0122 5.2152 0.2684 0.0000 -10950.1098 1466.5211 0.0000 0.0000 1794.7901 -7682.3029 302.7248 -9477.0930 -7682.3029 302.7248 -162.7454 -87.9262 30825.0005 -162.7454 -87.9262
ENERGY: 300000 2.1581 4.7337 0.4162 0.0000 -10962.4577 1520.8702 0.0000 0.0000 1729.6927 -7704.5869 291.7449 -9434.2796 -7681.9119 301.0329 384.0146 545.0462 30793.0070 228.9525 323.0809
ENERGY: 600000 1.2490 5.5117 0.6559 0.0000 -10857.9444 1431.5202 0.0000 0.0000 1742.1288 -7676.8788 293.8425 -9419.0076 -7679.7077 301.0212 -202.8905 -189.2415 30955.3507 23.8922 91.7085
ENERGY: 900000 1.0634 4.9193 1.2668 0.0000 -11043.8058 1493.8594 0.0000 0.0000 1779.2157 -7763.4812 300.0979 -9542.6969 -7679.9019 301.0362 297.9190 283.4159 30387.0223 -34.3657 24.2018
ENERGY: 1200000 0.7334 6.7718 0.2213 0.0000 -10879.7269 1440.4215 0.0000 0.0000 1813.5922 -7617.9868 305.8961 -9431.5789 -7671.0189 301.4278 -286.9412 -215.3685 30968.0852 -23.1777 37.6809
ENERGY: 1500000 1.2328 6.8139 0.5340 0.0000 -10810.1645 1394.4319 0.0000 0.0000 1775.1425 -7632.0094 299.4109 -9407.1519 -7674.5824 300.7256 -495.2088 -491.7625 31031.9340 -79.2357 -16.8977
TCL: Running FEP window  14: Lambda1 0.65   Lambda2 0.7000000000000001 [dLambda 0.050000000000000044]
TCL: Setting parameter firsttimestep to 0
TCL: Setting parameter alchLambda to 0.65
Info: NONBONDED TABLE R-SQUARED SPACING: 0.0625
Info: NONBONDED TABLE SIZE: 705 POINTS
TCL: Setting parameter alchLambda2 to 0.7000000000000001
Info: NONBONDED TABLE R-SQUARED SPACING: 0.0625
Info: NONBONDED TABLE SIZE: 705 POINTS
TCL: Running for 1500000 steps
ETITLE: TS BOND ANGLE DIHED IMPRP ELECT VDW BOUNDARY MISC KINETIC TOTAL TEMP POTENTIAL TOTALAVG TEMPAVG PRESSURE GPRESSURE VOLUME PRESSAVG GPRESSAVG
ENERGY: 0 1.2328 6.8139 0.5340 0.0000 -10810.8540 1394.8868 0.0000 0.0000 1774.2106 -7633.1759 299.2537 -9407.3865 -7633.1759 299.2537 -561.8543 -483.2992 31031.9340 -561.8543 -483.2992
ENERGY: 300000 0.5382 8.0871 0.8330 0.0000 -10772.7525 1381.5039 0.0000 0.0000 1784.2866 -7597.5038 300.9532 -9381.7904 -7647.8218 301.1049 -590.9566 -554.0189 31232.0645 -726.8963 -654.1966
ENERGY: 600000 0.0396 4.2541 2.6157 0.0000 -10988.9686 1523.0966 0.0000 0.0000 1756.3279 -7702.6347 296.2374 -9458.9626 -7682.6271 298.1441 445.9156 560.8410 30414.1418 -385.7221 -324.6885
ENERGY: 900000 1.8856 6.9179 0.2955 0.0000 -10953.2421 1498.1749 0.0000 0.0000 1792.4916 -7653.4766 302.3371 -9445.9682 -7687.6907 298.9546 378.8647 401.6754 30726.4989 -264.5912 -214.8887
ENERGY: 1200000 0.5465 4.5232 0.9490 0.0000 -10881.4689 1386.1164 0.0000 0.0000 1792.2160 -7697.1176 302.2906 -9489.3337 -7681.7655 299.6750 -757.8341 -624.9266 30893.3991 -276.0306 -219.4822
ENERGY: 1500000 4.9824 5.5121 1.1866 0.0000 -10983.6232 1439.6425 0.0000 0.0000 1790.4955 -7741.8041 302.0004 -9532.2996 -7684.2742 299.9410 -353.3232 -328.0294 30803.6759 -365.9341 -309.6166
TCL: Running FEP window  15: Lambda1 0.7000000000000001 Lambda2 0.7500000000000001 [dLambda 0.050000000000000044]
TCL: Setting parameter firsttimestep to 0
TCL: Setting parameter alchLambda to 0.7000000000000001
Info: NONBONDED TABLE R-SQUARED SPACING: 0.0625
Info: NONBONDED TABLE SIZE: 705 POINTS
TCL: Setting parameter alchLambda2 to 0.7500000000000001
Info: NONBONDED TABLE R-SQUARED SPACING: 0.0625
Info: NONBONDED TABLE SIZE: 705 POINTS
TCL: Running for 1500000 steps
ETITLE: TS BOND ANGLE DIHED IMPRP ELECT VDW BOUNDARY MISC KINETIC TOTAL TEMP POTENTIAL TOTALAVG TEMPAVG PRESSURE GPRESSURE VOLUME PRESSAVG GPRESSAVG
ENERGY: 0 4.9824 5.5121 1.1866 0.0000 -10985.0819 1440.5622 0.0000 0.0000 1789.6496 -7743.1890 301.8578 -9532.8386 -7743.1890 301.8578 -394.0147 -314.1391 30803.6759 -394.0147 -314.1391
ENERGY: 300000 7.0889 6.6802 0.3832 0.0000 -10902.4381 1428.2902 0.0000 0.0000 1771.0934 -7688.9023 298.7279 -9459.9957 -7695.3018 298.2672 -26.0125 14.3239 30606.8804 -77.0085 -9.9316
ENERGY: 600000 4.0396 5.0761 0.3803 0.0000 -10995.3539 1532.9045 0.0000 0.0000 1754.3985 -7698.5548 295.9120 -9452.9533 -7690.0080 297.9309 764.4217 739.2289 30555.8806 85.2985 139.4539
ENERGY: 900000 0.3575 6.9315 0.4789 0.0000 -10904.4001 1487.5402 0.0000 0.0000 1735.6285 -7673.4635 292.7461 -9409.0920 -7684.9277 299.8751 95.5470 139.0045 31003.0495 48.5580 96.4005
ENERGY: 1200000 0.5502 5.6837 0.7618 0.0000 -10866.2957 1459.3679 0.0000 0.0000 1842.1074 -7557.8249 310.7057 -9399.9323 -7667.8027 301.1369 62.6112 91.7823 31096.4382 50.4477 94.8606
ENERGY: 1500000 0.5105 4.0607 1.0602 0.0000 -10902.4692 1394.6903 0.0000 0.0000 1778.3196 -7723.8279 299.9467 -9502.1475 -7671.3548 300.8066 -569.4566 -493.6168 30663.7178 -8.6639 43.6992
TCL: Running FEP window  16: Lambda1 0.7500000000000001 Lambda2 0.8000000000000002 [dLambda 0.050000000000000044]
TCL: Setting parameter firsttimestep to 0
TCL: Setting parameter alchLambda to 0.7500000000000001
Info: NONBONDED TABLE R-SQUARED SPACING: 0.0625
Info: NONBONDED TABLE SIZE: 705 POINTS
TCL: Setting parameter alchLambda2 to 0.8000000000000002
Info: NONBONDED TABLE R-SQUARED SPACING: 0.0625
Info: NONBONDED TABLE SIZE: 705 POINTS
TCL: Running for 1500000 steps
ETITLE: TS BOND ANGLE DIHED IMPRP ELECT VDW BOUNDARY MISC KINETIC TOTAL TEMP POTENTIAL TOTALAVG TEMPAVG PRESSURE GPRESSURE VOLUME PRESSAVG GPRESSAVG
ENERGY: 0 0.5105 4.0607 1.0602 0.0000 -10904.8067 1396.4456 0.0000 0.0000 1777.4188 -7725.3109 299.7948 -9502.7297 -7725.3109 299.7948 -556.4617 -474.3383 30663.7178 -556.4617 -474.3383
ENERGY: 300000 3.4986 2.2614 0.4374 0.0000 -11008.6352 1517.3735 0.0000 0.0000 1779.4513 -7705.6131 300.1376 -9485.0644 -7698.7294 298.1150 482.6262 436.5272 30537.4567 63.8571 93.6604
ENERGY: 600000 0.6258 5.8976 0.1509 0.0000 -10930.1496 1467.6737 0.0000 0.0000 1783.0762 -7672.7253 300.7490 -9455.8016 -7671.9923 298.3635 1.1920 66.5462 30731.5263 97.3021 143.4410
ENERGY: 900000 1.6425 5.5524 0.3221 0.0000 -10876.3995 1409.5207 0.0000 0.0000 1757.3093 -7702.0527 296.4030 -9459.3619 -7690.0480 297.9398 -440.0594 -324.7628 30482.5841 11.6821 65.4033
ENERGY: 1200000 3.4048 9.1980 0.4424 0.0000 -11015.0015 1485.3389 0.0000 0.0000 1764.6750 -7751.9424 297.6453 -9516.6174 -7684.5291 299.2753 -42.0112 -4.5149 30584.9919 31.9446 86.3704
ENERGY: 1500000 1.7341 8.5217 0.1109 0.0000 -10911.9033 1374.8716 0.0000 0.0000 1783.3070 -7743.3579 300.7880 -9526.6649 -7686.3670 299.2842 -762.7466 -729.9965 30733.6193 0.5269 57.0457
TCL: Running FEP window  17: Lambda1 0.8000000000000002 Lambda2 0.8500000000000002 [dLambda 0.050000000000000044]
TCL: Setting parameter firsttimestep to 0
TCL: Setting parameter alchLambda to 0.8000000000000002
Info: NONBONDED TABLE R-SQUARED SPACING: 0.0625
Info: NONBONDED TABLE SIZE: 705 POINTS
TCL: Setting parameter alchLambda2 to 0.8500000000000002
Info: NONBONDED TABLE R-SQUARED SPACING: 0.0625
Info: NONBONDED TABLE SIZE: 705 POINTS
TCL: Running for 1500000 steps
ETITLE: TS BOND ANGLE DIHED IMPRP ELECT VDW BOUNDARY MISC KINETIC TOTAL TEMP POTENTIAL TOTALAVG TEMPAVG PRESSURE GPRESSURE VOLUME PRESSAVG GPRESSAVG
ENERGY: 0 1.7341 8.5217 0.1109 0.0000 -10913.1920 1375.2396 0.0000 0.0000 1782.4231 -7745.1625 300.6389 -9527.5856 -7745.1625 300.6389 -810.3507 -721.0867 30733.6193 -810.3507 -721.0867
ENERGY: 300000 5.4367 3.1226 0.0842 0.0000 -10974.4981 1530.1943 0.0000 0.0000 1789.4611 -7646.1992 301.8260 -9435.6603 -7720.8208 296.2217 924.1594 1027.0783 30480.5465 -232.8499 -165.7928
ENERGY: 600000 0.3161 4.0330 1.1488 0.0000 -10875.6392 1451.6239 0.0000 0.0000 1714.1399 -7704.3775 289.1216 -9418.5174 -7704.0174 295.8028 -242.1530 -168.5716 30966.2964 -146.6021 -76.7786
ENERGY: 900000 0.7024 3.0714 0.2643 0.0000 -10898.7426 1385.1989 0.0000 0.0000 1766.9931 -7742.5125 298.0363 -9509.5056 -7691.4655 297.5622 -574.4003 -486.5097 30525.5087 -118.8256 -47.2796
ENERGY: 1200000 1.2833 5.9358 1.6506 0.0000 -10832.4924 1414.4851 0.0000 0.0000 1802.8201 -7606.3175 304.0792 -9409.1376 -7690.0889 297.4486 -178.6899 -80.8237 30470.0818 1.1500 72.5422
ENERGY: 1500000 5.0484 6.5486 0.5763 0.0000 -11059.6906 1557.1312 0.0000 0.0000 1795.8360 -7694.5501 302.9012 -9490.3861 -7689.8071 298.4765 813.0756 875.0069 30659.6670 61.9189 126.0679
TCL: Running FEP window  18: Lambda1 0.8500000000000002 Lambda2 0.9000000000000002 [dLambda 0.050000000000000044]
TCL: Setting parameter firsttimestep to 0
TCL: Setting parameter alchLambda to 0.8500000000000002
Info: NONBONDED TABLE R-SQUARED SPACING: 0.0625
Info: NONBONDED TABLE SIZE: 705 POINTS
TCL: Setting parameter alchLambda2 to 0.9000000000000002
Info: NONBONDED TABLE R-SQUARED SPACING: 0.0625
Info: NONBONDED TABLE SIZE: 705 POINTS
TCL: Running for 1500000 steps
ETITLE: TS BOND ANGLE DIHED IMPRP ELECT VDW BOUNDARY MISC KINETIC TOTAL TEMP POTENTIAL TOTALAVG TEMPAVG PRESSURE GPRESSURE VOLUME PRESSAVG GPRESSAVG
ENERGY: 0 5.0484 6.5486 0.5763 0.0000 -11062.0409 1559.1647 0.0000 0.0000 1794.9614 -7695.7415 302.7537 -9490.7029 -7695.7415 302.7537 834.3089 896.8746 30659.6670 834.3089 896.8746
ENERGY: 300000 2.7135 5.4278 0.2151 0.0000 -10929.2324 1450.8030 0.0000 0.0000 1780.3819 -7689.6912 300.2946 -9470.0731 -7690.5124 303.0469 -146.7000 -77.0086 31143.0645 -34.6796 26.3491
ENERGY: 600000 0.9724 6.8787 0.7668 0.0000 -10849.7126 1353.4174 0.0000 0.0000 1754.5612 -7733.1162 295.9395 -9487.6774 -7692.5425 301.6555 -1158.9299 -1078.5933 31016.1353 -290.1593 -222.5620
ENERGY: 900000 1.7112 4.3613 0.7468 0.0000 -10805.3389 1424.7354 0.0000 0.0000 1786.4033 -7587.3809 301.3102 -9373.7842 -7696.2863 300.2232 -49.8215 -26.6831 31093.2950 -259.2694 -189.4357
ENERGY: 1200000 3.0755 6.2314 0.6091 0.0000 -11049.6011 1500.7861 0.0000 0.0000 1848.7514 -7690.1476 311.8264 -9538.8990 -7691.2167 300.3928 556.0509 586.7166 30221.4239 -116.9834 -50.2774
ENERGY: 1500000 1.8765 3.6558 0.8592 0.0000 -10795.3382 1362.4467 0.0000 0.0000 1780.2750 -7646.2249 300.2766 -9426.4999 -7681.1584 301.2420 -364.2544 -348.3830 30378.5140 -44.7832 15.4520
TCL: Running FEP window  19: Lambda1 0.9000000000000002 Lambda2 0.9500000000000003 [dLambda 0.050000000000000044]
TCL: Setting parameter firsttimestep to 0
TCL: Setting parameter alchLambda to 0.9000000000000002
Info: NONBONDED TABLE R-SQUARED SPACING: 0.0625
Info: NONBONDED TABLE SIZE: 705 POINTS
TCL: Setting parameter alchLambda2 to 0.9500000000000003
Info: NONBONDED TABLE R-SQUARED SPACING: 0.0625
Info: NONBONDED TABLE SIZE: 705 POINTS
TCL: Running for 1500000 steps
ETITLE: TS BOND ANGLE DIHED IMPRP ELECT VDW BOUNDARY MISC KINETIC TOTAL TEMP POTENTIAL TOTALAVG TEMPAVG PRESSURE GPRESSURE VOLUME PRESSAVG GPRESSAVG
ENERGY: 0 1.8765 3.6558 0.8592 0.0000 -10798.1172 1363.7563 0.0000 0.0000 1779.3793 -7648.5900 300.1255 -9427.9693 -7648.5900 300.1255 -407.1061 -329.3021 30378.5140 -407.1061 -329.3021
ENERGY: 300000 1.5000 5.4616 0.6883 0.0000 -10951.8802 1454.6706 0.0000 0.0000 1762.9195 -7726.6402 297.3492 -9489.5598 -7664.2758 300.9712 33.0702 99.2629 30499.0380 65.3560 121.0027
ENERGY: 600000 0.4013 6.4362 1.4551 0.0000 -10913.2799 1468.7150 0.0000 0.0000 1724.6603 -7711.6119 290.8961 -9436.2723 -7672.0981 300.1364 308.3185 326.6816 30518.1362 134.6674 196.0080
ENERGY: 900000 2.2002 5.5154 0.3120 0.0000 -10950.8410 1446.3842 0.0000 0.0000 1804.7080 -7691.7211 304.3977 -9496.4291 -7675.8267 300.2489 -123.5619 -57.6388 30463.2211 84.2915 143.7478
ENERGY: 1200000 1.8356 4.4057 0.7163 0.0000 -10800.3708 1353.5603 0.0000 0.0000 1831.1145 -7608.7383 308.8516 -9439.8528 -7672.7406 300.4745 -663.0240 -684.3459 30718.5327 6.7261 60.8842
ENERGY: 1500000 1.4220 5.4555 0.4101 0.0000 -10838.5143 1397.4047 0.0000 0.0000 1812.2720 -7621.5499 305.6735 -9433.8220 -7674.4364 300.2791 -483.7422 -399.2074 31083.4326 -17.5669 37.0864
TCL: Running FEP window  20: Lambda1 0.9500000000000003 Lambda2 1.0    [dLambda 0.04999999999999971]
TCL: Setting parameter firsttimestep to 0
TCL: Setting parameter alchLambda to 0.9500000000000003
Info: NONBONDED TABLE R-SQUARED SPACING: 0.0625
Info: NONBONDED TABLE SIZE: 705 POINTS
TCL: Setting parameter alchLambda2 to 1.0
Info: NONBONDED TABLE R-SQUARED SPACING: 0.0625
Info: NONBONDED TABLE SIZE: 705 POINTS
TCL: Running for 1500000 steps
ETITLE: TS BOND ANGLE DIHED IMPRP ELECT VDW BOUNDARY MISC KINETIC TOTAL TEMP POTENTIAL TOTALAVG TEMPAVG PRESSURE GPRESSURE VOLUME PRESSAVG GPRESSAVG
ENERGY: 0 1.4220 5.4555 0.4101 0.0000 -10840.0839 1397.5153 0.0000 0.0000 1811.4281 -7623.8529 305.5311 -9435.2809 -7623.8529 305.5311 -457.1522 -391.1961 31083.4326 -457.1522 -391.1961
ENERGY: 300000 0.3528 5.0521 0.3131 0.0000 -11071.6849 1485.1636 0.0000 0.0000 1779.4577 -7801.3455 300.1387 -9580.8033 -7676.0304 304.1771 -4.0245 34.4604 30211.4768 -265.5946 -234.9937
ENERGY: 600000 1.2227 5.2248 0.5491 0.0000 -10931.9864 1473.2314 0.0000 0.0000 1788.9455 -7662.8129 301.7390 -9451.7584 -7670.8477 304.3796 45.5348 115.9233 30974.7196 -47.0916 -6.4021
ENERGY: 900000 1.4756 4.0689 0.5441 0.0000 -10755.5925 1396.7864 0.0000 0.0000 1811.1309 -7541.5866 305.4810 -9352.7175 -7662.8066 303.4195 -238.4122 -150.4565 30765.4820 -15.7089 35.1665
ENERGY: 1200000 3.5596 6.8335 0.4259 0.0000 -10958.2966 1517.4967 0.0000 0.0000 1778.1923 -7651.7885 299.9253 -9429.9809 -7657.2670 303.5734 869.1796 836.4285 30294.1460 7.6649 61.4280
ENERGY: 1500000 1.7827 8.4579 0.3440 0.0000 -10862.4125 1353.5803 0.0000 0.0000 1711.6175 -7786.6302 288.6962 -9498.2477 -7676.7281 302.0842 -768.7481 -734.3151 30542.6239 -47.1244 8.9070
TCL: Exiting due to exit command.
