Info: SIMULATION PARAMETERS:
Info: TIMESTEP               2
Info: NUMBER OF STEPS        0
Info: STEPS PER CYCLE        10
Info: PERIODIC CELL BASIS 1  32.2646 0 0
Info: PERIODIC CELL BASIS 2  0 32.4145 0
Info: PERIODIC CELL BASIS 3  0 0 29.3355
Info: PERIODIC CELL CENTER   0 0 0
Info: WRAPPING WATERS AROUND PERIODIC BOUNDARIES ON OUTPUT.
Info: WRAPPING ALL CLUSTERS AROUND PERIODIC BOUNDARIES ON OUTPUT.
Info: FIRST LDB TIMESTEP     50
Info: LAST LDB TIMESTEP     -1
Info: HOM BACKGROUND SCALING 1
Info: PME BACKGROUND SCALING 1
Info: MIN ATOMS PER PATCH    40
Info: EMPTY PATCH LOAD       40 ATOMS
Info: VELOCITY FILE          mobley_5952846_equil.vel
Info: CENTER OF MASS MOVING INITIALLY? NO
Info: DIELECTRIC             1
Info: EXCLUDE                SCALED ONE-FOUR
Info: 1-4 ELECTROSTATICS SCALED BY 0.833333
Info: MODIFIED 1-4 VDW PARAMETERS WILL BE USED
Info: DCD FILENAME           mobley_5952846_prod.dcd
Info: DCD FREQUENCY          100000
Info: DCD FIRST STEP         100000
Info: DCD FILE WILL CONTAIN UNIT CELL DATA
Info: XST FILENAME           mobley_5952846_prod.xst
Info: XST FREQUENCY          100000
Info: NO VELOCITY DCD OUTPUT
Info: NO FORCE DCD OUTPUT
Info: OUTPUT FILENAME        mobley_5952846_prod
Info: BINARY OUTPUT FILES WILL BE USED
Info: RESTART FILENAME       mobley_5952846_prod.restart
Info: RESTART FREQUENCY      100000
Info: BINARY RESTART FILES WILL BE USED
Info: CUTOFF                 9
Info: PAIRLIST DISTANCE      11
Info: PAIRLIST SHRINK RATE   0.01
Info: PAIRLIST GROW RATE     0.01
Info: PAIRLIST TRIGGER       0.3
Info: PAIRLISTS PER CYCLE    2
Info: PAIRLISTS ENABLED
Info: MARGIN                 2
Info: HYDROGEN GROUP CUTOFF  2.5
Info: PATCH DIMENSION        15.5
Info: ENERGY OUTPUT STEPS    100000
Info: ENERGY EVALUATION STEPS    100000
Info: OUTPUT ENERGY PRECISION 4
Info: CROSSTERM ENERGY INCLUDED IN DIHEDRAL
Info: TIMING OUTPUT STEPS    1000000
Info: PRESSURE OUTPUT STEPS  100000
Info: ALCHEMICAL FEP ON
Info: FEP CURRENT LAMBDA VALUE     1
Info: FEP COMPARISON LAMBDA VALUE  0.95
Info: FEP INTRA-ALCHEMICAL NON-BONDED INTERACTIONS WILL BE RETAINED
Info: FEP INTRA-ALCHEMICAL BONDED INTERACTIONS WILL BE RETAINED
Info: FEP VDW SHIFTING COEFFICIENT 5
Info: FEP ELEC. ACTIVE FOR ANNIHILATED PARTICLES BETWEEN LAMBDA = 0 AND LAMBDA = 0.5
Info: FEP ELEC. ACTIVE FOR EXNIHILATED PARTICLES BETWEEN LAMBDA = 0.5 AND LAMBDA = 1
Info: FEP VDW ACTIVE FOR ANNIHILATED PARTICLES BETWEEN LAMBDA = 0 AND LAMBDA = 1
Info: FEP VDW ACTIVE FOR EXNIHILATED PARTICLES BETWEEN LAMBDA = 0 AND LAMBDA = 1
Info: FEP BOND ACTIVE FOR ANNIHILATED PARTICLES BETWEEN LAMBDA = 1 AND LAMBDA = 1
Info: FEP BOND ACTIVE FOR EXNIHILATED PARTICLES BETWEEN LAMBDA = 0 AND LAMBDA = 0
Info: LANGEVIN DYNAMICS ACTIVE
Info: LANGEVIN TEMPERATURE   300
Info: LANGEVIN USING BBK INTEGRATOR
Info: LANGEVIN DAMPING COEFFICIENT IS 1 INVERSE PS
Info: LANGEVIN DYNAMICS APPLIED TO HYDROGENS
Info: LANGEVIN PISTON PRESSURE CONTROL ACTIVE
Info:        TARGET PRESSURE IS 1.01325 BAR
Info:     OSCILLATION PERIOD IS 50 FS
Info:             DECAY TIME IS 25 FS
Info:     PISTON TEMPERATURE IS 300 K
Info:       PRESSURE CONTROL IS GROUP-BASED
Info:    INITIAL STRAIN RATE IS -0.000802597 -0.000802597 -0.000802597
Info:       CELL FLUCTUATION IS ISOTROPIC
Info: PARTICLE MESH EWALD (PME) ACTIVE
Info: PME TOLERANCE               1e-06
Info: PME EWALD COEFFICIENT       0.348832
Info: PME INTERPOLATION ORDER     4
Info: PME GRID DIMENSIONS         36 36 32
Info: PME MAXIMUM GRID SPACING    1
Info: PME CALCULATION WILL BE PERFORMED ON GPU
Info: FULL ELECTROSTATIC EVALUATION FREQUENCY      2
Info: USING VERLET I (r-RESPA) MTS SCHEME.
Info: C1 SPLITTING OF LONG RANGE ELECTROSTATICS
Info: PLACING ATOMS IN PATCHES BY HYDROGEN GROUPS
Info: RIGID BONDS TO HYDROGEN : ALL
Info:         ERROR TOLERANCE : 1e-08
Info:          MAX ITERATIONS : 100
Info: RIGID WATER USING SETTLE ALGORITHM
Info: RANDOM NUMBER SEED     1743487762
Info: USE HYDROGEN BONDS?    NO
Info: Using AMBER format force field!
Info: AMBER PARM FILE        mobley_5952846.prmtop
Info: COORDINATE PDB         mobley_5952846.pdb
Info: Exclusions will be read from PARM file!
Info: SCNB (VDW SCALING)     2
Info: USING ARITHMETIC MEAN TO COMBINE L-J SIGMA PARAMETERS
Info: BINARY COORDINATES     mobley_5952846_equil.coor
Info: SUMMARY OF PARAMETERS:
Info: 4 BONDS
Info: 2 ANGLES
Info:   2 HARMONIC
Info:   0 COSINE-BASED
Info: 2 DIHEDRAL
Info: 0 IMPROPER
Info: 0 CROSSTERM
Info: 0 VDW
Info: 10 VDW_PAIRS
Info: 0 NBTHOLE_PAIRS
Info: To read alchdata from file: mobley_5952846.pdb
Info: To read alchflag data from column: 5
Info: STRUCTURE SUMMARY:
Info: 2997 ATOMS
Info: 2996 BONDS
Info: 6 ANGLES
Info: 6 DIHEDRALS
Info: 0 IMPROPERS
Info: 0 CROSSTERMS
Info: 3006 EXCLUSIONS
Info: 2991 RIGID BONDS
Info: ALCH: 0 ATOMS TO DISAPPEAR IN FINAL STATE
Info: ALCH: 6 ATOMS TO APPEAR IN FINAL STATE
Info: 6000 DEGREES OF FREEDOM
Info: 1003 HYDROGEN GROUPS
Info: 3 ATOMS IN LARGEST HYDROGEN GROUP
Info: 1003 MIGRATION GROUPS
Info: 3 ATOMS IN LARGEST MIGRATION GROUP
Info: TOTAL MASS = 18127.8 amu
Info: TOTAL CHARGE = -0.000200003 e
Info: MASS DENSITY = 0.981172 g/cm^3
Info: ATOM DENSITY = 0.097685 atoms/A^3
Info: ADDED 0 IMPLICIT EXCLUSIONS
Info: NONBONDED TABLE R-SQUARED SPACING: 0.0625
Info: NONBONDED TABLE SIZE: 705 POINTS
Info: REDUCING NUMBER OF PATCHES TO IMPROVE LOAD BALANCE
Info: REMOVING COM VELOCITY 0.0611481 0.0577649 -0.00076753
Info: Use 3D box decompostion in PME FFT.
Info: Updated CUDA force table with 4096 elements.
Info: Updated CUDA LJ table with 4 x 4 elements.
Info: Found 9 unique exclusion lists needing 12 bytes
TCL: Running for 1500000 steps
ETITLE: TS BOND ANGLE DIHED IMPRP ELECT VDW BOUNDARY MISC KINETIC TOTAL TEMP POTENTIAL TOTALAVG TEMPAVG PRESSURE GPRESSURE VOLUME PRESSAVG GPRESSAVG
ENERGY: 0 0.3945 1.4955 0.2546 0.0000 -11050.7172 1551.5392 0.0000 0.0000 1822.5398 -7674.4935 305.7146 -9497.0333 -7674.4935 305.7146 586.4813 671.2808 30680.2373 586.4813 671.2808
ENERGY: 300000 0.7497 0.5104 0.2573 0.0000 -11021.6114 1552.7338 0.0000 0.0000 1794.9631 -7672.3971 301.0888 -9467.3602 -7689.8185 300.2703 668.8176 704.2530 30585.4578 352.9784 409.2694
ENERGY: 600000 2.2047 1.4270 0.2676 0.0000 -10823.2496 1455.9147 0.0000 0.0000 1724.2363 -7639.1993 289.2251 -9363.4355 -7654.0813 299.5709 26.3220 28.5473 31250.5923 -64.8860 -21.2071
ENERGY: 900000 1.0185 2.4138 0.8311 0.0000 -10819.0293 1456.7505 0.0000 0.0000 1769.8462 -7588.1691 296.8757 -9358.0153 -7634.9762 300.5284 267.5340 343.3806 30938.7503 155.4822 206.0285
ENERGY: 1200000 0.1860 2.6367 0.2036 0.0000 -10807.0256 1411.0913 0.0000 0.0000 1795.3232 -7597.5848 301.1492 -9392.9080 -7632.6390 300.5385 -313.7784 -191.4730 30847.7438 66.5780 127.8341
ENERGY: 1500000 1.3822 1.5685 0.1104 0.0000 -10827.2565 1444.5466 0.0000 0.0000 1792.0356 -7587.6132 300.5978 -9379.6487 -7626.2665 300.5541 -32.4413 -26.1523 31240.6868 87.7221 146.0586
TCL: Running FEP window   2: Lambda1 0.95   Lambda2 0.8999999999999999 [dLambda -0.050000000000000044]
TCL: Setting parameter firsttimestep to 0
TCL: Setting parameter alchLambda to 0.95
Info: NONBONDED TABLE R-SQUARED SPACING: 0.0625
Info: NONBONDED TABLE SIZE: 705 POINTS
TCL: Setting parameter alchLambda2 to 0.8999999999999999
Info: NONBONDED TABLE R-SQUARED SPACING: 0.0625
Info: NONBONDED TABLE SIZE: 705 POINTS
TCL: Running for 1500000 steps
ETITLE: TS BOND ANGLE DIHED IMPRP ELECT VDW BOUNDARY MISC KINETIC TOTAL TEMP POTENTIAL TOTALAVG TEMPAVG PRESSURE GPRESSURE VOLUME PRESSAVG GPRESSAVG
ENERGY: 0 1.3822 1.5685 0.1104 0.0000 -10827.1774 1444.8149 0.0000 0.0000 1791.1455 -7588.1558 300.4485 -9379.3014 -7588.1558 300.4485 -116.0319 -31.5843 31240.6868 -116.0319 -31.5843
ENERGY: 300000 3.1183 0.6933 0.2940 0.0000 -10734.2816 1363.5643 0.0000 0.0000 1748.6901 -7617.9215 293.3270 -9366.6117 -7637.7907 294.5076 -775.7167 -709.7751 31281.0186 -224.0298 -124.3199
ENERGY: 600000 0.9306 4.1218 0.2566 0.0000 -10870.7299 1446.9962 0.0000 0.0000 1766.7705 -7651.6542 296.3598 -9418.4247 -7637.3361 298.0720 -20.9954 93.1171 30455.2229 -280.1953 -189.8452
ENERGY: 900000 2.6973 0.6440 2.0809 0.0000 -10957.4732 1505.7247 0.0000 0.0000 1739.0554 -7707.2709 291.7108 -9446.3263 -7648.9008 297.1893 443.9053 516.1185 30577.7554 -193.6877 -118.8590
ENERGY: 1200000 0.7865 0.5755 0.0176 0.0000 -10886.5994 1406.6888 0.0000 0.0000 1776.3012 -7702.2298 297.9585 -9478.5310 -7654.9717 297.2385 -582.5868 -510.7196 30850.0796 -150.7069 -77.7268
ENERGY: 1500000 0.4645 1.1006 0.9375 0.0000 -10914.4923 1482.6349 0.0000 0.0000 1855.2080 -7574.1468 311.1944 -9429.3548 -7648.7300 298.4822 138.2619 219.3358 30916.7844 -172.5229 -103.2182
TCL: Running FEP window   3: Lambda1 0.8999999999999999 Lambda2 0.8499999999999999 [dLambda -0.050000000000000044]
TCL: Setting parameter firsttimestep to 0
TCL: Setting parameter alchLambda to 0.8999999999999999
Info: NONBONDED TABLE R-SQUARED SPACING: 0.0625
Info: NONBONDED TABLE SIZE: 705 POINTS
TCL: Setting parameter alchLambda2 to 0.8499999999999999
Info: NONBONDED TABLE R-SQUARED SPACING: 0.0625
Info: NONBONDED TABLE SIZE: 705 POINTS
TCL: Running for 1500000 steps
ETITLE: TS BOND ANGLE DIHED IMPRP ELECT VDW BOUNDARY MISC KINETIC TOTAL TEMP POTENTIAL TOTALAVG TEMPAVG PRESSURE GPRESSURE VOLUME PRESSAVG GPRESSAVG
ENERGY: 0 0.4645 1.1006 0.9375 0.0000 -10914.4634 1482.5933 0.0000 0.0000 1854.3578 -7575.0097 311.0518 -9429.3675 -7575.0097 311.0518 109.2414 207.8623 30916.7844 109.2414 207.8623
ENERGY: 300000 1.2479 0.8379 0.2551 0.0000 -11013.3597 1517.4017 0.0000 0.0000 1796.4388 -7697.1783 301.3364 -9493.6171 -7628.3353 301.8082 271.6733 353.5594 30886.5779 50.7712 104.6378
ENERGY: 600000 1.3375 1.3709 0.7857 0.0000 -10944.5615 1504.7818 0.0000 0.0000 1785.8388 -7650.4468 299.5583 -9436.2856 -7642.0004 300.7051 380.0663 388.5888 31138.9811 -79.3241 -30.5831
ENERGY: 900000 2.1531 0.2303 0.9353 0.0000 -10949.6881 1423.5141 0.0000 0.0000 1781.8364 -7741.0188 298.8870 -9522.8553 -7647.3135 300.5152 -239.0602 -228.2380 30549.0777 -52.0139 -6.4220
ENERGY: 1200000 1.3590 1.4386 0.4384 0.0000 -11034.3265 1545.1311 0.0000 0.0000 1731.4278 -7754.5315 290.4314 -9485.9594 -7658.0170 299.5978 160.8378 286.2778 31123.8581 -60.2193 -3.0376
ENERGY: 1500000 0.6611 0.4009 0.4914 0.0000 -10940.8519 1530.9643 0.0000 0.0000 1796.5922 -7611.7420 301.3621 -9408.3342 -7650.3696 299.9785 561.6754 644.8235 30935.7251 -32.5386 26.7543
TCL: Running FEP window   4: Lambda1 0.8499999999999999 Lambda2 0.7999999999999998 [dLambda -0.050000000000000044]
TCL: Setting parameter firsttimestep to 0
TCL: Setting parameter alchLambda to 0.8499999999999999
Info: NONBONDED TABLE R-SQUARED SPACING: 0.0625
Info: NONBONDED TABLE SIZE: 705 POINTS
TCL: Setting parameter alchLambda2 to 0.7999999999999998
Info: NONBONDED TABLE R-SQUARED SPACING: 0.0625
Info: NONBONDED TABLE SIZE: 705 POINTS
TCL: Running for 1500000 steps
ETITLE: TS BOND ANGLE DIHED IMPRP ELECT VDW BOUNDARY MISC KINETIC TOTAL TEMP POTENTIAL TOTALAVG TEMPAVG PRESSURE GPRESSURE VOLUME PRESSAVG GPRESSAVG
ENERGY: 0 0.6611 0.4009 0.4914 0.0000 -10940.8378 1531.0160 0.0000 0.0000 1795.6859 -7612.5825 301.2101 -9408.2684 -7612.5825 301.2101 536.1260 635.7261 30935.7251 536.1260 635.7261
ENERGY: 300000 1.2467 0.5229 0.5904 0.0000 -10988.2715 1572.1452 0.0000 0.0000 1732.5571 -7681.2092 290.6208 -9413.7663 -7619.7514 297.7197 921.2001 1044.0126 30569.2013 231.5984 302.8138
ENERGY: 600000 1.1985 1.4398 2.4515 0.0000 -10802.0480 1429.0049 0.0000 0.0000 1808.1910 -7559.7624 303.3077 -9367.9534 -7614.1486 299.3521 -147.6295 -153.6321 31410.9477 126.1367 188.3365
ENERGY: 900000 4.4384 2.3323 0.4883 0.0000 -10960.5697 1534.2320 0.0000 0.0000 1826.8448 -7592.2338 306.4367 -9419.0786 -7613.6332 300.4668 671.6342 722.4745 30459.3311 149.3016 207.4462
ENERGY: 1200000 2.0434 0.5750 0.0812 0.0000 -11093.9152 1559.9478 0.0000 0.0000 1801.6205 -7729.6473 302.2056 -9531.2677 -7621.6398 300.3560 664.4966 704.7863 30361.8205 224.4490 278.6537
ENERGY: 1500000 0.5643 0.8969 1.4665 0.0000 -10839.1685 1402.4533 0.0000 0.0000 1810.4777 -7623.3098 303.6913 -9433.7876 -7609.7622 300.3896 -595.3933 -545.9780 31025.5597 131.5651 186.0776
TCL: Running FEP window   5: Lambda1 0.7999999999999998 Lambda2 0.7499999999999998 [dLambda -0.050000000000000044]
TCL: Setting parameter firsttimestep to 0
TCL: Setting parameter alchLambda to 0.7999999999999998
Info: NONBONDED TABLE R-SQUARED SPACING: 0.0625
Info: NONBONDED TABLE SIZE: 705 POINTS
TCL: Setting parameter alchLambda2 to 0.7499999999999998
Info: NONBONDED TABLE R-SQUARED SPACING: 0.0625
Info: NONBONDED TABLE SIZE: 705 POINTS
TCL: Running for 1500000 steps
ETITLE: TS BOND ANGLE DIHED IMPRP ELECT VDW BOUNDARY MISC KINETIC TOTAL TEMP POTENTIAL TOTALAVG TEMPAVG PRESSURE GPRESSURE VOLUME PRESSAVG GPRESSAVG
ENERGY: 0 0.5643 0.8969 1.4665 0.0000 -10839.1537 1402.9640 0.0000 0.0000 1809.5308 -7623.7311 303.5324 -9433.2619 -7623.7311 303.5324 -631.6424 -549.9543 31025.5597 -631.6424 -549.9543
ENERGY: 300000 1.2445 2.2758 1.1003 0.0000 -10789.8329 1385.5490 0.0000 0.0000 1795.7231 -7603.9402 301.2163 -9399.6632 -7653.4118 298.1391 -616.9730 -543.9622 31112.7008 -534.4020 -453.2488
ENERGY: 600000 1.0024 0.7845 0.8309 0.0000 -10824.9190 1386.8262 0.0000 0.0000 1776.0342 -7659.4408 297.9137 -9435.4750 -7638.1302 299.8049 -764.5605 -662.3347 31162.7831 -343.1640 -274.6392
ENERGY: 900000 1.1195 0.4411 1.6286 0.0000 -10806.2156 1435.5379 0.0000 0.0000 1764.3316 -7603.1569 295.9507 -9367.4885 -7638.3175 299.5308 8.0932 97.0562 30798.0775 -146.1315 -76.9395
ENERGY: 1200000 1.0652 0.8032 0.5507 0.0000 -10924.8657 1493.9356 0.0000 0.0000 1809.9909 -7618.5201 303.6096 -9428.5110 -7636.0663 300.1311 558.2471 620.8911 30600.2915 30.5014 92.8392
ENERGY: 1500000 0.5269 1.1893 0.2170 0.0000 -10815.6762 1422.4029 0.0000 0.0000 1806.8014 -7584.5388 303.0746 -9391.3401 -7632.0858 300.3377 -295.7335 -213.6245 31248.5840 4.7477 64.1814
TCL: Running FEP window   6: Lambda1 0.7499999999999998 Lambda2 0.6999999999999997 [dLambda -0.050000000000000044]
TCL: Setting parameter firsttimestep to 0
TCL: Setting parameter alchLambda to 0.7499999999999998
Info: NONBONDED TABLE R-SQUARED SPACING: 0.0625
Info: NONBONDED TABLE SIZE: 705 POINTS
TCL: Setting parameter alchLambda2 to 0.6999999999999997
Info: NONBONDED TABLE R-SQUARED SPACING: 0.0625
Info: NONBONDED TABLE SIZE: 705 POINTS
TCL: Running for 1500000 steps
ETITLE: TS BOND ANGLE DIHED IMPRP ELECT VDW BOUNDARY MISC KINETIC TOTAL TEMP POTENTIAL TOTALAVG TEMPAVG PRESSURE GPRESSURE VOLUME PRESSAVG GPRESSAVG
ENERGY: 0 0.5269 1.1893 0.2170 0.0000 -10815.6897 1422.9721 0.0000 0.0000 1805.9447 -7584.8397 302.9309 -9390.7844 -7584.8397 302.9309 -302.0141 -209.8335 31248.5840 -302.0141 -209.8335
ENERGY: 300000 2.4526 1.0234 0.2369 0.0000 -10842.9154 1488.5088 0.0000 0.0000 1787.2117 -7563.4819 299.7886 -9350.6936 -7616.7755 301.6134 368.8198 535.4749 31177.2123 -66.1683 16.6247
ENERGY: 600000 1.4464 1.8980 0.9951 0.0000 -10894.9973 1447.8212 0.0000 0.0000 1757.4042 -7685.4323 294.7887 -9442.8365 -7633.9356 299.3483 21.5564 45.2219 30786.9266 -202.2374 -132.5359
ENERGY: 900000 0.7292 1.2059 0.9017 0.0000 -10790.5434 1439.7610 0.0000 0.0000 1793.7773 -7554.1684 300.8899 -9347.9457 -7638.2253 299.8515 -138.5588 -26.6333 31185.3322 -180.0741 -112.8638
ENERGY: 1200000 0.4373 1.4323 2.1509 0.0000 -10950.4467 1513.2492 0.0000 0.0000 1802.2014 -7630.9755 302.3030 -9433.1769 -7641.2798 299.3790 389.7200 474.6276 30900.7787 -225.2295 -160.6360
ENERGY: 1500000 1.6879 0.6206 0.4905 0.0000 -10900.7794 1463.6556 0.0000 0.0000 1710.4952 -7723.8297 286.9201 -9434.3248 -7635.7719 299.4989 -8.1225 31.9683 30865.9597 -183.6368 -118.0788
TCL: Running FEP window   7: Lambda1 0.6999999999999997 Lambda2 0.6499999999999997 [dLambda -0.050000000000000044]
TCL: Setting parameter firsttimestep to 0
TCL: Setting parameter alchLambda to 0.6999999999999997
Info: NONBONDED TABLE R-SQUARED SPACING: 0.0625
Info: NONBONDED TABLE SIZE: 705 POINTS
TCL: Setting parameter alchLambda2 to 0.6499999999999997
Info: NONBONDED TABLE R-SQUARED SPACING: 0.0625
Info: NONBONDED TABLE SIZE: 705 POINTS
TCL: Running for 1500000 steps
ETITLE: TS BOND ANGLE DIHED IMPRP ELECT VDW BOUNDARY MISC KINETIC TOTAL TEMP POTENTIAL TOTALAVG TEMPAVG PRESSURE GPRESSURE VOLUME PRESSAVG GPRESSAVG
ENERGY: 0 1.6879 0.6206 0.4905 0.0000 -10900.7953 1463.9733 0.0000 0.0000 1709.6020 -7724.4210 286.7703 -9434.0230 -7724.4210 286.7703 -60.4002 27.7160 30865.9597 -60.4002 27.7160
ENERGY: 300000 0.7735 0.3009 0.9583 0.0000 -10786.3277 1381.0127 0.0000 0.0000 1838.4672 -7564.8150 308.3863 -9403.2822 -7621.8410 299.2056 -484.0516 -378.4179 30748.5337 -239.7647 -165.2913
ENERGY: 600000 2.0072 0.8747 2.0814 0.0000 -10797.9563 1447.5978 0.0000 0.0000 1825.7086 -7519.6867 306.2461 -9345.3953 -7617.4836 298.8088 -191.1043 -120.7912 31460.4960 -152.4852 -81.5153
ENERGY: 900000 1.9459 1.4289 2.2768 0.0000 -10938.2009 1426.9559 0.0000 0.0000 1785.3408 -7720.2527 299.4748 -9505.5935 -7628.0135 299.6395 -452.1122 -333.8880 30467.9298 -186.5273 -112.1942
ENERGY: 1200000 0.7730 1.0495 0.5912 0.0000 -10877.0078 1491.0515 0.0000 0.0000 1831.2582 -7552.2844 307.1770 -9383.5426 -7626.1997 300.8217 219.8761 286.6598 31014.7026 -100.2444 -28.9260
ENERGY: 1500000 0.5638 1.6066 1.7075 0.0000 -10868.2848 1481.1196 0.0000 0.0000 1782.5039 -7600.7834 298.9989 -9383.2873 -7620.1734 301.6669 357.4527 364.3265 30738.8192 -65.6086 1.2202
TCL: Running FEP window   8: Lambda1 0.6499999999999997 Lambda2 0.5999999999999996 [dLambda -0.050000000000000044]
TCL: Setting parameter firsttimestep to 0
TCL: Setting parameter alchLambda to 0.6499999999999997
Info: NONBONDED TABLE R-SQUARED SPACING: 0.0625
Info: NONBONDED TABLE SIZE: 705 POINTS
TCL: Setting parameter alchLambda2 to 0.5999999999999996
Info: NONBONDED TABLE R-SQUARED SPACING: 0.0625
Info: NONBONDED TABLE SIZE: 705 POINTS
TCL: Running for 1500000 steps
ETITLE: TS BOND ANGLE DIHED IMPRP ELECT VDW BOUNDARY MISC KINETIC TOTAL TEMP POTENTIAL TOTALAVG TEMPAVG PRESSURE GPRESSURE VOLUME PRESSAVG GPRESSAVG
ENERGY: 0 0.5638 1.6066 1.7075 0.0000 -10868.2832 1481.3806 0.0000 0.0000 1781.5868 -7601.4378 298.8451 -9383.0246 -7601.4378 298.8451 285.6136 359.8278 30738.8192 285.6136 359.8278
ENERGY: 300000 4.3290 0.2702 0.0533 0.0000 -10925.4525 1502.2718 0.0000 0.0000 1814.6054 -7603.9227 304.3837 -9418.5281 -7622.3130 300.6474 291.4302 337.7616 31121.8559 55.0746 109.6385
ENERGY: 600000 1.9290 0.5554 0.1149 0.0000 -10962.1260 1476.9043 0.0000 0.0000 1809.1328 -7673.4897 303.4657 -9482.6225 -7635.4250 300.9214 -24.1523 65.9528 30652.8810 160.5020 221.0732
ENERGY: 900000 2.3757 1.0592 2.2809 0.0000 -10833.3239 1431.9345 0.0000 0.0000 1847.6268 -7548.0468 309.9227 -9395.6736 -7633.8197 300.9857 -330.8190 -256.5555 31273.3139 -25.3963 30.9475
ENERGY: 1200000 4.2852 1.2741 0.9838 0.0000 -10967.6349 1557.0519 0.0000 0.0000 1805.3512 -7598.6887 302.8314 -9404.0399 -7614.7434 302.5912 679.4034 742.3387 30872.1391 83.1688 137.4930
ENERGY: 1500000 3.2902 0.8646 0.6131 0.0000 -10909.8909 1475.1626 0.0000 0.0000 1765.7696 -7664.1909 296.1919 -9429.9605 -7623.2510 301.5872 -48.7880 15.4508 31224.8358 -42.7668 12.2161
TCL: Running FEP window   9: Lambda1 0.5999999999999996 Lambda2 0.5499999999999996 [dLambda -0.050000000000000044]
TCL: Setting parameter firsttimestep to 0
TCL: Setting parameter alchLambda to 0.5999999999999996
Info: NONBONDED TABLE R-SQUARED SPACING: 0.0625
Info: NONBONDED TABLE SIZE: 705 POINTS
TCL: Setting parameter alchLambda2 to 0.5499999999999996
Info: NONBONDED TABLE R-SQUARED SPACING: 0.0625
Info: NONBONDED TABLE SIZE: 705 POINTS
TCL: Running for 1500000 steps
ETITLE: TS BOND ANGLE DIHED IMPRP ELECT VDW BOUNDARY MISC KINETIC TOTAL TEMP POTENTIAL TOTALAVG TEMPAVG PRESSURE GPRESSURE VOLUME PRESSAVG GPRESSAVG
ENERGY: 0 3.2902 0.8646 0.6131 0.0000 -10909.9351 1474.8410 0.0000 0.0000 1764.8792 -7665.4469 296.0425 -9430.3262 -7665.4469 296.0425 -64.9840 6.3908 31224.8358 -64.9840 6.3908
ENERGY: 300000 0.7005 0.0656 1.7030 0.0000 -10907.5457 1462.8059 0.0000 0.0000 1898.0380 -7544.2327 318.3787 -9442.2707 -7590.0885 305.2472 83.0402 171.9794 30700.2935 -19.9478 63.4305
ENERGY: 600000 2.1694 1.2936 1.4628 0.0000 -10994.2805 1534.8728 0.0000 0.0000 1783.9199 -7670.5621 299.2364 -9454.4820 -7608.4419 302.7059 875.9609 929.4242 30370.7491 203.1114 278.6378
ENERGY: 900000 0.8651 2.0459 0.8483 0.0000 -10884.4587 1444.7134 0.0000 0.0000 1795.2066 -7640.7792 301.1297 -9435.9859 -7608.3782 303.4799 228.0004 218.4791 30149.2740 80.3692 132.5182
ENERGY: 1200000 0.7379 0.9396 1.7067 0.0000 -10875.7026 1455.9674 0.0000 0.0000 1781.3851 -7634.9659 298.8113 -9416.3510 -7608.0492 303.4003 -197.7329 -98.9935 30835.5401 4.9823 74.9479
ENERGY: 1500000 1.6034 0.6250 0.2442 0.0000 -10747.6299 1393.4831 0.0000 0.0000 1739.6378 -7612.0364 291.8085 -9351.6742 -7611.6612 303.0140 -438.4370 -380.5227 31065.2768 -34.5433 35.4424
TCL: Running FEP window  10: Lambda1 0.5499999999999996 Lambda2 0.4999999999999996 [dLambda -0.04999999999999999]
TCL: Setting parameter firsttimestep to 0
TCL: Setting parameter alchLambda to 0.5499999999999996
Info: NONBONDED TABLE R-SQUARED SPACING: 0.0625
Info: NONBONDED TABLE SIZE: 705 POINTS
TCL: Setting parameter alchLambda2 to 0.4999999999999996
Info: NONBONDED TABLE R-SQUARED SPACING: 0.0625
Info: NONBONDED TABLE SIZE: 705 POINTS
TCL: Running for 1500000 steps
ETITLE: TS BOND ANGLE DIHED IMPRP ELECT VDW BOUNDARY MISC KINETIC TOTAL TEMP POTENTIAL TOTALAVG TEMPAVG PRESSURE GPRESSURE VOLUME PRESSAVG GPRESSAVG
ENERGY: 0 1.6034 0.6250 0.2442 0.0000 -10747.6071 1393.8010 0.0000 0.0000 1738.7451 -7612.5884 291.6588 -9351.3335 -7612.5884 291.6588 -470.4003 -385.9916 31065.2768 -470.4003 -385.9916
ENERGY: 300000 0.8897 0.5475 2.7220 0.0000 -10989.5019 1558.9734 0.0000 0.0000 1817.1654 -7609.2039 304.8131 -9426.3693 -7631.8947 298.3417 732.7067 817.0252 30713.5006 -169.0399 -76.5947
ENERGY: 600000 1.0374 0.2340 0.6051 0.0000 -10864.0460 1461.2750 0.0000 0.0000 1806.0978 -7594.7968 302.9566 -9400.8946 -7643.5825 298.4222 105.7917 153.3284 30737.8126 38.2854 122.6874
ENERGY: 900000 2.6042 1.6596 0.6125 0.0000 -10760.8850 1424.8159 0.0000 0.0000 1797.4893 -7533.7036 301.5126 -9331.1929 -7633.7801 298.3130 -230.6702 -261.2724 31512.5311 -95.9347 -14.8777
ENERGY: 1200000 0.8870 1.0758 1.6082 0.0000 -10753.8582 1393.5688 0.0000 0.0000 1721.9388 -7634.7795 288.8397 -9356.7183 -7639.9488 298.3162 -457.8712 -372.7430 30781.5456 -106.4980 -24.9845
ENERGY: 1500000 1.5686 0.2018 1.0414 0.0000 -10785.5680 1419.5222 0.0000 0.0000 1812.8647 -7550.3693 304.0917 -9363.2340 -7631.8452 298.9300 -393.5776 -313.2575 31337.1496 -160.3421 -74.1525
TCL: Running FEP window  11: Lambda1 0.4999999999999996 Lambda2 0.4499999999999996 [dLambda -0.04999999999999999]
TCL: Setting parameter firsttimestep to 0
TCL: Setting parameter alchLambda to 0.4999999999999996
Info: NONBONDED TABLE R-SQUARED SPACING: 0.0625
Info: NONBONDED TABLE SIZE: 705 POINTS
TCL: Setting parameter alchLambda2 to 0.4499999999999996
Info: NONBONDED TABLE R-SQUARED SPACING: 0.0625
Info: NONBONDED TABLE SIZE: 705 POINTS
TCL: Running for 1500000 steps
ETITLE: TS BOND ANGLE DIHED IMPRP ELECT VDW BOUNDARY MISC KINETIC TOTAL TEMP POTENTIAL TOTALAVG TEMPAVG PRESSURE GPRESSURE VOLUME PRESSAVG GPRESSAVG
ENERGY: 0 1.5686 0.2018 1.0414 0.0000 -10785.5455 1419.9715 0.0000 0.0000 1812.0045 -7550.7577 303.9474 -9362.7622 -7550.7577 303.9474 -377.3706 -312.6986 31337.1496 -377.3706 -312.6986
ENERGY: 300000 0.6068 0.4627 0.4742 0.0000 -11023.1902 1607.3051 0.0000 0.0000 1762.9575 -7651.3840 295.7202 -9414.3415 -7622.4160 300.6663 918.7689 966.6334 31128.4288 151.9998 206.0721
ENERGY: 600000 1.2130 1.8394 1.0101 0.0000 -10981.4840 1490.9717 0.0000 0.0000 1788.1912 -7698.2587 299.9529 -9486.4498 -7652.0057 299.0346 -80.7935 27.0523 31013.4507 161.2997 213.7247
ENERGY: 900000 2.8875 0.1130 0.9707 0.0000 -10795.0338 1365.6383 0.0000 0.0000 1781.6456 -7643.7787 298.8549 -9425.4243 -7639.7487 299.7579 -870.0722 -773.6625 30921.6118 42.6373 97.9790
ENERGY: 1200000 1.6425 0.6897 0.1342 0.0000 -10659.6831 1328.7868 0.0000 0.0000 1782.4399 -7545.9901 298.9882 -9328.4299 -7632.3496 300.0788 -1035.1332 -964.1559 31466.5943 -50.6259 5.8699
ENERGY: 1500000 1.0674 0.6298 1.4085 0.0000 -11054.9817 1569.8089 0.0000 0.0000 1768.0722 -7713.9949 296.5781 -9482.0671 -7624.3770 301.2324 1039.6376 1100.9703 30073.4679 22.9451 80.3855
TCL: Running FEP window  12: Lambda1 0.4499999999999996 Lambda2 0.39999999999999963 [dLambda -0.04999999999999999]
TCL: Setting parameter firsttimestep to 0
TCL: Setting parameter alchLambda to 0.4499999999999996
Info: NONBONDED TABLE R-SQUARED SPACING: 0.0625
Info: NONBONDED TABLE SIZE: 705 POINTS
TCL: Setting parameter alchLambda2 to 0.39999999999999963
Info: NONBONDED TABLE R-SQUARED SPACING: 0.0625
Info: NONBONDED TABLE SIZE: 705 POINTS
TCL: Running for 1500000 steps
ETITLE: TS BOND ANGLE DIHED IMPRP ELECT VDW BOUNDARY MISC KINETIC TOTAL TEMP POTENTIAL TOTALAVG TEMPAVG PRESSURE GPRESSURE VOLUME PRESSAVG GPRESSAVG
ENERGY: 0 1.0674 0.6298 1.4085 0.0000 -11054.9821 1570.3565 0.0000 0.0000 1767.1815 -7714.3384 296.4287 -9481.5199 -7714.3384 296.4287 1025.8584 1104.0261 30073.4679 1025.8584 1104.0261
ENERGY: 300000 0.6428 0.5420 0.4388 0.0000 -11000.8402 1540.3022 0.0000 0.0000 1763.9667 -7694.9478 295.8895 -9458.9145 -7689.4173 296.9951 365.4284 465.5884 31016.0066 301.2701 386.8936
ENERGY: 600000 0.4897 1.8063 0.2500 0.0000 -10761.3499 1386.2818 0.0000 0.0000 1721.3356 -7651.1865 288.7385 -9372.5221 -7660.9341 299.0626 -268.0645 -226.4871 30556.3003 217.5850 302.1223
ENERGY: 900000 1.0229 1.0730 0.7640 0.0000 -10863.0388 1438.0920 0.0000 0.0000 1784.3561 -7637.7307 299.3096 -9422.0868 -7647.2612 299.2553 -216.3910 -99.8666 30665.6649 170.5291 258.4481
ENERGY: 1200000 0.5715 0.9062 2.3446 0.0000 -10837.9936 1439.9887 0.0000 0.0000 1770.7257 -7623.4569 297.0232 -9394.1826 -7633.3873 299.4883 -431.1086 -329.5807 31473.2127 93.4355 180.1369
ENERGY: 1500000 7.1698 1.3121 0.3319 0.0000 -10729.0231 1433.8578 0.0000 0.0000 1744.2480 -7542.1035 292.5818 -9286.3515 -7622.4339 299.4695 -127.6622 -28.9090 31066.0851 40.8461 124.9330
TCL: Running FEP window  13: Lambda1 0.39999999999999963 Lambda2 0.34999999999999964 [dLambda -0.04999999999999999]
TCL: Setting parameter firsttimestep to 0
TCL: Setting parameter alchLambda to 0.39999999999999963
Info: NONBONDED TABLE R-SQUARED SPACING: 0.0625
Info: NONBONDED TABLE SIZE: 705 POINTS
TCL: Setting parameter alchLambda2 to 0.34999999999999964
Info: NONBONDED TABLE R-SQUARED SPACING: 0.0625
Info: NONBONDED TABLE SIZE: 705 POINTS
TCL: Running for 1500000 steps
ETITLE: TS BOND ANGLE DIHED IMPRP ELECT VDW BOUNDARY MISC KINETIC TOTAL TEMP POTENTIAL TOTALAVG TEMPAVG PRESSURE GPRESSURE VOLUME PRESSAVG GPRESSAVG
ENERGY: 0 7.1698 1.3121 0.3319 0.0000 -10729.0241 1434.3381 0.0000 0.0000 1743.3235 -7542.5488 292.4268 -9285.8723 -7542.5488 292.4268 -125.2655 -28.1469 31066.0851 -125.2655 -28.1469
ENERGY: 300000 1.1726 0.9745 0.5497 0.0000 -10918.6972 1484.8842 0.0000 0.0000 1783.4207 -7647.6956 299.1527 -9431.1162 -7595.2588 298.9966 248.3461 351.8675 30775.0148 -148.5506 -38.3437
ENERGY: 600000 1.6159 0.7574 0.3642 0.0000 -10797.8826 1394.3702 0.0000 0.0000 1757.9791 -7642.7960 294.8851 -9400.7750 -7617.6924 297.9761 -355.4851 -256.3792 30548.6871 -303.3211 -208.6057
ENERGY: 900000 2.2434 2.7476 1.0561 0.0000 -10904.6373 1450.0154 0.0000 0.0000 1844.1086 -7604.4663 309.3326 -9448.5749 -7620.5268 298.6310 -301.7993 -175.2662 31059.0251 -422.8423 -336.7991
ENERGY: 1200000 1.5762 1.1688 0.3842 0.0000 -10968.1674 1549.9903 0.0000 0.0000 1787.6691 -7627.3788 299.8653 -9415.0479 -7615.0794 299.9967 1006.9012 1095.8110 30137.4190 -234.5515 -152.8821
ENERGY: 1500000 2.1794 2.1740 1.6084 0.0000 -10878.2671 1447.5300 0.0000 0.0000 1789.8568 -7634.9185 300.2323 -9424.7753 -7618.1152 300.6044 -176.4494 -196.0328 30895.4153 -228.2236 -154.0062
TCL: Running FEP window  14: Lambda1 0.34999999999999964 Lambda2 0.29999999999999966 [dLambda -0.04999999999999999]
TCL: Setting parameter firsttimestep to 0
TCL: Setting parameter alchLambda to 0.34999999999999964
Info: NONBONDED TABLE R-SQUARED SPACING: 0.0625
Info: NONBONDED TABLE SIZE: 705 POINTS
TCL: Setting parameter alchLambda2 to 0.29999999999999966
Info: NONBONDED TABLE R-SQUARED SPACING: 0.0625
Info: NONBONDED TABLE SIZE: 705 POINTS
TCL: Running for 1500000 steps
ETITLE: TS BOND ANGLE DIHED IMPRP ELECT VDW BOUNDARY MISC KINETIC TOTAL TEMP POTENTIAL TOTALAVG TEMPAVG PRESSURE GPRESSURE VOLUME PRESSAVG GPRESSAVG
ENERGY: 0 2.1794 2.1740 1.6083 0.0000 -10878.2652 1447.6990 0.0000 0.0000 1788.9487 -7635.6557 300.0800 -9424.6044 -7635.6557 300.0800 -274.6492 -197.0983 30895.4153 -274.6492 -197.0983
ENERGY: 300000 2.1067 1.2250 1.5377 0.0000 -10792.9096 1316.2238 0.0000 0.0000 1764.1993 -7707.6171 295.9285 -9471.8164 -7689.4250 298.6515 -1462.2468 -1375.5297 31035.7956 -489.9854 -414.8227
ENERGY: 600000 1.7694 1.6513 0.0511 0.0000 -10947.5269 1483.0232 0.0000 0.0000 1806.3472 -7654.6847 302.9984 -9461.0319 -7669.0610 299.2321 -149.8806 -94.7362 30808.5358 -68.5587 1.5477
ENERGY: 900000 1.6044 0.8872 0.4031 0.0000 -10777.2108 1393.2413 0.0000 0.0000 1822.4395 -7558.6354 305.6978 -9381.0749 -7647.5891 299.9477 -341.5430 -205.6725 30517.9498 -64.7726 16.2451
ENERGY: 1200000 1.8266 2.6254 0.8021 0.0000 -10820.1321 1442.1278 0.0000 0.0000 1743.8802 -7628.8699 292.5201 -9372.7501 -7645.5566 298.6785 -40.7619 -1.1642 30693.6093 -117.8516 -37.4056
ENERGY: 1500000 1.3874 1.1605 0.8398 0.0000 -10887.6705 1441.2890 0.0000 0.0000 1769.9977 -7672.9961 296.9011 -9442.9938 -7641.2274 298.9557 -164.1482 -85.0128 30507.4823 -105.5088 -26.0456
TCL: Running FEP window  15: Lambda1 0.29999999999999966 Lambda2 0.24999999999999967 [dLambda -0.04999999999999999]
TCL: Setting parameter firsttimestep to 0
TCL: Setting parameter alchLambda to 0.29999999999999966
Info: NONBONDED TABLE R-SQUARED SPACING: 0.0625
Info: NONBONDED TABLE SIZE: 705 POINTS
TCL: Setting parameter alchLambda2 to 0.24999999999999967
Info: NONBONDED TABLE R-SQUARED SPACING: 0.0625
Info: NONBONDED TABLE SIZE: 705 POINTS
TCL: Running for 1500000 steps
ETITLE: TS BOND ANGLE DIHED IMPRP ELECT VDW BOUNDARY MISC KINETIC TOTAL TEMP POTENTIAL TOTALAVG TEMPAVG PRESSURE GPRESSURE VOLUME PRESSAVG GPRESSAVG
ENERGY: 0 1.3874 1.1605 0.8398 0.0000 -10887.6717 1441.0590 0.0000 0.0000 1769.1366 -7674.0883 296.7567 -9443.2249 -7674.0883 296.7567 -171.5309 -89.8056 30507.4823 -171.5309 -89.8056
ENERGY: 300000 0.8103 1.3823 1.1369 0.0000 -10793.3408 1413.1085 0.0000 0.0000 1762.7031 -7614.1997 295.6775 -9376.9028 -7618.8848 295.2568 -362.1557 -284.0594 30905.9398 -334.5305 -279.4633
ENERGY: 600000 1.0575 0.5341 1.4823 0.0000 -10807.3523 1430.2648 0.0000 0.0000 1742.9401 -7631.0735 292.3624 -9374.0136 -7618.7310 296.8229 52.5876 61.8769 30374.2367 -348.8255 -293.6974
ENERGY: 900000 1.5867 1.0436 1.7202 0.0000 -10886.0599 1482.8909 0.0000 0.0000 1772.2399 -7626.5786 297.2772 -9398.8184 -7619.1555 297.7124 484.0538 542.6584 30442.4883 -189.1160 -132.0867
ENERGY: 1200000 1.1140 1.3793 0.6322 0.0000 -10870.5997 1499.2637 0.0000 0.0000 1792.1373 -7576.0732 300.6148 -9368.2105 -7619.9187 297.9455 387.4284 439.1356 30909.9501 -151.1731 -88.6815
ENERGY: 1500000 1.4619 0.7943 0.9891 0.0000 -10857.5089 1419.4330 0.0000 0.0000 1735.0093 -7699.8212 291.0321 -9434.8305 -7626.1406 298.1169 -404.5568 -323.0192 30765.7848 -148.6259 -82.6503
TCL: Running FEP window  16: Lambda1 0.24999999999999967 Lambda2 0.19999999999999968 [dLambda -0.04999999999999999]
TCL: Setting parameter firsttimestep to 0
TCL: Setting parameter alchLambda to 0.24999999999999967
Info: NONBONDED TABLE R-SQUARED SPACING: 0.0625
Info: NONBONDED TABLE SIZE: 705 POINTS
TCL: Setting parameter alchLambda2 to 0.19999999999999968
Info: NONBONDED TABLE R-SQUARED SPACING: 0.0625
Info: NONBONDED TABLE SIZE: 705 POINTS
TCL: Running for 1500000 steps
ETITLE: TS BOND ANGLE DIHED IMPRP ELECT VDW BOUNDARY MISC KINETIC TOTAL TEMP POTENTIAL TOTALAVG TEMPAVG PRESSURE GPRESSURE VOLUME PRESSAVG GPRESSAVG
ENERGY: 0 1.4619 0.7943 0.9891 0.0000 -10857.5103 1418.9250 0.0000 0.0000 1734.0866 -7701.2533 290.8774 -9435.3399 -7701.2533 290.8774 -415.6986 -329.9011 30765.7848 -415.6986 -329.9011
ENERGY: 300000 0.8064 0.5908 0.7397 0.0000 -10954.2753 1473.1407 0.0000 0.0000 1768.1467 -7710.8511 296.5906 -9478.9977 -7669.8948 297.0509 -44.1484 -93.9243 30624.9659 352.1405 397.6096
ENERGY: 600000 1.0523 2.2909 1.5256 0.0000 -10867.5954 1468.4311 0.0000 0.0000 1768.0442 -7626.2514 296.5734 -9394.2956 -7675.6640 296.1691 7.4862 86.7816 30886.1891 278.8416 325.8514
ENERGY: 900000 1.1955 0.3431 1.1499 0.0000 -10833.8262 1484.1149 0.0000 0.0000 1742.1149 -7604.9079 292.2240 -9347.0228 -7654.1259 296.6402 429.5687 471.7154 30770.0956 295.1819 345.2259
ENERGY: 1200000 2.0811 0.6941 1.2423 0.0000 -10724.3956 1336.2313 0.0000 0.0000 1771.1579 -7612.9889 297.0957 -9384.1467 -7648.5581 297.0449 -1066.1489 -964.1339 31053.6315 74.4701 127.9039
ENERGY: 1500000 0.9156 0.5739 1.6288 0.0000 -10865.3810 1458.6755 0.0000 0.0000 1772.0423 -7631.5448 297.2441 -9403.5871 -7638.9733 298.3541 -132.9637 -88.4863 31093.4212 42.3921 96.5385
TCL: Running FEP window  17: Lambda1 0.19999999999999968 Lambda2 0.1499999999999997 [dLambda -0.04999999999999999]
TCL: Setting parameter firsttimestep to 0
TCL: Setting parameter alchLambda to 0.19999999999999968
Info: NONBONDED TABLE R-SQUARED SPACING: 0.0625
Info: NONBONDED TABLE SIZE: 705 POINTS
TCL: Setting parameter alchLambda2 to 0.1499999999999997
Info: NONBONDED TABLE R-SQUARED SPACING: 0.0625
Info: NONBONDED TABLE SIZE: 705 POINTS
TCL: Running for 1500000 steps
ETITLE: TS BOND ANGLE DIHED IMPRP ELECT VDW BOUNDARY MISC KINETIC TOTAL TEMP POTENTIAL TOTALAVG TEMPAVG PRESSURE GPRESSURE VOLUME PRESSAVG GPRESSAVG
ENERGY: 0 0.9156 0.5739 1.6288 0.0000 -10865.3812 1458.6065 0.0000 0.0000 1771.1519 -7632.5045 297.0947 -9403.6564 -7632.5045 297.0947 -168.8877 -92.1956 31093.4212 -168.8877 -92.1956
ENERGY: 300000 1.0756 0.3256 0.5797 0.0000 -10871.7870 1408.4115 0.0000 0.0000 1763.3527 -7698.0419 295.7865 -9461.3946 -7657.0254 299.2087 -773.4826 -735.2331 31093.1924 -374.4667 -322.4841
ENERGY: 600000 1.2799 0.6683 0.9785 0.0000 -10877.6161 1452.9752 0.0000 0.0000 1828.5610 -7593.1533 306.7246 -9421.7142 -7607.3172 301.8751 -49.9363 75.0391 30539.3194 -301.8647 -255.1697
ENERGY: 900000 1.9605 0.3189 1.1317 0.0000 -10829.7284 1411.8975 0.0000 0.0000 1826.0557 -7588.3640 306.3043 -9414.4198 -7613.4079 302.3567 -417.3034 -353.4965 30789.5979 -259.9982 -215.8268
ENERGY: 1200000 1.5020 0.4015 0.9470 0.0000 -10910.1899 1485.1769 0.0000 0.0000 1830.5615 -7591.6010 307.0601 -9422.1625 -7608.2533 303.3349 59.6190 152.6401 31160.1088 -208.0122 -156.5996
ENERGY: 1500000 1.0276 0.6167 0.4137 0.0000 -10938.2097 1528.2109 0.0000 0.0000 1725.7219 -7682.2190 289.4743 -9407.9409 -7615.7222 302.6998 463.9399 550.2254 30548.4076 -94.7518 -38.1367
TCL: Running FEP window  18: Lambda1 0.1499999999999997 Lambda2 0.09999999999999969 [dLambda -0.05 ]
TCL: Setting parameter firsttimestep to 0
TCL: Setting parameter alchLambda to 0.1499999999999997
Info: NONBONDED TABLE R-SQUARED SPACING: 0.0625
Info: NONBONDED TABLE SIZE: 705 POINTS
TCL: Setting parameter alchLambda2 to 0.09999999999999969
Info: NONBONDED TABLE R-SQUARED SPACING: 0.0625
Info: NONBONDED TABLE SIZE: 705 POINTS
TCL: Running for 1500000 steps
ETITLE: TS BOND ANGLE DIHED IMPRP ELECT VDW BOUNDARY MISC KINETIC TOTAL TEMP POTENTIAL TOTALAVG TEMPAVG PRESSURE GPRESSURE VOLUME PRESSAVG GPRESSAVG
ENERGY: 0 1.0276 0.6167 0.4137 0.0000 -10938.2098 1527.6445 0.0000 0.0000 1724.8250 -7683.6823 289.3238 -9408.5073 -7683.6823 289.3238 474.5600 543.9182 30548.4076 474.5600 543.9182
ENERGY: 300000 2.3189 0.6512 2.4995 0.0000 -10958.1592 1507.2686 0.0000 0.0000 1751.4031 -7694.0178 293.7820 -9445.4209 -7702.7638 290.8546 254.4022 359.0803 30866.2157 234.8767 296.5855
ENERGY: 600000 0.6997 0.9391 0.6151 0.0000 -11063.6194 1528.3262 0.0000 0.0000 1787.6580 -7745.3814 299.8635 -9533.0393 -7673.9446 294.9412 308.8074 289.9709 30566.1933 175.5132 228.9725
ENERGY: 900000 1.3454 0.5944 1.8380 0.0000 -10765.2110 1456.3467 0.0000 0.0000 1767.4521 -7537.6344 296.4741 -9305.0865 -7654.8035 296.0953 -92.5425 -63.7303 31314.2865 133.1834 187.9114
ENERGY: 1200000 0.2735 1.0176 0.9233 0.0000 -11073.1981 1608.2550 0.0000 0.0000 1814.5207 -7648.2080 304.3694 -9462.7287 -7642.2645 298.4934 1344.1949 1395.1212 30289.6419 247.1685 298.7582
ENERGY: 1500000 0.1810 1.4456 0.4248 0.0000 -11013.0091 1558.1126 0.0000 0.0000 1797.9641 -7654.8810 301.5922 -9452.8451 -7641.5956 299.0583 793.0388 912.7033 30201.7958 270.6160 334.6027
TCL: Running FEP window  19: Lambda1 0.09999999999999969 Lambda2 0.049999999999999684 [dLambda -0.05 ]
TCL: Setting parameter firsttimestep to 0
TCL: Setting parameter alchLambda to 0.09999999999999969
Info: NONBONDED TABLE R-SQUARED SPACING: 0.0625
Info: NONBONDED TABLE SIZE: 705 POINTS
TCL: Setting parameter alchLambda2 to 0.049999999999999684
Info: NONBONDED TABLE R-SQUARED SPACING: 0.0625
Info: NONBONDED TABLE SIZE: 705 POINTS
TCL: Running for 1500000 steps
ETITLE: TS BOND ANGLE DIHED IMPRP ELECT VDW BOUNDARY MISC KINETIC TOTAL TEMP POTENTIAL TOTALAVG TEMPAVG PRESSURE GPRESSURE VOLUME PRESSAVG GPRESSAVG
ENERGY: 0 0.1810 1.4456 0.4248 0.0000 -11013.0080 1558.0553 0.0000 0.0000 1797.0818 -7655.8194 301.4442 -9452.9012 -7655.8194 301.4442 841.9173 911.2692 30201.7958 841.9173 911.2692
ENERGY: 300000 1.1453 3.8717 0.9577 0.0000 -10939.6285 1495.1569 0.0000 0.0000 1825.8165 -7612.6804 306.2642 -9438.4968 -7668.2608 301.0725 -43.9577 -7.4225 31133.0140 194.8321 245.6670
ENERGY: 600000 1.0362 0.5790 0.6101 0.0000 -10782.4269 1411.4155 0.0000 0.0000 1765.2333 -7603.5528 296.1019 -9368.7861 -7665.5744 298.8302 -513.9142 -435.2439 31287.4265 -86.5655 -22.7149
ENERGY: 900000 0.1583 0.9792 0.4829 0.0000 -10856.4460 1457.2567 0.0000 0.0000 1764.0161 -7633.5529 295.8978 -9397.5689 -7662.6832 298.1771 -115.7910 -53.5158 30953.7805 -108.6685 -42.6776
ENERGY: 1200000 0.6051 1.3490 0.2080 0.0000 -10825.2735 1400.3018 0.0000 0.0000 1787.1092 -7635.7004 299.7714 -9422.8096 -7659.3766 299.0601 -449.5981 -463.1135 31170.0681 -84.4726 -18.5623
ENERGY: 1500000 1.4921 2.3779 0.3385 0.0000 -10897.9551 1515.1018 0.0000 0.0000 1766.3144 -7612.3303 296.2833 -9378.6447 -7644.1534 299.6572 478.2914 563.7169 30607.9684 -36.7501 32.3038
TCL: Running FEP window  20: Lambda1 0.049999999999999684 Lambda2 0.0    [dLambda -0.049999999999999684]
TCL: Setting parameter firsttimestep to 0
TCL: Setting parameter alchLambda to 0.049999999999999684
Info: NONBONDED TABLE R-SQUARED SPACING: 0.0625
Info: NONBONDED TABLE SIZE: 705 POINTS
TCL: Setting parameter alchLambda2 to 0.0
Info: NONBONDED TABLE R-SQUARED SPACING: 0.0625
Info: NONBONDED TABLE SIZE: 705 POINTS
TCL: Running for 1500000 steps
ETITLE: TS BOND ANGLE DIHED IMPRP ELECT VDW BOUNDARY MISC KINETIC TOTAL TEMP POTENTIAL TOTALAVG TEMPAVG PRESSURE GPRESSURE VOLUME PRESSAVG GPRESSAVG
ENERGY: 0 1.4921 2.3779 0.3385 0.0000 -10897.9523 1514.8064 0.0000 0.0000 1765.4210 -7613.5164 296.1334 -9378.9374 -7613.5164 296.1334 485.2938 559.9648 30607.9684 485.2938 559.9648
ENERGY: 300000 1.6822 0.7480 0.1134 0.0000 -10944.1492 1539.4578 0.0000 0.0000 1758.0700 -7644.0778 294.9004 -9402.1478 -7612.1629 299.7474 459.7885 525.1917 30699.2521 218.7526 294.9820
ENERGY: 600000 0.6552 1.3785 0.8779 0.0000 -10877.8884 1462.9176 0.0000 0.0000 1834.0663 -7577.9929 307.6481 -9412.0592 -7619.5266 301.4455 -63.2848 -48.8525 31124.1751 46.0091 107.3806
ENERGY: 900000 1.4762 0.9768 1.7771 0.0000 -10988.5500 1516.2567 0.0000 0.0000 1803.1472 -7664.9159 302.4617 -9468.0632 -7629.3437 300.4918 82.3179 202.2449 30795.7427 28.9623 95.9343
ENERGY: 1200000 0.8828 0.3363 2.5648 0.0000 -10888.5888 1450.2432 0.0000 0.0000 1770.3488 -7664.2130 296.9600 -9434.5617 -7623.0891 300.2501 9.7121 62.3379 30424.4387 24.2149 91.5309
ENERGY: 1500000 1.3605 3.0054 2.3695 0.0000 -10863.7717 1449.5897 0.0000 0.0000 1789.3738 -7618.0728 300.1513 -9407.4466 -7629.9824 299.8045 -215.2932 -100.3712 30921.1755 1.8076 71.4658
TCL: Exiting due to exit command.
