Info: SIMULATION PARAMETERS:
Info: TIMESTEP               2
Info: NUMBER OF STEPS        0
Info: STEPS PER CYCLE        10
Info: PERIODIC CELL BASIS 1  31.0427 0 0
Info: PERIODIC CELL BASIS 2  0 31.2706 0
Info: PERIODIC CELL BASIS 3  0 0 31.6749
Info: PERIODIC CELL CENTER   0 0 0
Info: WRAPPING WATERS AROUND PERIODIC BOUNDARIES ON OUTPUT.
Info: WRAPPING ALL CLUSTERS AROUND PERIODIC BOUNDARIES ON OUTPUT.
Info: FIRST LDB TIMESTEP     50
Info: LAST LDB TIMESTEP     -1
Info: HOM BACKGROUND SCALING 1
Info: PME BACKGROUND SCALING 1
Info: MIN ATOMS PER PATCH    40
Info: EMPTY PATCH LOAD       40 ATOMS
Info: VELOCITY FILE          mobley_1708457_equil.vel
Info: CENTER OF MASS MOVING INITIALLY? NO
Info: DIELECTRIC             1
Info: EXCLUDE                SCALED ONE-FOUR
Info: 1-4 ELECTROSTATICS SCALED BY 0.833333
Info: MODIFIED 1-4 VDW PARAMETERS WILL BE USED
Info: DCD FILENAME           mobley_1708457_prod.dcd
Info: DCD FREQUENCY          100000
Info: DCD FIRST STEP         100000
Info: DCD FILE WILL CONTAIN UNIT CELL DATA
Info: XST FILENAME           mobley_1708457_prod.xst
Info: XST FREQUENCY          100000
Info: NO VELOCITY DCD OUTPUT
Info: NO FORCE DCD OUTPUT
Info: OUTPUT FILENAME        mobley_1708457_prod
Info: BINARY OUTPUT FILES WILL BE USED
Info: RESTART FILENAME       mobley_1708457_prod.restart
Info: RESTART FREQUENCY      100000
Info: BINARY RESTART FILES WILL BE USED
Info: CUTOFF                 9
Info: PAIRLIST DISTANCE      11
Info: PAIRLIST SHRINK RATE   0.01
Info: PAIRLIST GROW RATE     0.01
Info: PAIRLIST TRIGGER       0.3
Info: PAIRLISTS PER CYCLE    2
Info: PAIRLISTS ENABLED
Info: MARGIN                 2
Info: HYDROGEN GROUP CUTOFF  2.5
Info: PATCH DIMENSION        15.5
Info: ENERGY OUTPUT STEPS    100000
Info: ENERGY EVALUATION STEPS    100000
Info: OUTPUT ENERGY PRECISION 4
Info: CROSSTERM ENERGY INCLUDED IN DIHEDRAL
Info: TIMING OUTPUT STEPS    1000000
Info: PRESSURE OUTPUT STEPS  100000
Info: ALCHEMICAL FEP ON
Info: FEP CURRENT LAMBDA VALUE     1
Info: FEP COMPARISON LAMBDA VALUE  0.95
Info: FEP INTRA-ALCHEMICAL NON-BONDED INTERACTIONS WILL BE RETAINED
Info: FEP INTRA-ALCHEMICAL BONDED INTERACTIONS WILL BE RETAINED
Info: FEP VDW SHIFTING COEFFICIENT 5
Info: FEP ELEC. ACTIVE FOR ANNIHILATED PARTICLES BETWEEN LAMBDA = 0 AND LAMBDA = 0.5
Info: FEP ELEC. ACTIVE FOR EXNIHILATED PARTICLES BETWEEN LAMBDA = 0.5 AND LAMBDA = 1
Info: FEP VDW ACTIVE FOR ANNIHILATED PARTICLES BETWEEN LAMBDA = 0 AND LAMBDA = 1
Info: FEP VDW ACTIVE FOR EXNIHILATED PARTICLES BETWEEN LAMBDA = 0 AND LAMBDA = 1
Info: FEP BOND ACTIVE FOR ANNIHILATED PARTICLES BETWEEN LAMBDA = 1 AND LAMBDA = 1
Info: FEP BOND ACTIVE FOR EXNIHILATED PARTICLES BETWEEN LAMBDA = 0 AND LAMBDA = 0
Info: LANGEVIN DYNAMICS ACTIVE
Info: LANGEVIN TEMPERATURE   300
Info: LANGEVIN USING BBK INTEGRATOR
Info: LANGEVIN DAMPING COEFFICIENT IS 1 INVERSE PS
Info: LANGEVIN DYNAMICS APPLIED TO HYDROGENS
Info: LANGEVIN PISTON PRESSURE CONTROL ACTIVE
Info:        TARGET PRESSURE IS 1.01325 BAR
Info:     OSCILLATION PERIOD IS 50 FS
Info:             DECAY TIME IS 25 FS
Info:     PISTON TEMPERATURE IS 300 K
Info:       PRESSURE CONTROL IS GROUP-BASED
Info:    INITIAL STRAIN RATE IS -0.000172367 -0.000172367 -0.000172367
Info:       CELL FLUCTUATION IS ISOTROPIC
Info: PARTICLE MESH EWALD (PME) ACTIVE
Info: PME TOLERANCE               1e-06
Info: PME EWALD COEFFICIENT       0.348832
Info: PME INTERPOLATION ORDER     4
Info: PME GRID DIMENSIONS         32 32 32
Info: PME MAXIMUM GRID SPACING    1
Info: PME CALCULATION WILL BE PERFORMED ON GPU
Info: FULL ELECTROSTATIC EVALUATION FREQUENCY      2
Info: USING VERLET I (r-RESPA) MTS SCHEME.
Info: C1 SPLITTING OF LONG RANGE ELECTROSTATICS
Info: PLACING ATOMS IN PATCHES BY HYDROGEN GROUPS
Info: RIGID BONDS TO HYDROGEN : ALL
Info:         ERROR TOLERANCE : 1e-08
Info:          MAX ITERATIONS : 100
Info: RIGID WATER USING SETTLE ALGORITHM
Info: RANDOM NUMBER SEED     1743525179
Info: USE HYDROGEN BONDS?    NO
Info: Using AMBER format force field!
Info: AMBER PARM FILE        mobley_1708457.prmtop
Info: COORDINATE PDB         mobley_1708457.pdb
Info: Exclusions will be read from PARM file!
Info: SCNB (VDW SCALING)     2
Info: USING ARITHMETIC MEAN TO COMBINE L-J SIGMA PARAMETERS
Info: BINARY COORDINATES     mobley_1708457_equil.coor
Info: SUMMARY OF PARAMETERS:
Info: 5 BONDS
Info: 5 ANGLES
Info:   5 HARMONIC
Info:   0 COSINE-BASED
Info: 1 DIHEDRAL
Info: 0 IMPROPER
Info: 0 CROSSTERM
Info: 0 VDW
Info: 21 VDW_PAIRS
Info: 0 NBTHOLE_PAIRS
Info: To read alchdata from file: mobley_1708457.pdb
Info: To read alchflag data from column: 5
Info: STRUCTURE SUMMARY:
Info: 2981 ATOMS
Info: 2980 BONDS
Info: 18 ANGLES
Info: 18 DIHEDRALS
Info: 0 IMPROPERS
Info: 0 CROSSTERMS
Info: 3016 EXCLUSIONS
Info: 2976 RIGID BONDS
Info: ALCH: 0 ATOMS TO DISAPPEAR IN FINAL STATE
Info: ALCH: 11 ATOMS TO APPEAR IN FINAL STATE
Info: 5967 DEGREES OF FREEDOM
Info: 995 HYDROGEN GROUPS
Info: 4 ATOMS IN LARGEST HYDROGEN GROUP
Info: 995 MIGRATION GROUPS
Info: 4 ATOMS IN LARGEST MIGRATION GROUP
Info: TOTAL MASS = 17930 amu
Info: TOTAL CHARGE = -0.000100002 e
Info: MASS DENSITY = 0.968336 g/cm^3
Info: ATOM DENSITY = 0.0969504 atoms/A^3
Info: ADDED 0 IMPLICIT EXCLUSIONS
Info: NONBONDED TABLE R-SQUARED SPACING: 0.0625
Info: NONBONDED TABLE SIZE: 705 POINTS
Info: REDUCING NUMBER OF PATCHES TO IMPROVE LOAD BALANCE
Info: REMOVING COM VELOCITY 0.104665 0.0822888 0.162763
Info: Use 3D box decompostion in PME FFT.
Info: Updated CUDA force table with 4096 elements.
Info: Updated CUDA LJ table with 6 x 6 elements.
Info: Found 14 unique exclusion lists needing 24 bytes
TCL: Running for 1500000 steps
ETITLE: TS BOND ANGLE DIHED IMPRP ELECT VDW BOUNDARY MISC KINETIC TOTAL TEMP POTENTIAL TOTALAVG TEMPAVG PRESSURE GPRESSURE VOLUME PRESSAVG GPRESSAVG
ENERGY: 0 1.6595 5.8779 0.5269 0.0000 -10924.7253 1433.2614 0.0000 0.0000 1735.2962 -7748.1034 292.6901 -9483.3996 -7748.1034 292.6901 -243.0498 -163.8437 30747.6900 -243.0498 -163.8437
ENERGY: 300000 0.6695 5.1565 1.2098 0.0000 -10927.6332 1452.1739 0.0000 0.0000 1792.7725 -7675.6510 302.3845 -9468.4235 -7686.8717 298.6478 -44.4513 -17.4425 30808.7747 138.7644 206.9740
ENERGY: 600000 4.3808 5.6878 2.6223 0.0000 -11008.2007 1516.1534 0.0000 0.0000 1708.1477 -7771.2087 288.1110 -9479.3565 -7683.1952 298.0838 335.0483 443.4612 30667.3386 122.4915 205.1085
ENERGY: 900000 2.7523 5.5572 0.7234 0.0000 -10948.9131 1452.9833 0.0000 0.0000 1771.0699 -7715.8271 298.7239 -9486.8969 -7681.4090 299.1925 149.7262 183.1300 30222.8936 26.1987 97.5691
ENERGY: 1200000 1.6547 4.9112 0.1076 0.0000 -10871.6716 1395.5316 0.0000 0.0000 1772.3014 -7697.1652 298.9317 -9469.4666 -7682.3633 299.0186 -437.6254 -394.6780 30956.6994 -104.3926 -31.0014
ENERGY: 1500000 1.8551 7.1769 0.4775 0.0000 -11012.4311 1456.3997 0.0000 0.0000 1759.6178 -7786.9041 296.7923 -9546.5219 -7681.1317 298.9026 16.6638 56.3919 30239.5201 -104.4364 -36.3800
TCL: Running FEP window   2: Lambda1 0.95   Lambda2 0.8999999999999999 [dLambda -0.050000000000000044]
TCL: Setting parameter firsttimestep to 0
TCL: Setting parameter alchLambda to 0.95
Info: NONBONDED TABLE R-SQUARED SPACING: 0.0625
Info: NONBONDED TABLE SIZE: 705 POINTS
TCL: Setting parameter alchLambda2 to 0.8999999999999999
Info: NONBONDED TABLE R-SQUARED SPACING: 0.0625
Info: NONBONDED TABLE SIZE: 705 POINTS
TCL: Running for 1500000 steps
ETITLE: TS BOND ANGLE DIHED IMPRP ELECT VDW BOUNDARY MISC KINETIC TOTAL TEMP POTENTIAL TOTALAVG TEMPAVG PRESSURE GPRESSURE VOLUME PRESSAVG GPRESSAVG
ENERGY: 0 1.8551 7.1769 0.4775 0.0000 -11008.9746 1455.6877 0.0000 0.0000 1758.7224 -7785.0550 296.6413 -9543.7773 -7785.0550 296.6413 -30.1102 43.0052 30239.5201 -30.1102 43.0052
ENERGY: 300000 1.6769 3.6110 0.5903 0.0000 -10909.9348 1494.0755 0.0000 0.0000 1749.1879 -7660.7932 295.0331 -9409.9811 -7708.3829 297.0988 555.5244 603.8960 30275.9270 345.3229 406.6105
ENERGY: 600000 0.6463 5.0626 0.8993 0.0000 -10817.4899 1399.0538 0.0000 0.0000 1800.5840 -7611.2439 303.7021 -9411.8279 -7698.4964 299.1320 -186.6876 -88.7078 30430.5188 272.8818 337.1575
ENERGY: 900000 0.7634 6.2748 0.0585 0.0000 -11026.6858 1526.6914 0.0000 0.0000 1785.2902 -7707.6075 301.1225 -9492.8977 -7676.2774 302.1916 825.2558 810.5685 30239.5972 184.7298 250.5110
ENERGY: 1200000 0.2880 3.3375 0.1383 0.0000 -10896.6374 1416.3893 0.0000 0.0000 1800.8363 -7675.6481 303.7446 -9476.4844 -7672.5176 302.2035 -398.7671 -308.0351 30823.7115 26.9920 92.3459
ENERGY: 1500000 1.0589 3.1820 1.3743 0.0000 -11040.8137 1531.5413 0.0000 0.0000 1825.8132 -7677.8441 307.9574 -9503.6573 -7677.1149 301.9514 703.8397 735.0211 30353.1340 84.5943 145.6810
TCL: Running FEP window   3: Lambda1 0.8999999999999999 Lambda2 0.8499999999999999 [dLambda -0.050000000000000044]
TCL: Setting parameter firsttimestep to 0
TCL: Setting parameter alchLambda to 0.8999999999999999
Info: NONBONDED TABLE R-SQUARED SPACING: 0.0625
Info: NONBONDED TABLE SIZE: 705 POINTS
TCL: Setting parameter alchLambda2 to 0.8499999999999999
Info: NONBONDED TABLE R-SQUARED SPACING: 0.0625
Info: NONBONDED TABLE SIZE: 705 POINTS
TCL: Running for 1500000 steps
ETITLE: TS BOND ANGLE DIHED IMPRP ELECT VDW BOUNDARY MISC KINETIC TOTAL TEMP POTENTIAL TOTALAVG TEMPAVG PRESSURE GPRESSURE VOLUME PRESSAVG GPRESSAVG
ENERGY: 0 1.0589 3.1820 1.3743 0.0000 -11037.7618 1530.5632 0.0000 0.0000 1824.8954 -7676.6880 307.8026 -9501.5834 -7676.6880 307.8026 634.6999 716.9707 30353.1340 634.6999 716.9707
ENERGY: 300000 1.1702 4.5390 0.2209 0.0000 -10917.7826 1453.7588 0.0000 0.0000 1795.2197 -7662.8740 302.7973 -9458.0937 -7699.9810 300.6334 72.5622 144.8845 30658.6300 282.4806 355.4113
ENERGY: 600000 3.8593 6.6069 0.4695 0.0000 -10874.9986 1391.9073 0.0000 0.0000 1717.1017 -7755.0538 289.6212 -9472.1556 -7719.6537 297.6869 -368.7852 -353.9307 30646.7147 8.2116 53.1180
ENERGY: 900000 0.4098 10.6588 0.3866 0.0000 -10956.8643 1467.6408 0.0000 0.0000 1841.7290 -7636.0393 310.6419 -9477.7683 -7712.9387 299.3083 118.6325 179.3617 30266.4833 14.0342 71.6614
ENERGY: 1200000 1.3776 3.4323 0.3435 0.0000 -10874.6016 1415.0664 0.0000 0.0000 1811.6901 -7642.6918 305.5753 -9454.3819 -7710.3968 299.7178 -340.9909 -256.7035 31019.8760 -153.1623 -94.8216
ENERGY: 1500000 1.5877 3.9413 0.5628 0.0000 -10834.3212 1313.8792 0.0000 0.0000 1729.4070 -7784.9432 291.6967 -9514.3502 -7695.7356 299.3953 -1293.9663 -1199.6029 30513.6422 -231.4364 -166.7063
TCL: Running FEP window   4: Lambda1 0.8499999999999999 Lambda2 0.7999999999999998 [dLambda -0.050000000000000044]
TCL: Setting parameter firsttimestep to 0
TCL: Setting parameter alchLambda to 0.8499999999999999
Info: NONBONDED TABLE R-SQUARED SPACING: 0.0625
Info: NONBONDED TABLE SIZE: 705 POINTS
TCL: Setting parameter alchLambda2 to 0.7999999999999998
Info: NONBONDED TABLE R-SQUARED SPACING: 0.0625
Info: NONBONDED TABLE SIZE: 705 POINTS
TCL: Running for 1500000 steps
ETITLE: TS BOND ANGLE DIHED IMPRP ELECT VDW BOUNDARY MISC KINETIC TOTAL TEMP POTENTIAL TOTALAVG TEMPAVG PRESSURE GPRESSURE VOLUME PRESSAVG GPRESSAVG
ENERGY: 0 1.5877 3.9413 0.5628 0.0000 -10832.3172 1313.2886 0.0000 0.0000 1728.5650 -7784.3719 291.5547 -9512.9369 -7784.3719 291.5547 -1291.4504 -1210.8330 30513.6422 -1291.4504 -1210.8330
ENERGY: 300000 0.2565 7.3319 0.2788 0.0000 -11026.4959 1476.5863 0.0000 0.0000 1766.7900 -7775.2524 298.0021 -9542.0424 -7744.9070 295.5469 66.3709 145.3317 30342.2704 -50.1531 30.5939
ENERGY: 600000 0.4640 4.0692 0.3028 0.0000 -11018.0487 1485.2105 0.0000 0.0000 1804.4258 -7723.5763 304.3501 -9528.0022 -7728.0140 297.1208 219.8029 279.9859 30286.5412 -21.2074 38.3889
ENERGY: 900000 4.9029 5.7550 0.7113 0.0000 -10999.3939 1467.6616 0.0000 0.0000 1744.7175 -7775.6457 294.2791 -9520.3632 -7720.2012 297.1638 197.7101 252.8015 30318.1145 -53.5165 -2.1833
ENERGY: 1200000 2.3630 3.9860 0.2781 0.0000 -11110.1300 1563.1246 0.0000 0.0000 1765.5743 -7774.8041 297.7970 -9540.3783 -7714.0392 297.0223 834.0135 881.0021 30262.1337 28.2259 80.8707
ENERGY: 1500000 0.8270 6.3199 0.5887 0.0000 -10797.9176 1426.3628 0.0000 0.0000 1778.0191 -7585.8001 299.8961 -9363.8192 -7706.3657 298.4392 14.3679 107.8585 30870.1053 -73.6182 -13.6882
TCL: Running FEP window   5: Lambda1 0.7999999999999998 Lambda2 0.7499999999999998 [dLambda -0.050000000000000044]
TCL: Setting parameter firsttimestep to 0
TCL: Setting parameter alchLambda to 0.7999999999999998
Info: NONBONDED TABLE R-SQUARED SPACING: 0.0625
Info: NONBONDED TABLE SIZE: 705 POINTS
TCL: Setting parameter alchLambda2 to 0.7499999999999998
Info: NONBONDED TABLE R-SQUARED SPACING: 0.0625
Info: NONBONDED TABLE SIZE: 705 POINTS
TCL: Running for 1500000 steps
ETITLE: TS BOND ANGLE DIHED IMPRP ELECT VDW BOUNDARY MISC KINETIC TOTAL TEMP POTENTIAL TOTALAVG TEMPAVG PRESSURE GPRESSURE VOLUME PRESSAVG GPRESSAVG
ENERGY: 0 0.8270 6.3199 0.5887 0.0000 -10794.1057 1425.3916 0.0000 0.0000 1777.1534 -7583.8251 299.7500 -9360.9785 -7583.8251 299.7500 19.3002 96.7845 30870.1053 19.3002 96.7845
ENERGY: 300000 0.1893 6.1565 0.4348 0.0000 -10884.0229 1448.7215 0.0000 0.0000 1782.4966 -7646.0242 300.6513 -9428.5208 -7629.5110 300.6436 -39.8133 -21.9472 30803.7490 -45.6742 3.5990
ENERGY: 600000 1.1595 5.6396 1.3476 0.0000 -10878.8935 1444.6294 0.0000 0.0000 1799.0188 -7627.0987 303.4380 -9426.1174 -7664.6790 300.1749 -196.0361 -81.2839 30965.2314 -23.2761 42.0432
ENERGY: 900000 3.9389 4.6391 1.0379 0.0000 -11017.9438 1543.6493 0.0000 0.0000 1802.9755 -7661.7031 304.1054 -9464.6785 -7665.7446 300.3250 808.6211 879.8716 30421.4758 37.0768 100.6228
ENERGY: 1200000 1.4295 4.5949 0.9465 0.0000 -11013.8509 1508.7051 0.0000 0.0000 1790.9405 -7707.2345 302.0755 -9498.1750 -7673.2329 299.5221 254.7292 324.4556 30784.3816 13.0277 83.1859
ENERGY: 1500000 1.6705 10.9090 0.4418 0.0000 -10812.2859 1444.7606 0.0000 0.0000 1776.1614 -7578.3425 299.5827 -9354.5040 -7664.1769 299.3220 -117.3878 -14.8110 31069.7709 -40.9846 23.7189
TCL: Running FEP window   6: Lambda1 0.7499999999999998 Lambda2 0.6999999999999997 [dLambda -0.050000000000000044]
TCL: Setting parameter firsttimestep to 0
TCL: Setting parameter alchLambda to 0.7499999999999998
Info: NONBONDED TABLE R-SQUARED SPACING: 0.0625
Info: NONBONDED TABLE SIZE: 705 POINTS
TCL: Setting parameter alchLambda2 to 0.6999999999999997
Info: NONBONDED TABLE R-SQUARED SPACING: 0.0625
Info: NONBONDED TABLE SIZE: 705 POINTS
TCL: Running for 1500000 steps
ETITLE: TS BOND ANGLE DIHED IMPRP ELECT VDW BOUNDARY MISC KINETIC TOTAL TEMP POTENTIAL TOTALAVG TEMPAVG PRESSURE GPRESSURE VOLUME PRESSAVG GPRESSAVG
ENERGY: 0 1.6705 10.9090 0.4418 0.0000 -10811.4134 1444.5743 0.0000 0.0000 1775.2887 -7578.5291 299.4355 -9353.8178 -7578.5291 299.4355 -98.7096 -21.0446 31069.7709 -98.7096 -21.0446
ENERGY: 300000 1.9289 4.4092 0.6756 0.0000 -10978.6473 1496.4287 0.0000 0.0000 1777.1938 -7698.0112 299.7569 -9475.2050 -7686.8106 299.0868 378.9439 462.0557 30455.2782 231.4232 287.7261
ENERGY: 600000 1.5880 5.5439 0.2078 0.0000 -10849.7365 1440.0098 0.0000 0.0000 1787.2427 -7615.1444 301.4518 -9402.3871 -7702.3368 299.0642 404.0465 412.3473 30252.4739 277.7909 322.2520
ENERGY: 900000 0.5256 6.4459 0.9494 0.0000 -10868.0584 1431.5602 0.0000 0.0000 1771.6276 -7656.9498 298.8180 -9428.5773 -7690.6806 300.6946 -49.7460 -33.9852 30792.4543 257.0371 296.9759
ENERGY: 1200000 2.2567 4.4391 1.8747 0.0000 -10934.2516 1490.7862 0.0000 0.0000 1774.1424 -7660.7524 299.2422 -9434.8948 -7680.6363 300.3356 131.1725 261.9946 30917.3035 314.0202 366.6385
ENERGY: 1500000 2.4950 6.1449 0.6921 0.0000 -10878.1528 1459.9417 0.0000 0.0000 1802.0647 -7606.8144 303.9518 -9408.8791 -7680.3541 299.9662 -17.3802 8.2857 31153.5234 213.4163 265.4708
TCL: Running FEP window   7: Lambda1 0.6999999999999997 Lambda2 0.6499999999999997 [dLambda -0.050000000000000044]
TCL: Setting parameter firsttimestep to 0
TCL: Setting parameter alchLambda to 0.6999999999999997
Info: NONBONDED TABLE R-SQUARED SPACING: 0.0625
Info: NONBONDED TABLE SIZE: 705 POINTS
TCL: Setting parameter alchLambda2 to 0.6499999999999997
Info: NONBONDED TABLE R-SQUARED SPACING: 0.0625
Info: NONBONDED TABLE SIZE: 705 POINTS
TCL: Running for 1500000 steps
ETITLE: TS BOND ANGLE DIHED IMPRP ELECT VDW BOUNDARY MISC KINETIC TOTAL TEMP POTENTIAL TOTALAVG TEMPAVG PRESSURE GPRESSURE VOLUME PRESSAVG GPRESSAVG
ENERGY: 0 2.4950 6.1449 0.6921 0.0000 -10875.3747 1459.3652 0.0000 0.0000 1801.1955 -7605.4820 303.8052 -9406.6775 -7605.4820 303.8052 -81.9122 1.5508 31153.5234 -81.9122 1.5508
ENERGY: 300000 0.8064 6.7036 0.9632 0.0000 -10895.9559 1471.9186 0.0000 0.0000 1826.9153 -7588.6489 308.1433 -9415.5642 -7631.2379 303.6078 -1.5648 80.2793 31051.2236 -8.4109 61.7004
ENERGY: 600000 1.2965 8.8279 0.2855 0.0000 -10961.8691 1529.8866 0.0000 0.0000 1763.6094 -7657.9631 297.4656 -9421.5725 -7632.5300 300.9501 618.0534 649.3256 30757.1761 25.6655 98.7409
ENERGY: 900000 1.5620 8.6501 0.3580 0.0000 -10969.2731 1445.1974 0.0000 0.0000 1804.4029 -7709.1027 304.3462 -9513.5056 -7641.9808 301.1306 -237.4090 -210.5631 30778.2353 31.0664 94.1440
ENERGY: 1200000 0.9273 4.1773 0.8735 0.0000 -10862.7905 1457.0370 0.0000 0.0000 1752.1330 -7647.6424 295.5299 -9399.7754 -7656.2486 299.1953 305.7251 374.5263 30364.1072 -99.9944 -42.5602
ENERGY: 1500000 2.9823 4.0714 0.7559 0.0000 -10869.5383 1428.3232 0.0000 0.0000 1777.2532 -7656.1521 299.7669 -9433.4054 -7653.1137 299.2831 -157.2103 -139.3428 30882.6388 -57.1961 -4.2087
TCL: Running FEP window   8: Lambda1 0.6499999999999997 Lambda2 0.5999999999999996 [dLambda -0.050000000000000044]
TCL: Setting parameter firsttimestep to 0
TCL: Setting parameter alchLambda to 0.6499999999999997
Info: NONBONDED TABLE R-SQUARED SPACING: 0.0625
Info: NONBONDED TABLE SIZE: 705 POINTS
TCL: Setting parameter alchLambda2 to 0.5999999999999996
Info: NONBONDED TABLE R-SQUARED SPACING: 0.0625
Info: NONBONDED TABLE SIZE: 705 POINTS
TCL: Running for 1500000 steps
ETITLE: TS BOND ANGLE DIHED IMPRP ELECT VDW BOUNDARY MISC KINETIC TOTAL TEMP POTENTIAL TOTALAVG TEMPAVG PRESSURE GPRESSURE VOLUME PRESSAVG GPRESSAVG
ENERGY: 0 2.9823 4.0714 0.7559 0.0000 -10868.6562 1428.3038 0.0000 0.0000 1776.3410 -7656.2018 299.6130 -9432.5428 -7656.2018 299.6130 -231.5559 -145.1164 30882.6388 -231.5559 -145.1164
ENERGY: 300000 3.0897 4.4995 0.2259 0.0000 -10920.2399 1475.3109 0.0000 0.0000 1764.7790 -7672.3348 297.6629 -9437.1138 -7665.4646 300.3629 390.8683 410.4661 30396.6216 13.1788 73.6162
ENERGY: 600000 2.5656 6.8335 1.2672 0.0000 -10864.6431 1450.3278 0.0000 0.0000 1764.9880 -7638.6611 297.6981 -9403.6491 -7660.9861 298.5478 195.3996 221.6353 30620.5084 119.7798 173.7932
ENERGY: 900000 2.1530 6.8236 0.3435 0.0000 -10805.6892 1384.4323 0.0000 0.0000 1797.9048 -7614.0320 303.2502 -9411.9368 -7656.3316 299.9602 -591.4403 -504.2095 31016.7729 13.5833 70.2410
ENERGY: 1200000 3.6098 5.2629 0.5352 0.0000 -10892.7605 1447.3649 0.0000 0.0000 1755.6289 -7680.3587 296.1195 -9435.9876 -7657.9823 299.9138 27.0669 103.3868 30526.6222 -98.0214 -32.8105
ENERGY: 1500000 1.9580 6.0754 0.9293 0.0000 -11119.9142 1584.9834 0.0000 0.0000 1801.6210 -7724.3470 303.8770 -9525.9680 -7660.5419 300.2822 927.0435 954.0835 30310.8387 -59.5395 5.9288
TCL: Running FEP window   9: Lambda1 0.5999999999999996 Lambda2 0.5499999999999996 [dLambda -0.050000000000000044]
TCL: Setting parameter firsttimestep to 0
TCL: Setting parameter alchLambda to 0.5999999999999996
Info: NONBONDED TABLE R-SQUARED SPACING: 0.0625
Info: NONBONDED TABLE SIZE: 705 POINTS
TCL: Setting parameter alchLambda2 to 0.5499999999999996
Info: NONBONDED TABLE R-SQUARED SPACING: 0.0625
Info: NONBONDED TABLE SIZE: 705 POINTS
TCL: Running for 1500000 steps
ETITLE: TS BOND ANGLE DIHED IMPRP ELECT VDW BOUNDARY MISC KINETIC TOTAL TEMP POTENTIAL TOTALAVG TEMPAVG PRESSURE GPRESSURE VOLUME PRESSAVG GPRESSAVG
ENERGY: 0 1.9580 6.0754 0.9293 0.0000 -11118.8872 1585.3731 0.0000 0.0000 1800.7456 -7723.8059 303.7293 -9524.5515 -7723.8059 303.7293 874.9464 951.3154 30310.8387 874.9464 951.3154
ENERGY: 300000 0.6534 3.7038 1.2052 0.0000 -10800.1442 1360.8607 0.0000 0.0000 1729.2401 -7704.4810 291.6686 -9433.7212 -7694.8897 298.6876 -638.6976 -589.2149 30547.1838 81.9116 143.1446
ENERGY: 600000 1.8620 3.9106 0.7251 0.0000 -10839.1888 1398.0168 0.0000 0.0000 1757.6625 -7677.0119 296.4625 -9434.6743 -7707.6757 297.4935 -626.7877 -565.2047 31266.4147 -247.1597 -187.2854
ENERGY: 900000 1.0282 7.8207 0.2607 0.0000 -10998.6887 1434.7589 0.0000 0.0000 1708.8313 -7845.9889 288.2263 -9554.8202 -7707.9771 297.3100 -471.4373 -353.2144 30581.1259 -137.9234 -73.3365
ENERGY: 1200000 0.9148 2.9171 2.2134 0.0000 -10963.4881 1504.5542 0.0000 0.0000 1767.0492 -7685.8393 298.0458 -9452.8885 -7704.5747 297.5726 328.5905 380.9741 30697.9593 -72.1528 -13.4132
ENERGY: 1500000 1.7504 8.5533 0.2226 0.0000 -10838.2742 1372.7113 0.0000 0.0000 1738.5033 -7716.5332 293.2310 -9455.0366 -7702.5624 297.8373 -708.3502 -606.1840 30517.4901 -53.4359 9.8945
TCL: Running FEP window  10: Lambda1 0.5499999999999996 Lambda2 0.4999999999999996 [dLambda -0.04999999999999999]
TCL: Setting parameter firsttimestep to 0
TCL: Setting parameter alchLambda to 0.5499999999999996
Info: NONBONDED TABLE R-SQUARED SPACING: 0.0625
Info: NONBONDED TABLE SIZE: 705 POINTS
TCL: Setting parameter alchLambda2 to 0.4999999999999996
Info: NONBONDED TABLE R-SQUARED SPACING: 0.0625
Info: NONBONDED TABLE SIZE: 705 POINTS
TCL: Running for 1500000 steps
ETITLE: TS BOND ANGLE DIHED IMPRP ELECT VDW BOUNDARY MISC KINETIC TOTAL TEMP POTENTIAL TOTALAVG TEMPAVG PRESSURE GPRESSURE VOLUME PRESSAVG GPRESSAVG
ENERGY: 0 1.7504 8.5533 0.2226 0.0000 -10837.5728 1373.1940 0.0000 0.0000 1737.5961 -7716.2564 293.0780 -9453.8525 -7716.2564 293.0780 -697.5125 -606.7144 30517.4901 -697.5125 -606.7144
ENERGY: 300000 2.8032 4.1861 0.2370 0.0000 -10877.1639 1417.6306 0.0000 0.0000 1754.1981 -7698.1089 295.8782 -9452.3070 -7686.1243 299.5119 -163.8976 -201.7481 31085.6518 -76.5823 -17.1889
ENERGY: 600000 1.5701 3.4288 0.1705 0.0000 -10809.9649 1338.6180 0.0000 0.0000 1781.5129 -7684.6646 300.4854 -9466.1775 -7672.6404 300.8510 -904.1406 -800.4711 30394.7432 -190.8943 -133.7131
ENERGY: 900000 3.3385 6.7989 0.2784 0.0000 -10975.3489 1482.1775 0.0000 0.0000 1807.8837 -7674.8720 304.9333 -9482.7557 -7657.1617 302.2545 161.0734 238.4979 30468.9931 -121.4004 -62.3024
ENERGY: 1200000 1.9820 3.3180 1.2848 0.0000 -10912.1608 1490.1157 0.0000 0.0000 1798.1121 -7617.3482 303.2851 -9415.4603 -7657.7200 301.7875 607.3101 680.0346 30078.3824 -75.0801 -17.0402
ENERGY: 1500000 1.8716 4.6148 3.1216 0.0000 -11055.3071 1506.5685 0.0000 0.0000 1809.4248 -7729.7058 305.1932 -9539.1306 -7663.8439 301.7020 199.3010 267.5200 30332.9914 -103.8246 -50.9660
TCL: Running FEP window  11: Lambda1 0.4999999999999996 Lambda2 0.4499999999999996 [dLambda -0.04999999999999999]
TCL: Setting parameter firsttimestep to 0
TCL: Setting parameter alchLambda to 0.4999999999999996
Info: NONBONDED TABLE R-SQUARED SPACING: 0.0625
Info: NONBONDED TABLE SIZE: 705 POINTS
TCL: Setting parameter alchLambda2 to 0.4499999999999996
Info: NONBONDED TABLE R-SQUARED SPACING: 0.0625
Info: NONBONDED TABLE SIZE: 705 POINTS
TCL: Running for 1500000 steps
ETITLE: TS BOND ANGLE DIHED IMPRP ELECT VDW BOUNDARY MISC KINETIC TOTAL TEMP POTENTIAL TOTALAVG TEMPAVG PRESSURE GPRESSURE VOLUME PRESSAVG GPRESSAVG
ENERGY: 0 1.8716 4.6148 3.1216 0.0000 -11054.6164 1506.9607 0.0000 0.0000 1808.5530 -7729.4947 305.0462 -9538.0477 -7729.4947 305.0462 182.9003 267.7724 30332.9914 182.9003 267.7724
ENERGY: 300000 3.8568 5.0069 0.7232 0.0000 -10806.9338 1458.2746 0.0000 0.0000 1776.1038 -7562.9684 299.5730 -9339.0722 -7681.6216 297.5553 107.2047 251.7871 30597.4845 21.1697 109.5646
ENERGY: 600000 0.6566 5.1044 0.9819 0.0000 -10885.3941 1487.5736 0.0000 0.0000 1742.6204 -7648.4574 293.9254 -9391.0778 -7680.1604 297.8602 33.1034 126.3617 31087.4173 90.7214 173.8722
ENERGY: 900000 1.3906 11.1682 1.4441 0.0000 -10807.4390 1414.1494 0.0000 0.0000 1778.3740 -7600.9126 299.9559 -9379.2866 -7660.3692 298.1201 -269.0024 -180.4600 30661.2500 -56.3585 28.2844
ENERGY: 1200000 1.0689 8.7174 1.2928 0.0000 -10923.9861 1483.9423 0.0000 0.0000 1794.0877 -7634.8771 302.6063 -9428.9647 -7666.6293 298.5743 211.5140 307.1539 30548.3198 -3.9195 71.7232
ENERGY: 1500000 2.1297 6.4078 0.1378 0.0000 -10901.6972 1419.0035 0.0000 0.0000 1792.3240 -7681.6943 302.3089 -9474.0183 -7674.4629 298.8470 -327.7646 -304.8132 30816.9518 -78.6688 -7.9134
TCL: Running FEP window  12: Lambda1 0.4499999999999996 Lambda2 0.39999999999999963 [dLambda -0.04999999999999999]
TCL: Setting parameter firsttimestep to 0
TCL: Setting parameter alchLambda to 0.4499999999999996
Info: NONBONDED TABLE R-SQUARED SPACING: 0.0625
Info: NONBONDED TABLE SIZE: 705 POINTS
TCL: Setting parameter alchLambda2 to 0.39999999999999963
Info: NONBONDED TABLE R-SQUARED SPACING: 0.0625
Info: NONBONDED TABLE SIZE: 705 POINTS
TCL: Running for 1500000 steps
ETITLE: TS BOND ANGLE DIHED IMPRP ELECT VDW BOUNDARY MISC KINETIC TOTAL TEMP POTENTIAL TOTALAVG TEMPAVG PRESSURE GPRESSURE VOLUME PRESSAVG GPRESSAVG
ENERGY: 0 2.1297 6.4078 0.1378 0.0000 -10901.6975 1419.2727 0.0000 0.0000 1791.4486 -7682.3009 302.1612 -9473.7494 -7682.3009 302.1612 -371.2426 -303.9488 30816.9518 -371.2426 -303.9488
ENERGY: 300000 3.8664 5.1205 1.7448 0.0000 -10919.8726 1474.0534 0.0000 0.0000 1745.3325 -7689.7550 294.3829 -9435.0875 -7699.7308 295.6808 373.7391 402.1610 30434.7419 -269.5109 -204.4026
ENERGY: 600000 3.6561 3.8512 1.0285 0.0000 -10843.7340 1452.9126 0.0000 0.0000 1803.2491 -7579.0365 304.1516 -9382.2856 -7689.6607 296.3851 315.9156 334.8173 30656.8422 -127.3537 -66.6402
ENERGY: 900000 0.4406 6.3480 1.4084 0.0000 -10949.1218 1461.4883 0.0000 0.0000 1795.6894 -7683.7472 302.8765 -9479.4365 -7684.8050 297.9016 -7.3307 95.8063 30528.5216 -128.0939 -60.9896
ENERGY: 1200000 3.0754 3.9267 1.1042 0.0000 -10863.0312 1451.1452 0.0000 0.0000 1765.4329 -7638.3468 297.7732 -9403.7797 -7678.9633 298.3923 -56.2293 -17.0524 30557.3174 -128.1034 -61.6866
ENERGY: 1500000 1.0359 3.1587 0.1381 0.0000 -10832.0178 1442.5227 0.0000 0.0000 1787.2530 -7597.9094 301.4535 -9385.1623 -7677.7664 297.7317 -20.7984 78.4839 30645.5753 -145.0868 -71.7164
TCL: Running FEP window  13: Lambda1 0.39999999999999963 Lambda2 0.34999999999999964 [dLambda -0.04999999999999999]
TCL: Setting parameter firsttimestep to 0
TCL: Setting parameter alchLambda to 0.39999999999999963
Info: NONBONDED TABLE R-SQUARED SPACING: 0.0625
Info: NONBONDED TABLE SIZE: 705 POINTS
TCL: Setting parameter alchLambda2 to 0.34999999999999964
Info: NONBONDED TABLE R-SQUARED SPACING: 0.0625
Info: NONBONDED TABLE SIZE: 705 POINTS
TCL: Running for 1500000 steps
ETITLE: TS BOND ANGLE DIHED IMPRP ELECT VDW BOUNDARY MISC KINETIC TOTAL TEMP POTENTIAL TOTALAVG TEMPAVG PRESSURE GPRESSURE VOLUME PRESSAVG GPRESSAVG
ENERGY: 0 1.0359 3.1587 0.1381 0.0000 -10832.0183 1442.1481 0.0000 0.0000 1786.3872 -7599.1503 301.3075 -9385.5375 -7599.1503 301.3075 -15.5448 69.8633 30645.5753 -15.5448 69.8633
ENERGY: 300000 0.7235 6.0082 0.5237 0.0000 -10963.1910 1485.0194 0.0000 0.0000 1785.8373 -7685.0790 301.2148 -9470.9163 -7615.8093 302.0643 390.1299 493.7926 30169.3550 -133.2386 -45.2358
ENERGY: 600000 1.9639 3.5269 0.1388 0.0000 -10892.7840 1416.4092 0.0000 0.0000 1750.5814 -7720.1638 295.2682 -9470.7452 -7630.7198 301.3306 -381.4601 -333.9311 30736.2469 -228.8447 -148.0553
ENERGY: 900000 2.1493 6.3344 1.2448 0.0000 -10845.6656 1478.3927 0.0000 0.0000 1787.3603 -7570.1841 301.4716 -9357.5444 -7622.5872 300.9936 631.9165 612.1321 30315.6994 -118.1167 -59.5393
ENERGY: 1200000 0.3265 4.5882 2.7736 0.0000 -10898.9343 1476.8798 0.0000 0.0000 1802.5820 -7611.7843 304.0390 -9414.3663 -7623.0142 302.1566 108.1784 165.9825 30938.1639 -118.9566 -54.9304
ENERGY: 1500000 1.7758 4.6387 0.4988 0.0000 -10918.9483 1456.2917 0.0000 0.0000 1755.6571 -7700.0863 296.1243 -9455.7433 -7627.6922 302.3198 13.9084 53.5073 30576.4958 -138.1503 -74.3745
TCL: Running FEP window  14: Lambda1 0.34999999999999964 Lambda2 0.29999999999999966 [dLambda -0.04999999999999999]
TCL: Setting parameter firsttimestep to 0
TCL: Setting parameter alchLambda to 0.34999999999999964
Info: NONBONDED TABLE R-SQUARED SPACING: 0.0625
Info: NONBONDED TABLE SIZE: 705 POINTS
TCL: Setting parameter alchLambda2 to 0.29999999999999966
Info: NONBONDED TABLE R-SQUARED SPACING: 0.0625
Info: NONBONDED TABLE SIZE: 705 POINTS
TCL: Running for 1500000 steps
ETITLE: TS BOND ANGLE DIHED IMPRP ELECT VDW BOUNDARY MISC KINETIC TOTAL TEMP POTENTIAL TOTALAVG TEMPAVG PRESSURE GPRESSURE VOLUME PRESSAVG GPRESSAVG
ENERGY: 0 1.7758 4.6387 0.4988 0.0000 -10918.9491 1456.0489 0.0000 0.0000 1754.7915 -7701.1956 295.9783 -9455.9871 -7701.1956 295.9783 -22.1148 47.4098 30576.4958 -22.1148 47.4098
ENERGY: 300000 1.0344 2.5722 0.3233 0.0000 -10822.8064 1433.5988 0.0000 0.0000 1781.0301 -7604.2477 300.4039 -9385.2777 -7674.5602 296.0571 -25.5552 55.7872 30902.3437 -231.8050 -164.6516
ENERGY: 600000 3.4639 3.4272 0.2863 0.0000 -10999.0888 1565.0159 0.0000 0.0000 1763.5712 -7663.3243 297.4592 -9426.8955 -7664.2759 298.3406 745.9460 864.8303 30614.0189 17.5064 86.7863
ENERGY: 900000 1.6064 4.5358 0.6302 0.0000 -11002.3769 1509.9919 0.0000 0.0000 1804.3699 -7681.2426 304.3406 -9485.6125 -7677.6228 298.4255 387.7708 370.6781 30704.3222 -31.7730 27.1909
ENERGY: 1200000 1.5850 5.4120 0.3275 0.0000 -10990.3135 1455.8983 0.0000 0.0000 1798.2031 -7728.8876 303.3005 -9527.0906 -7670.4993 299.0350 -489.6277 -425.3958 31217.6045 -15.7758 44.6096
ENERGY: 1500000 0.0027 7.2639 0.1703 0.0000 -11149.8254 1667.2601 0.0000 0.0000 1810.0242 -7665.1042 305.2943 -9475.1285 -7660.7758 300.2650 1481.5244 1551.3996 30298.3613 69.0301 128.9637
TCL: Running FEP window  15: Lambda1 0.29999999999999966 Lambda2 0.24999999999999967 [dLambda -0.04999999999999999]
TCL: Setting parameter firsttimestep to 0
TCL: Setting parameter alchLambda to 0.29999999999999966
Info: NONBONDED TABLE R-SQUARED SPACING: 0.0625
Info: NONBONDED TABLE SIZE: 705 POINTS
TCL: Setting parameter alchLambda2 to 0.24999999999999967
Info: NONBONDED TABLE R-SQUARED SPACING: 0.0625
Info: NONBONDED TABLE SIZE: 705 POINTS
TCL: Running for 1500000 steps
ETITLE: TS BOND ANGLE DIHED IMPRP ELECT VDW BOUNDARY MISC KINETIC TOTAL TEMP POTENTIAL TOTALAVG TEMPAVG PRESSURE GPRESSURE VOLUME PRESSAVG GPRESSAVG
ENERGY: 0 0.0027 7.2639 0.1703 0.0000 -11149.8258 1666.9679 0.0000 0.0000 1809.0816 -7666.3396 305.1353 -9475.4211 -7666.3396 305.1353 1455.4064 1546.8698 30298.3613 1455.4064 1546.8698
ENERGY: 300000 0.8672 4.6845 0.3966 0.0000 -10804.4137 1432.5387 0.0000 0.0000 1775.7894 -7590.1374 299.5200 -9365.9268 -7645.9607 300.2017 -375.0673 -302.1050 31303.9055 308.6111 363.1756
ENERGY: 600000 2.3223 3.2675 0.1362 0.0000 -10894.6874 1481.7191 0.0000 0.0000 1738.6443 -7668.5980 293.2548 -9407.2423 -7668.1100 298.3930 373.8411 396.8848 30571.6220 68.7335 120.9126
ENERGY: 900000 1.2719 4.9703 0.2764 0.0000 -10768.3697 1391.5839 0.0000 0.0000 1787.3192 -7582.9480 301.4647 -9370.2671 -7658.7106 299.6637 -217.9195 -238.7882 30606.7196 -40.7254 14.1624
ENERGY: 1200000 0.7787 4.6697 0.8122 0.0000 -10873.4251 1440.8411 0.0000 0.0000 1769.6682 -7656.6552 298.4875 -9426.3234 -7657.7878 299.2745 106.0347 178.4073 30468.8014 16.3567 69.5176
ENERGY: 1500000 1.9616 7.5855 1.6738 0.0000 -10799.1652 1408.9711 0.0000 0.0000 1765.8008 -7613.1724 297.8352 -9378.9732 -7650.3606 299.3431 -279.6136 -248.7489 30585.3175 75.0518 127.7697
TCL: Running FEP window  16: Lambda1 0.24999999999999967 Lambda2 0.19999999999999968 [dLambda -0.04999999999999999]
TCL: Setting parameter firsttimestep to 0
TCL: Setting parameter alchLambda to 0.24999999999999967
Info: NONBONDED TABLE R-SQUARED SPACING: 0.0625
Info: NONBONDED TABLE SIZE: 705 POINTS
TCL: Setting parameter alchLambda2 to 0.19999999999999968
Info: NONBONDED TABLE R-SQUARED SPACING: 0.0625
Info: NONBONDED TABLE SIZE: 705 POINTS
TCL: Running for 1500000 steps
ETITLE: TS BOND ANGLE DIHED IMPRP ELECT VDW BOUNDARY MISC KINETIC TOTAL TEMP POTENTIAL TOTALAVG TEMPAVG PRESSURE GPRESSURE VOLUME PRESSAVG GPRESSAVG
ENERGY: 0 1.9616 7.5855 1.6738 0.0000 -10799.1657 1409.2081 0.0000 0.0000 1764.8788 -7613.8578 297.6797 -9378.7366 -7613.8578 297.6797 -336.3451 -248.8657 30585.3175 -336.3451 -248.8657
ENERGY: 300000 0.8131 4.8595 0.1953 0.0000 -10859.6400 1495.7357 0.0000 0.0000 1796.7675 -7561.2689 303.0583 -9358.0364 -7610.8354 299.4026 558.4775 596.8224 30590.8314 116.4407 169.6000
ENERGY: 600000 1.1158 6.6491 0.4078 0.0000 -10973.8925 1416.9167 0.0000 0.0000 1786.7670 -7762.0360 301.3716 -9548.8030 -7654.2482 301.9662 -223.9566 -228.5837 30109.1154 33.8823 86.4268
ENERGY: 900000 3.7339 6.5571 1.6039 0.0000 -10845.6640 1382.1504 0.0000 0.0000 1780.7472 -7670.8714 300.3562 -9451.6187 -7666.7849 301.7877 -554.9286 -495.4897 30769.4181 -27.5689 25.6586
ENERGY: 1200000 2.5090 4.5879 1.6001 0.0000 -10742.7739 1363.9325 0.0000 0.0000 1716.5294 -7653.6152 289.5247 -9370.1445 -7670.1308 300.6726 -340.1605 -311.3915 30584.5688 -45.9199 15.6018
ENERGY: 1500000 1.5137 7.7209 1.2877 0.0000 -10827.2781 1433.5557 0.0000 0.0000 1746.1729 -7637.0272 294.5246 -9383.2001 -7672.2953 299.9222 38.9025 122.3547 30532.9666 -5.2195 51.2499
TCL: Running FEP window  17: Lambda1 0.19999999999999968 Lambda2 0.1499999999999997 [dLambda -0.04999999999999999]
TCL: Setting parameter firsttimestep to 0
TCL: Setting parameter alchLambda to 0.19999999999999968
Info: NONBONDED TABLE R-SQUARED SPACING: 0.0625
Info: NONBONDED TABLE SIZE: 705 POINTS
TCL: Setting parameter alchLambda2 to 0.1499999999999997
Info: NONBONDED TABLE R-SQUARED SPACING: 0.0625
Info: NONBONDED TABLE SIZE: 705 POINTS
TCL: Running for 1500000 steps
ETITLE: TS BOND ANGLE DIHED IMPRP ELECT VDW BOUNDARY MISC KINETIC TOTAL TEMP POTENTIAL TOTALAVG TEMPAVG PRESSURE GPRESSURE VOLUME PRESSAVG GPRESSAVG
ENERGY: 0 1.5137 7.7209 1.2877 0.0000 -10827.2780 1433.5609 0.0000 0.0000 1745.3002 -7637.8946 294.3774 -9383.1948 -7637.8946 294.3774 34.1207 119.7605 30532.9666 34.1207 119.7605
ENERGY: 300000 2.5951 8.4000 0.8930 0.0000 -10922.8773 1485.8692 0.0000 0.0000 1822.0440 -7603.0761 307.3217 -9425.1201 -7659.0277 300.6630 300.0396 359.6856 30821.7958 80.4272 137.0615
ENERGY: 600000 2.4428 7.5669 0.6758 0.0000 -10843.6854 1446.9501 0.0000 0.0000 1717.6848 -7668.3649 289.7196 -9386.0497 -7658.7305 298.0286 -165.3353 -95.7659 31035.1238 81.2169 132.8905
ENERGY: 900000 1.9512 8.9705 1.4393 0.0000 -10893.9020 1452.6634 0.0000 0.0000 1722.1935 -7706.6841 290.4800 -9428.8776 -7662.1516 297.9095 -19.2812 32.5398 30522.1591 -11.8171 40.8297
ENERGY: 1200000 2.3806 4.4479 1.3780 0.0000 -10911.9785 1443.1364 0.0000 0.0000 1788.0975 -7672.5380 301.5960 -9460.6355 -7668.3372 298.9249 -60.2847 -35.5460 30497.5575 -30.0309 18.4868
ENERGY: 1500000 3.7174 5.3248 0.8392 0.0000 -10877.4447 1401.4724 0.0000 0.0000 1691.2005 -7774.8905 285.2525 -9466.0910 -7669.4521 297.8162 -480.7840 -447.7013 30637.2989 -96.7154 -44.9908
TCL: Running FEP window  18: Lambda1 0.1499999999999997 Lambda2 0.09999999999999969 [dLambda -0.05 ]
TCL: Setting parameter firsttimestep to 0
TCL: Setting parameter alchLambda to 0.1499999999999997
Info: NONBONDED TABLE R-SQUARED SPACING: 0.0625
Info: NONBONDED TABLE SIZE: 705 POINTS
TCL: Setting parameter alchLambda2 to 0.09999999999999969
Info: NONBONDED TABLE R-SQUARED SPACING: 0.0625
Info: NONBONDED TABLE SIZE: 705 POINTS
TCL: Running for 1500000 steps
ETITLE: TS BOND ANGLE DIHED IMPRP ELECT VDW BOUNDARY MISC KINETIC TOTAL TEMP POTENTIAL TOTALAVG TEMPAVG PRESSURE GPRESSURE VOLUME PRESSAVG GPRESSAVG
ENERGY: 0 3.7174 5.3248 0.8392 0.0000 -10877.4443 1401.8352 0.0000 0.0000 1690.3033 -7775.4244 285.1012 -9465.7277 -7775.4244 285.1012 -521.7777 -449.8798 30637.2989 -521.7777 -449.8798
ENERGY: 300000 1.0657 4.3694 1.2080 0.0000 -11097.8830 1525.0467 0.0000 0.0000 1779.9539 -7786.2393 300.2224 -9566.1932 -7709.0929 296.0039 33.3619 119.9909 30778.7243 -104.5450 -59.6188
ENERGY: 600000 2.4908 4.9093 0.2233 0.0000 -10917.4830 1495.8894 0.0000 0.0000 1715.7248 -7698.2454 289.3890 -9413.9702 -7692.5174 296.6622 434.2604 550.9291 30211.3995 -9.9761 61.4099
ENERGY: 900000 3.5205 4.0799 1.2846 0.0000 -10862.8471 1360.3913 0.0000 0.0000 1733.1710 -7760.3997 292.3316 -9493.5708 -7701.6354 295.2576 -1017.9096 -933.3777 30888.1261 -131.8935 -64.2707
ENERGY: 1200000 5.9059 3.9725 0.5384 0.0000 -10864.0769 1470.0175 0.0000 0.0000 1801.0847 -7582.5579 303.7865 -9383.6426 -7688.9334 296.3983 111.4217 215.5398 30979.6606 -76.9174 -12.0811
ENERGY: 1500000 0.6220 4.3030 0.9448 0.0000 -10867.5279 1451.1250 0.0000 0.0000 1713.3081 -7697.2251 288.9813 -9410.5331 -7691.0087 296.3064 -421.0845 -314.1106 31157.1926 -150.0493 -83.0112
TCL: Running FEP window  19: Lambda1 0.09999999999999969 Lambda2 0.049999999999999684 [dLambda -0.05 ]
TCL: Setting parameter firsttimestep to 0
TCL: Setting parameter alchLambda to 0.09999999999999969
Info: NONBONDED TABLE R-SQUARED SPACING: 0.0625
Info: NONBONDED TABLE SIZE: 705 POINTS
TCL: Setting parameter alchLambda2 to 0.049999999999999684
Info: NONBONDED TABLE R-SQUARED SPACING: 0.0625
Info: NONBONDED TABLE SIZE: 705 POINTS
TCL: Running for 1500000 steps
ETITLE: TS BOND ANGLE DIHED IMPRP ELECT VDW BOUNDARY MISC KINETIC TOTAL TEMP POTENTIAL TOTALAVG TEMPAVG PRESSURE GPRESSURE VOLUME PRESSAVG GPRESSAVG
ENERGY: 0 0.6220 4.3030 0.9448 0.0000 -10867.5274 1450.7557 0.0000 0.0000 1712.4186 -7698.4833 288.8313 -9410.9019 -7698.4833 288.8313 -401.0296 -317.9246 31157.1926 -401.0296 -317.9246
ENERGY: 300000 3.7145 3.8603 0.3482 0.0000 -10818.8386 1473.2804 0.0000 0.0000 1769.5419 -7568.0933 298.4662 -9337.6352 -7632.2726 298.7925 586.2069 657.0253 30600.2530 -204.8483 -132.4865
ENERGY: 600000 0.7797 5.1813 0.4350 0.0000 -10787.0146 1371.8531 0.0000 0.0000 1806.0994 -7602.6661 304.6323 -9408.7654 -7635.1010 299.7081 -406.4020 -325.7474 30208.7248 -161.3885 -90.9007
ENERGY: 900000 0.9810 5.4177 0.3338 0.0000 -10930.0001 1459.6494 0.0000 0.0000 1782.0834 -7681.5348 300.5816 -9463.6182 -7643.7587 300.3709 122.0334 228.5352 29938.4854 -115.5378 -36.3427
ENERGY: 1200000 1.5234 5.2192 0.9794 0.0000 -11026.3024 1544.8112 0.0000 0.0000 1741.2424 -7732.5269 293.6930 -9473.7693 -7653.3012 299.9566 226.9858 288.3913 31191.3021 -121.9590 -50.2296
ENERGY: 1500000 1.1447 4.8423 0.2592 0.0000 -10951.3933 1514.2663 0.0000 0.0000 1746.9222 -7683.9586 294.6510 -9430.8808 -7660.0579 299.6228 510.7199 568.9869 30203.7913 -33.7554 35.6122
TCL: Running FEP window  20: Lambda1 0.049999999999999684 Lambda2 0.0    [dLambda -0.049999999999999684]
TCL: Setting parameter firsttimestep to 0
TCL: Setting parameter alchLambda to 0.049999999999999684
Info: NONBONDED TABLE R-SQUARED SPACING: 0.0625
Info: NONBONDED TABLE SIZE: 705 POINTS
TCL: Setting parameter alchLambda2 to 0.0
Info: NONBONDED TABLE R-SQUARED SPACING: 0.0625
Info: NONBONDED TABLE SIZE: 705 POINTS
TCL: Running for 1500000 steps
ETITLE: TS BOND ANGLE DIHED IMPRP ELECT VDW BOUNDARY MISC KINETIC TOTAL TEMP POTENTIAL TOTALAVG TEMPAVG PRESSURE GPRESSURE VOLUME PRESSAVG GPRESSAVG
ENERGY: 0 1.1447 4.8423 0.2592 0.0000 -10951.3928 1514.1122 0.0000 0.0000 1746.0316 -7685.0028 294.5008 -9431.0344 -7685.0028 294.5008 494.9975 567.0240 30203.7913 494.9975 567.0240
ENERGY: 300000 1.1077 5.0533 0.3375 0.0000 -10974.6916 1525.8254 0.0000 0.0000 1835.0149 -7607.3528 309.5095 -9442.3677 -7703.0424 299.0688 624.3174 692.6557 30455.7252 290.3854 370.6680
ENERGY: 600000 1.6758 5.4880 0.7242 0.0000 -10817.7408 1373.3659 0.0000 0.0000 1748.2998 -7688.1872 294.8834 -9436.4870 -7691.0888 298.3618 -631.6915 -569.0127 30442.2271 169.0397 238.0437
ENERGY: 900000 1.4311 4.4269 2.2845 0.0000 -10990.4759 1539.8323 0.0000 0.0000 1744.8295 -7697.6717 294.2980 -9442.5012 -7684.7711 297.0949 568.6167 586.0376 30626.1080 222.6343 291.8275
ENERGY: 1200000 2.8826 4.4526 0.7536 0.0000 -10813.8041 1405.6187 0.0000 0.0000 1757.7255 -7642.3711 296.4732 -9400.0966 -7673.6772 297.9127 -306.5835 -276.5282 30691.9852 38.3719 110.6795
ENERGY: 1500000 2.7152 5.1825 0.3345 0.0000 -10793.9395 1393.7464 0.0000 0.0000 1796.6985 -7595.2624 303.0467 -9391.9609 -7677.4613 298.5508 -541.8275 -433.4677 30913.1729 23.0264 103.0733
TCL: Exiting due to exit command.
