Info: SIMULATION PARAMETERS:
Info: TIMESTEP               2
Info: NUMBER OF STEPS        0
Info: STEPS PER CYCLE        10
Info: PERIODIC CELL BASIS 1  31.494 0 0
Info: PERIODIC CELL BASIS 2  0 30.0636 0
Info: PERIODIC CELL BASIS 3  0 0 31.4641
Info: PERIODIC CELL CENTER   0 0 0
Info: WRAPPING WATERS AROUND PERIODIC BOUNDARIES ON OUTPUT.
Info: WRAPPING ALL CLUSTERS AROUND PERIODIC BOUNDARIES ON OUTPUT.
Info: FIRST LDB TIMESTEP     50
Info: LAST LDB TIMESTEP     -1
Info: HOM BACKGROUND SCALING 1
Info: PME BACKGROUND SCALING 1
Info: MIN ATOMS PER PATCH    40
Info: EMPTY PATCH LOAD       40 ATOMS
Info: VELOCITY FILE          mobley_8746821_equil.vel
Info: CENTER OF MASS MOVING INITIALLY? NO
Info: DIELECTRIC             1
Info: EXCLUDE                SCALED ONE-FOUR
Info: 1-4 ELECTROSTATICS SCALED BY 0.833333
Info: MODIFIED 1-4 VDW PARAMETERS WILL BE USED
Info: DCD FILENAME           mobley_8746821_prod.dcd
Info: DCD FREQUENCY          100000
Info: DCD FIRST STEP         100000
Info: DCD FILE WILL CONTAIN UNIT CELL DATA
Info: XST FILENAME           mobley_8746821_prod.xst
Info: XST FREQUENCY          100000
Info: NO VELOCITY DCD OUTPUT
Info: NO FORCE DCD OUTPUT
Info: OUTPUT FILENAME        mobley_8746821_prod
Info: BINARY OUTPUT FILES WILL BE USED
Info: RESTART FILENAME       mobley_8746821_prod.restart
Info: RESTART FREQUENCY      100000
Info: BINARY RESTART FILES WILL BE USED
Info: CUTOFF                 9
Info: PAIRLIST DISTANCE      11
Info: PAIRLIST SHRINK RATE   0.01
Info: PAIRLIST GROW RATE     0.01
Info: PAIRLIST TRIGGER       0.3
Info: PAIRLISTS PER CYCLE    2
Info: PAIRLISTS ENABLED
Info: MARGIN                 2
Info: HYDROGEN GROUP CUTOFF  2.5
Info: PATCH DIMENSION        15.5
Info: ENERGY OUTPUT STEPS    100000
Info: ENERGY EVALUATION STEPS    100000
Info: OUTPUT ENERGY PRECISION 4
Info: CROSSTERM ENERGY INCLUDED IN DIHEDRAL
Info: TIMING OUTPUT STEPS    1000000
Info: PRESSURE OUTPUT STEPS  100000
Info: ALCHEMICAL FEP ON
Info: FEP CURRENT LAMBDA VALUE     1
Info: FEP COMPARISON LAMBDA VALUE  0.95
Info: FEP INTRA-ALCHEMICAL NON-BONDED INTERACTIONS WILL BE RETAINED
Info: FEP INTRA-ALCHEMICAL BONDED INTERACTIONS WILL BE RETAINED
Info: FEP VDW SHIFTING COEFFICIENT 5
Info: FEP ELEC. ACTIVE FOR ANNIHILATED PARTICLES BETWEEN LAMBDA = 0 AND LAMBDA = 0.5
Info: FEP ELEC. ACTIVE FOR EXNIHILATED PARTICLES BETWEEN LAMBDA = 0.5 AND LAMBDA = 1
Info: FEP VDW ACTIVE FOR ANNIHILATED PARTICLES BETWEEN LAMBDA = 0 AND LAMBDA = 1
Info: FEP VDW ACTIVE FOR EXNIHILATED PARTICLES BETWEEN LAMBDA = 0 AND LAMBDA = 1
Info: FEP BOND ACTIVE FOR ANNIHILATED PARTICLES BETWEEN LAMBDA = 1 AND LAMBDA = 1
Info: FEP BOND ACTIVE FOR EXNIHILATED PARTICLES BETWEEN LAMBDA = 0 AND LAMBDA = 0
Info: LANGEVIN DYNAMICS ACTIVE
Info: LANGEVIN TEMPERATURE   300
Info: LANGEVIN USING BBK INTEGRATOR
Info: LANGEVIN DAMPING COEFFICIENT IS 1 INVERSE PS
Info: LANGEVIN DYNAMICS APPLIED TO HYDROGENS
Info: LANGEVIN PISTON PRESSURE CONTROL ACTIVE
Info:        TARGET PRESSURE IS 1.01325 BAR
Info:     OSCILLATION PERIOD IS 50 FS
Info:             DECAY TIME IS 25 FS
Info:     PISTON TEMPERATURE IS 300 K
Info:       PRESSURE CONTROL IS GROUP-BASED
Info:    INITIAL STRAIN RATE IS 0.000639447 0.000639447 0.000639447
Info:       CELL FLUCTUATION IS ISOTROPIC
Info: PARTICLE MESH EWALD (PME) ACTIVE
Info: PME TOLERANCE               1e-06
Info: PME EWALD COEFFICIENT       0.348832
Info: PME INTERPOLATION ORDER     4
Info: PME GRID DIMENSIONS         32 32 32
Info: PME MAXIMUM GRID SPACING    1
Info: PME CALCULATION WILL BE PERFORMED ON GPU
Info: FULL ELECTROSTATIC EVALUATION FREQUENCY      2
Info: USING VERLET I (r-RESPA) MTS SCHEME.
Info: C1 SPLITTING OF LONG RANGE ELECTROSTATICS
Info: PLACING ATOMS IN PATCHES BY HYDROGEN GROUPS
Info: RIGID BONDS TO HYDROGEN : ALL
Info:         ERROR TOLERANCE : 1e-08
Info:          MAX ITERATIONS : 100
Info: RIGID WATER USING SETTLE ALGORITHM
Info: RANDOM NUMBER SEED     1743608826
Info: USE HYDROGEN BONDS?    NO
Info: Using AMBER format force field!
Info: AMBER PARM FILE        mobley_8746821.prmtop
Info: COORDINATE PDB         mobley_8746821.pdb
Info: Exclusions will be read from PARM file!
Info: SCNB (VDW SCALING)     2
Info: USING ARITHMETIC MEAN TO COMBINE L-J SIGMA PARAMETERS
Info: BINARY COORDINATES     mobley_8746821_equil.coor
Info: SUMMARY OF PARAMETERS:
Info: 8 BONDS
Info: 10 ANGLES
Info:   10 HARMONIC
Info:   0 COSINE-BASED
Info: 4 DIHEDRAL
Info: 0 IMPROPER
Info: 0 CROSSTERM
Info: 0 VDW
Info: 36 VDW_PAIRS
Info: 0 NBTHOLE_PAIRS
Info: To read alchdata from file: mobley_8746821.pdb
Info: To read alchflag data from column: 5
Info: STRUCTURE SUMMARY:
Info: 2924 ATOMS
Info: 2924 BONDS
Info: 28 ANGLES
Info: 37 DIHEDRALS
Info: 0 IMPROPERS
Info: 0 CROSSTERMS
Info: 2981 EXCLUSIONS
Info: 2916 RIGID BONDS
Info: ALCH: 0 ATOMS TO DISAPPEAR IN FINAL STATE
Info: ALCH: 17 ATOMS TO APPEAR IN FINAL STATE
Info: 5856 DEGREES OF FREEDOM
Info: 977 HYDROGEN GROUPS
Info: 4 ATOMS IN LARGEST HYDROGEN GROUP
Info: 977 MIGRATION GROUPS
Info: 4 ATOMS IN LARGEST MIGRATION GROUP
Info: TOTAL MASS = 17564.7 amu
Info: TOTAL CHARGE = 0.000100052 e
Info: MASS DENSITY = 0.979071 g/cm^3
Info: ATOM DENSITY = 0.0981505 atoms/A^3
Info: ADDED 0 IMPLICIT EXCLUSIONS
Info: NONBONDED TABLE R-SQUARED SPACING: 0.0625
Info: NONBONDED TABLE SIZE: 705 POINTS
Info: REMOVING COM VELOCITY 0.0195933 -0.253896 -0.0662707
Info: Use 3D box decompostion in PME FFT.
Info: Updated CUDA force table with 4096 elements.
Info: Updated CUDA LJ table with 8 x 8 elements.
Info: Found 15 unique exclusion lists needing 32 bytes
TCL: Running for 1500000 steps
ETITLE: TS BOND ANGLE DIHED IMPRP ELECT VDW BOUNDARY MISC KINETIC TOTAL TEMP POTENTIAL TOTALAVG TEMPAVG PRESSURE GPRESSURE VOLUME PRESSAVG GPRESSAVG
ENERGY: 0 2.9475 6.5816 3.4292 0.0000 -10631.3729 1369.7400 0.0000 0.0000 1690.9331 -7557.7415 290.6135 -9248.6746 -7557.7415 290.6135 -470.9841 -391.4324 29790.9738 -470.9841 -391.4324
ENERGY: 300000 1.0965 3.4560 1.8677 0.0000 -10514.4651 1345.0195 0.0000 0.0000 1687.2275 -7475.7979 289.9766 -9163.0254 -7481.9212 295.0395 -608.1744 -540.6377 30074.3120 -279.0897 -197.3271
ENERGY: 600000 4.5190 7.9536 1.0608 0.0000 -10583.5772 1361.7735 0.0000 0.0000 1737.1100 -7471.1604 298.5497 -9208.2704 -7490.8410 296.0511 -665.1097 -642.2008 30352.7963 -48.6071 34.6139
ENERGY: 900000 1.9761 12.1416 1.8820 0.0000 -10677.4963 1474.8649 0.0000 0.0000 1738.2253 -7448.4064 298.7414 -9186.6316 -7472.9516 297.0446 163.2207 239.0348 30297.9907 -160.8386 -80.5994
ENERGY: 1200000 3.4082 6.3566 2.2248 0.0000 -10644.1377 1430.5091 0.0000 0.0000 1773.9500 -7427.6891 304.8812 -9201.6391 -7471.2250 297.3256 -39.4088 6.9528 30363.8604 -116.1142 -36.0492
ENERGY: 1500000 3.3299 7.1899 1.0247 0.0000 -10422.6755 1270.5054 0.0000 0.0000 1735.6494 -7404.9761 298.2987 -9140.6255 -7462.1383 297.9195 -1308.8605 -1238.8432 30460.2788 -143.5694 -72.3208
TCL: Running FEP window   2: Lambda1 0.95   Lambda2 0.8999999999999999 [dLambda -0.050000000000000044]
TCL: Setting parameter firsttimestep to 0
TCL: Setting parameter alchLambda to 0.95
Info: NONBONDED TABLE R-SQUARED SPACING: 0.0625
Info: NONBONDED TABLE SIZE: 705 POINTS
TCL: Setting parameter alchLambda2 to 0.8999999999999999
Info: NONBONDED TABLE R-SQUARED SPACING: 0.0625
Info: NONBONDED TABLE SIZE: 705 POINTS
TCL: Running for 1500000 steps
ETITLE: TS BOND ANGLE DIHED IMPRP ELECT VDW BOUNDARY MISC KINETIC TOTAL TEMP POTENTIAL TOTALAVG TEMPAVG PRESSURE GPRESSURE VOLUME PRESSAVG GPRESSAVG
ENERGY: 0 3.3299 7.1899 1.0247 0.0000 -10421.1880 1270.3938 0.0000 0.0000 1734.7840 -7404.4657 298.1499 -9139.2496 -7404.4657 298.1499 -1337.4599 -1248.3677 30460.2788 -1337.4599 -1248.3677
ENERGY: 300000 3.2226 5.8841 0.5933 0.0000 -10567.7092 1381.4741 0.0000 0.0000 1750.1736 -7426.3616 300.7949 -9176.5352 -7445.0628 298.4772 -188.2487 -64.1536 29844.0622 -459.6482 -385.6506
ENERGY: 600000 1.9751 4.7144 3.3835 0.0000 -10475.9478 1366.4952 0.0000 0.0000 1755.8414 -7343.5381 301.7690 -9099.3796 -7430.3323 298.4447 -173.5073 -108.6991 30377.8996 -282.6070 -205.6807
ENERGY: 900000 3.1848 5.8629 1.4130 0.0000 -10517.0192 1342.0596 0.0000 0.0000 1692.1480 -7472.3510 290.8223 -9164.4989 -7429.6016 298.9187 -352.8366 -298.6693 29725.5231 -164.4170 -101.7187
ENERGY: 1200000 2.0899 10.3684 2.7156 0.0000 -10731.2092 1573.5552 0.0000 0.0000 1723.9631 -7418.5170 296.2902 -9142.4801 -7436.5694 298.9753 1613.8741 1688.0598 29760.7277 144.4236 207.5463
ENERGY: 1500000 1.8830 5.2872 3.4072 0.0000 -10818.8576 1624.3419 0.0000 0.0000 1771.9598 -7411.9784 304.5392 -9183.9382 -7432.8384 299.4770 1648.3757 1758.2944 29614.8543 107.3871 181.1414
TCL: Running FEP window   3: Lambda1 0.8999999999999999 Lambda2 0.8499999999999999 [dLambda -0.050000000000000044]
TCL: Setting parameter firsttimestep to 0
TCL: Setting parameter alchLambda to 0.8999999999999999
Info: NONBONDED TABLE R-SQUARED SPACING: 0.0625
Info: NONBONDED TABLE SIZE: 705 POINTS
TCL: Setting parameter alchLambda2 to 0.8499999999999999
Info: NONBONDED TABLE R-SQUARED SPACING: 0.0625
Info: NONBONDED TABLE SIZE: 705 POINTS
TCL: Running for 1500000 steps
ETITLE: TS BOND ANGLE DIHED IMPRP ELECT VDW BOUNDARY MISC KINETIC TOTAL TEMP POTENTIAL TOTALAVG TEMPAVG PRESSURE GPRESSURE VOLUME PRESSAVG GPRESSAVG
ENERGY: 0 1.8830 5.2872 3.4072 0.0000 -10817.5478 1624.0192 0.0000 0.0000 1771.0883 -7411.8629 304.3894 -9182.9512 -7411.8629 304.3894 1658.2181 1742.3066 29614.8543 1658.2181 1742.3066
ENERGY: 300000 2.1151 7.7383 5.3197 0.0000 -10543.7840 1361.8432 0.0000 0.0000 1748.9713 -7417.7963 300.5883 -9166.7677 -7434.4535 299.2534 -423.7362 -414.5030 30117.3637 192.7434 225.0696
ENERGY: 600000 4.6541 11.2925 2.0282 0.0000 -10660.0377 1456.3216 0.0000 0.0000 1764.5053 -7421.2359 303.2580 -9185.7412 -7438.4343 299.6069 216.0269 361.6606 29782.7326 26.6712 87.4891
ENERGY: 900000 4.3711 7.0915 1.8826 0.0000 -10499.2637 1421.2684 0.0000 0.0000 1764.7687 -7299.8814 303.3033 -9064.6500 -7419.7674 299.4330 60.4860 172.4294 30426.5035 96.5905 160.0423
ENERGY: 1200000 4.7479 7.5653 0.7945 0.0000 -10481.0162 1387.7308 0.0000 0.0000 1761.7739 -7318.4037 302.7886 -9080.1776 -7411.9645 299.4420 81.5170 69.7838 30145.0202 44.1219 103.4218
ENERGY: 1500000 2.0982 5.3262 2.9166 0.0000 -10595.5315 1431.3737 0.0000 0.0000 1704.4136 -7449.4032 292.9303 -9153.8169 -7418.8189 298.9667 101.5043 150.3739 30337.2058 60.9892 122.8250
TCL: Running FEP window   4: Lambda1 0.8499999999999999 Lambda2 0.7999999999999998 [dLambda -0.050000000000000044]
TCL: Setting parameter firsttimestep to 0
TCL: Setting parameter alchLambda to 0.8499999999999999
Info: NONBONDED TABLE R-SQUARED SPACING: 0.0625
Info: NONBONDED TABLE SIZE: 705 POINTS
TCL: Setting parameter alchLambda2 to 0.7999999999999998
Info: NONBONDED TABLE R-SQUARED SPACING: 0.0625
Info: NONBONDED TABLE SIZE: 705 POINTS
TCL: Running for 1500000 steps
ETITLE: TS BOND ANGLE DIHED IMPRP ELECT VDW BOUNDARY MISC KINETIC TOTAL TEMP POTENTIAL TOTALAVG TEMPAVG PRESSURE GPRESSURE VOLUME PRESSAVG GPRESSAVG
ENERGY: 0 2.0982 5.3262 2.9166 0.0000 -10594.5100 1431.8676 0.0000 0.0000 1703.5505 -7448.7509 292.7820 -9152.3013 -7448.7509 292.7820 52.4225 144.9006 30337.2058 52.4225 144.9006
ENERGY: 300000 4.6859 4.1816 3.3793 0.0000 -10504.3811 1346.6102 0.0000 0.0000 1758.3191 -7387.2050 302.1948 -9145.5240 -7413.1246 299.2858 -883.5928 -806.6629 30618.0628 -240.3141 -161.8403
ENERGY: 600000 2.4926 6.3575 2.2531 0.0000 -10564.4911 1406.9961 0.0000 0.0000 1739.1924 -7407.1994 298.9076 -9146.3918 -7410.0334 300.6815 64.3933 57.6575 29893.5286 -101.8584 -45.8423
ENERGY: 900000 3.6387 8.9801 3.4629 0.0000 -10457.4344 1389.4007 0.0000 0.0000 1708.6122 -7343.3398 293.6519 -9051.9520 -7397.5915 299.9973 -76.0114 -0.4989 30463.0235 24.9662 77.9498
ENERGY: 1200000 3.2608 7.7353 4.8490 0.0000 -10771.4358 1528.7048 0.0000 0.0000 1737.3767 -7489.5093 298.5955 -9226.8860 -7415.8092 299.2999 401.8761 502.4203 30220.1674 49.9228 108.6043
ENERGY: 1500000 5.5720 3.8992 4.5029 0.0000 -10622.3742 1458.5819 0.0000 0.0000 1793.2073 -7356.6108 308.1909 -9149.8181 -7409.7571 300.5537 165.6963 190.4390 30386.7064 58.5314 118.5861
TCL: Running FEP window   5: Lambda1 0.7999999999999998 Lambda2 0.7499999999999998 [dLambda -0.050000000000000044]
TCL: Setting parameter firsttimestep to 0
TCL: Setting parameter alchLambda to 0.7999999999999998
Info: NONBONDED TABLE R-SQUARED SPACING: 0.0625
Info: NONBONDED TABLE SIZE: 705 POINTS
TCL: Setting parameter alchLambda2 to 0.7499999999999998
Info: NONBONDED TABLE R-SQUARED SPACING: 0.0625
Info: NONBONDED TABLE SIZE: 705 POINTS
TCL: Running for 1500000 steps
ETITLE: TS BOND ANGLE DIHED IMPRP ELECT VDW BOUNDARY MISC KINETIC TOTAL TEMP POTENTIAL TOTALAVG TEMPAVG PRESSURE GPRESSURE VOLUME PRESSAVG GPRESSAVG
ENERGY: 0 5.5720 3.8992 4.5029 0.0000 -10621.5114 1458.8614 0.0000 0.0000 1792.3103 -7356.3655 308.0367 -9148.6758 -7356.3655 308.0367 105.2052 184.9594 30386.7064 105.2052 184.9594
ENERGY: 300000 1.2254 6.4281 3.6910 0.0000 -10673.7176 1409.9543 0.0000 0.0000 1741.0621 -7511.3566 299.2289 -9252.4186 -7413.3520 299.7608 -280.2968 -155.7187 29728.9000 -98.3750 -12.2406
ENERGY: 600000 2.8167 6.6252 2.4525 0.0000 -10586.6687 1449.4658 0.0000 0.0000 1751.2543 -7374.0542 300.9806 -9125.3086 -7410.9958 299.6422 355.7530 403.8408 29963.8730 -65.2083 8.4505
ENERGY: 900000 1.8200 8.4794 2.9128 0.0000 -10673.5883 1494.3523 0.0000 0.0000 1738.9771 -7427.0467 298.8706 -9166.0238 -7402.9622 300.8048 610.1530 709.6887 29963.0255 -56.1521 13.7967
ENERGY: 1200000 1.6927 8.1181 3.7315 0.0000 -10441.1705 1346.9835 0.0000 0.0000 1790.0195 -7290.6253 307.6430 -9080.6448 -7392.4142 300.8171 -250.9776 -200.0993 30285.9912 -77.4149 -7.2259
ENERGY: 1500000 3.8587 5.3496 4.0677 0.0000 -10516.0238 1368.8538 0.0000 0.0000 1748.1854 -7385.7086 300.4532 -9133.8940 -7391.6284 300.5023 -368.6943 -269.1731 29985.2582 -42.7123 30.0179
TCL: Running FEP window   6: Lambda1 0.7499999999999998 Lambda2 0.6999999999999997 [dLambda -0.050000000000000044]
TCL: Setting parameter firsttimestep to 0
TCL: Setting parameter alchLambda to 0.7499999999999998
Info: NONBONDED TABLE R-SQUARED SPACING: 0.0625
Info: NONBONDED TABLE SIZE: 705 POINTS
TCL: Setting parameter alchLambda2 to 0.6999999999999997
Info: NONBONDED TABLE R-SQUARED SPACING: 0.0625
Info: NONBONDED TABLE SIZE: 705 POINTS
TCL: Running for 1500000 steps
ETITLE: TS BOND ANGLE DIHED IMPRP ELECT VDW BOUNDARY MISC KINETIC TOTAL TEMP POTENTIAL TOTALAVG TEMPAVG PRESSURE GPRESSURE VOLUME PRESSAVG GPRESSAVG
ENERGY: 0 3.8587 5.3496 4.0677 0.0000 -10515.9043 1369.3164 0.0000 0.0000 1747.3477 -7385.9642 300.3092 -9133.3119 -7385.9642 300.3092 -375.9686 -276.8427 29985.2582 -375.9686 -276.8427
ENERGY: 300000 4.9004 3.6330 3.0280 0.0000 -10634.4598 1409.3069 0.0000 0.0000 1777.4815 -7436.1100 305.4882 -9213.5915 -7383.5736 303.4975 -378.1562 -313.5304 30445.5798 -419.0833 -354.9800
ENERGY: 600000 2.8996 7.2230 2.8606 0.0000 -10714.7081 1483.1557 0.0000 0.0000 1764.5966 -7453.9725 303.2737 -9218.5691 -7402.9804 302.8843 557.6418 633.9858 29751.4733 -249.2020 -184.3147
ENERGY: 900000 1.7537 7.2590 1.4776 0.0000 -10651.4044 1458.0236 0.0000 0.0000 1765.1220 -7417.7685 303.3640 -9182.8905 -7411.5189 302.6824 47.6035 96.2517 30361.3850 -180.7068 -125.4975
ENERGY: 1200000 1.8035 7.1285 2.6784 0.0000 -10631.3938 1434.5762 0.0000 0.0000 1726.2603 -7458.9468 296.6850 -9185.2071 -7415.6490 302.2712 -168.7502 -59.8902 30361.3435 -146.1260 -88.6168
ENERGY: 1500000 4.2108 3.8060 1.1863 0.0000 -10661.7122 1446.3584 0.0000 0.0000 1686.3524 -7519.7983 289.8262 -9206.1507 -7420.7958 300.7641 230.0061 248.3140 29829.1744 -142.0734 -77.1974
TCL: Running FEP window   7: Lambda1 0.6999999999999997 Lambda2 0.6499999999999997 [dLambda -0.050000000000000044]
TCL: Setting parameter firsttimestep to 0
TCL: Setting parameter alchLambda to 0.6999999999999997
Info: NONBONDED TABLE R-SQUARED SPACING: 0.0625
Info: NONBONDED TABLE SIZE: 705 POINTS
TCL: Setting parameter alchLambda2 to 0.6499999999999997
Info: NONBONDED TABLE R-SQUARED SPACING: 0.0625
Info: NONBONDED TABLE SIZE: 705 POINTS
TCL: Running for 1500000 steps
ETITLE: TS BOND ANGLE DIHED IMPRP ELECT VDW BOUNDARY MISC KINETIC TOTAL TEMP POTENTIAL TOTALAVG TEMPAVG PRESSURE GPRESSURE VOLUME PRESSAVG GPRESSAVG
ENERGY: 0 4.2108 3.8060 1.1863 0.0000 -10660.6540 1446.7454 0.0000 0.0000 1685.4939 -7519.2117 289.6787 -9204.7056 -7519.2117 289.6787 164.9967 249.1101 29829.1744 164.9967 249.1101
ENERGY: 300000 2.8564 5.6639 1.8085 0.0000 -10633.4409 1467.0371 0.0000 0.0000 1803.5569 -7352.5182 309.9696 -9156.0750 -7448.5166 298.3960 367.5489 408.9111 30251.6137 195.5703 249.5732
ENERGY: 600000 3.7621 5.2597 4.0422 0.0000 -10530.7745 1362.5548 0.0000 0.0000 1739.7831 -7415.3726 299.0091 -9155.1557 -7447.5185 297.8997 -516.2778 -438.1336 29921.4053 -3.2993 56.8421
ENERGY: 900000 2.2845 8.3705 2.3654 0.0000 -10682.4364 1464.2543 0.0000 0.0000 1807.9582 -7397.2036 310.7261 -9205.1617 -7439.1611 299.7065 75.2542 156.4915 30143.2978 -5.4210 52.8179
ENERGY: 1200000 2.6669 7.2783 2.6467 0.0000 -10824.4074 1500.6747 0.0000 0.0000 1703.2896 -7607.8512 292.7371 -9311.1408 -7450.8535 299.1488 162.4781 223.6053 29780.9641 207.9575 263.4492
ENERGY: 1500000 0.9426 3.1459 1.2710 0.0000 -10581.2956 1372.4722 0.0000 0.0000 1721.6296 -7481.8343 295.8891 -9203.4639 -7457.4547 298.7741 -373.4646 -334.6416 29826.1189 210.2188 267.8273
TCL: Running FEP window   8: Lambda1 0.6499999999999997 Lambda2 0.5999999999999996 [dLambda -0.050000000000000044]
TCL: Setting parameter firsttimestep to 0
TCL: Setting parameter alchLambda to 0.6499999999999997
Info: NONBONDED TABLE R-SQUARED SPACING: 0.0625
Info: NONBONDED TABLE SIZE: 705 POINTS
TCL: Setting parameter alchLambda2 to 0.5999999999999996
Info: NONBONDED TABLE R-SQUARED SPACING: 0.0625
Info: NONBONDED TABLE SIZE: 705 POINTS
TCL: Running for 1500000 steps
ETITLE: TS BOND ANGLE DIHED IMPRP ELECT VDW BOUNDARY MISC KINETIC TOTAL TEMP POTENTIAL TOTALAVG TEMPAVG PRESSURE GPRESSURE VOLUME PRESSAVG GPRESSAVG
ENERGY: 0 0.9426 3.1459 1.2710 0.0000 -10580.7584 1372.5250 0.0000 0.0000 1720.7849 -7482.0890 295.7440 -9202.8738 -7482.0890 295.7440 -413.8536 -339.9351 29826.1189 -413.8536 -339.9351
ENERGY: 300000 1.2864 4.5949 3.7187 0.0000 -10611.8592 1422.0864 0.0000 0.0000 1714.3189 -7465.8539 294.6327 -9180.1728 -7454.0534 296.1653 -276.8583 -201.7809 30308.0892 -260.2135 -186.3144
ENERGY: 600000 1.4435 3.9483 1.5372 0.0000 -10591.6978 1438.2632 0.0000 0.0000 1791.7169 -7354.7888 307.9348 -9146.5057 -7419.5771 297.9122 203.8893 270.1336 30096.9872 -189.1566 -112.9800
ENERGY: 900000 3.2418 2.7591 4.0595 0.0000 -10673.2354 1440.4513 0.0000 0.0000 1787.0905 -7435.6332 307.1396 -9222.7237 -7427.1934 298.4491 127.2812 259.5844 29892.1268 -82.8269 -8.3204
ENERGY: 1200000 2.7639 6.9450 0.6893 0.0000 -10650.9851 1465.0082 0.0000 0.0000 1711.4495 -7464.1292 294.1395 -9175.5787 -7430.3731 298.9346 -57.1264 9.7663 30460.6689 -109.0632 -40.2871
ENERGY: 1500000 2.0038 7.2626 2.5931 0.0000 -10703.5839 1501.7358 0.0000 0.0000 1731.5267 -7458.4617 297.5901 -9189.9885 -7425.5194 299.1967 428.9324 493.3088 30051.2998 -55.0544 14.5158
TCL: Running FEP window   9: Lambda1 0.5999999999999996 Lambda2 0.5499999999999996 [dLambda -0.050000000000000044]
TCL: Setting parameter firsttimestep to 0
TCL: Setting parameter alchLambda to 0.5999999999999996
Info: NONBONDED TABLE R-SQUARED SPACING: 0.0625
Info: NONBONDED TABLE SIZE: 705 POINTS
TCL: Setting parameter alchLambda2 to 0.5499999999999996
Info: NONBONDED TABLE R-SQUARED SPACING: 0.0625
Info: NONBONDED TABLE SIZE: 705 POINTS
TCL: Running for 1500000 steps
ETITLE: TS BOND ANGLE DIHED IMPRP ELECT VDW BOUNDARY MISC KINETIC TOTAL TEMP POTENTIAL TOTALAVG TEMPAVG PRESSURE GPRESSURE VOLUME PRESSAVG GPRESSAVG
ENERGY: 0 2.0038 7.2626 2.5931 0.0000 -10703.5901 1502.0145 0.0000 0.0000 1730.6819 -7459.0342 297.4449 -9189.7161 -7459.0342 297.4449 400.4019 486.3550 30051.2998 400.4019 486.3550
ENERGY: 300000 2.4120 3.3260 2.3998 0.0000 -10538.1286 1385.8535 0.0000 0.0000 1703.9650 -7440.1722 292.8532 -9144.1372 -7414.7797 299.8599 -416.8363 -347.2619 30443.7864 -193.1677 -128.7374
ENERGY: 600000 4.4064 12.4833 3.0250 0.0000 -10597.6998 1355.2859 0.0000 0.0000 1839.0909 -7383.4084 316.0767 -9222.4993 -7409.6636 304.1966 -531.9607 -458.0819 29740.9467 -283.4609 -212.9326
ENERGY: 900000 4.6792 5.3522 1.1069 0.0000 -10589.9892 1411.8189 0.0000 0.0000 1695.7578 -7471.2741 291.4427 -9167.0319 -7426.7288 302.3940 -170.6019 -132.5202 30132.4483 -158.7499 -101.6598
ENERGY: 1200000 2.6695 6.7904 2.3491 0.0000 -10586.1609 1457.5102 0.0000 0.0000 1692.2453 -7424.5965 290.8390 -9116.8418 -7422.9617 300.4068 276.8275 383.9043 29953.2292 -143.0117 -78.9106
ENERGY: 1500000 2.4433 12.8878 2.1786 0.0000 -10686.5616 1527.6660 0.0000 0.0000 1809.9701 -7331.4157 311.0719 -9141.3859 -7409.3464 301.2799 848.8363 917.7444 30085.1624 -26.5461 37.4287
TCL: Running FEP window  10: Lambda1 0.5499999999999996 Lambda2 0.4999999999999996 [dLambda -0.04999999999999999]
TCL: Setting parameter firsttimestep to 0
TCL: Setting parameter alchLambda to 0.5499999999999996
Info: NONBONDED TABLE R-SQUARED SPACING: 0.0625
Info: NONBONDED TABLE SIZE: 705 POINTS
TCL: Setting parameter alchLambda2 to 0.4999999999999996
Info: NONBONDED TABLE R-SQUARED SPACING: 0.0625
Info: NONBONDED TABLE SIZE: 705 POINTS
TCL: Running for 1500000 steps
ETITLE: TS BOND ANGLE DIHED IMPRP ELECT VDW BOUNDARY MISC KINETIC TOTAL TEMP POTENTIAL TOTALAVG TEMPAVG PRESSURE GPRESSURE VOLUME PRESSAVG GPRESSAVG
ENERGY: 0 2.4433 12.8878 2.1786 0.0000 -10687.1242 1527.2946 0.0000 0.0000 1809.0743 -7333.2457 310.9179 -9142.3200 -7333.2457 310.9179 809.1958 903.0922 30085.1624 809.1958 903.0922
ENERGY: 300000 1.9193 5.6066 2.4847 0.0000 -10535.0616 1348.4320 0.0000 0.0000 1733.6726 -7442.9463 297.9589 -9176.6189 -7367.2800 306.4337 -681.8359 -624.2093 30255.4483 61.3493 144.9316
ENERGY: 600000 4.4669 3.1217 2.1417 0.0000 -10465.8570 1294.6539 0.0000 0.0000 1748.3024 -7413.1703 300.4733 -9161.4728 -7373.2867 304.8306 -1070.6599 -1044.7184 30169.5762 -189.4142 -116.3837
ENERGY: 900000 3.6404 5.2981 4.6394 0.0000 -10680.2420 1451.7355 0.0000 0.0000 1737.4750 -7477.4536 298.6124 -9214.9287 -7391.2504 304.1207 -9.7252 107.6450 30027.2339 -31.1538 38.8429
ENERGY: 1200000 3.5925 8.6371 3.8253 0.0000 -10575.0610 1384.7339 0.0000 0.0000 1803.4589 -7370.8132 309.9528 -9174.2721 -7385.2601 304.9984 -588.3526 -512.6467 30205.1610 -68.8703 -2.3038
ENERGY: 1500000 2.9105 5.9224 2.6775 0.0000 -10669.0618 1439.0183 0.0000 0.0000 1750.0651 -7468.4681 300.7762 -9218.5331 -7387.1495 305.1345 -336.4083 -282.7084 30394.4495 -69.3367 2.0085
TCL: Running FEP window  11: Lambda1 0.4999999999999996 Lambda2 0.4499999999999996 [dLambda -0.04999999999999999]
TCL: Setting parameter firsttimestep to 0
TCL: Setting parameter alchLambda to 0.4999999999999996
Info: NONBONDED TABLE R-SQUARED SPACING: 0.0625
Info: NONBONDED TABLE SIZE: 705 POINTS
TCL: Setting parameter alchLambda2 to 0.4499999999999996
Info: NONBONDED TABLE R-SQUARED SPACING: 0.0625
Info: NONBONDED TABLE SIZE: 705 POINTS
TCL: Running for 1500000 steps
ETITLE: TS BOND ANGLE DIHED IMPRP ELECT VDW BOUNDARY MISC KINETIC TOTAL TEMP POTENTIAL TOTALAVG TEMPAVG PRESSURE GPRESSURE VOLUME PRESSAVG GPRESSAVG
ENERGY: 0 2.9105 5.9224 2.6775 0.0000 -10669.2756 1439.1682 0.0000 0.0000 1749.1747 -7469.4224 300.6232 -9218.5971 -7469.4224 300.6232 -381.9250 -289.7120 30394.4495 -381.9250 -289.7120
ENERGY: 300000 1.5524 8.9437 2.7604 0.0000 -10746.3982 1489.9543 0.0000 0.0000 1699.7314 -7543.4560 292.1256 -9243.1874 -7447.4354 298.6766 61.9814 119.1503 30145.2240 -83.1274 -4.3740
ENERGY: 600000 7.2368 11.5989 3.1090 0.0000 -10487.5744 1374.5613 0.0000 0.0000 1823.1655 -7267.9028 313.3397 -9091.0684 -7425.4084 300.5532 -285.3877 -211.9428 30071.9059 115.4168 194.0742
ENERGY: 900000 1.6440 3.8175 2.8357 0.0000 -10505.7557 1341.8406 0.0000 0.0000 1787.8299 -7367.7880 307.2667 -9155.6179 -7426.7284 301.2064 -567.6720 -515.0507 30097.8447 109.0365 180.4488
ENERGY: 1200000 2.0639 4.9995 5.0717 0.0000 -10626.9117 1497.5069 0.0000 0.0000 1757.1430 -7360.1266 301.9927 -9117.2696 -7421.0968 300.6108 761.6504 830.4765 30087.4771 94.3184 169.7328
ENERGY: 1500000 0.7316 4.6421 0.8240 0.0000 -10441.3786 1300.5125 0.0000 0.0000 1739.3619 -7395.3065 298.9367 -9134.6684 -7418.2360 301.0609 -991.7776 -928.4620 30439.6973 26.9948 107.3847
TCL: Running FEP window  12: Lambda1 0.4499999999999996 Lambda2 0.39999999999999963 [dLambda -0.04999999999999999]
TCL: Setting parameter firsttimestep to 0
TCL: Setting parameter alchLambda to 0.4499999999999996
Info: NONBONDED TABLE R-SQUARED SPACING: 0.0625
Info: NONBONDED TABLE SIZE: 705 POINTS
TCL: Setting parameter alchLambda2 to 0.39999999999999963
Info: NONBONDED TABLE R-SQUARED SPACING: 0.0625
Info: NONBONDED TABLE SIZE: 705 POINTS
TCL: Running for 1500000 steps
ETITLE: TS BOND ANGLE DIHED IMPRP ELECT VDW BOUNDARY MISC KINETIC TOTAL TEMP POTENTIAL TOTALAVG TEMPAVG PRESSURE GPRESSURE VOLUME PRESSAVG GPRESSAVG
ENERGY: 0 0.7316 4.6421 0.8240 0.0000 -10441.3773 1300.8123 0.0000 0.0000 1738.4711 -7395.8963 298.7836 -9134.3674 -7395.8963 298.7836 -1003.1395 -932.6527 30439.6973 -1003.1395 -932.6527
ENERGY: 300000 1.9035 5.1663 7.9343 0.0000 -10593.5405 1398.5205 0.0000 0.0000 1703.7487 -7476.2673 292.8160 -9180.0159 -7430.1062 297.6767 -381.4804 -400.4649 30019.7652 -492.4241 -446.5326
ENERGY: 600000 0.8284 4.6099 1.6624 0.0000 -10534.5875 1450.6430 0.0000 0.0000 1798.3545 -7278.4893 309.0755 -9076.8437 -7393.6409 300.6333 409.2599 494.1454 30168.5215 -227.1465 -162.3814
ENERGY: 900000 3.8149 6.2133 3.6907 0.0000 -10509.9644 1359.4918 0.0000 0.0000 1747.1131 -7389.6405 300.2689 -9136.7536 -7398.8232 299.9411 -600.9962 -595.4027 30303.9019 -269.5976 -218.4226
ENERGY: 1200000 2.8719 7.0810 1.3543 0.0000 -10488.1968 1370.6609 0.0000 0.0000 1790.5675 -7315.6612 307.7372 -9106.2287 -7397.3208 300.5886 -395.6847 -354.3251 30237.8807 -252.1124 -197.6120
ENERGY: 1500000 1.7181 5.3059 1.7962 0.0000 -10705.9222 1485.1938 0.0000 0.0000 1722.8107 -7489.0976 296.0921 -9211.9083 -7407.1579 300.1084 196.6288 291.6750 30211.6023 -225.9338 -163.5023
TCL: Running FEP window  13: Lambda1 0.39999999999999963 Lambda2 0.34999999999999964 [dLambda -0.04999999999999999]
TCL: Setting parameter firsttimestep to 0
TCL: Setting parameter alchLambda to 0.39999999999999963
Info: NONBONDED TABLE R-SQUARED SPACING: 0.0625
Info: NONBONDED TABLE SIZE: 705 POINTS
TCL: Setting parameter alchLambda2 to 0.34999999999999964
Info: NONBONDED TABLE R-SQUARED SPACING: 0.0625
Info: NONBONDED TABLE SIZE: 705 POINTS
TCL: Running for 1500000 steps
ETITLE: TS BOND ANGLE DIHED IMPRP ELECT VDW BOUNDARY MISC KINETIC TOTAL TEMP POTENTIAL TOTALAVG TEMPAVG PRESSURE GPRESSURE VOLUME PRESSAVG GPRESSAVG
ENERGY: 0 1.7181 5.3059 1.7962 0.0000 -10705.9217 1485.6637 0.0000 0.0000 1721.9330 -7489.5048 295.9413 -9211.4378 -7489.5048 295.9413 210.6273 289.6039 30211.6023 210.6273 289.6039
ENERGY: 300000 1.8641 8.3099 1.8176 0.0000 -10674.2047 1503.4694 0.0000 0.0000 1766.4479 -7392.2958 303.5919 -9158.7437 -7443.7153 299.6074 670.0808 704.6961 29926.5646 139.4478 202.5395
ENERGY: 600000 3.0856 4.6438 3.5834 0.0000 -10408.3087 1280.0380 0.0000 0.0000 1718.6617 -7398.2961 295.3791 -9116.9578 -7436.8615 298.5455 -886.3003 -806.4141 29795.5139 -69.9082 -2.6679
ENERGY: 900000 3.4444 2.6714 1.1975 0.0000 -10744.2769 1513.2074 0.0000 0.0000 1720.5505 -7503.2058 295.7037 -9223.7563 -7452.6202 298.0862 531.6418 588.0198 29913.5736 39.0702 108.1649
ENERGY: 1200000 2.6809 7.1128 1.9800 0.0000 -10646.6143 1444.0856 0.0000 0.0000 1756.6119 -7434.1432 301.9014 -9190.7551 -7457.9227 297.3871 -263.3894 -211.6947 30625.1692 107.0748 169.7663
ENERGY: 1500000 2.4413 9.4173 1.2342 0.0000 -10696.7459 1516.8824 0.0000 0.0000 1701.1110 -7465.6597 292.3627 -9166.7707 -7448.6303 298.3073 924.2840 985.6767 29777.8492 201.4616 266.3979
TCL: Running FEP window  14: Lambda1 0.34999999999999964 Lambda2 0.29999999999999966 [dLambda -0.04999999999999999]
TCL: Setting parameter firsttimestep to 0
TCL: Setting parameter alchLambda to 0.34999999999999964
Info: NONBONDED TABLE R-SQUARED SPACING: 0.0625
Info: NONBONDED TABLE SIZE: 705 POINTS
TCL: Setting parameter alchLambda2 to 0.29999999999999966
Info: NONBONDED TABLE R-SQUARED SPACING: 0.0625
Info: NONBONDED TABLE SIZE: 705 POINTS
TCL: Running for 1500000 steps
ETITLE: TS BOND ANGLE DIHED IMPRP ELECT VDW BOUNDARY MISC KINETIC TOTAL TEMP POTENTIAL TOTALAVG TEMPAVG PRESSURE GPRESSURE VOLUME PRESSAVG GPRESSAVG
ENERGY: 0 2.4413 9.4173 1.2342 0.0000 -10696.7478 1516.9533 0.0000 0.0000 1700.2649 -7466.4369 292.2173 -9166.7018 -7466.4369 292.2173 912.9844 980.0408 29777.8492 912.9844 980.0408
ENERGY: 300000 3.4443 5.5541 1.6380 0.0000 -10633.6742 1445.1933 0.0000 0.0000 1795.7737 -7382.0708 308.6320 -9177.8445 -7429.0827 300.6874 108.1754 178.4292 29985.5893 -103.2517 -55.3889
ENERGY: 600000 1.3049 7.5309 2.4155 0.0000 -10472.8730 1397.5160 0.0000 0.0000 1720.6774 -7343.4284 295.7255 -9064.1058 -7403.5733 300.5322 288.6290 346.7366 29599.6444 129.2494 169.9849
ENERGY: 900000 2.9037 5.3620 2.1779 0.0000 -10626.3134 1427.4479 0.0000 0.0000 1691.4439 -7496.9780 290.7013 -9188.4218 -7431.3293 298.4549 -498.9169 -344.8489 30233.0139 2.7612 55.0742
ENERGY: 1200000 2.7839 3.8862 2.8426 0.0000 -10633.3414 1442.1948 0.0000 0.0000 1696.5187 -7485.1152 291.5735 -9181.6340 -7425.6140 299.1021 255.7679 299.2518 29545.0483 -47.3698 8.1472
ENERGY: 1500000 2.2061 5.2009 5.8500 0.0000 -10523.9508 1453.4668 0.0000 0.0000 1726.2292 -7330.9977 296.6797 -9057.2269 -7417.8227 298.7213 166.6062 236.7432 30697.3606 -46.2213 3.7568
TCL: Running FEP window  15: Lambda1 0.29999999999999966 Lambda2 0.24999999999999967 [dLambda -0.04999999999999999]
TCL: Setting parameter firsttimestep to 0
TCL: Setting parameter alchLambda to 0.29999999999999966
Info: NONBONDED TABLE R-SQUARED SPACING: 0.0625
Info: NONBONDED TABLE SIZE: 705 POINTS
TCL: Setting parameter alchLambda2 to 0.24999999999999967
Info: NONBONDED TABLE R-SQUARED SPACING: 0.0625
Info: NONBONDED TABLE SIZE: 705 POINTS
TCL: Running for 1500000 steps
ETITLE: TS BOND ANGLE DIHED IMPRP ELECT VDW BOUNDARY MISC KINETIC TOTAL TEMP POTENTIAL TOTALAVG TEMPAVG PRESSURE GPRESSURE VOLUME PRESSAVG GPRESSAVG
ENERGY: 0 2.2061 5.2009 5.8500 0.0000 -10523.9496 1453.2744 0.0000 0.0000 1725.3693 -7332.0487 296.5319 -9057.4181 -7332.0487 296.5319 140.3551 231.1543 30697.3606 140.3551 231.1543
ENERGY: 300000 3.0587 5.1226 1.9390 0.0000 -10523.4310 1357.2143 0.0000 0.0000 1775.4088 -7380.6877 305.1319 -9156.0964 -7391.9132 299.2188 -727.6314 -690.7554 30391.5011 -109.1393 -34.5012
ENERGY: 600000 2.7571 4.3616 5.7755 0.0000 -10633.1271 1436.4900 0.0000 0.0000 1751.0006 -7432.7423 300.9370 -9183.7429 -7405.2946 299.9462 31.4811 93.9221 30172.9089 -84.1022 -2.3609
ENERGY: 900000 2.8588 6.0014 3.4613 0.0000 -10602.7759 1385.7918 0.0000 0.0000 1744.5140 -7460.1486 299.8222 -9204.6626 -7415.0723 299.6373 -325.1546 -296.9589 29982.6473 -143.8725 -72.1157
ENERGY: 1200000 1.1872 4.7148 1.9812 0.0000 -10715.0807 1483.2856 0.0000 0.0000 1727.9396 -7495.9724 296.9736 -9223.9119 -7426.1121 299.3726 149.6534 256.5816 30098.4730 -90.1419 -16.9213
ENERGY: 1500000 4.2253 8.1169 2.4184 0.0000 -10502.5205 1377.2055 0.0000 0.0000 1803.0150 -7307.5393 309.8765 -9110.5544 -7420.3277 300.0023 -327.1457 -266.3664 30221.3837 -91.4446 -22.6287
TCL: Running FEP window  16: Lambda1 0.24999999999999967 Lambda2 0.19999999999999968 [dLambda -0.04999999999999999]
TCL: Setting parameter firsttimestep to 0
TCL: Setting parameter alchLambda to 0.24999999999999967
Info: NONBONDED TABLE R-SQUARED SPACING: 0.0625
Info: NONBONDED TABLE SIZE: 705 POINTS
TCL: Setting parameter alchLambda2 to 0.19999999999999968
Info: NONBONDED TABLE R-SQUARED SPACING: 0.0625
Info: NONBONDED TABLE SIZE: 705 POINTS
TCL: Running for 1500000 steps
ETITLE: TS BOND ANGLE DIHED IMPRP ELECT VDW BOUNDARY MISC KINETIC TOTAL TEMP POTENTIAL TOTALAVG TEMPAVG PRESSURE GPRESSURE VOLUME PRESSAVG GPRESSAVG
ENERGY: 0 4.2253 8.1169 2.4184 0.0000 -10502.5217 1377.2115 0.0000 0.0000 1802.1702 -7308.3793 309.7313 -9110.5495 -7308.3793 309.7313 -358.6028 -269.8091 30221.3837 -358.6028 -269.8091
ENERGY: 300000 2.0844 5.4811 1.2702 0.0000 -10688.4532 1463.1403 0.0000 0.0000 1727.3209 -7489.1563 296.8673 -9216.4772 -7423.7380 300.5678 243.9593 272.4463 29390.8221 -209.9946 -151.2365
ENERGY: 600000 5.1791 6.8437 2.9258 0.0000 -10491.1862 1359.2186 0.0000 0.0000 1771.4996 -7345.5194 304.4601 -9117.0191 -7395.0859 300.4803 -373.6064 -351.2016 30002.8825 -167.0764 -117.1693
ENERGY: 900000 2.1743 4.9093 4.1647 0.0000 -10686.2682 1485.9073 0.0000 0.0000 1771.3460 -7417.7666 304.4337 -9189.1126 -7411.6506 300.6570 372.4100 334.4702 29899.3089 -30.5092 12.2424
ENERGY: 1200000 3.3761 7.5165 0.4591 0.0000 -10584.8691 1408.1394 0.0000 0.0000 1783.5989 -7381.7792 306.5396 -9165.3781 -7405.3263 301.4117 -316.4924 -299.8481 30659.1522 -121.9932 -72.2359
ENERGY: 1500000 1.8406 9.1366 3.4677 0.0000 -10709.9845 1490.3176 0.0000 0.0000 1774.7314 -7430.4906 305.0155 -9205.2220 -7405.4751 301.3489 594.6056 641.3963 29615.2483 -130.3897 -77.6614
TCL: Running FEP window  17: Lambda1 0.19999999999999968 Lambda2 0.1499999999999997 [dLambda -0.04999999999999999]
TCL: Setting parameter firsttimestep to 0
TCL: Setting parameter alchLambda to 0.19999999999999968
Info: NONBONDED TABLE R-SQUARED SPACING: 0.0625
Info: NONBONDED TABLE SIZE: 705 POINTS
TCL: Setting parameter alchLambda2 to 0.1499999999999997
Info: NONBONDED TABLE R-SQUARED SPACING: 0.0625
Info: NONBONDED TABLE SIZE: 705 POINTS
TCL: Running for 1500000 steps
ETITLE: TS BOND ANGLE DIHED IMPRP ELECT VDW BOUNDARY MISC KINETIC TOTAL TEMP POTENTIAL TOTALAVG TEMPAVG PRESSURE GPRESSURE VOLUME PRESSAVG GPRESSAVG
ENERGY: 0 1.8406 9.1366 3.4677 0.0000 -10709.9852 1490.0509 0.0000 0.0000 1773.8721 -7431.6173 304.8678 -9205.4894 -7431.6173 304.8678 548.6720 633.6566 29615.2483 548.6720 633.6566
ENERGY: 300000 1.7411 5.9373 3.6280 0.0000 -10596.0563 1430.8264 0.0000 0.0000 1724.0381 -7429.8854 296.3031 -9153.9235 -7412.2948 298.2889 125.5748 206.5995 29615.2511 294.3119 356.4788
ENERGY: 600000 1.7848 7.0970 3.2557 0.0000 -10535.1093 1435.4408 0.0000 0.0000 1738.0800 -7349.4511 298.7164 -9087.5311 -7388.5640 301.4451 344.4567 308.5773 30098.1957 264.1422 307.5481
ENERGY: 900000 1.4772 5.0951 3.3592 0.0000 -10813.1981 1597.2154 0.0000 0.0000 1726.2731 -7479.7781 296.6872 -9206.0512 -7407.0635 300.5436 1121.9751 1177.8364 29733.7404 397.8143 441.3409
ENERGY: 1200000 5.9561 7.4353 2.6814 0.0000 -10599.2610 1435.7733 0.0000 0.0000 1748.0908 -7399.3242 300.4369 -9147.4150 -7409.8240 300.6967 22.7057 60.0432 30226.4599 209.8868 260.8299
ENERGY: 1500000 0.8998 6.9592 3.2520 0.0000 -10577.2385 1421.0767 0.0000 0.0000 1751.3490 -7393.7017 300.9969 -9145.0507 -7416.4920 300.0576 27.0522 120.4392 29951.7251 160.9692 217.6520
TCL: Running FEP window  18: Lambda1 0.1499999999999997 Lambda2 0.09999999999999969 [dLambda -0.05 ]
TCL: Setting parameter firsttimestep to 0
TCL: Setting parameter alchLambda to 0.1499999999999997
Info: NONBONDED TABLE R-SQUARED SPACING: 0.0625
Info: NONBONDED TABLE SIZE: 705 POINTS
TCL: Setting parameter alchLambda2 to 0.09999999999999969
Info: NONBONDED TABLE R-SQUARED SPACING: 0.0625
Info: NONBONDED TABLE SIZE: 705 POINTS
TCL: Running for 1500000 steps
ETITLE: TS BOND ANGLE DIHED IMPRP ELECT VDW BOUNDARY MISC KINETIC TOTAL TEMP POTENTIAL TOTALAVG TEMPAVG PRESSURE GPRESSURE VOLUME PRESSAVG GPRESSAVG
ENERGY: 0 0.8998 6.9592 3.2520 0.0000 -10577.2382 1421.4944 0.0000 0.0000 1750.4809 -7394.1519 300.8477 -9144.6328 -7394.1519 300.8477 42.5495 119.0854 29951.7251 42.5495 119.0854
ENERGY: 300000 1.5266 7.6100 0.8786 0.0000 -10708.9681 1476.4251 0.0000 0.0000 1720.2193 -7502.3084 295.6468 -9222.5277 -7466.9374 296.3411 63.7310 213.6024 30033.1084 -24.0652 66.1596
ENERGY: 600000 1.2340 6.9148 2.1708 0.0000 -10480.1044 1398.2540 0.0000 0.0000 1725.0240 -7346.5068 296.4725 -9071.5308 -7440.3579 296.9898 -129.5631 -85.4396 30639.8902 49.8190 120.7487
ENERGY: 900000 2.4803 9.1098 0.8228 0.0000 -10588.3495 1368.5296 0.0000 0.0000 1767.6740 -7439.7330 303.8026 -9207.4070 -7428.7556 299.0019 -582.2811 -443.8937 30160.8289 -30.9602 46.4893
ENERGY: 1200000 2.0078 4.8826 2.6230 0.0000 -10608.2803 1420.3957 0.0000 0.0000 1792.9226 -7385.4486 308.1420 -9178.3712 -7423.4136 299.5126 -82.9417 -45.2525 30045.8093 -155.9919 -87.1381
ENERGY: 1500000 3.2287 3.5424 1.9279 0.0000 -10578.1496 1370.2009 0.0000 0.0000 1754.8904 -7444.3593 301.6055 -9199.2497 -7427.6864 299.5446 -608.4826 -634.6691 29954.7954 -243.1984 -185.7673
TCL: Running FEP window  19: Lambda1 0.09999999999999969 Lambda2 0.049999999999999684 [dLambda -0.05 ]
TCL: Setting parameter firsttimestep to 0
TCL: Setting parameter alchLambda to 0.09999999999999969
Info: NONBONDED TABLE R-SQUARED SPACING: 0.0625
Info: NONBONDED TABLE SIZE: 705 POINTS
TCL: Setting parameter alchLambda2 to 0.049999999999999684
Info: NONBONDED TABLE R-SQUARED SPACING: 0.0625
Info: NONBONDED TABLE SIZE: 705 POINTS
TCL: Running for 1500000 steps
ETITLE: TS BOND ANGLE DIHED IMPRP ELECT VDW BOUNDARY MISC KINETIC TOTAL TEMP POTENTIAL TOTALAVG TEMPAVG PRESSURE GPRESSURE VOLUME PRESSAVG GPRESSAVG
ENERGY: 0 3.2287 3.5424 1.9279 0.0000 -10578.1505 1368.7651 0.0000 0.0000 1754.0391 -7446.6473 301.4592 -9200.6863 -7446.6473 301.4592 -709.9410 -640.3078 29954.7954 -709.9410 -640.3078
ENERGY: 300000 2.0876 4.0546 3.0682 0.0000 -10485.3255 1365.0082 0.0000 0.0000 1761.5380 -7349.5691 302.7480 -9111.1071 -7427.7372 300.9305 -425.0794 -362.9132 30166.3571 -334.8646 -269.6498
ENERGY: 600000 1.2402 4.1658 2.3867 0.0000 -10613.3110 1431.1630 0.0000 0.0000 1751.1790 -7423.1764 300.9677 -9174.3554 -7420.1310 300.9342 61.7089 188.0602 29711.8034 -139.7669 -66.1928
ENERGY: 900000 6.2360 9.9476 3.6767 0.0000 -10453.7935 1324.5076 0.0000 0.0000 1708.3874 -7401.0382 293.6133 -9109.4256 -7422.3942 299.1876 -1065.9795 -992.7568 30137.1225 -334.0543 -244.2134
ENERGY: 1200000 1.6925 7.4078 2.6675 0.0000 -10519.3512 1427.2136 0.0000 0.0000 1705.1444 -7375.2253 293.0559 -9080.3698 -7420.3809 299.2507 172.4339 252.2857 29820.9245 -258.3346 -169.9252
ENERGY: 1500000 1.4435 9.2329 1.8868 0.0000 -10511.7377 1303.4480 0.0000 0.0000 1711.0659 -7484.6605 294.0736 -9195.7264 -7415.8516 299.1332 -1467.2208 -1331.6994 30541.0818 -288.8617 -199.0559
TCL: Running FEP window  20: Lambda1 0.049999999999999684 Lambda2 0.0    [dLambda -0.049999999999999684]
TCL: Setting parameter firsttimestep to 0
TCL: Setting parameter alchLambda to 0.049999999999999684
Info: NONBONDED TABLE R-SQUARED SPACING: 0.0625
Info: NONBONDED TABLE SIZE: 705 POINTS
TCL: Setting parameter alchLambda2 to 0.0
Info: NONBONDED TABLE R-SQUARED SPACING: 0.0625
Info: NONBONDED TABLE SIZE: 705 POINTS
TCL: Running for 1500000 steps
ETITLE: TS BOND ANGLE DIHED IMPRP ELECT VDW BOUNDARY MISC KINETIC TOTAL TEMP POTENTIAL TOTALAVG TEMPAVG PRESSURE GPRESSURE VOLUME PRESSAVG GPRESSAVG
ENERGY: 0 1.4435 9.2329 1.8868 0.0000 -10511.7374 1302.5927 0.0000 0.0000 1710.2434 -7486.3380 293.9323 -9196.5815 -7486.3380 293.9323 -1416.5271 -1337.0347 30541.0818 -1416.5271 -1337.0347
ENERGY: 300000 4.0236 4.2799 2.0781 0.0000 -10664.3158 1447.2680 0.0000 0.0000 1788.9785 -7417.6876 307.4641 -9206.6661 -7427.5227 297.2754 -249.9084 -173.1410 30090.6636 -594.5637 -552.4769
ENERGY: 600000 2.1174 7.2342 2.1361 0.0000 -10572.6548 1408.8231 0.0000 0.0000 1790.5677 -7361.7763 307.7372 -9152.3440 -7444.4787 298.8420 -400.3025 -292.1081 30284.8552 -310.4229 -242.8220
ENERGY: 900000 2.2201 6.6296 0.9435 0.0000 -10801.6826 1526.5264 0.0000 0.0000 1712.3911 -7552.9719 294.3014 -9265.3630 -7474.3201 298.2323 838.5785 832.1314 29648.6324 -269.8883 -218.0252
ENERGY: 1200000 2.3354 5.3937 3.2847 0.0000 -10583.8626 1466.1785 0.0000 0.0000 1806.2978 -7300.3725 310.4407 -9106.6703 -7447.8235 299.8895 280.2408 376.8341 30068.1050 -242.4607 -180.5698
ENERGY: 1500000 4.3542 7.2740 2.4458 0.0000 -10423.6690 1330.8994 0.0000 0.0000 1724.5648 -7354.1307 296.3936 -9078.6955 -7443.1974 298.7609 -844.5728 -855.1897 30413.8424 -245.9761 -184.8013
TCL: Exiting due to exit command.
