Info: SIMULATION PARAMETERS:
Info: TIMESTEP               2
Info: NUMBER OF STEPS        0
Info: STEPS PER CYCLE        10
Info: PERIODIC CELL BASIS 1  30.3532 0 0
Info: PERIODIC CELL BASIS 2  0 31.4216 0
Info: PERIODIC CELL BASIS 3  0 0 31.6984
Info: PERIODIC CELL CENTER   0 0 0
Info: WRAPPING WATERS AROUND PERIODIC BOUNDARIES ON OUTPUT.
Info: WRAPPING ALL CLUSTERS AROUND PERIODIC BOUNDARIES ON OUTPUT.
Info: FIRST LDB TIMESTEP     50
Info: LAST LDB TIMESTEP     -1
Info: HOM BACKGROUND SCALING 1
Info: PME BACKGROUND SCALING 1
Info: MIN ATOMS PER PATCH    40
Info: EMPTY PATCH LOAD       40 ATOMS
Info: VELOCITY FILE          mobley_1278715_equil.vel
Info: CENTER OF MASS MOVING INITIALLY? NO
Info: DIELECTRIC             1
Info: EXCLUDE                SCALED ONE-FOUR
Info: 1-4 ELECTROSTATICS SCALED BY 0.833333
Info: MODIFIED 1-4 VDW PARAMETERS WILL BE USED
Info: DCD FILENAME           mobley_1278715_prod.dcd
Info: DCD FREQUENCY          100000
Info: DCD FIRST STEP         100000
Info: DCD FILE WILL CONTAIN UNIT CELL DATA
Info: XST FILENAME           mobley_1278715_prod.xst
Info: XST FREQUENCY          100000
Info: NO VELOCITY DCD OUTPUT
Info: NO FORCE DCD OUTPUT
Info: OUTPUT FILENAME        mobley_1278715_prod
Info: BINARY OUTPUT FILES WILL BE USED
Info: RESTART FILENAME       mobley_1278715_prod.restart
Info: RESTART FREQUENCY      100000
Info: BINARY RESTART FILES WILL BE USED
Info: CUTOFF                 9
Info: PAIRLIST DISTANCE      11
Info: PAIRLIST SHRINK RATE   0.01
Info: PAIRLIST GROW RATE     0.01
Info: PAIRLIST TRIGGER       0.3
Info: PAIRLISTS PER CYCLE    2
Info: PAIRLISTS ENABLED
Info: MARGIN                 2
Info: HYDROGEN GROUP CUTOFF  2.5
Info: PATCH DIMENSION        15.5
Info: ENERGY OUTPUT STEPS    100000
Info: ENERGY EVALUATION STEPS    100000
Info: OUTPUT ENERGY PRECISION 4
Info: CROSSTERM ENERGY INCLUDED IN DIHEDRAL
Info: TIMING OUTPUT STEPS    1000000
Info: PRESSURE OUTPUT STEPS  100000
Info: ALCHEMICAL FEP ON
Info: FEP CURRENT LAMBDA VALUE     1
Info: FEP COMPARISON LAMBDA VALUE  0.95
Info: FEP INTRA-ALCHEMICAL NON-BONDED INTERACTIONS WILL BE RETAINED
Info: FEP INTRA-ALCHEMICAL BONDED INTERACTIONS WILL BE RETAINED
Info: FEP VDW SHIFTING COEFFICIENT 5
Info: FEP ELEC. ACTIVE FOR ANNIHILATED PARTICLES BETWEEN LAMBDA = 0 AND LAMBDA = 0.5
Info: FEP ELEC. ACTIVE FOR EXNIHILATED PARTICLES BETWEEN LAMBDA = 0.5 AND LAMBDA = 1
Info: FEP VDW ACTIVE FOR ANNIHILATED PARTICLES BETWEEN LAMBDA = 0 AND LAMBDA = 1
Info: FEP VDW ACTIVE FOR EXNIHILATED PARTICLES BETWEEN LAMBDA = 0 AND LAMBDA = 1
Info: FEP BOND ACTIVE FOR ANNIHILATED PARTICLES BETWEEN LAMBDA = 1 AND LAMBDA = 1
Info: FEP BOND ACTIVE FOR EXNIHILATED PARTICLES BETWEEN LAMBDA = 0 AND LAMBDA = 0
Info: LANGEVIN DYNAMICS ACTIVE
Info: LANGEVIN TEMPERATURE   300
Info: LANGEVIN USING BBK INTEGRATOR
Info: LANGEVIN DAMPING COEFFICIENT IS 1 INVERSE PS
Info: LANGEVIN DYNAMICS APPLIED TO HYDROGENS
Info: LANGEVIN PISTON PRESSURE CONTROL ACTIVE
Info:        TARGET PRESSURE IS 1.01325 BAR
Info:     OSCILLATION PERIOD IS 50 FS
Info:             DECAY TIME IS 25 FS
Info:     PISTON TEMPERATURE IS 300 K
Info:       PRESSURE CONTROL IS GROUP-BASED
Info:    INITIAL STRAIN RATE IS 0.000263988 0.000263988 0.000263988
Info:       CELL FLUCTUATION IS ISOTROPIC
Info: PARTICLE MESH EWALD (PME) ACTIVE
Info: PME TOLERANCE               1e-06
Info: PME EWALD COEFFICIENT       0.348832
Info: PME INTERPOLATION ORDER     4
Info: PME GRID DIMENSIONS         32 32 32
Info: PME MAXIMUM GRID SPACING    1
Info: PME CALCULATION WILL BE PERFORMED ON GPU
Info: FULL ELECTROSTATIC EVALUATION FREQUENCY      2
Info: USING VERLET I (r-RESPA) MTS SCHEME.
Info: C1 SPLITTING OF LONG RANGE ELECTROSTATICS
Info: PLACING ATOMS IN PATCHES BY HYDROGEN GROUPS
Info: RIGID BONDS TO HYDROGEN : ALL
Info:         ERROR TOLERANCE : 1e-08
Info:          MAX ITERATIONS : 100
Info: RIGID WATER USING SETTLE ALGORITHM
Info: RANDOM NUMBER SEED     1743499204
Info: USE HYDROGEN BONDS?    NO
Info: Using AMBER format force field!
Info: AMBER PARM FILE        mobley_1278715.prmtop
Info: COORDINATE PDB         mobley_1278715.pdb
Info: Exclusions will be read from PARM file!
Info: SCNB (VDW SCALING)     2
Info: USING ARITHMETIC MEAN TO COMBINE L-J SIGMA PARAMETERS
Info: BINARY COORDINATES     mobley_1278715_equil.coor
Info: SUMMARY OF PARAMETERS:
Info: 4 BONDS
Info: 2 ANGLES
Info:   2 HARMONIC
Info:   0 COSINE-BASED
Info: 2 DIHEDRAL
Info: 0 IMPROPER
Info: 0 CROSSTERM
Info: 0 VDW
Info: 10 VDW_PAIRS
Info: 0 NBTHOLE_PAIRS
Info: To read alchdata from file: mobley_1278715.pdb
Info: To read alchflag data from column: 5
Info: STRUCTURE SUMMARY:
Info: 2903 ATOMS
Info: 2902 BONDS
Info: 12 ANGLES
Info: 18 DIHEDRALS
Info: 0 IMPROPERS
Info: 0 CROSSTERMS
Info: 2923 EXCLUSIONS
Info: 2895 RIGID BONDS
Info: ALCH: 0 ATOMS TO DISAPPEAR IN FINAL STATE
Info: ALCH: 8 ATOMS TO APPEAR IN FINAL STATE
Info: 5814 DEGREES OF FREEDOM
Info: 973 HYDROGEN GROUPS
Info: 3 ATOMS IN LARGEST HYDROGEN GROUP
Info: 973 MIGRATION GROUPS
Info: 3 ATOMS IN LARGEST MIGRATION GROUP
Info: TOTAL MASS = 17622.2 amu
Info: TOTAL CHARGE = -0.000199974 e
Info: MASS DENSITY = 0.967937 g/cm^3
Info: ATOM DENSITY = 0.0960232 atoms/A^3
Info: ADDED 0 IMPLICIT EXCLUSIONS
Info: NONBONDED TABLE R-SQUARED SPACING: 0.0625
Info: NONBONDED TABLE SIZE: 705 POINTS
Info: REMOVING COM VELOCITY 0.0966242 -0.131944 0.11822
Info: Use 3D box decompostion in PME FFT.
Info: Updated CUDA force table with 4096 elements.
Info: Updated CUDA LJ table with 4 x 4 elements.
Info: Found 11 unique exclusion lists needing 16 bytes
TCL: Running for 1500000 steps
ETITLE: TS BOND ANGLE DIHED IMPRP ELECT VDW BOUNDARY MISC KINETIC TOTAL TEMP POTENTIAL TOTALAVG TEMPAVG PRESSURE GPRESSURE VOLUME PRESSAVG GPRESSAVG
ENERGY: 0 3.6834 1.9707 4.0494 0.0000 -10360.9096 1260.3646 0.0000 0.0000 1695.3385 -7395.5030 293.4755 -9090.8415 -7395.5030 293.4755 -1142.3032 -1063.9947 30232.2928 -1142.3032 -1063.9947
ENERGY: 300000 2.9274 2.6645 4.0498 0.0000 -10504.8256 1441.5043 0.0000 0.0000 1676.6146 -7377.0649 290.2342 -9053.6795 -7352.2832 300.5282 168.2075 205.4652 30403.4760 -386.7589 -318.6996
ENERGY: 600000 1.0280 2.5703 4.0514 0.0000 -10517.6542 1410.7185 0.0000 0.0000 1726.1330 -7373.1529 298.8062 -9099.2859 -7349.1206 301.8540 35.5266 65.5258 30122.2507 87.0660 145.8916
ENERGY: 900000 3.5847 3.1978 4.0584 0.0000 -10505.3966 1443.2298 0.0000 0.0000 1763.4669 -7287.8590 305.2690 -9051.3260 -7351.7390 301.5352 562.1765 598.7285 30133.4113 125.9721 184.4912
ENERGY: 1200000 6.2036 5.3590 4.0645 0.0000 -10603.6025 1435.4626 0.0000 0.0000 1719.4908 -7433.0220 297.6564 -9152.5128 -7369.9158 300.5319 114.4853 197.0008 29716.8943 87.9336 148.8526
ENERGY: 1500000 2.1755 3.9727 4.0485 0.0000 -10377.2759 1259.2381 0.0000 0.0000 1760.9149 -7346.9262 304.8272 -9107.8411 -7375.5999 300.0211 -1249.8199 -1182.5097 30141.9024 -102.1511 -36.8636
TCL: Running FEP window   2: Lambda1 0.95   Lambda2 0.8999999999999999 [dLambda -0.050000000000000044]
TCL: Setting parameter firsttimestep to 0
TCL: Setting parameter alchLambda to 0.95
Info: NONBONDED TABLE R-SQUARED SPACING: 0.0625
Info: NONBONDED TABLE SIZE: 705 POINTS
TCL: Setting parameter alchLambda2 to 0.8999999999999999
Info: NONBONDED TABLE R-SQUARED SPACING: 0.0625
Info: NONBONDED TABLE SIZE: 705 POINTS
TCL: Running for 1500000 steps
ETITLE: TS BOND ANGLE DIHED IMPRP ELECT VDW BOUNDARY MISC KINETIC TOTAL TEMP POTENTIAL TOTALAVG TEMPAVG PRESSURE GPRESSURE VOLUME PRESSAVG GPRESSAVG
ENERGY: 0 2.1755 3.9727 4.0485 0.0000 -10377.2458 1259.9858 0.0000 0.0000 1759.9996 -7347.0637 304.6688 -9107.0633 -7347.0637 304.6688 -1264.3336 -1186.8170 30141.9024 -1264.3336 -1186.8170
ENERGY: 300000 2.2228 2.7452 4.0472 0.0000 -10469.6274 1398.5428 0.0000 0.0000 1768.4274 -7293.6419 306.1277 -9062.0694 -7349.9530 301.3737 41.8011 94.2609 30059.1927 -241.7160 -203.4019
ENERGY: 600000 3.0162 4.9963 4.0535 0.0000 -10619.8209 1445.1991 0.0000 0.0000 1708.1206 -7454.4352 295.6881 -9162.5558 -7378.2402 301.2511 207.9643 210.6737 29706.8364 67.3611 110.1132
ENERGY: 900000 2.2671 2.3619 4.0492 0.0000 -10479.6238 1392.1340 0.0000 0.0000 1757.6090 -7321.2027 304.2549 -9078.8117 -7376.0504 300.3503 -304.0861 -211.6809 30058.3742 -120.1915 -69.5543
ENERGY: 1200000 0.8871 3.3282 4.0449 0.0000 -10552.1767 1400.7708 0.0000 0.0000 1737.9826 -7405.1630 300.8575 -9143.1456 -7367.8838 299.9986 -178.2758 -128.8456 30269.2989 -145.5673 -101.7085
ENERGY: 1500000 3.0001 2.0109 4.0496 0.0000 -10479.2288 1453.4119 0.0000 0.0000 1671.4566 -7345.2996 289.3413 -9016.7563 -7362.4325 300.0650 492.6413 562.1611 30152.7949 -12.0244 36.7871
TCL: Running FEP window   3: Lambda1 0.8999999999999999 Lambda2 0.8499999999999999 [dLambda -0.050000000000000044]
TCL: Setting parameter firsttimestep to 0
TCL: Setting parameter alchLambda to 0.8999999999999999
Info: NONBONDED TABLE R-SQUARED SPACING: 0.0625
Info: NONBONDED TABLE SIZE: 705 POINTS
TCL: Setting parameter alchLambda2 to 0.8499999999999999
Info: NONBONDED TABLE R-SQUARED SPACING: 0.0625
Info: NONBONDED TABLE SIZE: 705 POINTS
TCL: Running for 1500000 steps
ETITLE: TS BOND ANGLE DIHED IMPRP ELECT VDW BOUNDARY MISC KINETIC TOTAL TEMP POTENTIAL TOTALAVG TEMPAVG PRESSURE GPRESSURE VOLUME PRESSAVG GPRESSAVG
ENERGY: 0 3.0001 2.0109 4.0496 0.0000 -10479.2245 1454.1464 0.0000 0.0000 1670.5864 -7345.4311 289.1907 -9016.0175 -7345.4311 289.1907 481.7851 565.1375 30152.7949 481.7851 565.1375
ENERGY: 300000 2.2961 5.1396 4.0558 0.0000 -10505.5433 1441.5465 0.0000 0.0000 1733.0787 -7319.4266 300.0086 -9052.5054 -7342.4547 295.4582 276.8569 347.8918 30067.5664 128.4439 209.3180
ENERGY: 600000 2.1387 1.4225 4.0504 0.0000 -10476.8281 1389.0080 0.0000 0.0000 1711.0873 -7369.1211 296.2017 -9080.2085 -7363.1508 295.7341 -122.9083 -50.6427 29955.8859 -63.2573 20.1228
ENERGY: 900000 1.4987 2.6468 4.0509 0.0000 -10541.3758 1397.5414 0.0000 0.0000 1738.2098 -7397.4282 300.8968 -9135.6380 -7374.3779 297.6961 -145.6577 -51.1507 30046.0526 -45.1891 32.5389
ENERGY: 1200000 4.3313 2.7036 4.0495 0.0000 -10477.8545 1378.4860 0.0000 0.0000 1776.0303 -7312.2538 307.4438 -9088.2841 -7353.9658 299.7605 -259.7495 -174.3751 30024.4290 -176.4480 -102.4534
ENERGY: 1500000 3.9918 1.9525 4.0504 0.0000 -10418.9997 1336.2562 0.0000 0.0000 1734.6485 -7338.1002 300.2803 -9072.7488 -7363.0201 299.0538 -487.0990 -489.5379 30002.5645 -99.0042 -33.0399
TCL: Running FEP window   4: Lambda1 0.8499999999999999 Lambda2 0.7999999999999998 [dLambda -0.050000000000000044]
TCL: Setting parameter firsttimestep to 0
TCL: Setting parameter alchLambda to 0.8499999999999999
Info: NONBONDED TABLE R-SQUARED SPACING: 0.0625
Info: NONBONDED TABLE SIZE: 705 POINTS
TCL: Setting parameter alchLambda2 to 0.7999999999999998
Info: NONBONDED TABLE R-SQUARED SPACING: 0.0625
Info: NONBONDED TABLE SIZE: 705 POINTS
TCL: Running for 1500000 steps
ETITLE: TS BOND ANGLE DIHED IMPRP ELECT VDW BOUNDARY MISC KINETIC TOTAL TEMP POTENTIAL TOTALAVG TEMPAVG PRESSURE GPRESSURE VOLUME PRESSAVG GPRESSAVG
ENERGY: 0 3.9918 1.9525 4.0504 0.0000 -10418.9889 1336.9899 0.0000 0.0000 1733.7664 -7338.2378 300.1276 -9072.0042 -7338.2378 300.1276 -561.8616 -491.4998 30002.5645 -561.8616 -491.4998
ENERGY: 300000 1.5414 2.5755 4.0484 0.0000 -10446.0383 1330.4763 0.0000 0.0000 1748.2091 -7359.1876 302.6277 -9107.3966 -7373.1799 301.5978 -477.2372 -434.1051 29544.5128 -241.3490 -174.7155
ENERGY: 600000 4.4617 1.1441 4.0509 0.0000 -10522.1765 1382.1995 0.0000 0.0000 1687.4229 -7442.8974 292.1052 -9130.3203 -7389.8645 299.6118 -517.6399 -371.7184 30355.4046 -185.2232 -108.7913
ENERGY: 900000 1.9032 2.9380 4.0478 0.0000 -10578.3247 1474.2594 0.0000 0.0000 1745.1087 -7350.0675 302.0910 -9095.1763 -7371.9829 300.6589 710.3972 672.9932 29888.4844 -57.7709 9.8105
ENERGY: 1200000 2.5122 1.7481 4.0509 0.0000 -10520.6975 1420.8187 0.0000 0.0000 1724.1436 -7367.4240 298.4618 -9091.5676 -7368.6215 300.0812 55.1414 91.9945 29985.3268 38.6952 103.4202
ENERGY: 1500000 0.7261 2.9481 4.0528 0.0000 -10650.3202 1456.2248 0.0000 0.0000 1700.2306 -7486.1378 294.3223 -9186.3685 -7375.0210 299.9339 279.5044 381.2111 29612.1008 44.4000 103.4542
TCL: Running FEP window   5: Lambda1 0.7999999999999998 Lambda2 0.7499999999999998 [dLambda -0.050000000000000044]
TCL: Setting parameter firsttimestep to 0
TCL: Setting parameter alchLambda to 0.7999999999999998
Info: NONBONDED TABLE R-SQUARED SPACING: 0.0625
Info: NONBONDED TABLE SIZE: 705 POINTS
TCL: Setting parameter alchLambda2 to 0.7499999999999998
Info: NONBONDED TABLE R-SQUARED SPACING: 0.0625
Info: NONBONDED TABLE SIZE: 705 POINTS
TCL: Running for 1500000 steps
ETITLE: TS BOND ANGLE DIHED IMPRP ELECT VDW BOUNDARY MISC KINETIC TOTAL TEMP POTENTIAL TOTALAVG TEMPAVG PRESSURE GPRESSURE VOLUME PRESSAVG GPRESSAVG
ENERGY: 0 0.7261 2.9481 4.0528 0.0000 -10650.3067 1456.6154 0.0000 0.0000 1699.3555 -7486.6089 294.1708 -9185.9644 -7486.6089 294.1708 279.3965 373.3889 29612.1008 279.3965 373.3889
ENERGY: 300000 4.5466 1.5346 4.0499 0.0000 -10338.0244 1310.1055 0.0000 0.0000 1684.5177 -7333.2701 291.6023 -9017.7878 -7420.4361 293.3561 -651.7681 -533.7014 30112.3745 80.6752 168.9661
ENERGY: 600000 2.8123 2.7280 4.0518 0.0000 -10435.2694 1341.8281 0.0000 0.0000 1689.7226 -7394.1267 292.5033 -9083.8492 -7422.1021 296.0667 -640.9905 -551.6096 30153.7647 22.4379 108.7390
ENERGY: 900000 0.3583 4.5134 4.0506 0.0000 -10536.4820 1402.5550 0.0000 0.0000 1753.9224 -7371.0824 303.6167 -9125.0048 -7403.9768 298.0820 84.0946 198.7730 29785.0375 -43.0692 41.8461
ENERGY: 1200000 1.6834 2.3313 4.0503 0.0000 -10626.8803 1444.1974 0.0000 0.0000 1767.0961 -7407.5219 305.8972 -9174.6180 -7405.2735 298.6492 209.4681 284.6311 29540.1758 0.6642 83.2929
ENERGY: 1500000 2.8507 4.1778 4.0514 0.0000 -10470.5560 1396.2204 0.0000 0.0000 1720.5681 -7342.6876 297.8429 -9063.2557 -7400.3604 298.0042 106.0090 81.8523 30080.9599 -20.0251 51.2739
TCL: Running FEP window   6: Lambda1 0.7499999999999998 Lambda2 0.6999999999999997 [dLambda -0.050000000000000044]
TCL: Setting parameter firsttimestep to 0
TCL: Setting parameter alchLambda to 0.7499999999999998
Info: NONBONDED TABLE R-SQUARED SPACING: 0.0625
Info: NONBONDED TABLE SIZE: 705 POINTS
TCL: Setting parameter alchLambda2 to 0.6999999999999997
Info: NONBONDED TABLE R-SQUARED SPACING: 0.0625
Info: NONBONDED TABLE SIZE: 705 POINTS
TCL: Running for 1500000 steps
ETITLE: TS BOND ANGLE DIHED IMPRP ELECT VDW BOUNDARY MISC KINETIC TOTAL TEMP POTENTIAL TOTALAVG TEMPAVG PRESSURE GPRESSURE VOLUME PRESSAVG GPRESSAVG
ENERGY: 0 2.8507 4.1778 4.0514 0.0000 -10470.5309 1396.6304 0.0000 0.0000 1719.7214 -7343.0992 297.6963 -9062.8206 -7343.0992 297.6963 0.5862 77.9369 30080.9599 0.5862 77.9369
ENERGY: 300000 0.8393 3.1656 4.0526 0.0000 -10383.9431 1302.2329 0.0000 0.0000 1759.9703 -7313.6823 304.6637 -9073.6526 -7343.5271 301.8261 -747.8223 -638.4407 29828.9293 -220.8462 -176.2959
ENERGY: 600000 1.5170 5.0842 4.0609 0.0000 -10544.4406 1441.2921 0.0000 0.0000 1749.5263 -7342.9602 302.8557 -9092.4865 -7335.7284 302.5298 457.1738 531.5671 29779.8417 -36.3002 23.9567
ENERGY: 900000 1.3542 2.4748 4.0531 0.0000 -10542.9993 1446.9040 0.0000 0.0000 1757.4489 -7330.7642 304.2272 -9088.2131 -7329.3178 303.8196 245.0312 263.8484 30133.6860 -93.1670 -35.6898
ENERGY: 1200000 1.8211 2.2408 4.0458 0.0000 -10539.7109 1422.9683 0.0000 0.0000 1725.0386 -7383.5964 298.6167 -9108.6349 -7326.9048 304.3735 -151.6903 -65.0107 30209.8582 -63.7876 -9.3014
ENERGY: 1500000 3.1702 3.1906 4.0472 0.0000 -10425.1314 1351.3553 0.0000 0.0000 1723.5334 -7339.8346 298.3562 -9063.3680 -7334.5805 303.7181 -633.3874 -613.8050 30414.2262 -104.6813 -51.0972
TCL: Running FEP window   7: Lambda1 0.6999999999999997 Lambda2 0.6499999999999997 [dLambda -0.050000000000000044]
TCL: Setting parameter firsttimestep to 0
TCL: Setting parameter alchLambda to 0.6999999999999997
Info: NONBONDED TABLE R-SQUARED SPACING: 0.0625
Info: NONBONDED TABLE SIZE: 705 POINTS
TCL: Setting parameter alchLambda2 to 0.6499999999999997
Info: NONBONDED TABLE R-SQUARED SPACING: 0.0625
Info: NONBONDED TABLE SIZE: 705 POINTS
TCL: Running for 1500000 steps
ETITLE: TS BOND ANGLE DIHED IMPRP ELECT VDW BOUNDARY MISC KINETIC TOTAL TEMP POTENTIAL TOTALAVG TEMPAVG PRESSURE GPRESSURE VOLUME PRESSAVG GPRESSAVG
ENERGY: 0 3.1702 3.1906 4.0472 0.0000 -10425.1002 1351.5044 0.0000 0.0000 1722.6759 -7340.5118 298.2078 -9063.1877 -7340.5118 298.2078 -698.5195 -622.9803 30414.2262 -698.5195 -622.9803
ENERGY: 300000 1.5568 2.1548 4.0475 0.0000 -10588.7351 1483.3349 0.0000 0.0000 1757.5891 -7340.0519 304.2515 -9097.6410 -7340.6232 301.6420 673.4021 712.0405 29918.3936 -101.6271 -42.9721
ENERGY: 600000 1.6539 2.6023 4.0541 0.0000 -10598.7389 1422.2262 0.0000 0.0000 1713.4158 -7454.7864 296.6048 -9168.2022 -7371.1536 300.8980 -266.4706 -169.6067 29987.7249 -16.5696 63.6929
ENERGY: 900000 1.0073 4.0880 4.0523 0.0000 -10420.0497 1377.4226 0.0000 0.0000 1725.8660 -7307.6135 298.7600 -9033.4794 -7355.8909 300.3809 -222.9899 -171.6892 30433.6008 -55.1271 21.2570
ENERGY: 1200000 1.5970 2.2859 4.0525 0.0000 -10590.2320 1448.4872 0.0000 0.0000 1740.9942 -7392.8152 301.3788 -9133.8094 -7353.8655 299.9143 209.7616 233.1288 29796.2880 -23.3451 47.7957
ENERGY: 1500000 4.0933 3.0267 4.0488 0.0000 -10608.5877 1470.7510 0.0000 0.0000 1685.3913 -7441.2766 291.7535 -9126.6680 -7358.5259 299.4853 650.8116 745.9734 29445.6690 -13.0681 57.0495
TCL: Running FEP window   8: Lambda1 0.6499999999999997 Lambda2 0.5999999999999996 [dLambda -0.050000000000000044]
TCL: Setting parameter firsttimestep to 0
TCL: Setting parameter alchLambda to 0.6499999999999997
Info: NONBONDED TABLE R-SQUARED SPACING: 0.0625
Info: NONBONDED TABLE SIZE: 705 POINTS
TCL: Setting parameter alchLambda2 to 0.5999999999999996
Info: NONBONDED TABLE R-SQUARED SPACING: 0.0625
Info: NONBONDED TABLE SIZE: 705 POINTS
TCL: Running for 1500000 steps
ETITLE: TS BOND ANGLE DIHED IMPRP ELECT VDW BOUNDARY MISC KINETIC TOTAL TEMP POTENTIAL TOTALAVG TEMPAVG PRESSURE GPRESSURE VOLUME PRESSAVG GPRESSAVG
ENERGY: 0 4.0933 3.0267 4.0488 0.0000 -10608.5412 1470.9239 0.0000 0.0000 1684.4965 -7441.9521 291.5986 -9126.4486 -7441.9521 291.5986 648.4118 735.5086 29445.6690 648.4118 735.5086
ENERGY: 300000 2.3943 0.6532 4.0498 0.0000 -10707.5216 1469.7951 0.0000 0.0000 1742.8600 -7487.7693 301.7018 -9230.6293 -7432.6349 300.8879 348.2215 391.4612 29269.3546 114.8612 184.7257
ENERGY: 600000 4.7123 3.2963 4.0550 0.0000 -10492.9318 1387.3548 0.0000 0.0000 1724.2298 -7369.2835 298.4768 -9093.5133 -7406.7076 300.2261 -184.2893 -101.6659 29889.0640 -34.9338 23.3338
ENERGY: 900000 3.2810 1.5900 4.0501 0.0000 -10554.8978 1426.2548 0.0000 0.0000 1761.3642 -7358.3578 304.9050 -9119.7220 -7400.5658 300.8908 206.6346 286.3259 29723.0847 123.9570 178.4312
ENERGY: 1200000 2.5690 3.4353 4.0579 0.0000 -10522.5190 1443.5260 0.0000 0.0000 1753.6426 -7315.2883 303.5683 -9068.9309 -7377.6359 300.9701 487.1494 542.8342 30018.6217 49.9183 104.9045
ENERGY: 1500000 3.9794 4.1951 4.0491 0.0000 -10533.1886 1477.1293 0.0000 0.0000 1688.6863 -7355.1493 292.3239 -9043.8357 -7383.4881 299.8504 742.8712 812.6291 29635.3468 132.0182 189.8821
TCL: Running FEP window   9: Lambda1 0.5999999999999996 Lambda2 0.5499999999999996 [dLambda -0.050000000000000044]
TCL: Setting parameter firsttimestep to 0
TCL: Setting parameter alchLambda to 0.5999999999999996
Info: NONBONDED TABLE R-SQUARED SPACING: 0.0625
Info: NONBONDED TABLE SIZE: 705 POINTS
TCL: Setting parameter alchLambda2 to 0.5499999999999996
Info: NONBONDED TABLE R-SQUARED SPACING: 0.0625
Info: NONBONDED TABLE SIZE: 705 POINTS
TCL: Running for 1500000 steps
ETITLE: TS BOND ANGLE DIHED IMPRP ELECT VDW BOUNDARY MISC KINETIC TOTAL TEMP POTENTIAL TOTALAVG TEMPAVG PRESSURE GPRESSURE VOLUME PRESSAVG GPRESSAVG
ENERGY: 0 3.9794 4.1951 4.0491 0.0000 -10533.2141 1477.8169 0.0000 0.0000 1687.8421 -7355.3315 292.1778 -9043.1736 -7355.3315 292.1778 738.5767 814.1824 29635.3468 738.5767 814.1824
ENERGY: 300000 0.9536 2.8898 4.0505 0.0000 -10527.9803 1399.8426 0.0000 0.0000 1710.6142 -7409.6296 296.1198 -9120.2438 -7365.5380 295.7272 -66.2430 10.9749 29679.5009 -35.1233 19.9613
ENERGY: 600000 2.1882 1.6609 4.0492 0.0000 -10641.6632 1430.7311 0.0000 0.0000 1724.7645 -7478.2694 298.5693 -9203.0339 -7384.5713 300.3399 -261.1866 -181.8595 29801.5653 -25.0540 38.1105
ENERGY: 900000 1.7809 3.4732 4.0528 0.0000 -10545.5622 1393.1854 0.0000 0.0000 1753.2093 -7389.8606 303.4933 -9143.0699 -7393.5072 299.1893 -262.7685 -234.9472 30061.2509 -106.3878 -42.9375
ENERGY: 1200000 0.6998 5.3760 4.0531 0.0000 -10360.0897 1283.5769 0.0000 0.0000 1730.7782 -7335.6056 299.6103 -9066.3838 -7383.7332 299.8564 -841.5633 -796.8028 30128.2568 -193.2932 -131.8780
ENERGY: 1500000 1.3500 2.8693 4.0480 0.0000 -10449.4970 1379.6887 0.0000 0.0000 1768.6923 -7292.8487 306.1735 -9061.5410 -7375.4313 300.4709 61.9207 128.9203 29673.6488 -81.3655 -24.6888
TCL: Running FEP window  10: Lambda1 0.5499999999999996 Lambda2 0.4999999999999996 [dLambda -0.04999999999999999]
TCL: Setting parameter firsttimestep to 0
TCL: Setting parameter alchLambda to 0.5499999999999996
Info: NONBONDED TABLE R-SQUARED SPACING: 0.0625
Info: NONBONDED TABLE SIZE: 705 POINTS
TCL: Setting parameter alchLambda2 to 0.4999999999999996
Info: NONBONDED TABLE R-SQUARED SPACING: 0.0625
Info: NONBONDED TABLE SIZE: 705 POINTS
TCL: Running for 1500000 steps
ETITLE: TS BOND ANGLE DIHED IMPRP ELECT VDW BOUNDARY MISC KINETIC TOTAL TEMP POTENTIAL TOTALAVG TEMPAVG PRESSURE GPRESSURE VOLUME PRESSAVG GPRESSAVG
ENERGY: 0 1.3500 2.8693 4.0480 0.0000 -10449.4433 1380.0735 0.0000 0.0000 1767.8367 -7293.2658 306.0254 -9061.1025 -7293.2658 306.0254 33.0390 126.5437 29673.6488 33.0390 126.5437
ENERGY: 300000 2.6845 1.6740 4.0491 0.0000 -10622.8998 1389.5442 0.0000 0.0000 1684.4816 -7540.4664 291.5960 -9224.9481 -7406.6234 298.6774 -446.7211 -382.4288 29769.9964 -154.8235 -117.6103
ENERGY: 600000 1.2013 1.8096 4.0494 0.0000 -10495.1680 1394.1599 0.0000 0.0000 1751.5078 -7342.4399 303.1988 -9093.9478 -7410.2899 300.0032 122.5814 190.1979 29514.1287 -115.7426 -68.5214
ENERGY: 900000 1.1608 2.1987 4.0501 0.0000 -10447.8530 1412.0535 0.0000 0.0000 1723.3132 -7305.0769 298.3181 -9028.3900 -7386.6649 301.0184 116.7584 176.0935 30021.8811 -120.6897 -65.4616
ENERGY: 1200000 2.2614 2.4699 4.0508 0.0000 -10463.1525 1295.6378 0.0000 0.0000 1704.8160 -7453.9166 295.1161 -9158.7326 -7397.3798 299.6495 -1184.2422 -1179.1569 30155.0517 -192.1611 -141.5811
ENERGY: 1500000 2.6309 5.5076 4.0479 0.0000 -10527.1993 1483.1119 0.0000 0.0000 1697.1242 -7334.7767 293.7846 -9031.9009 -7395.4841 298.7174 819.8470 939.8919 29860.3616 -117.3155 -57.4635
TCL: Running FEP window  11: Lambda1 0.4999999999999996 Lambda2 0.4499999999999996 [dLambda -0.04999999999999999]
TCL: Setting parameter firsttimestep to 0
TCL: Setting parameter alchLambda to 0.4999999999999996
Info: NONBONDED TABLE R-SQUARED SPACING: 0.0625
Info: NONBONDED TABLE SIZE: 705 POINTS
TCL: Setting parameter alchLambda2 to 0.4499999999999996
Info: NONBONDED TABLE R-SQUARED SPACING: 0.0625
Info: NONBONDED TABLE SIZE: 705 POINTS
TCL: Running for 1500000 steps
ETITLE: TS BOND ANGLE DIHED IMPRP ELECT VDW BOUNDARY MISC KINETIC TOTAL TEMP POTENTIAL TOTALAVG TEMPAVG PRESSURE GPRESSURE VOLUME PRESSAVG GPRESSAVG
ENERGY: 0 2.6309 5.5076 4.0479 0.0000 -10527.1216 1482.7478 0.0000 0.0000 1696.2703 -7335.9171 293.6367 -9032.1873 -7335.9171 293.6367 853.3548 930.4230 29860.3616 853.3548 930.4230
ENERGY: 300000 2.4768 1.5276 4.0481 0.0000 -10602.1729 1466.9276 0.0000 0.0000 1753.6551 -7373.5376 303.5705 -9127.1927 -7340.2540 300.7652 115.8017 184.9909 30143.5563 65.6993 139.6778
ENERGY: 600000 1.6296 2.5755 4.0475 0.0000 -10398.8796 1400.7190 0.0000 0.0000 1743.3630 -7246.5449 301.7888 -8989.9079 -7319.9248 301.6800 112.5575 226.1319 29955.3021 150.6110 227.0222
ENERGY: 900000 2.6548 3.4483 4.0522 0.0000 -10474.4382 1362.2049 0.0000 0.0000 1709.5137 -7392.5644 295.9293 -9102.0780 -7332.3546 300.3461 -643.0423 -589.1761 30380.1754 -2.4047 67.2900
ENERGY: 1200000 1.3046 3.9153 4.0497 0.0000 -10545.5259 1425.8877 0.0000 0.0000 1727.2952 -7383.0734 299.0074 -9110.3686 -7351.0006 299.8055 151.6397 142.3436 30136.2841 -42.9474 23.0098
ENERGY: 1500000 3.1579 1.7148 4.0494 0.0000 -10341.0948 1254.6303 0.0000 0.0000 1759.1457 -7318.3968 304.5209 -9077.5424 -7354.6312 299.5837 -1342.4303 -1313.6818 30053.2727 -100.3772 -38.5314
TCL: Running FEP window  12: Lambda1 0.4499999999999996 Lambda2 0.39999999999999963 [dLambda -0.04999999999999999]
TCL: Setting parameter firsttimestep to 0
TCL: Setting parameter alchLambda to 0.4499999999999996
Info: NONBONDED TABLE R-SQUARED SPACING: 0.0625
Info: NONBONDED TABLE SIZE: 705 POINTS
TCL: Setting parameter alchLambda2 to 0.39999999999999963
Info: NONBONDED TABLE R-SQUARED SPACING: 0.0625
Info: NONBONDED TABLE SIZE: 705 POINTS
TCL: Running for 1500000 steps
ETITLE: TS BOND ANGLE DIHED IMPRP ELECT VDW BOUNDARY MISC KINETIC TOTAL TEMP POTENTIAL TOTALAVG TEMPAVG PRESSURE GPRESSURE VOLUME PRESSAVG GPRESSAVG
ENERGY: 0 3.1579 1.7148 4.0494 0.0000 -10341.0945 1255.0772 0.0000 0.0000 1758.2604 -7318.8348 304.3677 -9077.0952 -7318.8348 304.3677 -1392.5029 -1312.8989 30053.2727 -1392.5029 -1312.8989
ENERGY: 300000 0.9571 2.4910 4.0506 0.0000 -10463.3580 1402.2470 0.0000 0.0000 1711.3713 -7342.2410 296.2509 -9053.6124 -7400.2468 296.6381 66.4137 115.1876 29903.6150 -558.3758 -486.6368
ENERGY: 600000 1.9046 3.5306 4.0496 0.0000 -10624.6717 1482.9608 0.0000 0.0000 1733.9870 -7398.2391 300.1658 -9132.2260 -7408.0187 297.1539 579.6607 641.4308 29637.0673 -237.2561 -168.1455
ENERGY: 900000 2.7013 3.4825 4.0533 0.0000 -10724.2568 1506.7642 0.0000 0.0000 1737.2015 -7470.0540 300.7222 -9207.2554 -7411.3778 297.4040 702.1401 719.6785 29528.0976 -60.7096 5.7035
ENERGY: 1200000 4.9064 5.0973 4.0556 0.0000 -10535.6409 1365.6110 0.0000 0.0000 1770.3834 -7385.5874 306.4663 -9155.9708 -7407.6805 298.6204 -666.6341 -600.4646 30016.7030 -82.3143 -12.9836
ENERGY: 1500000 2.1981 5.2418 4.0523 0.0000 -10693.9499 1551.5828 0.0000 0.0000 1747.6349 -7383.2400 302.5283 -9130.8749 -7403.9033 299.4122 765.8417 784.5231 30250.2319 18.5453 81.4144
TCL: Running FEP window  13: Lambda1 0.39999999999999963 Lambda2 0.34999999999999964 [dLambda -0.04999999999999999]
TCL: Setting parameter firsttimestep to 0
TCL: Setting parameter alchLambda to 0.39999999999999963
Info: NONBONDED TABLE R-SQUARED SPACING: 0.0625
Info: NONBONDED TABLE SIZE: 705 POINTS
TCL: Setting parameter alchLambda2 to 0.34999999999999964
Info: NONBONDED TABLE R-SQUARED SPACING: 0.0625
Info: NONBONDED TABLE SIZE: 705 POINTS
TCL: Running for 1500000 steps
ETITLE: TS BOND ANGLE DIHED IMPRP ELECT VDW BOUNDARY MISC KINETIC TOTAL TEMP POTENTIAL TOTALAVG TEMPAVG PRESSURE GPRESSURE VOLUME PRESSAVG GPRESSAVG
ENERGY: 0 2.1981 5.2418 4.0523 0.0000 -10693.9500 1551.6894 0.0000 0.0000 1746.7989 -7383.9694 302.3836 -9130.7684 -7383.9694 302.3836 684.3275 778.9603 30250.2319 684.3275 778.9603
ENERGY: 300000 2.1264 2.4713 4.0536 0.0000 -10627.3101 1482.4336 0.0000 0.0000 1771.8267 -7364.3986 306.7161 -9136.2252 -7355.8017 305.2640 677.6361 756.4732 29872.0654 255.7733 329.1225
ENERGY: 600000 3.0926 2.5653 4.0489 0.0000 -10418.7160 1351.8772 0.0000 0.0000 1718.1722 -7338.9599 297.4281 -9057.1321 -7349.6365 303.6882 -332.7793 -272.9863 29806.4498 133.7122 208.6183
ENERGY: 900000 1.4205 2.3087 4.0491 0.0000 -10428.1623 1288.2342 0.0000 0.0000 1768.4410 -7363.7087 306.1300 -9132.1497 -7373.1068 302.5694 -1050.2754 -1024.3014 30184.6079 -85.8617 -27.8525
ENERGY: 1200000 2.3419 3.6394 4.0513 0.0000 -10582.4085 1457.9195 0.0000 0.0000 1744.1260 -7370.3304 301.9209 -9114.4564 -7367.6830 302.4521 105.0187 87.1296 30249.1697 -77.6521 -22.0486
ENERGY: 1500000 1.4276 1.4807 4.0512 0.0000 -10452.8442 1394.4837 0.0000 0.0000 1744.6805 -7306.7205 302.0169 -9051.4010 -7370.7644 301.8962 -381.1780 -353.8024 30769.7283 -132.8738 -76.5517
TCL: Running FEP window  14: Lambda1 0.34999999999999964 Lambda2 0.29999999999999966 [dLambda -0.04999999999999999]
TCL: Setting parameter firsttimestep to 0
TCL: Setting parameter alchLambda to 0.34999999999999964
Info: NONBONDED TABLE R-SQUARED SPACING: 0.0625
Info: NONBONDED TABLE SIZE: 705 POINTS
TCL: Setting parameter alchLambda2 to 0.29999999999999966
Info: NONBONDED TABLE R-SQUARED SPACING: 0.0625
Info: NONBONDED TABLE SIZE: 705 POINTS
TCL: Running for 1500000 steps
ETITLE: TS BOND ANGLE DIHED IMPRP ELECT VDW BOUNDARY MISC KINETIC TOTAL TEMP POTENTIAL TOTALAVG TEMPAVG PRESSURE GPRESSURE VOLUME PRESSAVG GPRESSAVG
ENERGY: 0 1.4276 1.4807 4.0512 0.0000 -10452.8438 1394.9609 0.0000 0.0000 1743.7877 -7307.1357 301.8624 -9050.9234 -7307.1357 301.8624 -425.2342 -353.6906 30769.7283 -425.2342 -353.6906
ENERGY: 300000 1.6455 3.7718 4.0523 0.0000 -10566.1454 1437.3538 0.0000 0.0000 1721.8600 -7397.4619 298.0665 -9119.3219 -7347.4769 299.4875 -185.1203 -51.8217 30118.6003 60.1429 141.3186
ENERGY: 600000 1.5330 2.0621 4.0482 0.0000 -10516.9071 1408.3075 0.0000 0.0000 1775.3314 -7325.6250 307.3228 -9100.9564 -7361.9807 300.8680 71.0578 138.1242 29764.7405 -48.4853 34.7957
ENERGY: 900000 6.1570 1.8920 4.0499 0.0000 -10610.5782 1369.6801 0.0000 0.0000 1742.6674 -7486.1318 301.6684 -9228.7993 -7376.3180 299.4787 -829.9052 -811.0670 29891.5317 -86.5795 -19.9600
ENERGY: 1200000 0.7504 2.6685 4.0499 0.0000 -10642.4441 1471.9992 0.0000 0.0000 1703.3423 -7459.6338 294.8610 -9162.9761 -7383.9264 298.3303 265.4240 405.1963 29586.8263 -39.4904 30.7550
ENERGY: 1500000 1.4386 3.8799 4.0483 0.0000 -10587.1715 1439.5597 0.0000 0.0000 1715.7822 -7422.4628 297.0144 -9138.2450 -7385.6983 298.4840 -52.4967 4.2753 30046.6107 22.2301 88.9566
TCL: Running FEP window  15: Lambda1 0.29999999999999966 Lambda2 0.24999999999999967 [dLambda -0.04999999999999999]
TCL: Setting parameter firsttimestep to 0
TCL: Setting parameter alchLambda to 0.29999999999999966
Info: NONBONDED TABLE R-SQUARED SPACING: 0.0625
Info: NONBONDED TABLE SIZE: 705 POINTS
TCL: Setting parameter alchLambda2 to 0.24999999999999967
Info: NONBONDED TABLE R-SQUARED SPACING: 0.0625
Info: NONBONDED TABLE SIZE: 705 POINTS
TCL: Running for 1500000 steps
ETITLE: TS BOND ANGLE DIHED IMPRP ELECT VDW BOUNDARY MISC KINETIC TOTAL TEMP POTENTIAL TOTALAVG TEMPAVG PRESSURE GPRESSURE VOLUME PRESSAVG GPRESSAVG
ENERGY: 0 1.4386 3.8799 4.0483 0.0000 -10587.1712 1439.3787 0.0000 0.0000 1714.8966 -7423.5293 296.8611 -9138.4259 -7423.5293 296.8611 -94.7246 -2.7770 30046.6107 -94.7246 -2.7770
ENERGY: 300000 3.4468 2.3790 4.0499 0.0000 -10662.9780 1488.7180 0.0000 0.0000 1696.4439 -7467.9404 293.6668 -9164.3843 -7418.9772 296.9124 140.6974 254.2583 30155.8021 -141.3001 -37.9860
ENERGY: 600000 3.6562 2.9839 4.0489 0.0000 -10464.7706 1407.3977 0.0000 0.0000 1710.2248 -7336.4591 296.0524 -9046.6839 -7388.0743 298.7466 -41.3314 -0.4089 29916.3289 -31.1171 43.8101
ENERGY: 900000 1.6447 2.9816 4.0518 0.0000 -10638.0804 1471.6813 0.0000 0.0000 1750.4574 -7407.2635 303.0169 -9157.7209 -7381.9498 299.3919 264.6090 241.4221 29849.7534 44.2731 107.5238
ENERGY: 1200000 1.5745 4.0414 4.0604 0.0000 -10466.7003 1427.0709 0.0000 0.0000 1709.7134 -7320.2397 295.9639 -9029.9531 -7361.2355 300.4010 59.7545 62.4524 29968.5998 -25.9970 35.9570
ENERGY: 1500000 1.5290 0.8328 4.0502 0.0000 -10387.2524 1320.2427 0.0000 0.0000 1688.5797 -7372.0180 292.3055 -9060.5977 -7363.2373 299.7441 -593.2562 -478.4362 29938.1914 -110.9154 -42.3614
TCL: Running FEP window  16: Lambda1 0.24999999999999967 Lambda2 0.19999999999999968 [dLambda -0.04999999999999999]
TCL: Setting parameter firsttimestep to 0
TCL: Setting parameter alchLambda to 0.24999999999999967
Info: NONBONDED TABLE R-SQUARED SPACING: 0.0625
Info: NONBONDED TABLE SIZE: 705 POINTS
TCL: Setting parameter alchLambda2 to 0.19999999999999968
Info: NONBONDED TABLE R-SQUARED SPACING: 0.0625
Info: NONBONDED TABLE SIZE: 705 POINTS
TCL: Running for 1500000 steps
ETITLE: TS BOND ANGLE DIHED IMPRP ELECT VDW BOUNDARY MISC KINETIC TOTAL TEMP POTENTIAL TOTALAVG TEMPAVG PRESSURE GPRESSURE VOLUME PRESSAVG GPRESSAVG
ENERGY: 0 1.5290 0.8328 4.0502 0.0000 -10387.2513 1320.7481 0.0000 0.0000 1687.7019 -7372.3894 292.1535 -9060.0913 -7372.3894 292.1535 -558.0534 -478.8405 29938.1914 -558.0534 -478.8405
ENERGY: 300000 2.3344 4.5024 4.0452 0.0000 -10577.1980 1449.7881 0.0000 0.0000 1734.1488 -7382.3792 300.1938 -9116.5280 -7376.6652 297.1502 180.5173 182.3698 29944.5968 19.9013 81.9739
ENERGY: 600000 0.5302 3.1640 4.0468 0.0000 -10662.2466 1513.6434 0.0000 0.0000 1694.1096 -7446.7526 293.2627 -9140.8621 -7367.7841 299.4482 566.0049 666.1692 29862.0630 218.2884 287.4789
ENERGY: 900000 1.9445 3.0269 4.0537 0.0000 -10550.9452 1382.9703 0.0000 0.0000 1746.5572 -7412.3927 302.3418 -9158.9499 -7368.5475 300.3987 -488.0383 -500.5574 30244.5355 196.9931 258.7768
ENERGY: 1200000 2.7035 1.6825 4.0505 0.0000 -10489.0799 1438.5545 0.0000 0.0000 1689.6122 -7352.4766 292.4842 -9042.0889 -7368.7067 299.5721 154.6933 113.1336 30215.2964 115.1732 170.5809
ENERGY: 1500000 1.8182 4.4604 4.0471 0.0000 -10568.4258 1381.9580 0.0000 0.0000 1731.8758 -7444.2663 299.8003 -9176.1421 -7376.7677 299.7165 -584.1608 -553.7145 29854.5289 116.7830 177.0153
TCL: Running FEP window  17: Lambda1 0.19999999999999968 Lambda2 0.1499999999999997 [dLambda -0.04999999999999999]
TCL: Setting parameter firsttimestep to 0
TCL: Setting parameter alchLambda to 0.19999999999999968
Info: NONBONDED TABLE R-SQUARED SPACING: 0.0625
Info: NONBONDED TABLE SIZE: 705 POINTS
TCL: Setting parameter alchLambda2 to 0.1499999999999997
Info: NONBONDED TABLE R-SQUARED SPACING: 0.0625
Info: NONBONDED TABLE SIZE: 705 POINTS
TCL: Running for 1500000 steps
ETITLE: TS BOND ANGLE DIHED IMPRP ELECT VDW BOUNDARY MISC KINETIC TOTAL TEMP POTENTIAL TOTALAVG TEMPAVG PRESSURE GPRESSURE VOLUME PRESSAVG GPRESSAVG
ENERGY: 0 1.8182 4.4604 4.0471 0.0000 -10568.4273 1381.8420 0.0000 0.0000 1731.0050 -7445.2546 299.6496 -9176.2596 -7445.2546 299.6496 -637.3303 -555.5504 29854.5289 -637.3303 -555.5504
ENERGY: 300000 2.4791 5.6212 4.0547 0.0000 -10491.4798 1367.1423 0.0000 0.0000 1717.3507 -7394.8320 297.2859 -9112.1827 -7397.0515 298.7242 -515.5347 -457.7483 29892.1888 -242.3117 -191.1171
ENERGY: 600000 0.7242 3.1469 4.0515 0.0000 -10477.5906 1472.7430 0.0000 0.0000 1733.4448 -7263.4802 300.0719 -8996.9250 -7345.0411 300.5197 595.7109 648.2107 30148.5540 38.6739 101.6271
ENERGY: 900000 2.0721 3.2197 4.0457 0.0000 -10554.0793 1370.2499 0.0000 0.0000 1712.2422 -7462.2498 296.4016 -9174.4920 -7348.7394 300.7583 -637.2366 -575.3705 30108.0619 -83.5195 -26.5522
ENERGY: 1200000 2.2340 6.3077 4.0434 0.0000 -10555.4671 1423.3824 0.0000 0.0000 1730.8689 -7388.6307 299.6260 -9119.4996 -7360.9871 300.2517 49.5440 131.3855 29649.4317 -128.0841 -64.5769
ENERGY: 1500000 4.8774 1.9097 4.0489 0.0000 -10653.2986 1555.1072 0.0000 0.0000 1764.2142 -7323.1413 305.3983 -9087.3555 -7359.9757 300.4052 969.9527 1013.2492 29823.2888 -92.2879 -29.8343
TCL: Running FEP window  18: Lambda1 0.1499999999999997 Lambda2 0.09999999999999969 [dLambda -0.05 ]
TCL: Setting parameter firsttimestep to 0
TCL: Setting parameter alchLambda to 0.1499999999999997
Info: NONBONDED TABLE R-SQUARED SPACING: 0.0625
Info: NONBONDED TABLE SIZE: 705 POINTS
TCL: Setting parameter alchLambda2 to 0.09999999999999969
Info: NONBONDED TABLE R-SQUARED SPACING: 0.0625
Info: NONBONDED TABLE SIZE: 705 POINTS
TCL: Running for 1500000 steps
ETITLE: TS BOND ANGLE DIHED IMPRP ELECT VDW BOUNDARY MISC KINETIC TOTAL TEMP POTENTIAL TOTALAVG TEMPAVG PRESSURE GPRESSURE VOLUME PRESSAVG GPRESSAVG
ENERGY: 0 4.8774 1.9097 4.0489 0.0000 -10653.2977 1554.9975 0.0000 0.0000 1763.3170 -7324.1473 305.2430 -9087.4643 -7324.1473 305.2430 944.8201 1007.4885 29823.2888 944.8201 1007.4885
ENERGY: 300000 1.4261 1.3595 4.0495 0.0000 -10521.1531 1447.2543 0.0000 0.0000 1805.2870 -7261.7766 312.5083 -9067.0636 -7305.2377 306.0606 445.5158 543.2761 29672.7639 229.3316 299.4756
ENERGY: 600000 3.5757 2.0292 4.0493 0.0000 -10569.5949 1455.0896 0.0000 0.0000 1756.2080 -7348.6431 304.0124 -9104.8511 -7331.6950 304.2560 54.1045 150.2279 29934.6287 -6.2307 61.2168
ENERGY: 900000 2.7021 0.9345 4.0504 0.0000 -10527.1297 1447.4933 0.0000 0.0000 1713.9141 -7358.0353 296.6910 -9071.9494 -7345.0456 304.5231 611.3734 625.7974 29294.8055 -51.7232 13.4044
ENERGY: 1200000 2.6242 4.0757 4.0494 0.0000 -10471.2437 1379.9670 0.0000 0.0000 1725.7825 -7354.7448 298.7455 -9080.5273 -7350.4917 303.2806 -296.1156 -214.6116 30143.4469 -71.7589 -7.9163
ENERGY: 1500000 2.1273 1.4469 4.0482 0.0000 -10617.3223 1494.3668 0.0000 0.0000 1721.2073 -7394.1260 297.9535 -9115.3332 -7355.8435 302.7638 685.2600 743.2233 29485.5812 -42.5879 18.7720
TCL: Running FEP window  19: Lambda1 0.09999999999999969 Lambda2 0.049999999999999684 [dLambda -0.05 ]
TCL: Setting parameter firsttimestep to 0
TCL: Setting parameter alchLambda to 0.09999999999999969
Info: NONBONDED TABLE R-SQUARED SPACING: 0.0625
Info: NONBONDED TABLE SIZE: 705 POINTS
TCL: Setting parameter alchLambda2 to 0.049999999999999684
Info: NONBONDED TABLE R-SQUARED SPACING: 0.0625
Info: NONBONDED TABLE SIZE: 705 POINTS
TCL: Running for 1500000 steps
ETITLE: TS BOND ANGLE DIHED IMPRP ELECT VDW BOUNDARY MISC KINETIC TOTAL TEMP POTENTIAL TOTALAVG TEMPAVG PRESSURE GPRESSURE VOLUME PRESSAVG GPRESSAVG
ENERGY: 0 2.1273 1.4469 4.0482 0.0000 -10617.3227 1493.6696 0.0000 0.0000 1720.2919 -7395.7388 297.7951 -9116.0307 -7395.7388 297.7951 666.8633 735.7016 29485.5812 666.8633 735.7016
ENERGY: 300000 0.7961 2.3043 4.0493 0.0000 -10452.9806 1399.1228 0.0000 0.0000 1701.0910 -7345.6170 294.4713 -9046.7081 -7378.8701 298.6710 -230.8916 -156.2489 30400.6114 -32.5554 36.0777
ENERGY: 600000 1.3586 2.7788 4.0507 0.0000 -10555.3175 1463.3587 0.0000 0.0000 1736.0921 -7347.6785 300.5302 -9083.7706 -7366.3384 300.4776 494.7082 501.5300 29988.6103 48.8585 116.2314
ENERGY: 900000 3.2460 1.2155 4.0516 0.0000 -10489.5283 1402.6420 0.0000 0.0000 1669.9012 -7408.4721 289.0721 -9078.3732 -7368.7989 299.1083 -107.4267 -51.2431 29848.3999 -74.3477 2.1842
ENERGY: 1200000 2.9092 3.1591 4.0513 0.0000 -10598.3880 1453.0812 0.0000 0.0000 1707.4563 -7427.7308 295.5731 -9135.1871 -7373.8377 299.0761 215.7029 282.3389 29688.7848 -30.7597 34.6448
ENERGY: 1500000 1.2579 2.1384 4.0518 0.0000 -10638.4643 1452.8740 0.0000 0.0000 1669.7812 -7508.3610 289.0513 -9178.1422 -7383.3525 298.2565 -223.1327 -124.8675 30004.6764 -30.6799 36.4084
TCL: Running FEP window  20: Lambda1 0.049999999999999684 Lambda2 0.0    [dLambda -0.049999999999999684]
TCL: Setting parameter firsttimestep to 0
TCL: Setting parameter alchLambda to 0.049999999999999684
Info: NONBONDED TABLE R-SQUARED SPACING: 0.0625
Info: NONBONDED TABLE SIZE: 705 POINTS
TCL: Setting parameter alchLambda2 to 0.0
Info: NONBONDED TABLE R-SQUARED SPACING: 0.0625
Info: NONBONDED TABLE SIZE: 705 POINTS
TCL: Running for 1500000 steps
ETITLE: TS BOND ANGLE DIHED IMPRP ELECT VDW BOUNDARY MISC KINETIC TOTAL TEMP POTENTIAL TOTALAVG TEMPAVG PRESSURE GPRESSURE VOLUME PRESSAVG GPRESSAVG
ENERGY: 0 1.2579 2.1384 4.0518 0.0000 -10638.4639 1451.6659 0.0000 0.0000 1668.8940 -7510.4559 288.8977 -9179.3499 -7510.4559 288.8977 -218.0880 -134.0718 30004.6764 -218.0880 -134.0718
ENERGY: 300000 2.4692 2.2086 4.0499 0.0000 -10500.5133 1434.9981 0.0000 0.0000 1722.7149 -7334.0726 298.2145 -9056.7876 -7410.7296 295.7628 206.2688 201.7846 30085.2913 163.1190 215.1729
ENERGY: 600000 1.2318 4.5101 4.0470 0.0000 -10679.8027 1499.4663 0.0000 0.0000 1760.9195 -7409.6280 304.8280 -9170.5474 -7398.0144 299.3644 339.4723 429.5870 29846.0033 121.5635 180.9766
ENERGY: 900000 2.7927 2.6050 4.0516 0.0000 -10459.8129 1387.3741 0.0000 0.0000 1765.0071 -7297.9823 305.5356 -9062.9894 -7372.6891 301.0452 -248.2121 -155.9127 29852.2365 4.5445 64.5714
ENERGY: 1200000 1.5181 1.9050 4.0467 0.0000 -10534.7606 1359.4496 0.0000 0.0000 1646.9899 -7520.8512 285.1060 -9167.8411 -7389.2559 299.0081 -814.5324 -798.0034 30051.6624 17.3533 75.1900
ENERGY: 1500000 5.7198 5.0028 4.0478 0.0000 -10433.3747 1433.5641 0.0000 0.0000 1722.8046 -7262.2355 298.2300 -8985.0401 -7375.7948 299.0863 109.2929 121.8957 29983.6819 32.3244 85.5110
TCL: Exiting due to exit command.
