Info: SIMULATION PARAMETERS:
Info: TIMESTEP               2
Info: NUMBER OF STEPS        0
Info: STEPS PER CYCLE        10
Info: PERIODIC CELL BASIS 1  31.7399 0 0
Info: PERIODIC CELL BASIS 2  0 29.9719 0
Info: PERIODIC CELL BASIS 3  0 0 31.6682
Info: PERIODIC CELL CENTER   0 0 0
Info: WRAPPING WATERS AROUND PERIODIC BOUNDARIES ON OUTPUT.
Info: WRAPPING ALL CLUSTERS AROUND PERIODIC BOUNDARIES ON OUTPUT.
Info: FIRST LDB TIMESTEP     50
Info: LAST LDB TIMESTEP     -1
Info: HOM BACKGROUND SCALING 1
Info: PME BACKGROUND SCALING 1
Info: MIN ATOMS PER PATCH    40
Info: EMPTY PATCH LOAD       40 ATOMS
Info: VELOCITY FILE          mobley_8057732_equil.vel
Info: CENTER OF MASS MOVING INITIALLY? NO
Info: DIELECTRIC             1
Info: EXCLUDE                SCALED ONE-FOUR
Info: 1-4 ELECTROSTATICS SCALED BY 0.833333
Info: MODIFIED 1-4 VDW PARAMETERS WILL BE USED
Info: DCD FILENAME           mobley_8057732_prod.dcd
Info: DCD FREQUENCY          100000
Info: DCD FIRST STEP         100000
Info: DCD FILE WILL CONTAIN UNIT CELL DATA
Info: XST FILENAME           mobley_8057732_prod.xst
Info: XST FREQUENCY          100000
Info: NO VELOCITY DCD OUTPUT
Info: NO FORCE DCD OUTPUT
Info: OUTPUT FILENAME        mobley_8057732_prod
Info: BINARY OUTPUT FILES WILL BE USED
Info: RESTART FILENAME       mobley_8057732_prod.restart
Info: RESTART FREQUENCY      100000
Info: BINARY RESTART FILES WILL BE USED
Info: CUTOFF                 9
Info: PAIRLIST DISTANCE      11
Info: PAIRLIST SHRINK RATE   0.01
Info: PAIRLIST GROW RATE     0.01
Info: PAIRLIST TRIGGER       0.3
Info: PAIRLISTS PER CYCLE    2
Info: PAIRLISTS ENABLED
Info: MARGIN                 2
Info: HYDROGEN GROUP CUTOFF  2.5
Info: PATCH DIMENSION        15.5
Info: ENERGY OUTPUT STEPS    100000
Info: ENERGY EVALUATION STEPS    100000
Info: OUTPUT ENERGY PRECISION 4
Info: CROSSTERM ENERGY INCLUDED IN DIHEDRAL
Info: TIMING OUTPUT STEPS    1000000
Info: PRESSURE OUTPUT STEPS  100000
Info: ALCHEMICAL FEP ON
Info: FEP CURRENT LAMBDA VALUE     0
Info: FEP COMPARISON LAMBDA VALUE  0.05
Info: FEP INTRA-ALCHEMICAL NON-BONDED INTERACTIONS WILL BE RETAINED
Info: FEP INTRA-ALCHEMICAL BONDED INTERACTIONS WILL BE RETAINED
Info: FEP VDW SHIFTING COEFFICIENT 5
Info: FEP ELEC. ACTIVE FOR ANNIHILATED PARTICLES BETWEEN LAMBDA = 0 AND LAMBDA = 0.5
Info: FEP ELEC. ACTIVE FOR EXNIHILATED PARTICLES BETWEEN LAMBDA = 0.5 AND LAMBDA = 1
Info: FEP VDW ACTIVE FOR ANNIHILATED PARTICLES BETWEEN LAMBDA = 0 AND LAMBDA = 1
Info: FEP VDW ACTIVE FOR EXNIHILATED PARTICLES BETWEEN LAMBDA = 0 AND LAMBDA = 1
Info: FEP BOND ACTIVE FOR ANNIHILATED PARTICLES BETWEEN LAMBDA = 1 AND LAMBDA = 1
Info: FEP BOND ACTIVE FOR EXNIHILATED PARTICLES BETWEEN LAMBDA = 0 AND LAMBDA = 0
Info: LANGEVIN DYNAMICS ACTIVE
Info: LANGEVIN TEMPERATURE   300
Info: LANGEVIN USING BBK INTEGRATOR
Info: LANGEVIN DAMPING COEFFICIENT IS 1 INVERSE PS
Info: LANGEVIN DYNAMICS APPLIED TO HYDROGENS
Info: LANGEVIN PISTON PRESSURE CONTROL ACTIVE
Info:        TARGET PRESSURE IS 1.01325 BAR
Info:     OSCILLATION PERIOD IS 50 FS
Info:             DECAY TIME IS 25 FS
Info:     PISTON TEMPERATURE IS 300 K
Info:       PRESSURE CONTROL IS GROUP-BASED
Info:    INITIAL STRAIN RATE IS -0.00013217 -0.00013217 -0.00013217
Info:       CELL FLUCTUATION IS ISOTROPIC
Info: PARTICLE MESH EWALD (PME) ACTIVE
Info: PME TOLERANCE               1e-06
Info: PME EWALD COEFFICIENT       0.348832
Info: PME INTERPOLATION ORDER     4
Info: PME GRID DIMENSIONS         32 32 32
Info: PME MAXIMUM GRID SPACING    1
Info: PME CALCULATION WILL BE PERFORMED ON GPU
Info: FULL ELECTROSTATIC EVALUATION FREQUENCY      2
Info: USING VERLET I (r-RESPA) MTS SCHEME.
Info: C1 SPLITTING OF LONG RANGE ELECTROSTATICS
Info: PLACING ATOMS IN PATCHES BY HYDROGEN GROUPS
Info: RIGID BONDS TO HYDROGEN : ALL
Info:         ERROR TOLERANCE : 1e-08
Info:          MAX ITERATIONS : 100
Info: RIGID WATER USING SETTLE ALGORITHM
Info: RANDOM NUMBER SEED     1743550986
Info: USE HYDROGEN BONDS?    NO
Info: Using AMBER format force field!
Info: AMBER PARM FILE        mobley_8057732.prmtop
Info: COORDINATE PDB         mobley_8057732.pdb
Info: Exclusions will be read from PARM file!
Info: SCNB (VDW SCALING)     2
Info: USING ARITHMETIC MEAN TO COMBINE L-J SIGMA PARAMETERS
Info: BINARY COORDINATES     mobley_8057732_equil.coor
Info: SUMMARY OF PARAMETERS:
Info: 7 BONDS
Info: 5 ANGLES
Info:   5 HARMONIC
Info:   0 COSINE-BASED
Info: 3 DIHEDRAL
Info: 0 IMPROPER
Info: 0 CROSSTERM
Info: 0 VDW
Info: 21 VDW_PAIRS
Info: 0 NBTHOLE_PAIRS
Info: To read alchdata from file: mobley_8057732.pdb
Info: To read alchflag data from column: 5
Info: STRUCTURE SUMMARY:
Info: 2962 ATOMS
Info: 2962 BONDS
Info: 19 ANGLES
Info: 32 DIHEDRALS
Info: 0 IMPROPERS
Info: 0 CROSSTERMS
Info: 3004 EXCLUSIONS
Info: 2954 RIGID BONDS
Info: ALCH: 0 ATOMS TO DISAPPEAR IN FINAL STATE
Info: ALCH: 13 ATOMS TO APPEAR IN FINAL STATE
Info: 5932 DEGREES OF FREEDOM
Info: 991 HYDROGEN GROUPS
Info: 3 ATOMS IN LARGEST HYDROGEN GROUP
Info: 991 MIGRATION GROUPS
Info: 3 ATOMS IN LARGEST MIGRATION GROUP
Info: TOTAL MASS = 17838.3 amu
Info: TOTAL CHARGE = -0.000199962 e
Info: MASS DENSITY = 0.983263 g/cm^3
Info: ATOM DENSITY = 0.0983202 atoms/A^3
Info: ADDED 0 IMPLICIT EXCLUSIONS
Info: NONBONDED TABLE R-SQUARED SPACING: 0.0625
Info: NONBONDED TABLE SIZE: 705 POINTS
Info: REMOVING COM VELOCITY -0.15537 0.0770503 -0.0502306
Info: Use 3D box decompostion in PME FFT.
Info: Updated CUDA force table with 4096 elements.
Info: Updated CUDA LJ table with 6 x 6 elements.
Info: Found 16 unique exclusion lists needing 32 bytes
TCL: Running for 1500000 steps
ETITLE: TS BOND ANGLE DIHED IMPRP ELECT VDW BOUNDARY MISC KINETIC TOTAL TEMP POTENTIAL TOTALAVG TEMPAVG PRESSURE GPRESSURE VOLUME PRESSAVG GPRESSAVG
ENERGY: 0 5.2064 5.4779 3.3916 0.0000 -10728.2103 1418.5359 0.0000 0.0000 1795.9000 -7499.6985 304.6993 -9295.5986 -7499.6985 304.6993 -142.3246 -65.5087 30126.0643 -142.3246 -65.5087
ENERGY: 300000 5.0211 2.1470 1.6683 0.0000 -10883.0712 1493.9919 0.0000 0.0000 1775.9408 -7604.3023 301.3129 -9380.2430 -7547.4947 300.1808 104.5267 128.4215 30126.6574 0.0749 68.5003
ENERGY: 600000 2.1193 2.6743 3.9837 0.0000 -10749.3545 1388.4604 0.0000 0.0000 1839.5640 -7512.5528 312.1075 -9352.1168 -7528.7185 301.9366 -653.8867 -550.4703 30531.3894 -148.6238 -80.0754
ENERGY: 900000 1.4026 4.3493 0.9885 0.0000 -10774.2864 1459.2914 0.0000 0.0000 1765.4608 -7542.7937 299.5348 -9308.2545 -7532.9540 300.7032 -295.1831 -285.6455 31031.3296 -200.9660 -136.3924
ENERGY: 1200000 3.4542 3.9700 0.7919 0.0000 -10663.1091 1338.5922 0.0000 0.0000 1767.1364 -7549.1642 299.8191 -9316.3006 -7537.3340 300.6679 -639.8922 -568.9801 29915.5831 -232.0928 -172.9385
ENERGY: 1500000 1.7460 2.8159 4.3202 0.0000 -10669.5390 1398.0257 0.0000 0.0000 1739.1174 -7523.5138 295.0653 -9262.6312 -7543.3265 299.9277 -119.7688 -29.1711 30117.9770 -256.7069 -188.3425
TCL: Running FEP window   2: Lambda1 0.05   Lambda2 0.1    [dLambda 0.05  ]
TCL: Setting parameter firsttimestep to 0
TCL: Setting parameter alchLambda to 0.05
Info: NONBONDED TABLE R-SQUARED SPACING: 0.0625
Info: NONBONDED TABLE SIZE: 705 POINTS
TCL: Setting parameter alchLambda2 to 0.1
Info: NONBONDED TABLE R-SQUARED SPACING: 0.0625
Info: NONBONDED TABLE SIZE: 705 POINTS
TCL: Running for 1500000 steps
ETITLE: TS BOND ANGLE DIHED IMPRP ELECT VDW BOUNDARY MISC KINETIC TOTAL TEMP POTENTIAL TOTALAVG TEMPAVG PRESSURE GPRESSURE VOLUME PRESSAVG GPRESSAVG
ENERGY: 0 1.7460 2.8159 4.3202 0.0000 -10669.5384 1399.8364 0.0000 0.0000 1738.2351 -7522.5848 294.9156 -9260.8199 -7522.5848 294.9156 -115.4754 -23.4209 30117.9770 -115.4754 -23.4209
ENERGY: 300000 2.8605 5.7959 2.2070 0.0000 -10752.5470 1468.7856 0.0000 0.0000 1759.8510 -7513.0470 298.5830 -9272.8980 -7507.6366 302.5619 476.9933 475.2890 30082.6618 -184.2281 -135.6397
ENERGY: 600000 0.8084 3.1803 5.3590 0.0000 -10687.5576 1402.8049 0.0000 0.0000 1802.9105 -7472.4945 305.8887 -9275.4050 -7498.0231 301.5657 -379.7681 -285.0675 30820.4121 -326.4384 -257.3006
ENERGY: 900000 1.4527 3.6825 3.1330 0.0000 -10736.3903 1404.8950 0.0000 0.0000 1801.0169 -7522.2102 305.5674 -9323.2271 -7501.3719 301.1831 -363.3018 -315.5491 30299.9829 -157.8256 -102.7327
ENERGY: 1200000 2.8247 2.2979 1.3178 0.0000 -10827.9070 1420.6961 0.0000 0.0000 1727.0533 -7673.7173 293.0185 -9400.7706 -7524.3543 300.0485 -286.9332 -150.8853 29752.9706 -170.8599 -114.6143
ENERGY: 1500000 3.3549 3.9195 7.4556 0.0000 -10825.9832 1485.0772 0.0000 0.0000 1799.4802 -7526.6959 305.3067 -9326.1761 -7531.2558 300.7517 380.0152 437.7975 29830.0152 -114.6095 -56.3735
TCL: Running FEP window   3: Lambda1 0.1    Lambda2 0.15000000000000002 [dLambda 0.05000000000000002]
TCL: Setting parameter firsttimestep to 0
TCL: Setting parameter alchLambda to 0.1
Info: NONBONDED TABLE R-SQUARED SPACING: 0.0625
Info: NONBONDED TABLE SIZE: 705 POINTS
TCL: Setting parameter alchLambda2 to 0.15000000000000002
Info: NONBONDED TABLE R-SQUARED SPACING: 0.0625
Info: NONBONDED TABLE SIZE: 705 POINTS
TCL: Running for 1500000 steps
ETITLE: TS BOND ANGLE DIHED IMPRP ELECT VDW BOUNDARY MISC KINETIC TOTAL TEMP POTENTIAL TOTALAVG TEMPAVG PRESSURE GPRESSURE VOLUME PRESSAVG GPRESSAVG
ENERGY: 0 3.3549 3.9195 7.4556 0.0000 -10825.9830 1485.5674 0.0000 0.0000 1798.5903 -7527.0954 305.1557 -9325.6857 -7527.0954 305.1557 345.5544 443.1998 29830.0152 345.5544 443.1998
ENERGY: 300000 1.2813 2.5632 2.0549 0.0000 -10692.0025 1405.8409 0.0000 0.0000 1820.8255 -7459.4366 308.9282 -9280.2621 -7513.6349 303.8690 -96.5425 -65.3769 30291.7480 133.0459 195.1829
ENERGY: 600000 1.1864 3.0162 4.6973 0.0000 -10774.2005 1501.4868 0.0000 0.0000 1794.2169 -7469.5969 304.4137 -9263.8138 -7492.1531 304.2388 403.4099 452.2024 30762.8401 99.1532 166.8541
ENERGY: 900000 3.7478 0.9742 3.5997 0.0000 -10829.6883 1496.4948 0.0000 0.0000 1809.9825 -7514.8893 307.0885 -9324.8718 -7500.6903 302.7632 142.6866 208.6644 30775.7858 73.4979 139.9699
ENERGY: 1200000 3.2130 4.1200 6.3349 0.0000 -10638.4085 1385.8162 0.0000 0.0000 1740.9885 -7497.9359 295.3828 -9238.9244 -7509.5645 302.0882 -328.5237 -257.3805 30241.3581 113.4947 179.5037
ENERGY: 1500000 6.9015 1.0534 1.7589 0.0000 -10665.0261 1380.1719 0.0000 0.0000 1745.2267 -7529.9136 296.1018 -9275.1403 -7513.6474 301.5016 -1150.5045 -1012.5519 31321.9717 -8.6589 56.0688
TCL: Running FEP window   4: Lambda1 0.15000000000000002 Lambda2 0.2    [dLambda 0.04999999999999999]
TCL: Setting parameter firsttimestep to 0
TCL: Setting parameter alchLambda to 0.15000000000000002
Info: NONBONDED TABLE R-SQUARED SPACING: 0.0625
Info: NONBONDED TABLE SIZE: 705 POINTS
TCL: Setting parameter alchLambda2 to 0.2
Info: NONBONDED TABLE R-SQUARED SPACING: 0.0625
Info: NONBONDED TABLE SIZE: 705 POINTS
TCL: Running for 1500000 steps
ETITLE: TS BOND ANGLE DIHED IMPRP ELECT VDW BOUNDARY MISC KINETIC TOTAL TEMP POTENTIAL TOTALAVG TEMPAVG PRESSURE GPRESSURE VOLUME PRESSAVG GPRESSAVG
ENERGY: 0 6.9015 1.0534 1.7589 0.0000 -10665.0257 1379.8846 0.0000 0.0000 1744.3115 -7531.1156 295.9466 -9275.4272 -7531.1156 295.9466 -1104.2467 -1015.2121 31321.9717 -1104.2467 -1015.2121
ENERGY: 300000 4.4106 2.5283 1.1714 0.0000 -10611.1496 1327.0699 0.0000 0.0000 1782.9303 -7493.0392 302.4988 -9275.9695 -7503.7542 298.4516 -881.5070 -865.1499 30619.4926 -784.3778 -711.7870
ENERGY: 600000 1.3749 2.7881 5.2308 0.0000 -10742.6459 1376.2064 0.0000 0.0000 1800.2907 -7556.7550 305.4442 -9357.0457 -7513.1251 300.1961 -568.3955 -518.0112 30177.5798 -655.0577 -582.5270
ENERGY: 900000 1.4290 1.8052 3.9539 0.0000 -10807.5201 1514.6040 0.0000 0.0000 1809.3430 -7476.3851 306.9800 -9285.7281 -7507.3945 301.1901 477.6747 543.0267 30461.1593 -364.2407 -292.7505
ENERGY: 1200000 1.0492 6.7224 4.2139 0.0000 -10650.1282 1400.5234 0.0000 0.0000 1750.7440 -7486.8753 297.0379 -9237.6193 -7509.5097 300.6099 -428.3773 -314.8744 30763.8399 -288.5337 -209.9739
ENERGY: 1500000 2.4969 3.0109 2.1282 0.0000 -10685.8108 1368.4075 0.0000 0.0000 1681.5373 -7628.2302 285.2960 -9309.7674 -7521.4019 298.9174 -576.0615 -599.1337 30306.1869 -309.1221 -231.9701
TCL: Running FEP window   5: Lambda1 0.2    Lambda2 0.25   [dLambda 0.04999999999999999]
TCL: Setting parameter firsttimestep to 0
TCL: Setting parameter alchLambda to 0.2
Info: NONBONDED TABLE R-SQUARED SPACING: 0.0625
Info: NONBONDED TABLE SIZE: 705 POINTS
TCL: Setting parameter alchLambda2 to 0.25
Info: NONBONDED TABLE R-SQUARED SPACING: 0.0625
Info: NONBONDED TABLE SIZE: 705 POINTS
TCL: Running for 1500000 steps
ETITLE: TS BOND ANGLE DIHED IMPRP ELECT VDW BOUNDARY MISC KINETIC TOTAL TEMP POTENTIAL TOTALAVG TEMPAVG PRESSURE GPRESSURE VOLUME PRESSAVG GPRESSAVG
ENERGY: 0 2.4969 3.0109 2.1282 0.0000 -10685.8114 1368.6309 0.0000 0.0000 1680.6186 -7628.9260 285.1402 -9309.5446 -7628.9260 285.1402 -670.7429 -592.2048 30306.1869 -670.7429 -592.2048
ENERGY: 300000 2.4105 5.7909 4.6239 0.0000 -10572.9276 1354.8448 0.0000 0.0000 1725.8244 -7479.4331 292.8100 -9205.2575 -7535.1748 290.9688 -485.1018 -421.4962 30364.4030 -234.2083 -193.6076
ENERGY: 600000 3.6399 2.8123 2.5389 0.0000 -10842.9277 1473.9817 0.0000 0.0000 1739.7816 -7620.1733 295.1780 -9359.9549 -7562.6309 295.4970 -131.3921 -42.2918 30389.2851 -274.7520 -222.9052
ENERGY: 900000 0.5060 2.0213 3.0994 0.0000 -10793.7115 1396.5125 0.0000 0.0000 1830.0493 -7561.5229 310.4932 -9391.5722 -7560.4743 298.4514 -515.8846 -414.6597 30150.9288 -132.9209 -71.6206
ENERGY: 1200000 4.8511 1.1949 3.3650 0.0000 -10686.5183 1365.2030 0.0000 0.0000 1736.1432 -7575.7611 294.5607 -9311.9043 -7555.4197 299.0767 -819.6585 -800.3170 30458.0031 -196.8660 -131.9741
ENERGY: 1500000 1.0352 4.0995 1.7664 0.0000 -10721.4052 1382.3245 0.0000 0.0000 1783.5819 -7548.5977 302.6093 -9332.1797 -7556.5240 299.1009 -660.5996 -579.1601 30525.2737 -209.6922 -151.9711
TCL: Running FEP window   6: Lambda1 0.25   Lambda2 0.3    [dLambda 0.04999999999999999]
TCL: Setting parameter firsttimestep to 0
TCL: Setting parameter alchLambda to 0.25
Info: NONBONDED TABLE R-SQUARED SPACING: 0.0625
Info: NONBONDED TABLE SIZE: 705 POINTS
TCL: Setting parameter alchLambda2 to 0.3
Info: NONBONDED TABLE R-SQUARED SPACING: 0.0625
Info: NONBONDED TABLE SIZE: 705 POINTS
TCL: Running for 1500000 steps
ETITLE: TS BOND ANGLE DIHED IMPRP ELECT VDW BOUNDARY MISC KINETIC TOTAL TEMP POTENTIAL TOTALAVG TEMPAVG PRESSURE GPRESSURE VOLUME PRESSAVG GPRESSAVG
ENERGY: 0 1.0352 4.0995 1.7664 0.0000 -10721.4058 1382.5168 0.0000 0.0000 1782.7113 -7549.2767 302.4616 -9331.9880 -7549.2767 302.4616 -673.6046 -576.4620 30525.2737 -673.6046 -576.4620
ENERGY: 300000 3.6839 1.6365 3.7612 0.0000 -10740.3048 1417.6562 0.0000 0.0000 1799.0057 -7514.5613 305.2262 -9313.5670 -7503.3213 303.4325 -568.4178 -502.3497 30683.2079 -363.6802 -280.4762
ENERGY: 600000 2.6859 1.8692 4.7163 0.0000 -10872.4517 1535.6070 0.0000 0.0000 1817.4479 -7510.1255 308.3552 -9327.5733 -7497.7317 303.2362 909.4826 927.9911 29887.7717 -130.5789 -70.0629
ENERGY: 900000 1.6431 2.4405 5.0662 0.0000 -10742.5323 1426.5893 0.0000 0.0000 1769.7909 -7537.0024 300.2695 -9306.7932 -7509.5636 301.6846 -190.7709 -167.3139 30602.2153 -131.6044 -79.9424
ENERGY: 1200000 1.5137 4.0289 2.9401 0.0000 -10916.4862 1505.8018 0.0000 0.0000 1770.5149 -7631.6867 300.3923 -9402.2017 -7524.0384 302.0374 414.3884 447.0703 29763.4419 -73.0081 -25.8969
ENERGY: 1500000 2.0965 3.3534 3.2916 0.0000 -10747.1307 1427.8325 0.0000 0.0000 1709.9611 -7600.5956 290.1185 -9310.5566 -7533.9693 301.3618 -119.7818 -146.0413 30129.2796 7.2340 48.2402
TCL: Running FEP window   7: Lambda1 0.3    Lambda2 0.35   [dLambda 0.04999999999999999]
TCL: Setting parameter firsttimestep to 0
TCL: Setting parameter alchLambda to 0.3
Info: NONBONDED TABLE R-SQUARED SPACING: 0.0625
Info: NONBONDED TABLE SIZE: 705 POINTS
TCL: Setting parameter alchLambda2 to 0.35
Info: NONBONDED TABLE R-SQUARED SPACING: 0.0625
Info: NONBONDED TABLE SIZE: 705 POINTS
TCL: Running for 1500000 steps
ETITLE: TS BOND ANGLE DIHED IMPRP ELECT VDW BOUNDARY MISC KINETIC TOTAL TEMP POTENTIAL TOTALAVG TEMPAVG PRESSURE GPRESSURE VOLUME PRESSAVG GPRESSAVG
ENERGY: 0 2.0965 3.3534 3.2916 0.0000 -10747.1327 1427.6420 0.0000 0.0000 1709.0641 -7601.6851 289.9663 -9310.7492 -7601.6851 289.9663 -238.6451 -144.7084 30129.2796 -238.6451 -144.7084
ENERGY: 300000 6.0099 3.6165 3.2496 0.0000 -10796.3423 1515.9940 0.0000 0.0000 1787.8510 -7479.6214 303.3336 -9267.4724 -7527.0975 298.8938 739.8747 753.3011 30297.2325 14.9347 63.8343
ENERGY: 600000 3.0451 2.5369 3.8062 0.0000 -10778.2246 1415.3951 0.0000 0.0000 1743.3886 -7610.0526 295.7900 -9353.4413 -7548.9676 298.5393 -376.1990 -319.5221 30326.4148 -160.3270 -99.2691
ENERGY: 900000 2.6892 4.1643 5.2073 0.0000 -10726.4605 1407.4796 0.0000 0.0000 1740.3577 -7566.5623 295.2757 -9306.9200 -7539.7607 299.6586 -527.4080 -471.0795 30615.7263 -31.7700 33.9854
ENERGY: 1200000 3.0639 3.6292 2.2281 0.0000 -10702.6203 1392.4684 0.0000 0.0000 1731.9915 -7569.2393 293.8563 -9301.2308 -7535.5979 299.6781 -478.4688 -394.5581 30475.2555 -60.7146 1.1028
ENERGY: 1500000 1.5585 3.2326 3.1650 0.0000 -10713.2559 1414.0610 0.0000 0.0000 1745.7185 -7545.5204 296.1853 -9291.2388 -7533.7026 299.9498 -408.8062 -340.3896 30613.4998 -55.6374 9.8929
TCL: Running FEP window   8: Lambda1 0.35   Lambda2 0.39999999999999997 [dLambda 0.04999999999999999]
TCL: Setting parameter firsttimestep to 0
TCL: Setting parameter alchLambda to 0.35
Info: NONBONDED TABLE R-SQUARED SPACING: 0.0625
Info: NONBONDED TABLE SIZE: 705 POINTS
TCL: Setting parameter alchLambda2 to 0.39999999999999997
Info: NONBONDED TABLE R-SQUARED SPACING: 0.0625
Info: NONBONDED TABLE SIZE: 705 POINTS
TCL: Running for 1500000 steps
ETITLE: TS BOND ANGLE DIHED IMPRP ELECT VDW BOUNDARY MISC KINETIC TOTAL TEMP POTENTIAL TOTALAVG TEMPAVG PRESSURE GPRESSURE VOLUME PRESSAVG GPRESSAVG
ENERGY: 0 1.5585 3.2326 3.1650 0.0000 -10713.2558 1415.7465 0.0000 0.0000 1744.8415 -7544.7118 296.0365 -9289.5533 -7544.7118 296.0365 -412.0175 -327.5839 30613.4998 -412.0175 -327.5839
ENERGY: 300000 0.7965 2.1023 1.6173 0.0000 -10701.3787 1465.7605 0.0000 0.0000 1743.6398 -7487.4622 295.8326 -9231.1021 -7521.3407 296.6874 424.4637 475.6089 30398.7112 -159.9817 -81.4391
ENERGY: 600000 6.2615 4.1854 6.4774 0.0000 -10797.4095 1488.3592 0.0000 0.0000 1728.0665 -7564.0593 293.1904 -9292.1259 -7543.8576 296.6328 240.9657 298.3881 30699.7998 -286.5995 -222.9383
ENERGY: 900000 1.2807 1.7539 1.4937 0.0000 -10791.1850 1473.3388 0.0000 0.0000 1764.8939 -7548.4240 299.4386 -9313.3179 -7550.0184 296.8536 262.3208 344.2933 30159.1578 -162.2715 -102.6475
ENERGY: 1200000 2.4443 3.5907 4.2272 0.0000 -10686.9431 1376.5381 0.0000 0.0000 1789.3636 -7510.7791 303.5903 -9300.1427 -7545.6555 298.2288 -390.4297 -414.9503 30429.5027 -197.1780 -142.4257
ENERGY: 1500000 2.8862 2.8223 2.3996 0.0000 -10735.7299 1416.8868 0.0000 0.0000 1727.8656 -7582.8695 293.1563 -9310.7351 -7554.1682 297.5205 -360.4529 -256.8363 30310.6488 -200.2231 -147.9185
TCL: Running FEP window   9: Lambda1 0.39999999999999997 Lambda2 0.44999999999999996 [dLambda 0.04999999999999999]
TCL: Setting parameter firsttimestep to 0
TCL: Setting parameter alchLambda to 0.39999999999999997
Info: NONBONDED TABLE R-SQUARED SPACING: 0.0625
Info: NONBONDED TABLE SIZE: 705 POINTS
TCL: Setting parameter alchLambda2 to 0.44999999999999996
Info: NONBONDED TABLE R-SQUARED SPACING: 0.0625
Info: NONBONDED TABLE SIZE: 705 POINTS
TCL: Running for 1500000 steps
ETITLE: TS BOND ANGLE DIHED IMPRP ELECT VDW BOUNDARY MISC KINETIC TOTAL TEMP POTENTIAL TOTALAVG TEMPAVG PRESSURE GPRESSURE VOLUME PRESSAVG GPRESSAVG
ENERGY: 0 2.8862 2.8223 2.3996 0.0000 -10735.7298 1416.9333 0.0000 0.0000 1726.9985 -7583.6900 293.0092 -9310.6884 -7583.6900 293.0092 -345.3098 -249.9436 30310.6488 -345.3098 -249.9436
ENERGY: 300000 0.8363 4.6883 1.7350 0.0000 -10777.2842 1454.1479 0.0000 0.0000 1741.0242 -7574.8524 295.3888 -9315.8766 -7547.6653 298.1670 -71.7857 4.6915 30279.0465 5.0451 98.9393
ENERGY: 600000 3.4307 2.8931 2.4084 0.0000 -10584.0954 1350.7433 0.0000 0.0000 1751.2202 -7473.3996 297.1187 -9224.6198 -7539.9827 297.9671 -844.3707 -794.4624 30761.6434 -38.2725 41.6326
ENERGY: 900000 1.2797 2.9953 1.3058 0.0000 -10764.8413 1420.0156 0.0000 0.0000 1803.4875 -7535.7574 305.9866 -9339.2449 -7539.2941 298.9947 -441.6235 -307.2268 30605.9474 -36.0355 47.3674
ENERGY: 1200000 3.1765 3.3998 2.3905 0.0000 -10607.4323 1391.8475 0.0000 0.0000 1746.2322 -7460.3858 296.2724 -9206.6180 -7530.4291 298.6050 -514.7585 -400.8397 30919.3210 -70.5726 6.1775
ENERGY: 1500000 0.6478 1.2248 3.1275 0.0000 -10765.4939 1457.7250 0.0000 0.0000 1738.2146 -7564.5541 294.9121 -9302.7687 -7535.5750 298.1756 -48.7320 85.6245 30495.3162 -91.0949 -12.9557
TCL: Running FEP window  10: Lambda1 0.44999999999999996 Lambda2 0.49999999999999994 [dLambda 0.04999999999999999]
TCL: Setting parameter firsttimestep to 0
TCL: Setting parameter alchLambda to 0.44999999999999996
Info: NONBONDED TABLE R-SQUARED SPACING: 0.0625
Info: NONBONDED TABLE SIZE: 705 POINTS
TCL: Setting parameter alchLambda2 to 0.49999999999999994
Info: NONBONDED TABLE R-SQUARED SPACING: 0.0625
Info: NONBONDED TABLE SIZE: 705 POINTS
TCL: Running for 1500000 steps
ETITLE: TS BOND ANGLE DIHED IMPRP ELECT VDW BOUNDARY MISC KINETIC TOTAL TEMP POTENTIAL TOTALAVG TEMPAVG PRESSURE GPRESSURE VOLUME PRESSAVG GPRESSAVG
ENERGY: 0 0.6478 1.2248 3.1275 0.0000 -10765.4923 1457.3533 0.0000 0.0000 1737.3591 -7565.7798 294.7670 -9303.1389 -7565.7798 294.7670 7.5947 86.2216 30495.3162 7.5947 86.2216
ENERGY: 300000 1.9313 2.1833 2.9181 0.0000 -10664.0317 1388.4986 0.0000 0.0000 1758.3004 -7510.2000 298.3200 -9268.5004 -7528.8285 298.8737 -233.3512 -231.5685 30358.1956 123.6988 156.6003
ENERGY: 600000 0.7469 1.9883 2.9622 0.0000 -10832.2697 1528.4050 0.0000 0.0000 1818.2187 -7479.9486 308.4859 -9298.1673 -7543.9072 299.1498 659.6971 703.6723 30493.3224 147.6243 187.0108
ENERGY: 900000 2.4849 2.0619 2.4159 0.0000 -10663.4974 1371.9029 0.0000 0.0000 1815.8800 -7468.7518 308.0891 -9284.6318 -7532.3149 301.1051 -652.3180 -613.3128 30694.0245 176.0027 213.3125
ENERGY: 1200000 3.0867 4.5842 2.4054 0.0000 -10676.9477 1416.4571 0.0000 0.0000 1776.6417 -7473.7727 301.4318 -9250.4143 -7521.7528 300.9841 -296.5417 -225.9771 30852.7383 107.8895 153.8442
ENERGY: 1500000 1.8639 0.4447 3.1126 0.0000 -10884.3943 1470.5377 0.0000 0.0000 1799.8064 -7608.6291 305.3620 -9408.4355 -7529.4316 301.2660 84.3913 92.7422 30425.8433 101.3732 150.1683
TCL: Running FEP window  11: Lambda1 0.49999999999999994 Lambda2 0.5499999999999999 [dLambda 0.04999999999999999]
TCL: Setting parameter firsttimestep to 0
TCL: Setting parameter alchLambda to 0.49999999999999994
Info: NONBONDED TABLE R-SQUARED SPACING: 0.0625
Info: NONBONDED TABLE SIZE: 705 POINTS
TCL: Setting parameter alchLambda2 to 0.5499999999999999
Info: NONBONDED TABLE R-SQUARED SPACING: 0.0625
Info: NONBONDED TABLE SIZE: 705 POINTS
TCL: Running for 1500000 steps
ETITLE: TS BOND ANGLE DIHED IMPRP ELECT VDW BOUNDARY MISC KINETIC TOTAL TEMP POTENTIAL TOTALAVG TEMPAVG PRESSURE GPRESSURE VOLUME PRESSAVG GPRESSAVG
ENERGY: 0 1.8639 0.4447 3.1126 0.0000 -10884.3935 1470.0120 0.0000 0.0000 1798.9249 -7610.0355 305.2125 -9408.9603 -7610.0355 305.2125 7.8502 93.8723 30425.8433 7.8502 93.8723
ENERGY: 300000 1.8457 3.9209 4.1670 0.0000 -10775.9392 1480.4045 0.0000 0.0000 1817.0039 -7468.5972 308.2798 -9285.6011 -7540.2047 301.5053 572.7601 583.4779 30341.5136 -106.4494 -39.0520
ENERGY: 600000 1.2563 2.4790 3.8166 0.0000 -10681.7189 1380.3140 0.0000 0.0000 1775.8708 -7517.9821 301.3010 -9293.8530 -7537.6305 299.9818 -368.4316 -374.1802 30389.4072 -213.6523 -145.7542
ENERGY: 900000 2.6961 3.0055 2.2039 0.0000 -10725.1037 1453.0651 0.0000 0.0000 1823.7466 -7440.3864 309.4238 -9264.1331 -7526.0524 302.1298 183.5205 278.0082 30366.7402 -70.8514 -14.1152
ENERGY: 1200000 1.9527 3.4460 3.8710 0.0000 -10871.8453 1522.9533 0.0000 0.0000 1736.6572 -7602.9651 294.6479 -9339.6223 -7530.4101 301.1472 376.4658 388.3030 30689.9674 -138.6527 -90.2503
ENERGY: 1500000 2.7324 2.7945 1.6100 0.0000 -10910.5008 1532.1964 0.0000 0.0000 1810.3230 -7560.8444 307.1463 -9371.1674 -7524.8028 301.9453 653.1379 727.6444 29994.7497 -47.8588 1.6841
TCL: Running FEP window  12: Lambda1 0.5499999999999999 Lambda2 0.6    [dLambda 0.050000000000000044]
TCL: Setting parameter firsttimestep to 0
TCL: Setting parameter alchLambda to 0.5499999999999999
Info: NONBONDED TABLE R-SQUARED SPACING: 0.0625
Info: NONBONDED TABLE SIZE: 705 POINTS
TCL: Setting parameter alchLambda2 to 0.6
Info: NONBONDED TABLE R-SQUARED SPACING: 0.0625
Info: NONBONDED TABLE SIZE: 705 POINTS
TCL: Running for 1500000 steps
ETITLE: TS BOND ANGLE DIHED IMPRP ELECT VDW BOUNDARY MISC KINETIC TOTAL TEMP POTENTIAL TOTALAVG TEMPAVG PRESSURE GPRESSURE VOLUME PRESSAVG GPRESSAVG
ENERGY: 0 2.7324 2.7945 1.6100 0.0000 -10910.5493 1532.0655 0.0000 0.0000 1809.4450 -7561.9018 306.9973 -9371.3468 -7561.9018 306.9973 643.2753 733.2397 29994.7497 643.2753 733.2397
ENERGY: 300000 1.8406 3.2432 2.2266 0.0000 -10744.7950 1444.0349 0.0000 0.0000 1760.3684 -7533.0812 298.6708 -9293.4496 -7580.1567 298.4616 -384.7948 -269.5353 31104.2704 136.1795 223.0008
ENERGY: 600000 0.7360 3.0589 3.0890 0.0000 -10727.5936 1382.3674 0.0000 0.0000 1788.5815 -7549.7609 303.4576 -9338.3424 -7550.1723 300.2319 -598.5942 -523.0416 30581.7726 33.8369 105.0530
ENERGY: 900000 1.5022 7.0938 4.6493 0.0000 -10664.0935 1366.7180 0.0000 0.0000 1745.4746 -7538.6555 296.1439 -9284.1302 -7537.1647 300.7367 -839.7760 -707.5178 30796.5665 -27.2105 45.3257
ENERGY: 1200000 3.5664 3.0133 2.5963 0.0000 -10875.9981 1509.5773 0.0000 0.0000 1829.4131 -7527.8317 310.3852 -9357.2448 -7542.1750 301.0936 307.2284 319.0435 30615.6540 43.5342 105.0309
ENERGY: 1500000 1.6865 2.4876 2.5570 0.0000 -10714.2988 1410.3089 0.0000 0.0000 1804.0183 -7493.2404 306.0766 -9297.2587 -7537.3422 301.5120 -288.9486 -181.2723 30338.3946 58.2631 119.8968
TCL: Running FEP window  13: Lambda1 0.6    Lambda2 0.65   [dLambda 0.050000000000000044]
TCL: Setting parameter firsttimestep to 0
TCL: Setting parameter alchLambda to 0.6
Info: NONBONDED TABLE R-SQUARED SPACING: 0.0625
Info: NONBONDED TABLE SIZE: 705 POINTS
TCL: Setting parameter alchLambda2 to 0.65
Info: NONBONDED TABLE R-SQUARED SPACING: 0.0625
Info: NONBONDED TABLE SIZE: 705 POINTS
TCL: Running for 1500000 steps
ETITLE: TS BOND ANGLE DIHED IMPRP ELECT VDW BOUNDARY MISC KINETIC TOTAL TEMP POTENTIAL TOTALAVG TEMPAVG PRESSURE GPRESSURE VOLUME PRESSAVG GPRESSAVG
ENERGY: 0 1.6865 2.4876 2.5570 0.0000 -10715.0476 1410.3754 0.0000 0.0000 1803.1120 -7494.8291 305.9229 -9297.9411 -7494.8291 305.9229 -268.6220 -173.7275 30338.3946 -268.6220 -173.7275
ENERGY: 300000 1.5032 5.6380 2.7529 0.0000 -10739.6968 1454.2198 0.0000 0.0000 1716.9986 -7558.5844 291.3125 -9275.5830 -7540.3381 298.9487 42.1015 0.9215 30987.5894 125.4732 181.4019
ENERGY: 600000 1.5401 3.4675 1.9958 0.0000 -10689.9926 1458.0565 0.0000 0.0000 1718.3247 -7506.6080 291.5375 -9224.9327 -7535.0520 297.1349 323.3895 455.3475 30304.3193 151.4307 218.1475
ENERGY: 900000 1.0627 3.2693 2.9677 0.0000 -10729.8766 1454.0561 0.0000 0.0000 1762.6608 -7505.8599 299.0598 -9268.5207 -7540.8959 297.2681 -144.6580 -47.9363 30811.9613 176.4757 241.7187
ENERGY: 1200000 1.9280 3.3570 5.0776 0.0000 -10905.3067 1499.9777 0.0000 0.0000 1781.0808 -7613.8856 302.1850 -9394.9664 -7541.2550 298.8815 440.3554 479.5268 30254.2355 189.5617 253.0040
ENERGY: 1500000 4.5284 1.4920 2.9198 0.0000 -10807.4651 1449.5044 0.0000 0.0000 1749.2713 -7599.7492 296.7881 -9349.0206 -7539.9400 299.2414 -128.8450 -61.9506 30395.9837 128.5192 193.7831
TCL: Running FEP window  14: Lambda1 0.65   Lambda2 0.7000000000000001 [dLambda 0.050000000000000044]
TCL: Setting parameter firsttimestep to 0
TCL: Setting parameter alchLambda to 0.65
Info: NONBONDED TABLE R-SQUARED SPACING: 0.0625
Info: NONBONDED TABLE SIZE: 705 POINTS
TCL: Setting parameter alchLambda2 to 0.7000000000000001
Info: NONBONDED TABLE R-SQUARED SPACING: 0.0625
Info: NONBONDED TABLE SIZE: 705 POINTS
TCL: Running for 1500000 steps
ETITLE: TS BOND ANGLE DIHED IMPRP ELECT VDW BOUNDARY MISC KINETIC TOTAL TEMP POTENTIAL TOTALAVG TEMPAVG PRESSURE GPRESSURE VOLUME PRESSAVG GPRESSAVG
ENERGY: 0 4.5284 1.4920 2.9198 0.0000 -10807.4595 1450.0225 0.0000 0.0000 1748.4144 -7600.0824 296.6427 -9348.4968 -7600.0824 296.6427 -134.0955 -50.3203 30395.9837 -134.0955 -50.3203
ENERGY: 300000 1.4841 1.2000 5.0583 0.0000 -10672.1065 1389.4200 0.0000 0.0000 1745.8192 -7529.1250 296.2023 -9274.9441 -7537.5877 297.2007 -465.8131 -407.1684 30744.2457 -207.9617 -156.8498
ENERGY: 600000 2.2213 5.0952 1.7547 0.0000 -10680.6955 1422.5609 0.0000 0.0000 1749.5214 -7499.5419 296.8305 -9249.0633 -7523.8254 296.2124 -377.9901 -296.6615 30993.3246 -102.1538 -43.5235
ENERGY: 900000 3.9047 5.5025 3.1574 0.0000 -10590.0314 1319.4356 0.0000 0.0000 1808.6794 -7449.3517 306.8675 -9258.0311 -7518.5940 297.2199 -885.2244 -904.2253 30712.8984 -47.2996 3.4448
ENERGY: 1200000 0.7817 3.1636 3.2670 0.0000 -10786.6435 1432.4933 0.0000 0.0000 1762.3348 -7584.6030 299.0045 -9346.9378 -7524.3669 298.1764 -35.8825 -33.5353 30176.9739 -37.2961 13.3794
ENERGY: 1500000 4.0149 2.0096 3.1722 0.0000 -10784.4702 1492.2393 0.0000 0.0000 1782.4049 -7500.6292 302.4096 -9283.0341 -7527.3214 298.5050 208.2236 294.8299 31029.8274 41.0142 93.5292
TCL: Running FEP window  15: Lambda1 0.7000000000000001 Lambda2 0.7500000000000001 [dLambda 0.050000000000000044]
TCL: Setting parameter firsttimestep to 0
TCL: Setting parameter alchLambda to 0.7000000000000001
Info: NONBONDED TABLE R-SQUARED SPACING: 0.0625
Info: NONBONDED TABLE SIZE: 705 POINTS
TCL: Setting parameter alchLambda2 to 0.7500000000000001
Info: NONBONDED TABLE R-SQUARED SPACING: 0.0625
Info: NONBONDED TABLE SIZE: 705 POINTS
TCL: Running for 1500000 steps
ETITLE: TS BOND ANGLE DIHED IMPRP ELECT VDW BOUNDARY MISC KINETIC TOTAL TEMP POTENTIAL TOTALAVG TEMPAVG PRESSURE GPRESSURE VOLUME PRESSAVG GPRESSAVG
ENERGY: 0 4.0149 2.0096 3.1722 0.0000 -10785.3075 1492.1190 0.0000 0.0000 1781.5381 -7502.4537 302.2626 -9283.9918 -7502.4537 302.2626 209.0881 299.4785 31029.8274 209.0881 299.4785
ENERGY: 300000 4.0119 2.5510 5.0811 0.0000 -10943.2360 1563.2739 0.0000 0.0000 1796.6798 -7571.6383 304.8316 -9368.3181 -7543.0896 300.2831 630.3329 648.8001 30472.3570 244.8614 285.6937
ENERGY: 600000 1.3988 2.7935 3.0553 0.0000 -10792.5008 1494.8794 0.0000 0.0000 1765.5365 -7524.8373 299.5477 -9290.3738 -7539.6368 301.1014 584.2265 618.8455 30162.4361 398.9678 436.2224
ENERGY: 900000 4.6374 3.1058 3.7933 0.0000 -10834.8064 1494.6610 0.0000 0.0000 1753.9663 -7574.6425 297.5846 -9328.6088 -7550.2810 299.8597 355.0140 412.0695 30680.7728 306.5086 350.8702
ENERGY: 1200000 3.5099 3.8495 2.0804 0.0000 -10769.5475 1457.9673 0.0000 0.0000 1773.8730 -7528.2673 300.9621 -9302.1404 -7555.7735 299.7904 -26.9809 86.0792 30214.1558 209.0189 266.4379
ENERGY: 1500000 1.7052 3.1768 4.6059 0.0000 -10779.9891 1453.2491 0.0000 0.0000 1717.9868 -7599.2653 291.4802 -9317.2521 -7554.8289 299.3727 260.6221 304.4001 29940.4729 248.9128 306.1833
TCL: Running FEP window  16: Lambda1 0.7500000000000001 Lambda2 0.8000000000000002 [dLambda 0.050000000000000044]
TCL: Setting parameter firsttimestep to 0
TCL: Setting parameter alchLambda to 0.7500000000000001
Info: NONBONDED TABLE R-SQUARED SPACING: 0.0625
Info: NONBONDED TABLE SIZE: 705 POINTS
TCL: Setting parameter alchLambda2 to 0.8000000000000002
Info: NONBONDED TABLE R-SQUARED SPACING: 0.0625
Info: NONBONDED TABLE SIZE: 705 POINTS
TCL: Running for 1500000 steps
ETITLE: TS BOND ANGLE DIHED IMPRP ELECT VDW BOUNDARY MISC KINETIC TOTAL TEMP POTENTIAL TOTALAVG TEMPAVG PRESSURE GPRESSURE VOLUME PRESSAVG GPRESSAVG
ENERGY: 0 1.7052 3.1768 4.6059 0.0000 -10780.9217 1454.6050 0.0000 0.0000 1717.0945 -7599.7343 291.3288 -9316.8288 -7599.7343 291.3288 239.9900 326.7247 29940.4729 239.9900 326.7247
ENERGY: 300000 3.0942 2.9988 1.8138 0.0000 -10797.4018 1428.6231 0.0000 0.0000 1746.3473 -7614.5246 296.2920 -9360.8719 -7580.1570 293.0818 -340.8922 -299.1376 30496.0856 275.7095 332.6790
ENERGY: 600000 3.5961 1.4308 2.3165 0.0000 -10739.8892 1410.3716 0.0000 0.0000 1730.0280 -7592.1462 293.5232 -9322.1742 -7563.4531 296.1257 -103.1565 -97.9007 30261.1546 -26.0095 30.4685
ENERGY: 900000 1.5482 1.0288 4.4473 0.0000 -10778.9932 1352.7568 0.0000 0.0000 1776.0547 -7643.1574 301.3322 -9419.2121 -7569.8795 298.4297 -1147.2171 -1098.0429 30550.5881 -175.7785 -117.8732
ENERGY: 1200000 0.7551 4.2392 3.4413 0.0000 -10626.5833 1407.0777 0.0000 0.0000 1781.9856 -7429.0843 302.3385 -9211.0700 -7552.2254 299.0361 -97.2785 -27.7575 30757.6267 -106.7726 -47.5878
ENERGY: 1500000 3.5156 3.0189 3.4339 0.0000 -10760.7160 1504.7199 0.0000 0.0000 1765.0208 -7481.0069 299.4602 -9246.0277 -7549.0220 299.2299 778.9557 791.4904 30522.8317 41.7655 94.7459
TCL: Running FEP window  17: Lambda1 0.8000000000000002 Lambda2 0.8500000000000002 [dLambda 0.050000000000000044]
TCL: Setting parameter firsttimestep to 0
TCL: Setting parameter alchLambda to 0.8000000000000002
Info: NONBONDED TABLE R-SQUARED SPACING: 0.0625
Info: NONBONDED TABLE SIZE: 705 POINTS
TCL: Setting parameter alchLambda2 to 0.8500000000000002
Info: NONBONDED TABLE R-SQUARED SPACING: 0.0625
Info: NONBONDED TABLE SIZE: 705 POINTS
TCL: Running for 1500000 steps
ETITLE: TS BOND ANGLE DIHED IMPRP ELECT VDW BOUNDARY MISC KINETIC TOTAL TEMP POTENTIAL TOTALAVG TEMPAVG PRESSURE GPRESSURE VOLUME PRESSAVG GPRESSAVG
ENERGY: 0 3.5156 3.0189 3.4339 0.0000 -10760.9871 1505.8601 0.0000 0.0000 1764.1434 -7481.0152 299.3113 -9245.1586 -7481.0152 299.3113 727.0686 815.2638 30522.8317 727.0686 815.2638
ENERGY: 300000 2.3332 2.0995 3.6146 0.0000 -10628.8921 1340.3833 0.0000 0.0000 1811.4897 -7468.9718 307.3443 -9280.4616 -7502.3599 303.1668 -691.2427 -644.2129 31015.8003 -53.1541 4.3525
ENERGY: 600000 2.1691 2.6260 4.5572 0.0000 -10722.3191 1333.6304 0.0000 0.0000 1745.3633 -7633.9732 296.1250 -9379.3364 -7523.1541 300.4622 -1107.7983 -1036.9715 30534.0059 -249.6716 -199.7493
ENERGY: 900000 1.8915 1.4986 3.7315 0.0000 -10680.2708 1367.6576 0.0000 0.0000 1746.1824 -7559.3093 296.2640 -9305.4917 -7526.7120 300.3536 -786.8265 -725.3619 30785.8587 -258.0910 -205.7025
ENERGY: 1200000 2.4751 6.3070 4.9875 0.0000 -10774.0822 1463.1973 0.0000 0.0000 1783.8203 -7513.2950 302.6498 -9297.1153 -7528.1535 301.1452 163.2242 250.2791 30467.2057 -219.8899 -162.4231
ENERGY: 1500000 0.9763 3.0811 4.3946 0.0000 -10796.5050 1438.9257 0.0000 0.0000 1767.3895 -7581.7378 299.8621 -9349.1273 -7535.2997 300.7499 -242.2854 -158.4615 30336.5231 -135.2140 -74.0201
TCL: Running FEP window  18: Lambda1 0.8500000000000002 Lambda2 0.9000000000000002 [dLambda 0.050000000000000044]
TCL: Setting parameter firsttimestep to 0
TCL: Setting parameter alchLambda to 0.8500000000000002
Info: NONBONDED TABLE R-SQUARED SPACING: 0.0625
Info: NONBONDED TABLE SIZE: 705 POINTS
TCL: Setting parameter alchLambda2 to 0.9000000000000002
Info: NONBONDED TABLE R-SQUARED SPACING: 0.0625
Info: NONBONDED TABLE SIZE: 705 POINTS
TCL: Running for 1500000 steps
ETITLE: TS BOND ANGLE DIHED IMPRP ELECT VDW BOUNDARY MISC KINETIC TOTAL TEMP POTENTIAL TOTALAVG TEMPAVG PRESSURE GPRESSURE VOLUME PRESSAVG GPRESSAVG
ENERGY: 0 0.9763 3.0811 4.3946 0.0000 -10798.1612 1438.9224 0.0000 0.0000 1766.5144 -7584.2725 299.7136 -9350.7868 -7584.2725 299.7136 -245.5281 -156.7733 30336.5231 -245.5281 -156.7733
ENERGY: 300000 3.9510 4.3716 3.0093 0.0000 -10724.8024 1406.0067 0.0000 0.0000 1734.1166 -7573.3472 294.2168 -9307.4638 -7557.6806 302.8597 -482.1861 -420.8967 31021.6929 -198.4983 -128.8766
ENERGY: 600000 2.1742 1.7934 4.0459 0.0000 -10844.4081 1512.4218 0.0000 0.0000 1779.7950 -7544.1779 301.9668 -9323.9728 -7560.7376 302.0105 571.8542 675.7449 30249.1766 -48.0325 35.3508
ENERGY: 900000 4.1533 5.1791 8.8484 0.0000 -10673.3645 1401.9529 0.0000 0.0000 1791.5206 -7461.7103 303.9562 -9253.2308 -7545.7061 301.4076 -177.8980 -200.7733 30858.4132 -121.7041 -44.0644
ENERGY: 1200000 2.3025 1.6816 5.5482 0.0000 -10707.2979 1448.4182 0.0000 0.0000 1794.4758 -7454.8715 304.4576 -9249.3474 -7530.7279 302.2972 130.0380 169.9958 30558.8034 -129.7764 -56.9443
ENERGY: 1500000 2.7983 3.7637 2.3757 0.0000 -10785.0425 1461.0608 0.0000 0.0000 1765.2548 -7549.7892 299.4999 -9315.0440 -7531.9504 301.9527 -32.3223 9.8296 30653.4853 -107.4635 -35.1012
TCL: Running FEP window  19: Lambda1 0.9000000000000002 Lambda2 0.9500000000000003 [dLambda 0.050000000000000044]
TCL: Setting parameter firsttimestep to 0
TCL: Setting parameter alchLambda to 0.9000000000000002
Info: NONBONDED TABLE R-SQUARED SPACING: 0.0625
Info: NONBONDED TABLE SIZE: 705 POINTS
TCL: Setting parameter alchLambda2 to 0.9500000000000003
Info: NONBONDED TABLE R-SQUARED SPACING: 0.0625
Info: NONBONDED TABLE SIZE: 705 POINTS
TCL: Running for 1500000 steps
ETITLE: TS BOND ANGLE DIHED IMPRP ELECT VDW BOUNDARY MISC KINETIC TOTAL TEMP POTENTIAL TOTALAVG TEMPAVG PRESSURE GPRESSURE VOLUME PRESSAVG GPRESSAVG
ENERGY: 0 2.7982 3.7637 2.3757 0.0000 -10786.3944 1461.2184 0.0000 0.0000 1764.3905 -7551.8480 299.3532 -9316.2384 -7551.8480 299.3532 -44.1607 19.2715 30653.4853 -44.1607 19.2715
ENERGY: 300000 1.1960 2.4161 2.0834 0.0000 -10817.6453 1434.8949 0.0000 0.0000 1783.2604 -7593.7945 302.5548 -9377.0548 -7524.4543 302.3561 -150.9625 -84.4184 30529.0794 -376.5983 -325.0896
ENERGY: 600000 3.6704 1.9603 1.8082 0.0000 -10803.9325 1477.9250 0.0000 0.0000 1815.1650 -7503.4037 307.9678 -9318.5687 -7530.1501 301.4340 280.2760 275.8658 30435.2495 -135.6980 -83.7371
ENERGY: 900000 2.2010 2.3344 2.6563 0.0000 -10715.3662 1395.4683 0.0000 0.0000 1817.5110 -7495.1952 308.3659 -9312.7062 -7534.2834 300.3769 -383.0765 -331.8195 30632.7863 -170.6822 -110.6838
ENERGY: 1200000 1.5397 2.3203 1.1277 0.0000 -10632.8522 1360.9621 0.0000 0.0000 1762.1275 -7504.7748 298.9693 -9266.9023 -7530.2149 301.0862 -574.9226 -524.4377 30806.7886 -270.5591 -209.9957
ENERGY: 1500000 3.6324 2.5416 5.3253 0.0000 -10877.0367 1487.1833 0.0000 0.0000 1772.2879 -7606.0662 300.6931 -9378.3541 -7536.1957 301.2955 -115.1025 0.1795 30639.5923 -247.2185 -175.1588
TCL: Running FEP window  20: Lambda1 0.9500000000000003 Lambda2 1.0    [dLambda 0.04999999999999971]
TCL: Setting parameter firsttimestep to 0
TCL: Setting parameter alchLambda to 0.9500000000000003
Info: NONBONDED TABLE R-SQUARED SPACING: 0.0625
Info: NONBONDED TABLE SIZE: 705 POINTS
TCL: Setting parameter alchLambda2 to 1.0
Info: NONBONDED TABLE R-SQUARED SPACING: 0.0625
Info: NONBONDED TABLE SIZE: 705 POINTS
TCL: Running for 1500000 steps
ETITLE: TS BOND ANGLE DIHED IMPRP ELECT VDW BOUNDARY MISC KINETIC TOTAL TEMP POTENTIAL TOTALAVG TEMPAVG PRESSURE GPRESSURE VOLUME PRESSAVG GPRESSAVG
ENERGY: 0 3.6324 2.5416 5.3253 0.0000 -10878.7142 1489.2188 0.0000 0.0000 1771.4342 -7606.5620 300.5483 -9377.9962 -7606.5620 300.5483 -53.5527 32.5380 30639.5923 -53.5527 32.5380
ENERGY: 300000 1.8480 3.9861 3.1933 0.0000 -10775.2540 1461.9857 0.0000 0.0000 1759.8175 -7544.4233 298.5774 -9304.2408 -7570.1640 296.8728 249.9945 344.6755 30191.1888 -154.8832 -95.1143
ENERGY: 600000 2.8766 1.4988 2.6380 0.0000 -10817.3210 1480.6552 0.0000 0.0000 1755.3340 -7574.3183 297.8167 -9329.6524 -7576.9463 297.6045 206.0613 322.2488 30448.8214 -148.8002 -71.6029
ENERGY: 900000 3.4889 1.9742 4.0783 0.0000 -10815.7172 1427.0009 0.0000 0.0000 1739.5285 -7639.6464 295.1351 -9379.1749 -7574.5632 296.7643 -210.2865 -215.9264 30279.4424 -290.4443 -218.5066
ENERGY: 1200000 4.0351 1.5996 3.0996 0.0000 -10806.5765 1562.3190 0.0000 0.0000 1760.2298 -7475.2934 298.6473 -9235.5231 -7559.1973 297.0383 1314.1761 1366.5756 30065.2378 -93.5829 -24.7756
ENERGY: 1500000 1.3901 2.9518 3.3464 0.0000 -10639.4783 1406.9650 0.0000 0.0000 1766.9582 -7457.8668 299.7889 -9224.8250 -7551.8105 297.4629 -131.3172 -55.8657 30521.6782 -106.2340 -40.3150
TCL: Exiting due to exit command.
