Info: SIMULATION PARAMETERS:
Info: TIMESTEP               2
Info: NUMBER OF STEPS        0
Info: STEPS PER CYCLE        10
Info: PERIODIC CELL BASIS 1  31.7794 0 0
Info: PERIODIC CELL BASIS 2  0 30.624 0
Info: PERIODIC CELL BASIS 3  0 0 31.3478
Info: PERIODIC CELL CENTER   0 0 0
Info: WRAPPING WATERS AROUND PERIODIC BOUNDARIES ON OUTPUT.
Info: WRAPPING ALL CLUSTERS AROUND PERIODIC BOUNDARIES ON OUTPUT.
Info: FIRST LDB TIMESTEP     50
Info: LAST LDB TIMESTEP     -1
Info: HOM BACKGROUND SCALING 1
Info: PME BACKGROUND SCALING 1
Info: MIN ATOMS PER PATCH    40
Info: EMPTY PATCH LOAD       40 ATOMS
Info: VELOCITY FILE          mobley_5026370_equil.vel
Info: CENTER OF MASS MOVING INITIALLY? NO
Info: DIELECTRIC             1
Info: EXCLUDE                SCALED ONE-FOUR
Info: 1-4 ELECTROSTATICS SCALED BY 0.833333
Info: MODIFIED 1-4 VDW PARAMETERS WILL BE USED
Info: DCD FILENAME           mobley_5026370_prod.dcd
Info: DCD FREQUENCY          100000
Info: DCD FIRST STEP         100000
Info: DCD FILE WILL CONTAIN UNIT CELL DATA
Info: XST FILENAME           mobley_5026370_prod.xst
Info: XST FREQUENCY          100000
Info: NO VELOCITY DCD OUTPUT
Info: NO FORCE DCD OUTPUT
Info: OUTPUT FILENAME        mobley_5026370_prod
Info: BINARY OUTPUT FILES WILL BE USED
Info: RESTART FILENAME       mobley_5026370_prod.restart
Info: RESTART FREQUENCY      100000
Info: BINARY RESTART FILES WILL BE USED
Info: CUTOFF                 9
Info: PAIRLIST DISTANCE      11
Info: PAIRLIST SHRINK RATE   0.01
Info: PAIRLIST GROW RATE     0.01
Info: PAIRLIST TRIGGER       0.3
Info: PAIRLISTS PER CYCLE    2
Info: PAIRLISTS ENABLED
Info: MARGIN                 2
Info: HYDROGEN GROUP CUTOFF  2.5
Info: PATCH DIMENSION        15.5
Info: ENERGY OUTPUT STEPS    100000
Info: ENERGY EVALUATION STEPS    100000
Info: OUTPUT ENERGY PRECISION 4
Info: CROSSTERM ENERGY INCLUDED IN DIHEDRAL
Info: TIMING OUTPUT STEPS    1000000
Info: PRESSURE OUTPUT STEPS  100000
Info: ALCHEMICAL FEP ON
Info: FEP CURRENT LAMBDA VALUE     0
Info: FEP COMPARISON LAMBDA VALUE  0.05
Info: FEP INTRA-ALCHEMICAL NON-BONDED INTERACTIONS WILL BE RETAINED
Info: FEP INTRA-ALCHEMICAL BONDED INTERACTIONS WILL BE RETAINED
Info: FEP VDW SHIFTING COEFFICIENT 5
Info: FEP ELEC. ACTIVE FOR ANNIHILATED PARTICLES BETWEEN LAMBDA = 0 AND LAMBDA = 0.5
Info: FEP ELEC. ACTIVE FOR EXNIHILATED PARTICLES BETWEEN LAMBDA = 0.5 AND LAMBDA = 1
Info: FEP VDW ACTIVE FOR ANNIHILATED PARTICLES BETWEEN LAMBDA = 0 AND LAMBDA = 1
Info: FEP VDW ACTIVE FOR EXNIHILATED PARTICLES BETWEEN LAMBDA = 0 AND LAMBDA = 1
Info: FEP BOND ACTIVE FOR ANNIHILATED PARTICLES BETWEEN LAMBDA = 1 AND LAMBDA = 1
Info: FEP BOND ACTIVE FOR EXNIHILATED PARTICLES BETWEEN LAMBDA = 0 AND LAMBDA = 0
Info: LANGEVIN DYNAMICS ACTIVE
Info: LANGEVIN TEMPERATURE   300
Info: LANGEVIN USING BBK INTEGRATOR
Info: LANGEVIN DAMPING COEFFICIENT IS 1 INVERSE PS
Info: LANGEVIN DYNAMICS APPLIED TO HYDROGENS
Info: LANGEVIN PISTON PRESSURE CONTROL ACTIVE
Info:        TARGET PRESSURE IS 1.01325 BAR
Info:     OSCILLATION PERIOD IS 50 FS
Info:             DECAY TIME IS 25 FS
Info:     PISTON TEMPERATURE IS 300 K
Info:       PRESSURE CONTROL IS GROUP-BASED
Info:    INITIAL STRAIN RATE IS -3.23543e-05 -3.23543e-05 -3.23543e-05
Info:       CELL FLUCTUATION IS ISOTROPIC
Info: PARTICLE MESH EWALD (PME) ACTIVE
Info: PME TOLERANCE               1e-06
Info: PME EWALD COEFFICIENT       0.348832
Info: PME INTERPOLATION ORDER     4
Info: PME GRID DIMENSIONS         32 32 32
Info: PME MAXIMUM GRID SPACING    1
Info: PME CALCULATION WILL BE PERFORMED ON GPU
Info: FULL ELECTROSTATIC EVALUATION FREQUENCY      2
Info: USING VERLET I (r-RESPA) MTS SCHEME.
Info: C1 SPLITTING OF LONG RANGE ELECTROSTATICS
Info: PLACING ATOMS IN PATCHES BY HYDROGEN GROUPS
Info: RIGID BONDS TO HYDROGEN : ALL
Info:         ERROR TOLERANCE : 1e-08
Info:          MAX ITERATIONS : 100
Info: RIGID WATER USING SETTLE ALGORITHM
Info: RANDOM NUMBER SEED     1743533042
Info: USE HYDROGEN BONDS?    NO
Info: Using AMBER format force field!
Info: AMBER PARM FILE        mobley_5026370.prmtop
Info: COORDINATE PDB         mobley_5026370.pdb
Info: Exclusions will be read from PARM file!
Info: SCNB (VDW SCALING)     2
Info: USING ARITHMETIC MEAN TO COMBINE L-J SIGMA PARAMETERS
Info: BINARY COORDINATES     mobley_5026370_equil.coor
Info: SUMMARY OF PARAMETERS:
Info: 8 BONDS
Info: 8 ANGLES
Info:   8 HARMONIC
Info:   0 COSINE-BASED
Info: 4 DIHEDRAL
Info: 0 IMPROPER
Info: 0 CROSSTERM
Info: 0 VDW
Info: 28 VDW_PAIRS
Info: 0 NBTHOLE_PAIRS
Info: To read alchdata from file: mobley_5026370.pdb
Info: To read alchflag data from column: 5
Info: STRUCTURE SUMMARY:
Info: 2931 ATOMS
Info: 2931 BONDS
Info: 17 ANGLES
Info: 27 DIHEDRALS
Info: 0 IMPROPERS
Info: 0 CROSSTERMS
Info: 2967 EXCLUSIONS
Info: 2923 RIGID BONDS
Info: ALCH: 0 ATOMS TO DISAPPEAR IN FINAL STATE
Info: ALCH: 12 ATOMS TO APPEAR IN FINAL STATE
Info: 5870 DEGREES OF FREEDOM
Info: 981 HYDROGEN GROUPS
Info: 3 ATOMS IN LARGEST HYDROGEN GROUP
Info: 981 MIGRATION GROUPS
Info: 3 ATOMS IN LARGEST MIGRATION GROUP
Info: TOTAL MASS = 17633.7 amu
Info: TOTAL CHARGE = 9.99682e-05 e
Info: MASS DENSITY = 0.959815 g/cm^3
Info: ATOM DENSITY = 0.0960729 atoms/A^3
Info: ADDED 0 IMPLICIT EXCLUSIONS
Info: NONBONDED TABLE R-SQUARED SPACING: 0.0625
Info: NONBONDED TABLE SIZE: 705 POINTS
Info: REMOVING COM VELOCITY 0.0685435 0.040129 -0.047427
Info: Use 3D box decompostion in PME FFT.
Info: Updated CUDA force table with 4096 elements.
Info: Updated CUDA LJ table with 7 x 7 elements.
Info: Found 12 unique exclusion lists needing 20 bytes
TCL: Running for 1500000 steps
ETITLE: TS BOND ANGLE DIHED IMPRP ELECT VDW BOUNDARY MISC KINETIC TOTAL TEMP POTENTIAL TOTALAVG TEMPAVG PRESSURE GPRESSURE VOLUME PRESSAVG GPRESSAVG
ENERGY: 0 1.0516 1.9080 0.8863 0.0000 -10698.7583 1500.1476 0.0000 0.0000 1740.5485 -7454.2163 298.4272 -9194.7648 -7454.2163 298.4272 388.7261 492.1264 30508.0671 388.7261 492.1264
ENERGY: 300000 1.6509 5.8630 1.6858 0.0000 -10628.1546 1407.9767 0.0000 0.0000 1686.7396 -7524.2386 289.2014 -9210.9782 -7477.3899 296.7618 -366.4764 -299.7392 30274.6260 -89.6282 -12.4754
ENERGY: 600000 3.4733 2.1889 2.7360 0.0000 -10679.9860 1474.6368 0.0000 0.0000 1752.1699 -7444.7812 300.4198 -9196.9511 -7463.7816 297.1070 293.4660 354.2135 30044.3997 25.1369 94.4870
ENERGY: 900000 1.1607 3.8706 2.4330 0.0000 -10531.9498 1388.7734 0.0000 0.0000 1716.8008 -7418.9113 294.3555 -9135.7120 -7458.2249 296.4185 -341.1122 -237.2918 30305.6213 -73.1866 5.6801
ENERGY: 1200000 2.3429 3.0954 1.8944 0.0000 -10554.6926 1397.5535 0.0000 0.0000 1725.3933 -7424.4131 295.8288 -9149.8064 -7440.9392 297.5465 -286.0359 -242.6313 30297.3143 -66.3932 -0.6196
ENERGY: 1500000 1.9858 4.5767 5.6168 0.0000 -10563.2988 1383.0479 0.0000 0.0000 1776.7970 -7391.2745 304.6422 -9168.0715 -7433.0925 298.4287 -599.4159 -517.9361 30745.6221 -68.2040 2.4515
TCL: Running FEP window   2: Lambda1 0.05   Lambda2 0.1    [dLambda 0.05  ]
TCL: Setting parameter firsttimestep to 0
TCL: Setting parameter alchLambda to 0.05
Info: NONBONDED TABLE R-SQUARED SPACING: 0.0625
Info: NONBONDED TABLE SIZE: 705 POINTS
TCL: Setting parameter alchLambda2 to 0.1
Info: NONBONDED TABLE R-SQUARED SPACING: 0.0625
Info: NONBONDED TABLE SIZE: 705 POINTS
TCL: Running for 1500000 steps
ETITLE: TS BOND ANGLE DIHED IMPRP ELECT VDW BOUNDARY MISC KINETIC TOTAL TEMP POTENTIAL TOTALAVG TEMPAVG PRESSURE GPRESSURE VOLUME PRESSAVG GPRESSAVG
ENERGY: 0 1.9858 4.5767 5.6168 0.0000 -10563.2989 1386.7218 0.0000 0.0000 1775.9083 -7388.4894 304.4898 -9164.3977 -7388.4894 304.4898 -571.2868 -509.2475 30745.6221 -571.2868 -509.2475
ENERGY: 300000 2.5342 4.9870 1.9946 0.0000 -10734.3962 1493.4380 0.0000 0.0000 1788.5416 -7442.9008 306.6559 -9231.4424 -7463.6576 298.6801 445.9928 497.4911 29881.7774 -428.0597 -354.4218
ENERGY: 600000 2.0155 3.1554 1.1013 0.0000 -10640.9593 1431.5633 0.0000 0.0000 1766.0752 -7437.0486 302.8039 -9203.1238 -7450.0154 300.4257 83.8022 171.1806 29932.2917 -273.6767 -183.3961
ENERGY: 900000 2.4994 2.0045 2.3625 0.0000 -10590.0639 1451.6773 0.0000 0.0000 1744.8577 -7386.6624 299.1661 -9131.5201 -7440.0889 300.2474 407.7404 409.9572 30160.2126 -111.4413 -38.8983
ENERGY: 1200000 2.2056 1.6229 2.6487 0.0000 -10841.7582 1566.2309 0.0000 0.0000 1756.3997 -7512.6505 301.1450 -9269.0502 -7444.1268 300.1737 666.5026 753.7957 30220.7837 -6.7482 63.2585
ENERGY: 1500000 4.9517 4.0066 1.7242 0.0000 -10607.5117 1395.1815 0.0000 0.0000 1765.5674 -7436.0803 302.7168 -9201.6477 -7439.0609 300.9049 -560.5932 -519.7736 30442.4541 -74.8945 -12.3769
TCL: Running FEP window   3: Lambda1 0.1    Lambda2 0.15000000000000002 [dLambda 0.05000000000000002]
TCL: Setting parameter firsttimestep to 0
TCL: Setting parameter alchLambda to 0.1
Info: NONBONDED TABLE R-SQUARED SPACING: 0.0625
Info: NONBONDED TABLE SIZE: 705 POINTS
TCL: Setting parameter alchLambda2 to 0.15000000000000002
Info: NONBONDED TABLE R-SQUARED SPACING: 0.0625
Info: NONBONDED TABLE SIZE: 705 POINTS
TCL: Running for 1500000 steps
ETITLE: TS BOND ANGLE DIHED IMPRP ELECT VDW BOUNDARY MISC KINETIC TOTAL TEMP POTENTIAL TOTALAVG TEMPAVG PRESSURE GPRESSURE VOLUME PRESSAVG GPRESSAVG
ENERGY: 0 4.9517 4.0066 1.7242 0.0000 -10607.5118 1396.2801 0.0000 0.0000 1764.7062 -7435.8430 302.5692 -9200.5492 -7435.8430 302.5692 -600.5768 -513.4536 30442.4541 -600.5768 -513.4536
ENERGY: 300000 2.5834 7.7519 1.8854 0.0000 -10529.4213 1343.7126 0.0000 0.0000 1760.8483 -7412.6396 301.9077 -9173.4879 -7454.2938 302.6257 -747.9747 -659.9742 30006.9917 -137.6689 -56.1831
ENERGY: 600000 1.8239 1.9068 1.7299 0.0000 -10558.2041 1346.3186 0.0000 0.0000 1715.8984 -7490.5264 294.2008 -9206.4248 -7456.8975 300.0532 -935.9493 -905.1203 30463.6742 -362.9595 -296.8683
ENERGY: 900000 2.5957 1.7030 3.7281 0.0000 -10542.4022 1364.1079 0.0000 0.0000 1754.2558 -7416.0116 300.7774 -9170.2674 -7461.3544 298.4809 -697.2805 -639.3150 30235.3906 -360.7487 -305.2445
ENERGY: 1200000 2.3852 3.7877 1.2363 0.0000 -10565.5453 1385.2560 0.0000 0.0000 1749.7336 -7423.1464 300.0021 -9172.8800 -7446.7776 299.3128 -195.1485 -120.7698 29840.1082 -221.2660 -163.7130
ENERGY: 1500000 3.0566 2.0800 3.6133 0.0000 -10691.1110 1450.9824 0.0000 0.0000 1716.9169 -7514.4617 294.3754 -9231.3786 -7453.4575 298.5456 118.5971 179.7878 29954.3557 -266.7075 -208.4773
TCL: Running FEP window   4: Lambda1 0.15000000000000002 Lambda2 0.2    [dLambda 0.04999999999999999]
TCL: Setting parameter firsttimestep to 0
TCL: Setting parameter alchLambda to 0.15000000000000002
Info: NONBONDED TABLE R-SQUARED SPACING: 0.0625
Info: NONBONDED TABLE SIZE: 705 POINTS
TCL: Setting parameter alchLambda2 to 0.2
Info: NONBONDED TABLE R-SQUARED SPACING: 0.0625
Info: NONBONDED TABLE SIZE: 705 POINTS
TCL: Running for 1500000 steps
ETITLE: TS BOND ANGLE DIHED IMPRP ELECT VDW BOUNDARY MISC KINETIC TOTAL TEMP POTENTIAL TOTALAVG TEMPAVG PRESSURE GPRESSURE VOLUME PRESSAVG GPRESSAVG
ENERGY: 0 3.0566 2.0800 3.6133 0.0000 -10691.1126 1450.6135 0.0000 0.0000 1716.0349 -7515.7143 294.2242 -9231.7492 -7515.7143 294.2242 92.5043 178.6600 29954.3557 92.5043 178.6600
ENERGY: 300000 2.2123 1.4201 2.4484 0.0000 -10589.7193 1468.8912 0.0000 0.0000 1758.6686 -7356.0787 301.5340 -9114.7473 -7433.7530 300.4577 536.0491 544.3200 30256.7271 215.7373 259.2493
ENERGY: 600000 2.2758 11.5193 0.7034 0.0000 -10550.7393 1406.0378 0.0000 0.0000 1769.5563 -7360.6467 303.4008 -9130.2030 -7427.8928 299.3645 -260.8466 -184.3066 30459.2269 71.5301 129.5939
ENERGY: 900000 1.2325 4.0927 3.6466 0.0000 -10519.3501 1374.6454 0.0000 0.0000 1777.9165 -7357.8164 304.8342 -9135.7329 -7416.3653 300.2765 -292.8428 -275.3103 30126.5967 119.1860 180.2532
ENERGY: 1200000 2.6909 1.7644 1.4828 0.0000 -10660.1095 1497.4679 0.0000 0.0000 1742.1239 -7414.5797 298.6973 -9156.7036 -7427.2643 299.9862 613.6250 690.3611 30215.7535 123.6643 176.4413
ENERGY: 1500000 3.0206 3.7095 0.9270 0.0000 -10700.0311 1469.6728 0.0000 0.0000 1708.0941 -7514.6071 292.8627 -9222.7012 -7434.8329 299.9759 261.5795 348.7495 29876.3271 118.3024 174.9166
TCL: Running FEP window   5: Lambda1 0.2    Lambda2 0.25   [dLambda 0.04999999999999999]
TCL: Setting parameter firsttimestep to 0
TCL: Setting parameter alchLambda to 0.2
Info: NONBONDED TABLE R-SQUARED SPACING: 0.0625
Info: NONBONDED TABLE SIZE: 705 POINTS
TCL: Setting parameter alchLambda2 to 0.25
Info: NONBONDED TABLE R-SQUARED SPACING: 0.0625
Info: NONBONDED TABLE SIZE: 705 POINTS
TCL: Running for 1500000 steps
ETITLE: TS BOND ANGLE DIHED IMPRP ELECT VDW BOUNDARY MISC KINETIC TOTAL TEMP POTENTIAL TOTALAVG TEMPAVG PRESSURE GPRESSURE VOLUME PRESSAVG GPRESSAVG
ENERGY: 0 3.0206 3.7095 0.9270 0.0000 -10700.0307 1469.6689 0.0000 0.0000 1707.1823 -7515.5224 292.7064 -9222.7047 -7515.5224 292.7064 277.1053 352.1690 29876.3271 277.1053 352.1690
ENERGY: 300000 2.5843 1.9573 1.8802 0.0000 -10735.6302 1430.7868 0.0000 0.0000 1741.2537 -7557.1679 298.5481 -9298.4216 -7490.9960 298.1913 -303.9912 -196.4751 29766.9540 158.5288 231.8739
ENERGY: 600000 1.2931 3.3194 2.6657 0.0000 -10664.7014 1425.8280 0.0000 0.0000 1746.2717 -7485.3235 299.4085 -9231.5952 -7476.8056 300.2142 -104.7594 -114.0333 30259.9009 36.0881 99.2907
ENERGY: 900000 1.7262 4.0850 2.9353 0.0000 -10669.0040 1418.8514 0.0000 0.0000 1739.7694 -7501.6366 298.2936 -9241.4060 -7489.3887 299.3194 -333.6368 -264.9124 29986.1124 -87.3346 -14.1961
ENERGY: 1200000 0.9244 5.5405 3.9290 0.0000 -10599.8864 1394.5389 0.0000 0.0000 1779.6877 -7415.2659 305.1379 -9194.9536 -7476.4782 299.8318 -61.6223 -105.6746 29899.8681 -39.4210 17.3233
ENERGY: 1500000 3.2099 1.4715 1.1068 0.0000 -10616.6777 1387.5325 0.0000 0.0000 1754.3496 -7469.0074 300.7935 -9223.3570 -7475.0921 299.3939 -458.7784 -406.6255 30003.7411 -42.8501 12.6534
TCL: Running FEP window   6: Lambda1 0.25   Lambda2 0.3    [dLambda 0.04999999999999999]
TCL: Setting parameter firsttimestep to 0
TCL: Setting parameter alchLambda to 0.25
Info: NONBONDED TABLE R-SQUARED SPACING: 0.0625
Info: NONBONDED TABLE SIZE: 705 POINTS
TCL: Setting parameter alchLambda2 to 0.3
Info: NONBONDED TABLE R-SQUARED SPACING: 0.0625
Info: NONBONDED TABLE SIZE: 705 POINTS
TCL: Running for 1500000 steps
ETITLE: TS BOND ANGLE DIHED IMPRP ELECT VDW BOUNDARY MISC KINETIC TOTAL TEMP POTENTIAL TOTALAVG TEMPAVG PRESSURE GPRESSURE VOLUME PRESSAVG GPRESSAVG
ENERGY: 0 3.2099 1.4715 1.1068 0.0000 -10616.6768 1387.1155 0.0000 0.0000 1753.4702 -7470.3029 300.6427 -9223.7731 -7470.3029 300.6427 -488.0517 -402.7854 30003.7411 -488.0517 -402.7854
ENERGY: 300000 2.8404 1.4158 3.5153 0.0000 -10611.8476 1399.5933 0.0000 0.0000 1751.1101 -7453.3727 300.2381 -9204.4828 -7430.9667 300.7953 -310.8394 -231.8463 30350.8830 13.3937 91.7441
ENERGY: 600000 4.9413 1.2377 2.9679 0.0000 -10625.4578 1418.3313 0.0000 0.0000 1739.2055 -7458.7740 298.1969 -9197.9795 -7440.3440 299.3126 -245.0118 -138.9551 30235.4491 -73.4114 15.8348
ENERGY: 900000 3.1728 1.5246 2.7286 0.0000 -10673.7779 1499.0228 0.0000 0.0000 1727.0157 -7440.3135 296.1069 -9167.3292 -7439.5820 300.0496 569.1442 731.0945 29871.4057 -82.5888 11.5576
ENERGY: 1200000 2.6569 3.1800 1.7184 0.0000 -10713.3020 1456.2403 0.0000 0.0000 1717.9376 -7531.5688 294.5504 -9249.5064 -7444.4074 299.8710 -156.7032 -89.5635 30018.2842 -42.1097 45.8319
ENERGY: 1500000 2.2655 2.9901 2.3452 0.0000 -10731.2596 1489.9933 0.0000 0.0000 1736.4495 -7497.2159 297.7244 -9233.6654 -7448.8622 300.1657 468.9971 549.6880 30037.2411 -5.3482 71.9291
TCL: Running FEP window   7: Lambda1 0.3    Lambda2 0.35   [dLambda 0.04999999999999999]
TCL: Setting parameter firsttimestep to 0
TCL: Setting parameter alchLambda to 0.3
Info: NONBONDED TABLE R-SQUARED SPACING: 0.0625
Info: NONBONDED TABLE SIZE: 705 POINTS
TCL: Setting parameter alchLambda2 to 0.35
Info: NONBONDED TABLE R-SQUARED SPACING: 0.0625
Info: NONBONDED TABLE SIZE: 705 POINTS
TCL: Running for 1500000 steps
ETITLE: TS BOND ANGLE DIHED IMPRP ELECT VDW BOUNDARY MISC KINETIC TOTAL TEMP POTENTIAL TOTALAVG TEMPAVG PRESSURE GPRESSURE VOLUME PRESSAVG GPRESSAVG
ENERGY: 0 2.2655 2.9901 2.3452 0.0000 -10731.2601 1490.5341 0.0000 0.0000 1735.6128 -7497.5124 297.5809 -9233.1252 -7497.5124 297.5809 485.9536 557.1496 30037.2411 485.9536 557.1496
ENERGY: 300000 2.4285 2.0640 2.7064 0.0000 -10551.2261 1383.6490 0.0000 0.0000 1790.3276 -7370.0506 306.9621 -9160.3783 -7433.5934 300.4597 -317.6179 -237.6892 30376.7132 -417.0512 -360.1529
ENERGY: 600000 3.1149 2.9822 1.8847 0.0000 -10739.7424 1488.4071 0.0000 0.0000 1699.0145 -7544.3390 291.3060 -9243.3535 -7452.5372 299.4398 271.9500 341.2022 30264.0813 -306.6035 -240.3050
ENERGY: 900000 1.7552 2.0119 4.6034 0.0000 -10849.3336 1524.4869 0.0000 0.0000 1775.7875 -7540.6887 304.4691 -9316.4762 -7444.1667 301.9498 557.8736 597.1200 29989.7569 -148.3921 -82.5554
ENERGY: 1200000 4.6611 5.6948 2.8049 0.0000 -10441.8006 1310.0790 0.0000 0.0000 1791.1591 -7327.4017 307.1047 -9118.5608 -7433.3713 302.3176 -776.6597 -639.2102 30329.7218 -230.0065 -160.7861
ENERGY: 1500000 4.1206 4.2705 5.2964 0.0000 -10714.2816 1487.4248 0.0000 0.0000 1716.5659 -7496.6034 294.3152 -9213.1693 -7432.9121 301.2352 349.9979 345.4434 30231.5618 -200.8580 -131.0565
TCL: Running FEP window   8: Lambda1 0.35   Lambda2 0.39999999999999997 [dLambda 0.04999999999999999]
TCL: Setting parameter firsttimestep to 0
TCL: Setting parameter alchLambda to 0.35
Info: NONBONDED TABLE R-SQUARED SPACING: 0.0625
Info: NONBONDED TABLE SIZE: 705 POINTS
TCL: Setting parameter alchLambda2 to 0.39999999999999997
Info: NONBONDED TABLE R-SQUARED SPACING: 0.0625
Info: NONBONDED TABLE SIZE: 705 POINTS
TCL: Running for 1500000 steps
ETITLE: TS BOND ANGLE DIHED IMPRP ELECT VDW BOUNDARY MISC KINETIC TOTAL TEMP POTENTIAL TOTALAVG TEMPAVG PRESSURE GPRESSURE VOLUME PRESSAVG GPRESSAVG
ENERGY: 0 4.1206 4.2705 5.2964 0.0000 -10714.2815 1487.5552 0.0000 0.0000 1715.7284 -7497.3104 294.1717 -9213.0388 -7497.3104 294.1717 286.1706 349.5212 30231.5618 286.1706 349.5212
ENERGY: 300000 4.2811 5.0148 2.3724 0.0000 -10871.1451 1557.7171 0.0000 0.0000 1737.6175 -7564.1422 297.9247 -9301.7597 -7466.4006 300.4946 887.6595 932.5890 29525.4660 340.4543 383.1399
ENERGY: 600000 1.8111 2.1167 2.4819 0.0000 -10497.3596 1352.1116 0.0000 0.0000 1789.5529 -7349.2855 306.8293 -9138.8383 -7459.7290 300.8464 -593.0856 -542.0579 30577.7164 338.6304 389.3879
ENERGY: 900000 2.2157 4.5907 6.0673 0.0000 -10850.2525 1553.8872 0.0000 0.0000 1729.7728 -7553.7187 296.5797 -9283.4916 -7471.2175 299.6404 780.2983 835.8958 29943.4565 317.7845 368.2423
ENERGY: 1200000 1.0363 1.5726 2.1584 0.0000 -10636.7206 1447.4023 0.0000 0.0000 1738.2319 -7446.3190 298.0300 -9184.5509 -7468.8435 300.1827 319.8874 338.2531 30060.6070 275.7105 325.8514
ENERGY: 1500000 5.3294 3.2499 2.5014 0.0000 -10681.0482 1502.2460 0.0000 0.0000 1788.4130 -7379.3085 306.6339 -9167.7215 -7460.3989 300.3758 606.9477 635.1655 30280.9112 214.7678 265.0942
TCL: Running FEP window   9: Lambda1 0.39999999999999997 Lambda2 0.44999999999999996 [dLambda 0.04999999999999999]
TCL: Setting parameter firsttimestep to 0
TCL: Setting parameter alchLambda to 0.39999999999999997
Info: NONBONDED TABLE R-SQUARED SPACING: 0.0625
Info: NONBONDED TABLE SIZE: 705 POINTS
TCL: Setting parameter alchLambda2 to 0.44999999999999996
Info: NONBONDED TABLE R-SQUARED SPACING: 0.0625
Info: NONBONDED TABLE SIZE: 705 POINTS
TCL: Running for 1500000 steps
ETITLE: TS BOND ANGLE DIHED IMPRP ELECT VDW BOUNDARY MISC KINETIC TOTAL TEMP POTENTIAL TOTALAVG TEMPAVG PRESSURE GPRESSURE VOLUME PRESSAVG GPRESSAVG
ENERGY: 0 5.3294 3.2499 2.5014 0.0000 -10681.0472 1502.7261 0.0000 0.0000 1787.5352 -7379.7052 306.4833 -9167.2404 -7379.7052 306.4833 571.4610 645.0282 30280.9112 571.4610 645.0282
ENERGY: 300000 3.8971 3.3975 2.6071 0.0000 -10674.8905 1403.9895 0.0000 0.0000 1823.7990 -7437.2003 312.7010 -9260.9993 -7442.1167 304.9140 -293.4316 -262.2212 29974.9452 -50.5144 27.1737
ENERGY: 600000 2.8939 5.4552 1.6063 0.0000 -10684.7966 1461.7061 0.0000 0.0000 1735.5105 -7477.6246 297.5634 -9213.1351 -7448.2522 301.6540 274.7989 347.3878 29840.4774 109.7697 185.7623
ENERGY: 900000 2.7806 2.6873 1.5070 0.0000 -10766.5221 1498.0100 0.0000 0.0000 1774.7410 -7486.7963 304.2897 -9261.5372 -7457.9820 300.8665 591.4456 636.2069 29838.1811 167.4890 243.5564
ENERGY: 1200000 3.4725 4.6613 1.8213 0.0000 -10553.5041 1371.1013 0.0000 0.0000 1745.6049 -7426.8428 299.2942 -9172.4477 -7452.3148 300.3054 -459.9498 -352.1393 29984.3328 76.4886 153.2173
ENERGY: 1500000 4.4051 4.5913 2.3119 0.0000 -10664.9351 1483.0821 0.0000 0.0000 1727.9654 -7442.5792 296.2698 -9170.5446 -7453.7831 299.4239 450.5682 574.0236 30365.4230 125.5812 202.8730
TCL: Running FEP window  10: Lambda1 0.44999999999999996 Lambda2 0.49999999999999994 [dLambda 0.04999999999999999]
TCL: Setting parameter firsttimestep to 0
TCL: Setting parameter alchLambda to 0.44999999999999996
Info: NONBONDED TABLE R-SQUARED SPACING: 0.0625
Info: NONBONDED TABLE SIZE: 705 POINTS
TCL: Setting parameter alchLambda2 to 0.49999999999999994
Info: NONBONDED TABLE R-SQUARED SPACING: 0.0625
Info: NONBONDED TABLE SIZE: 705 POINTS
TCL: Running for 1500000 steps
ETITLE: TS BOND ANGLE DIHED IMPRP ELECT VDW BOUNDARY MISC KINETIC TOTAL TEMP POTENTIAL TOTALAVG TEMPAVG PRESSURE GPRESSURE VOLUME PRESSAVG GPRESSAVG
ENERGY: 0 4.4051 4.5913 2.3119 0.0000 -10664.9370 1482.9536 0.0000 0.0000 1727.0818 -7443.5934 296.1183 -9170.6751 -7443.5934 296.1183 497.4207 580.5487 30365.4230 497.4207 580.5487
ENERGY: 300000 3.1674 2.7485 2.7599 0.0000 -10603.9219 1422.1418 0.0000 0.0000 1727.2826 -7445.8217 296.1527 -9173.1043 -7449.0138 294.9657 87.9199 178.8369 30215.5034 339.2584 421.8119
ENERGY: 600000 1.6402 3.5532 4.1584 0.0000 -10650.5349 1398.0556 0.0000 0.0000 1748.4030 -7494.7244 299.7739 -9243.1275 -7459.8865 298.2989 -212.6472 -209.3987 30186.4360 128.2515 192.9558
ENERGY: 900000 1.3412 3.4474 1.2423 0.0000 -10628.9475 1408.1389 0.0000 0.0000 1698.5930 -7516.1848 291.2337 -9214.7778 -7462.4621 297.8298 -510.7645 -433.6498 30297.2236 88.5549 138.7812
ENERGY: 1200000 2.2435 2.7392 3.9698 0.0000 -10806.1487 1609.0349 0.0000 0.0000 1728.0242 -7460.1370 296.2798 -9188.1613 -7455.7961 297.7631 1506.3995 1513.8925 29847.9787 171.9035 221.6365
ENERGY: 1500000 3.6925 4.8714 3.4326 0.0000 -10726.8387 1445.8852 0.0000 0.0000 1736.9458 -7532.0112 297.8095 -9268.9570 -7458.9490 297.7911 -426.9423 -386.4087 30382.6367 140.7090 189.6654
TCL: Running FEP window  11: Lambda1 0.49999999999999994 Lambda2 0.5499999999999999 [dLambda 0.04999999999999999]
TCL: Setting parameter firsttimestep to 0
TCL: Setting parameter alchLambda to 0.49999999999999994
Info: NONBONDED TABLE R-SQUARED SPACING: 0.0625
Info: NONBONDED TABLE SIZE: 705 POINTS
TCL: Setting parameter alchLambda2 to 0.5499999999999999
Info: NONBONDED TABLE R-SQUARED SPACING: 0.0625
Info: NONBONDED TABLE SIZE: 705 POINTS
TCL: Running for 1500000 steps
ETITLE: TS BOND ANGLE DIHED IMPRP ELECT VDW BOUNDARY MISC KINETIC TOTAL TEMP POTENTIAL TOTALAVG TEMPAVG PRESSURE GPRESSURE VOLUME PRESSAVG GPRESSAVG
ENERGY: 0 3.6925 4.8714 3.4326 0.0000 -10726.8398 1446.6603 0.0000 0.0000 1736.0946 -7532.0884 297.6635 -9268.1829 -7532.0884 297.6635 -456.2756 -374.4051 30382.6367 -456.2756 -374.4051
ENERGY: 300000 2.3755 6.5812 1.4144 0.0000 -10486.5092 1307.0971 0.0000 0.0000 1778.7757 -7390.2654 304.9815 -9169.0410 -7476.4408 300.5532 -769.1279 -721.0306 30269.7316 -292.3101 -239.9851
ENERGY: 600000 2.7901 5.4586 3.1900 0.0000 -10733.0154 1555.6106 0.0000 0.0000 1755.0882 -7410.8779 300.9201 -9165.9661 -7464.0538 300.0223 975.0092 1152.0449 29825.1817 86.7481 160.8360
ENERGY: 900000 2.4728 3.2648 2.0748 0.0000 -10709.9926 1440.9189 0.0000 0.0000 1732.6819 -7528.5793 297.0784 -9261.2612 -7453.7160 299.5252 318.3007 364.8921 29480.3329 11.1923 84.3030
ENERGY: 1200000 4.0663 4.1518 1.6324 0.0000 -10667.9049 1478.6004 0.0000 0.0000 1767.6406 -7411.8135 303.0723 -9179.4541 -7457.4360 298.5930 182.0704 354.4942 30305.2974 48.4671 130.7389
ENERGY: 1500000 2.6326 3.1480 1.5177 0.0000 -10624.2674 1401.3061 0.0000 0.0000 1721.8429 -7493.8201 295.2200 -9215.6630 -7463.6852 298.3664 -168.9535 -115.4947 30049.6009 6.4430 77.5086
TCL: Running FEP window  12: Lambda1 0.5499999999999999 Lambda2 0.6    [dLambda 0.050000000000000044]
TCL: Setting parameter firsttimestep to 0
TCL: Setting parameter alchLambda to 0.5499999999999999
Info: NONBONDED TABLE R-SQUARED SPACING: 0.0625
Info: NONBONDED TABLE SIZE: 705 POINTS
TCL: Setting parameter alchLambda2 to 0.6
Info: NONBONDED TABLE R-SQUARED SPACING: 0.0625
Info: NONBONDED TABLE SIZE: 705 POINTS
TCL: Running for 1500000 steps
ETITLE: TS BOND ANGLE DIHED IMPRP ELECT VDW BOUNDARY MISC KINETIC TOTAL TEMP POTENTIAL TOTALAVG TEMPAVG PRESSURE GPRESSURE VOLUME PRESSAVG GPRESSAVG
ENERGY: 0 2.6326 3.1480 1.5177 0.0000 -10624.0907 1400.8237 0.0000 0.0000 1720.9272 -7495.0415 295.0630 -9215.9687 -7495.0415 295.0630 -200.7355 -111.0544 30049.6009 -200.7355 -111.0544
ENERGY: 300000 2.6658 1.6520 1.2172 0.0000 -10780.6554 1491.5810 0.0000 0.0000 1785.2686 -7498.2710 306.0947 -9283.5395 -7464.1142 301.6127 490.8440 474.5519 29904.9805 172.4629 195.4768
ENERGY: 600000 2.4995 2.3709 3.4037 0.0000 -10671.6033 1461.0704 0.0000 0.0000 1742.5040 -7459.7549 298.7625 -9202.2589 -7470.4550 299.7054 299.8211 311.9594 30079.6457 94.6261 125.8152
ENERGY: 900000 1.5696 2.3554 3.4040 0.0000 -10669.7559 1453.4410 0.0000 0.0000 1738.7716 -7470.2143 298.1225 -9208.9859 -7462.1748 298.0450 94.9957 154.4129 30190.9572 27.8458 68.8614
ENERGY: 1200000 4.0245 3.1065 2.8496 0.0000 -10627.0579 1419.0540 0.0000 0.0000 1707.3089 -7490.7144 292.7281 -9198.0233 -7464.5659 298.3913 2.8533 34.4556 29883.9077 71.9615 112.7205
ENERGY: 1500000 2.8707 2.7521 2.7551 0.0000 -10699.9491 1481.5544 0.0000 0.0000 1749.1547 -7460.8621 299.9028 -9210.0168 -7471.8790 298.2535 253.3246 313.4621 29925.4299 96.5361 138.0397
TCL: Running FEP window  13: Lambda1 0.6    Lambda2 0.65   [dLambda 0.050000000000000044]
TCL: Setting parameter firsttimestep to 0
TCL: Setting parameter alchLambda to 0.6
Info: NONBONDED TABLE R-SQUARED SPACING: 0.0625
Info: NONBONDED TABLE SIZE: 705 POINTS
TCL: Setting parameter alchLambda2 to 0.65
Info: NONBONDED TABLE R-SQUARED SPACING: 0.0625
Info: NONBONDED TABLE SIZE: 705 POINTS
TCL: Running for 1500000 steps
ETITLE: TS BOND ANGLE DIHED IMPRP ELECT VDW BOUNDARY MISC KINETIC TOTAL TEMP POTENTIAL TOTALAVG TEMPAVG PRESSURE GPRESSURE VOLUME PRESSAVG GPRESSAVG
ENERGY: 0 2.8707 2.7521 2.7551 0.0000 -10700.1199 1481.6366 0.0000 0.0000 1748.2588 -7461.8467 299.7492 -9210.1055 -7461.8467 299.7492 233.9750 322.1433 29925.4299 233.9750 322.1433
ENERGY: 300000 1.0659 2.1162 3.4020 0.0000 -10639.4838 1362.7491 0.0000 0.0000 1756.4550 -7513.6956 301.1545 -9270.1506 -7465.9411 301.2580 -782.7915 -755.2218 30360.2359 -281.4603 -226.1723
ENERGY: 600000 2.4781 2.3067 0.8932 0.0000 -10731.8887 1450.1202 0.0000 0.0000 1810.9037 -7465.1868 310.4900 -9276.0905 -7458.3879 302.8301 -120.1508 -75.2063 30280.2234 -217.1773 -155.9576
ENERGY: 900000 2.3212 2.5557 1.1321 0.0000 -10686.6399 1422.2485 0.0000 0.0000 1806.4829 -7451.8995 309.7320 -9258.3823 -7456.2228 302.2706 11.5722 51.5523 29800.5337 -265.6938 -205.4769
ENERGY: 1200000 2.4880 2.7628 3.3025 0.0000 -10555.0100 1447.0297 0.0000 0.0000 1765.0436 -7334.3833 302.6270 -9099.4269 -7451.2559 301.5229 -11.8748 118.1825 30638.8792 -242.5177 -177.6915
ENERGY: 1500000 1.8532 4.0699 2.8444 0.0000 -10551.8625 1388.7046 0.0000 0.0000 1805.4885 -7348.9018 309.5616 -9154.3903 -7451.2872 300.5612 172.7080 158.3450 29918.4970 -239.0755 -170.5219
TCL: Running FEP window  14: Lambda1 0.65   Lambda2 0.7000000000000001 [dLambda 0.050000000000000044]
TCL: Setting parameter firsttimestep to 0
TCL: Setting parameter alchLambda to 0.65
Info: NONBONDED TABLE R-SQUARED SPACING: 0.0625
Info: NONBONDED TABLE SIZE: 705 POINTS
TCL: Setting parameter alchLambda2 to 0.7000000000000001
Info: NONBONDED TABLE R-SQUARED SPACING: 0.0625
Info: NONBONDED TABLE SIZE: 705 POINTS
TCL: Running for 1500000 steps
ETITLE: TS BOND ANGLE DIHED IMPRP ELECT VDW BOUNDARY MISC KINETIC TOTAL TEMP POTENTIAL TOTALAVG TEMPAVG PRESSURE GPRESSURE VOLUME PRESSAVG GPRESSAVG
ENERGY: 0 1.8532 4.0699 2.8444 0.0000 -10551.4750 1388.4574 0.0000 0.0000 1804.6116 -7349.6384 309.4112 -9154.2500 -7349.6384 309.4112 91.2015 165.1383 29918.4970 91.2015 165.1383
ENERGY: 300000 2.8487 1.4952 0.9024 0.0000 -10553.5172 1358.0144 0.0000 0.0000 1776.2866 -7413.9699 304.5547 -9190.2565 -7399.1421 301.7563 -808.1463 -692.3749 30483.1438 -250.2077 -153.5946
ENERGY: 600000 0.7674 5.1303 2.2799 0.0000 -10470.3059 1332.5066 0.0000 0.0000 1731.3998 -7398.2220 296.8586 -9129.6218 -7407.1163 300.8634 -845.3876 -812.3805 30734.7239 -315.5113 -246.3324
ENERGY: 900000 3.3262 2.0115 6.6067 0.0000 -10648.6502 1460.6233 0.0000 0.0000 1728.2404 -7447.8421 296.3169 -9176.0825 -7412.6400 300.3550 116.8082 112.7508 30368.0019 -268.7112 -222.8092
ENERGY: 1200000 1.1180 1.1753 2.2409 0.0000 -10671.7916 1497.4747 0.0000 0.0000 1706.9170 -7462.8657 292.6609 -9169.7827 -7430.9939 298.7005 751.9695 816.1150 29865.8151 -36.2241 1.2666
ENERGY: 1500000 3.3581 4.5527 1.4374 0.0000 -10678.3928 1361.2205 0.0000 0.0000 1738.5401 -7569.2841 298.0829 -9307.8242 -7447.3855 298.2878 -792.5810 -698.8013 29970.9188 -63.2830 -19.7848
TCL: Running FEP window  15: Lambda1 0.7000000000000001 Lambda2 0.7500000000000001 [dLambda 0.050000000000000044]
TCL: Setting parameter firsttimestep to 0
TCL: Setting parameter alchLambda to 0.7000000000000001
Info: NONBONDED TABLE R-SQUARED SPACING: 0.0625
Info: NONBONDED TABLE SIZE: 705 POINTS
TCL: Setting parameter alchLambda2 to 0.7500000000000001
Info: NONBONDED TABLE R-SQUARED SPACING: 0.0625
Info: NONBONDED TABLE SIZE: 705 POINTS
TCL: Running for 1500000 steps
ETITLE: TS BOND ANGLE DIHED IMPRP ELECT VDW BOUNDARY MISC KINETIC TOTAL TEMP POTENTIAL TOTALAVG TEMPAVG PRESSURE GPRESSURE VOLUME PRESSAVG GPRESSAVG
ENERGY: 0 3.3581 4.5527 1.4374 0.0000 -10678.9165 1360.6741 0.0000 0.0000 1737.6442 -7571.2500 297.9292 -9308.8941 -7571.2500 297.9292 -794.7963 -695.5166 29970.9188 -794.7963 -695.5166
ENERGY: 300000 1.4267 1.7066 0.8986 0.0000 -10672.5488 1482.1208 0.0000 0.0000 1762.5572 -7423.8389 302.2007 -9186.3962 -7501.9144 296.5734 588.6680 660.3529 30094.4844 -164.2777 -76.4923
ENERGY: 600000 4.6446 5.1812 2.5855 0.0000 -10611.4417 1350.7175 0.0000 0.0000 1757.2210 -7491.0919 301.2858 -9248.3130 -7480.8906 299.0044 -848.6660 -817.9421 30461.2831 -264.4359 -191.2225
ENERGY: 900000 2.5676 2.3133 3.4303 0.0000 -10643.5188 1411.6304 0.0000 0.0000 1760.2452 -7463.3321 301.8043 -9223.5773 -7468.3297 300.3772 -201.4796 -194.5916 30008.5323 -64.8435 2.9723
ENERGY: 1200000 0.9570 2.2538 1.8520 0.0000 -10668.0360 1444.7341 0.0000 0.0000 1757.2942 -7460.9449 301.2983 -9218.2391 -7471.4875 299.5280 108.1528 176.5729 30141.2391 51.4187 114.7347
ENERGY: 1500000 2.1682 2.6226 2.7598 0.0000 -10662.7116 1476.8125 0.0000 0.0000 1765.4650 -7412.8834 302.6993 -9178.3484 -7468.6553 299.9749 595.3917 643.3886 30295.6007 83.1373 145.7551
TCL: Running FEP window  16: Lambda1 0.7500000000000001 Lambda2 0.8000000000000002 [dLambda 0.050000000000000044]
TCL: Setting parameter firsttimestep to 0
TCL: Setting parameter alchLambda to 0.7500000000000001
Info: NONBONDED TABLE R-SQUARED SPACING: 0.0625
Info: NONBONDED TABLE SIZE: 705 POINTS
TCL: Setting parameter alchLambda2 to 0.8000000000000002
Info: NONBONDED TABLE R-SQUARED SPACING: 0.0625
Info: NONBONDED TABLE SIZE: 705 POINTS
TCL: Running for 1500000 steps
ETITLE: TS BOND ANGLE DIHED IMPRP ELECT VDW BOUNDARY MISC KINETIC TOTAL TEMP POTENTIAL TOTALAVG TEMPAVG PRESSURE GPRESSURE VOLUME PRESSAVG GPRESSAVG
ENERGY: 0 2.1682 2.6226 2.7598 0.0000 -10664.0276 1477.7012 0.0000 0.0000 1764.6069 -7414.1689 302.5522 -9178.7758 -7414.1689 302.5522 575.3384 659.6901 30295.6007 575.3384 659.6901
ENERGY: 300000 2.1130 4.0604 1.4247 0.0000 -10569.0796 1342.6296 0.0000 0.0000 1775.6520 -7443.2000 304.4459 -9218.8520 -7437.9482 301.2686 -559.9587 -493.9084 29746.9020 -174.4766 -95.0805
ENERGY: 600000 2.3261 1.3006 1.4397 0.0000 -10397.2730 1287.1372 0.0000 0.0000 1767.8873 -7337.1820 303.1146 -9105.0694 -7445.5975 300.1631 -679.4115 -599.3689 30469.9814 -244.1821 -159.4357
ENERGY: 900000 1.2476 4.2968 1.0943 0.0000 -10648.2139 1469.2476 0.0000 0.0000 1771.9965 -7400.3312 303.8191 -9172.3277 -7432.7700 301.2531 244.1683 276.6927 30854.5717 -170.6570 -96.2259
ENERGY: 1200000 3.7086 3.8258 1.8562 0.0000 -10590.7272 1355.1007 0.0000 0.0000 1737.3221 -7488.9138 297.8740 -9226.2359 -7434.0055 300.8401 -548.2442 -480.5822 29697.2665 -113.9958 -38.4508
ENERGY: 1500000 4.9129 3.2605 3.9310 0.0000 -10573.2172 1425.0551 0.0000 0.0000 1742.3077 -7393.7500 298.7288 -9136.0577 -7437.6889 300.9786 59.5659 121.8053 30097.3403 -95.8132 -24.3208
TCL: Running FEP window  17: Lambda1 0.8000000000000002 Lambda2 0.8500000000000002 [dLambda 0.050000000000000044]
TCL: Setting parameter firsttimestep to 0
TCL: Setting parameter alchLambda to 0.8000000000000002
Info: NONBONDED TABLE R-SQUARED SPACING: 0.0625
Info: NONBONDED TABLE SIZE: 705 POINTS
TCL: Setting parameter alchLambda2 to 0.8500000000000002
Info: NONBONDED TABLE R-SQUARED SPACING: 0.0625
Info: NONBONDED TABLE SIZE: 705 POINTS
TCL: Running for 1500000 steps
ETITLE: TS BOND ANGLE DIHED IMPRP ELECT VDW BOUNDARY MISC KINETIC TOTAL TEMP POTENTIAL TOTALAVG TEMPAVG PRESSURE GPRESSURE VOLUME PRESSAVG GPRESSAVG
ENERGY: 0 4.9129 3.2605 3.9310 0.0000 -10574.2687 1425.4928 0.0000 0.0000 1741.4402 -7395.2313 298.5801 -9136.6715 -7395.2313 298.5801 45.7884 132.6130 30097.3403 45.7884 132.6130
ENERGY: 300000 2.1406 3.5988 2.9164 0.0000 -10720.9574 1463.2959 0.0000 0.0000 1727.5132 -7521.4925 296.1922 -9249.0057 -7438.9950 300.2594 23.3360 110.1771 30371.0850 136.6534 201.0017
ENERGY: 600000 3.7863 4.4872 1.9501 0.0000 -10548.6315 1396.1193 0.0000 0.0000 1739.2783 -7403.0104 298.2094 -9142.2886 -7444.8482 298.4106 -144.2273 -61.3168 30012.7082 -46.8631 19.3243
ENERGY: 900000 3.1931 2.4670 1.1498 0.0000 -10732.2553 1452.0031 0.0000 0.0000 1756.6310 -7516.8114 301.1846 -9273.4424 -7462.7840 298.7384 -293.2124 -276.8656 30446.2228 -122.6499 -58.9856
ENERGY: 1200000 3.2331 3.3872 4.3685 0.0000 -10687.5277 1454.3021 0.0000 0.0000 1703.2071 -7519.0297 292.0248 -9222.2368 -7450.4752 298.5970 375.1616 396.1122 29926.6032 -167.9772 -102.0602
ENERGY: 1500000 1.7042 1.8634 2.6192 0.0000 -10651.6263 1428.5405 0.0000 0.0000 1730.3804 -7486.5187 296.6838 -9216.8991 -7456.7578 298.2591 218.3972 313.3981 29792.6179 -169.1803 -101.0230
TCL: Running FEP window  18: Lambda1 0.8500000000000002 Lambda2 0.9000000000000002 [dLambda 0.050000000000000044]
TCL: Setting parameter firsttimestep to 0
TCL: Setting parameter alchLambda to 0.8500000000000002
Info: NONBONDED TABLE R-SQUARED SPACING: 0.0625
Info: NONBONDED TABLE SIZE: 705 POINTS
TCL: Setting parameter alchLambda2 to 0.9000000000000002
Info: NONBONDED TABLE R-SQUARED SPACING: 0.0625
Info: NONBONDED TABLE SIZE: 705 POINTS
TCL: Running for 1500000 steps
ETITLE: TS BOND ANGLE DIHED IMPRP ELECT VDW BOUNDARY MISC KINETIC TOTAL TEMP POTENTIAL TOTALAVG TEMPAVG PRESSURE GPRESSURE VOLUME PRESSAVG GPRESSAVG
ENERGY: 0 1.7042 1.8634 2.6192 0.0000 -10652.5251 1429.4601 0.0000 0.0000 1729.5344 -7487.3438 296.5388 -9216.8782 -7487.3438 296.5388 261.9595 332.8300 29792.6179 261.9595 332.8300
ENERGY: 300000 2.6537 4.1311 2.2087 0.0000 -10673.0198 1549.1566 0.0000 0.0000 1761.4699 -7353.3999 302.0143 -9114.8697 -7435.5630 299.3784 1103.1037 1244.3603 30316.6808 351.1612 427.6648
ENERGY: 600000 2.6927 3.9184 2.5214 0.0000 -10644.9951 1433.2513 0.0000 0.0000 1733.5984 -7469.0129 297.2356 -9202.6113 -7433.1600 299.4236 -81.8048 2.0362 30319.2928 78.3483 151.9797
ENERGY: 900000 1.6431 3.4323 1.0463 0.0000 -10723.8162 1450.2887 0.0000 0.0000 1738.9308 -7528.4751 298.1498 -9267.4059 -7452.0166 299.6291 -218.1759 -187.5673 30741.7605 65.5060 130.7937
ENERGY: 1200000 3.3584 4.0505 3.3225 0.0000 -10672.2979 1459.1335 0.0000 0.0000 1765.2240 -7437.2089 302.6580 -9202.4330 -7455.1948 299.9284 191.8790 291.3922 30012.9054 141.4622 211.7853
ENERGY: 1500000 1.7748 1.4816 1.8599 0.0000 -10644.8240 1456.2988 0.0000 0.0000 1785.5900 -7397.8190 306.1498 -9183.4089 -7456.5639 300.1306 284.4894 351.2316 29906.7556 78.5975 152.0945
TCL: Running FEP window  19: Lambda1 0.9000000000000002 Lambda2 0.9500000000000003 [dLambda 0.050000000000000044]
TCL: Setting parameter firsttimestep to 0
TCL: Setting parameter alchLambda to 0.9000000000000002
Info: NONBONDED TABLE R-SQUARED SPACING: 0.0625
Info: NONBONDED TABLE SIZE: 705 POINTS
TCL: Setting parameter alchLambda2 to 0.9500000000000003
Info: NONBONDED TABLE R-SQUARED SPACING: 0.0625
Info: NONBONDED TABLE SIZE: 705 POINTS
TCL: Running for 1500000 steps
ETITLE: TS BOND ANGLE DIHED IMPRP ELECT VDW BOUNDARY MISC KINETIC TOTAL TEMP POTENTIAL TOTALAVG TEMPAVG PRESSURE GPRESSURE VOLUME PRESSAVG GPRESSAVG
ENERGY: 0 1.7747 1.4816 1.8599 0.0000 -10646.1658 1456.5559 0.0000 0.0000 1784.7194 -7399.7743 306.0006 -9184.4937 -7399.7743 306.0006 283.0806 360.9124 29906.7556 283.0806 360.9124
ENERGY: 300000 0.9785 1.4304 2.9914 0.0000 -10743.8594 1444.8488 0.0000 0.0000 1749.3623 -7544.2480 299.9384 -9293.6103 -7457.7543 302.0579 234.0707 286.7086 29563.2798 337.9660 414.2360
ENERGY: 600000 1.9700 4.2180 2.4919 0.0000 -10615.4182 1440.4818 0.0000 0.0000 1737.4066 -7428.8498 297.8885 -9166.2564 -7435.6934 302.8357 423.8508 469.0333 30010.1054 401.6143 476.7332
ENERGY: 900000 3.5126 1.5702 2.7652 0.0000 -10659.8509 1384.6909 0.0000 0.0000 1732.9780 -7534.3340 297.1292 -9267.3120 -7451.7166 302.1740 -578.2592 -467.0865 30284.4044 219.6747 294.3181
ENERGY: 1200000 0.7057 5.4424 3.9107 0.0000 -10571.9827 1366.0316 0.0000 0.0000 1719.5075 -7476.3849 294.8196 -9195.8924 -7465.5862 300.5349 -724.6846 -670.5366 30607.6423 6.9571 84.0602
ENERGY: 1500000 4.0350 4.1576 0.8073 0.0000 -10696.2285 1421.8983 0.0000 0.0000 1796.8553 -7468.4750 308.0813 -9265.3302 -7467.4819 300.9607 -181.6662 -143.6220 30001.5557 35.5639 110.9559
TCL: Running FEP window  20: Lambda1 0.9500000000000003 Lambda2 1.0    [dLambda 0.04999999999999971]
TCL: Setting parameter firsttimestep to 0
TCL: Setting parameter alchLambda to 0.9500000000000003
Info: NONBONDED TABLE R-SQUARED SPACING: 0.0625
Info: NONBONDED TABLE SIZE: 705 POINTS
TCL: Setting parameter alchLambda2 to 1.0
Info: NONBONDED TABLE R-SQUARED SPACING: 0.0625
Info: NONBONDED TABLE SIZE: 705 POINTS
TCL: Running for 1500000 steps
ETITLE: TS BOND ANGLE DIHED IMPRP ELECT VDW BOUNDARY MISC KINETIC TOTAL TEMP POTENTIAL TOTALAVG TEMPAVG PRESSURE GPRESSURE VOLUME PRESSAVG GPRESSAVG
ENERGY: 0 4.0350 4.1576 0.8073 0.0000 -10697.7433 1423.0859 0.0000 0.0000 1795.9970 -7469.6604 307.9342 -9265.6575 -7469.6604 307.9342 -203.8727 -124.0165 30001.5557 -203.8727 -124.0165
ENERGY: 300000 0.3579 1.9182 1.8250 0.0000 -10588.1658 1357.5386 0.0000 0.0000 1715.5330 -7510.9931 294.1381 -9226.5261 -7422.2745 306.0939 -421.7826 -359.3724 30069.0496 -331.7651 -257.8739
ENERGY: 600000 2.9107 2.3424 3.3392 0.0000 -10712.2094 1420.5521 0.0000 0.0000 1779.8367 -7503.2283 305.1634 -9283.0650 -7444.4480 302.4858 -202.9125 -137.7676 29908.2945 -266.9838 -197.6760
ENERGY: 900000 3.1229 5.0353 3.9815 0.0000 -10585.0768 1353.0988 0.0000 0.0000 1814.6933 -7405.1449 311.1398 -9219.8382 -7460.3922 301.2539 -712.3693 -652.9692 30488.7996 -278.0140 -215.4354
ENERGY: 1200000 3.8321 3.1063 1.0903 0.0000 -10707.9402 1426.4227 0.0000 0.0000 1765.1396 -7508.3491 302.6435 -9273.4887 -7453.1588 301.3289 -241.8710 -210.8223 30098.2049 -331.0126 -276.2474
ENERGY: 1500000 1.7592 3.0585 2.5208 0.0000 -10621.0883 1411.5695 0.0000 0.0000 1737.2571 -7464.9232 297.8629 -9202.1804 -7461.9828 299.9784 -51.7543 -17.2573 30293.2802 -290.0744 -234.9265
TCL: Exiting due to exit command.
