Info: SIMULATION PARAMETERS:
Info: TIMESTEP               2
Info: NUMBER OF STEPS        0
Info: STEPS PER CYCLE        10
Info: PERIODIC CELL BASIS 1  32.3407 0 0
Info: PERIODIC CELL BASIS 2  0 30.2797 0
Info: PERIODIC CELL BASIS 3  0 0 31.5727
Info: PERIODIC CELL CENTER   0 0 0
Info: WRAPPING WATERS AROUND PERIODIC BOUNDARIES ON OUTPUT.
Info: WRAPPING ALL CLUSTERS AROUND PERIODIC BOUNDARIES ON OUTPUT.
Info: FIRST LDB TIMESTEP     50
Info: LAST LDB TIMESTEP     -1
Info: HOM BACKGROUND SCALING 1
Info: PME BACKGROUND SCALING 1
Info: MIN ATOMS PER PATCH    40
Info: EMPTY PATCH LOAD       40 ATOMS
Info: VELOCITY FILE          mobley_6804509_equil.vel
Info: CENTER OF MASS MOVING INITIALLY? NO
Info: DIELECTRIC             1
Info: EXCLUDE                SCALED ONE-FOUR
Info: 1-4 ELECTROSTATICS SCALED BY 0.833333
Info: MODIFIED 1-4 VDW PARAMETERS WILL BE USED
Info: DCD FILENAME           mobley_6804509_prod.dcd
Info: DCD FREQUENCY          100000
Info: DCD FIRST STEP         100000
Info: DCD FILE WILL CONTAIN UNIT CELL DATA
Info: XST FILENAME           mobley_6804509_prod.xst
Info: XST FREQUENCY          100000
Info: NO VELOCITY DCD OUTPUT
Info: NO FORCE DCD OUTPUT
Info: OUTPUT FILENAME        mobley_6804509_prod
Info: BINARY OUTPUT FILES WILL BE USED
Info: RESTART FILENAME       mobley_6804509_prod.restart
Info: RESTART FREQUENCY      100000
Info: BINARY RESTART FILES WILL BE USED
Info: CUTOFF                 9
Info: PAIRLIST DISTANCE      11
Info: PAIRLIST SHRINK RATE   0.01
Info: PAIRLIST GROW RATE     0.01
Info: PAIRLIST TRIGGER       0.3
Info: PAIRLISTS PER CYCLE    2
Info: PAIRLISTS ENABLED
Info: MARGIN                 2
Info: HYDROGEN GROUP CUTOFF  2.5
Info: PATCH DIMENSION        15.5
Info: ENERGY OUTPUT STEPS    100000
Info: ENERGY EVALUATION STEPS    100000
Info: OUTPUT ENERGY PRECISION 4
Info: CROSSTERM ENERGY INCLUDED IN DIHEDRAL
Info: TIMING OUTPUT STEPS    1000000
Info: PRESSURE OUTPUT STEPS  100000
Info: ALCHEMICAL FEP ON
Info: FEP CURRENT LAMBDA VALUE     0
Info: FEP COMPARISON LAMBDA VALUE  0.05
Info: FEP INTRA-ALCHEMICAL NON-BONDED INTERACTIONS WILL BE RETAINED
Info: FEP INTRA-ALCHEMICAL BONDED INTERACTIONS WILL BE RETAINED
Info: FEP VDW SHIFTING COEFFICIENT 5
Info: FEP ELEC. ACTIVE FOR ANNIHILATED PARTICLES BETWEEN LAMBDA = 0 AND LAMBDA = 0.5
Info: FEP ELEC. ACTIVE FOR EXNIHILATED PARTICLES BETWEEN LAMBDA = 0.5 AND LAMBDA = 1
Info: FEP VDW ACTIVE FOR ANNIHILATED PARTICLES BETWEEN LAMBDA = 0 AND LAMBDA = 1
Info: FEP VDW ACTIVE FOR EXNIHILATED PARTICLES BETWEEN LAMBDA = 0 AND LAMBDA = 1
Info: FEP BOND ACTIVE FOR ANNIHILATED PARTICLES BETWEEN LAMBDA = 1 AND LAMBDA = 1
Info: FEP BOND ACTIVE FOR EXNIHILATED PARTICLES BETWEEN LAMBDA = 0 AND LAMBDA = 0
Info: LANGEVIN DYNAMICS ACTIVE
Info: LANGEVIN TEMPERATURE   300
Info: LANGEVIN USING BBK INTEGRATOR
Info: LANGEVIN DAMPING COEFFICIENT IS 1 INVERSE PS
Info: LANGEVIN DYNAMICS APPLIED TO HYDROGENS
Info: LANGEVIN PISTON PRESSURE CONTROL ACTIVE
Info:        TARGET PRESSURE IS 1.01325 BAR
Info:     OSCILLATION PERIOD IS 50 FS
Info:             DECAY TIME IS 25 FS
Info:     PISTON TEMPERATURE IS 300 K
Info:       PRESSURE CONTROL IS GROUP-BASED
Info:    INITIAL STRAIN RATE IS 0.000308753 0.000308753 0.000308753
Info:       CELL FLUCTUATION IS ISOTROPIC
Info: PARTICLE MESH EWALD (PME) ACTIVE
Info: PME TOLERANCE               1e-06
Info: PME EWALD COEFFICIENT       0.348832
Info: PME INTERPOLATION ORDER     4
Info: PME GRID DIMENSIONS         36 32 32
Info: PME MAXIMUM GRID SPACING    1
Info: PME CALCULATION WILL BE PERFORMED ON GPU
Info: FULL ELECTROSTATIC EVALUATION FREQUENCY      2
Info: USING VERLET I (r-RESPA) MTS SCHEME.
Info: C1 SPLITTING OF LONG RANGE ELECTROSTATICS
Info: PLACING ATOMS IN PATCHES BY HYDROGEN GROUPS
Info: RIGID BONDS TO HYDROGEN : ALL
Info:         ERROR TOLERANCE : 1e-08
Info:          MAX ITERATIONS : 100
Info: RIGID WATER USING SETTLE ALGORITHM
Info: RANDOM NUMBER SEED     1743535251
Info: USE HYDROGEN BONDS?    NO
Info: Using AMBER format force field!
Info: AMBER PARM FILE        mobley_6804509.prmtop
Info: COORDINATE PDB         mobley_6804509.pdb
Info: Exclusions will be read from PARM file!
Info: SCNB (VDW SCALING)     2
Info: USING ARITHMETIC MEAN TO COMBINE L-J SIGMA PARAMETERS
Info: BINARY COORDINATES     mobley_6804509_equil.coor
Info: SUMMARY OF PARAMETERS:
Info: 5 BONDS
Info: 3 ANGLES
Info:   3 HARMONIC
Info:   0 COSINE-BASED
Info: 2 DIHEDRAL
Info: 0 IMPROPER
Info: 0 CROSSTERM
Info: 0 VDW
Info: 15 VDW_PAIRS
Info: 0 NBTHOLE_PAIRS
Info: To read alchdata from file: mobley_6804509.pdb
Info: To read alchflag data from column: 5
Info: STRUCTURE SUMMARY:
Info: 2964 ATOMS
Info: 2964 BONDS
Info: 18 ANGLES
Info: 30 DIHEDRALS
Info: 0 IMPROPERS
Info: 0 CROSSTERMS
Info: 3003 EXCLUSIONS
Info: 2954 RIGID BONDS
Info: ALCH: 0 ATOMS TO DISAPPEAR IN FINAL STATE
Info: ALCH: 12 ATOMS TO APPEAR IN FINAL STATE
Info: 5938 DEGREES OF FREEDOM
Info: 994 HYDROGEN GROUPS
Info: 3 ATOMS IN LARGEST HYDROGEN GROUP
Info: 994 MIGRATION GROUPS
Info: 3 ATOMS IN LARGEST MIGRATION GROUP
Info: TOTAL MASS = 17943.6 amu
Info: TOTAL CHARGE = -9.99942e-05 e
Info: MASS DENSITY = 0.963734 g/cm^3
Info: ATOM DENSITY = 0.0958663 atoms/A^3
Info: ADDED 0 IMPLICIT EXCLUSIONS
Info: NONBONDED TABLE R-SQUARED SPACING: 0.0625
Info: NONBONDED TABLE SIZE: 705 POINTS
Info: REMOVING COM VELOCITY -0.0114685 -0.0478749 0.0825929
Info: Use 3D box decompostion in PME FFT.
Info: Updated CUDA force table with 4096 elements.
Info: Updated CUDA LJ table with 5 x 5 elements.
Info: Found 14 unique exclusion lists needing 24 bytes
TCL: Running for 1500000 steps
ETITLE: TS BOND ANGLE DIHED IMPRP ELECT VDW BOUNDARY MISC KINETIC TOTAL TEMP POTENTIAL TOTALAVG TEMPAVG PRESSURE GPRESSURE VOLUME PRESSAVG GPRESSAVG
ENERGY: 0 7.7084 5.0950 4.4687 0.0000 -10711.0274 1383.3460 0.0000 0.0000 1831.5844 -7478.8248 310.4396 -9310.4092 -7478.8248 310.4396 -909.8486 -813.3631 30918.0526 -909.8486 -813.3631
ENERGY: 300000 3.2761 2.2288 3.3439 0.0000 -10766.4395 1362.9934 0.0000 0.0000 1780.7436 -7613.8536 301.8225 -9394.5973 -7574.7515 301.3658 -992.8999 -827.7256 30161.1072 -724.1059 -643.0131
ENERGY: 600000 4.5304 2.3007 3.5773 0.0000 -10913.7337 1530.0332 0.0000 0.0000 1757.2871 -7616.0050 297.8468 -9373.2921 -7570.1211 299.1643 617.7177 676.8791 29875.0563 -106.7977 -32.4785
ENERGY: 900000 3.7428 1.5396 2.1392 0.0000 -10876.5147 1586.1019 0.0000 0.0000 1805.3573 -7477.6338 305.9943 -9282.9911 -7546.5576 300.2230 1026.3922 1081.3296 30505.1478 52.3753 118.6686
ENERGY: 1200000 0.9904 1.1158 2.8610 0.0000 -10823.1972 1518.2601 0.0000 0.0000 1749.3096 -7550.6603 296.4947 -9299.9699 -7541.6514 299.6992 301.3950 348.5841 30849.2222 -35.8151 37.2345
ENERGY: 1500000 3.1112 3.2498 0.9412 0.0000 -10888.2986 1530.0442 0.0000 0.0000 1742.1973 -7608.7549 295.2892 -9350.9522 -7549.8082 299.2326 289.3123 379.8450 30305.7524 -46.1049 23.3300
TCL: Running FEP window   2: Lambda1 0.05   Lambda2 0.1    [dLambda 0.05  ]
TCL: Setting parameter firsttimestep to 0
TCL: Setting parameter alchLambda to 0.05
Info: NONBONDED TABLE R-SQUARED SPACING: 0.0625
Info: NONBONDED TABLE SIZE: 705 POINTS
TCL: Setting parameter alchLambda2 to 0.1
Info: NONBONDED TABLE R-SQUARED SPACING: 0.0625
Info: NONBONDED TABLE SIZE: 705 POINTS
TCL: Running for 1500000 steps
ETITLE: TS BOND ANGLE DIHED IMPRP ELECT VDW BOUNDARY MISC KINETIC TOTAL TEMP POTENTIAL TOTALAVG TEMPAVG PRESSURE GPRESSURE VOLUME PRESSAVG GPRESSAVG
ENERGY: 0 3.1112 3.2498 0.9412 0.0000 -10888.2974 1537.1582 0.0000 0.0000 1741.2922 -7602.5449 295.1358 -9343.8371 -7602.5449 295.1358 297.8950 393.5602 30305.7524 297.8950 393.5602
ENERGY: 300000 1.3690 3.0095 1.9019 0.0000 -10882.5138 1458.4512 0.0000 0.0000 1790.9416 -7626.8407 303.5510 -9417.7822 -7590.0329 298.5612 -451.1883 -298.1502 30357.7731 -282.9978 -184.6510
ENERGY: 600000 3.1248 2.6470 1.4306 0.0000 -10708.7313 1405.3968 0.0000 0.0000 1793.3891 -7502.7431 303.9658 -9296.1321 -7550.7340 300.0731 -265.4701 -162.2451 30545.1750 -219.5686 -128.4212
ENERGY: 900000 5.8103 3.8043 1.6739 0.0000 -10745.0046 1443.5510 0.0000 0.0000 1816.4495 -7473.7156 307.8744 -9290.1651 -7528.6834 301.1453 -65.6111 -27.4184 30119.1488 -98.5167 -21.6676
ENERGY: 1200000 4.7134 2.0400 1.6056 0.0000 -10648.8825 1372.1940 0.0000 0.0000 1774.8955 -7493.4341 300.8313 -9268.3295 -7526.1821 300.1142 -441.3478 -339.8105 30319.1752 -125.9475 -48.1213
ENERGY: 1500000 4.4567 1.7598 1.9051 0.0000 -10715.8216 1390.4449 0.0000 0.0000 1754.6030 -7562.6521 297.3918 -9317.2551 -7527.3144 300.4840 -566.2068 -536.8133 30398.7894 -212.4921 -141.0531
TCL: Running FEP window   3: Lambda1 0.1    Lambda2 0.15000000000000002 [dLambda 0.05000000000000002]
TCL: Setting parameter firsttimestep to 0
TCL: Setting parameter alchLambda to 0.1
Info: NONBONDED TABLE R-SQUARED SPACING: 0.0625
Info: NONBONDED TABLE SIZE: 705 POINTS
TCL: Setting parameter alchLambda2 to 0.15000000000000002
Info: NONBONDED TABLE R-SQUARED SPACING: 0.0625
Info: NONBONDED TABLE SIZE: 705 POINTS
TCL: Running for 1500000 steps
ETITLE: TS BOND ANGLE DIHED IMPRP ELECT VDW BOUNDARY MISC KINETIC TOTAL TEMP POTENTIAL TOTALAVG TEMPAVG PRESSURE GPRESSURE VOLUME PRESSAVG GPRESSAVG
ENERGY: 0 4.4567 1.7598 1.9051 0.0000 -10715.8238 1392.5824 0.0000 0.0000 1753.7067 -7561.4131 297.2399 -9315.1197 -7561.4131 297.2399 -609.1908 -524.9868 30398.7894 -609.1908 -524.9868
ENERGY: 300000 2.4395 2.5714 3.5036 0.0000 -10859.2039 1543.8975 0.0000 0.0000 1770.8477 -7535.9442 300.1452 -9306.7919 -7557.4200 296.3452 844.4036 875.9413 30132.6663 20.6446 105.9895
ENERGY: 600000 5.4909 1.8289 2.0530 0.0000 -10851.1604 1463.5611 0.0000 0.0000 1761.7534 -7616.4732 298.6038 -9378.2265 -7568.9471 296.8058 32.3213 86.0056 29821.1399 55.3269 131.1757
ENERGY: 900000 5.2542 2.1281 3.8417 0.0000 -10814.5904 1441.3336 0.0000 0.0000 1822.6798 -7539.3530 308.9303 -9362.0327 -7561.5052 297.9717 -549.7861 -455.1002 30693.1110 -108.7203 -41.4923
ENERGY: 1200000 6.9087 4.2359 4.0780 0.0000 -10792.6691 1525.4004 0.0000 0.0000 1820.2373 -7431.8087 308.5164 -9252.0460 -7545.2465 299.2255 781.0374 849.2791 30298.9189 36.5112 98.0374
ENERGY: 1500000 2.0269 1.5002 3.3251 0.0000 -10779.8547 1441.2888 0.0000 0.0000 1799.1476 -7532.5661 304.9418 -9331.7138 -7545.9637 298.9574 112.5987 170.5422 30089.7758 59.8890 120.1006
TCL: Running FEP window   4: Lambda1 0.15000000000000002 Lambda2 0.2    [dLambda 0.04999999999999999]
TCL: Setting parameter firsttimestep to 0
TCL: Setting parameter alchLambda to 0.15000000000000002
Info: NONBONDED TABLE R-SQUARED SPACING: 0.0625
Info: NONBONDED TABLE SIZE: 705 POINTS
TCL: Setting parameter alchLambda2 to 0.2
Info: NONBONDED TABLE R-SQUARED SPACING: 0.0625
Info: NONBONDED TABLE SIZE: 705 POINTS
TCL: Running for 1500000 steps
ETITLE: TS BOND ANGLE DIHED IMPRP ELECT VDW BOUNDARY MISC KINETIC TOTAL TEMP POTENTIAL TOTALAVG TEMPAVG PRESSURE GPRESSURE VOLUME PRESSAVG GPRESSAVG
ENERGY: 0 2.0269 1.5002 3.3251 0.0000 -10779.8523 1442.1186 0.0000 0.0000 1798.2787 -7532.6029 304.7945 -9330.8816 -7532.6029 304.7945 97.7578 178.8806 30089.7758 97.7578 178.8806
ENERGY: 300000 2.4912 1.8495 2.9321 0.0000 -10776.5699 1440.9527 0.0000 0.0000 1756.2280 -7572.1165 297.6673 -9328.3445 -7551.7904 299.4218 -179.5658 -81.2715 30470.1099 -195.5959 -83.3961
ENERGY: 600000 1.4662 2.9432 1.6595 0.0000 -10653.7193 1426.6207 0.0000 0.0000 1724.5403 -7496.4895 292.2964 -9221.0298 -7511.6263 300.3019 -119.5143 -84.8318 30738.2394 -88.1119 -8.8711
ENERGY: 900000 4.8172 2.9395 3.0408 0.0000 -10785.7509 1516.8664 0.0000 0.0000 1795.0278 -7463.0593 304.2435 -9258.0871 -7495.7545 301.4571 544.8584 576.0354 30619.4332 -57.6681 11.5942
ENERGY: 1200000 4.6095 2.3178 1.7326 0.0000 -10698.6229 1457.9093 0.0000 0.0000 1764.2300 -7467.8237 299.0236 -9232.0537 -7497.1013 301.6349 265.5035 370.3207 30547.2202 -5.2365 67.5168
ENERGY: 1500000 3.0973 1.4440 1.3970 0.0000 -10785.3988 1498.1820 0.0000 0.0000 1746.4783 -7534.8002 296.0148 -9281.2785 -7505.7250 301.0075 -11.1175 137.3027 30689.6300 43.0241 116.3209
TCL: Running FEP window   5: Lambda1 0.2    Lambda2 0.25   [dLambda 0.04999999999999999]
TCL: Setting parameter firsttimestep to 0
TCL: Setting parameter alchLambda to 0.2
Info: NONBONDED TABLE R-SQUARED SPACING: 0.0625
Info: NONBONDED TABLE SIZE: 705 POINTS
TCL: Setting parameter alchLambda2 to 0.25
Info: NONBONDED TABLE R-SQUARED SPACING: 0.0625
Info: NONBONDED TABLE SIZE: 705 POINTS
TCL: Running for 1500000 steps
ETITLE: TS BOND ANGLE DIHED IMPRP ELECT VDW BOUNDARY MISC KINETIC TOTAL TEMP POTENTIAL TOTALAVG TEMPAVG PRESSURE GPRESSURE VOLUME PRESSAVG GPRESSAVG
ENERGY: 0 3.0973 1.4440 1.3970 0.0000 -10785.3991 1501.3177 0.0000 0.0000 1745.5878 -7532.5552 295.8638 -9278.1431 -7532.5552 295.8638 85.7543 159.9786 30689.6300 85.7543 159.9786
ENERGY: 300000 4.9824 1.9742 0.5839 0.0000 -10547.4286 1365.5181 0.0000 0.0000 1784.5135 -7389.8564 302.4615 -9174.3700 -7498.1364 300.9868 -390.7267 -334.2285 30720.0081 215.2497 288.9661
ENERGY: 600000 1.8470 1.2780 2.2715 0.0000 -10762.0292 1404.6210 0.0000 0.0000 1762.3096 -7589.7021 298.6981 -9352.0117 -7513.4800 300.7795 -372.9227 -300.7480 30572.3314 148.0891 216.2032
ENERGY: 900000 1.8504 3.7929 1.7312 0.0000 -10771.1382 1473.1648 0.0000 0.0000 1752.2345 -7538.3644 296.9904 -9290.5989 -7494.1277 301.7590 297.2592 348.4950 30408.0915 198.4927 259.1544
ENERGY: 1200000 2.3847 2.8496 3.9334 0.0000 -10739.4003 1489.9710 0.0000 0.0000 1726.6464 -7513.6152 292.6534 -9240.2616 -7485.9690 301.8645 79.1012 124.7069 30962.0637 202.4930 264.1201
ENERGY: 1500000 2.7295 2.8098 1.2753 0.0000 -10880.4230 1492.9018 0.0000 0.0000 1812.8876 -7567.8191 307.2706 -9380.7067 -7498.7481 301.8708 117.7229 211.2958 30328.8169 168.8919 235.7424
TCL: Running FEP window   6: Lambda1 0.25   Lambda2 0.3    [dLambda 0.04999999999999999]
TCL: Setting parameter firsttimestep to 0
TCL: Setting parameter alchLambda to 0.25
Info: NONBONDED TABLE R-SQUARED SPACING: 0.0625
Info: NONBONDED TABLE SIZE: 705 POINTS
TCL: Setting parameter alchLambda2 to 0.3
Info: NONBONDED TABLE R-SQUARED SPACING: 0.0625
Info: NONBONDED TABLE SIZE: 705 POINTS
TCL: Running for 1500000 steps
ETITLE: TS BOND ANGLE DIHED IMPRP ELECT VDW BOUNDARY MISC KINETIC TOTAL TEMP POTENTIAL TOTALAVG TEMPAVG PRESSURE GPRESSURE VOLUME PRESSAVG GPRESSAVG
ENERGY: 0 2.7295 2.8098 1.2753 0.0000 -10880.4241 1493.8871 0.0000 0.0000 1812.0068 -7567.7156 307.1214 -9379.7225 -7567.7156 307.1214 137.2696 220.9784 30328.8169 137.2696 220.9784
ENERGY: 300000 3.3044 0.4888 0.7476 0.0000 -10831.2225 1509.8113 0.0000 0.0000 1797.0611 -7519.8093 304.5882 -9316.8704 -7474.0715 306.4243 635.9157 686.4590 30225.7164 344.4674 377.2630
ENERGY: 600000 3.0230 1.2315 2.2514 0.0000 -10889.3354 1520.8721 0.0000 0.0000 1809.0516 -7552.9057 306.6205 -9361.9573 -7513.9324 304.4943 777.4958 826.4990 29786.9329 300.6961 341.8502
ENERGY: 900000 4.2414 3.4294 2.7921 0.0000 -10790.5424 1426.4211 0.0000 0.0000 1743.8210 -7609.8374 295.5644 -9353.6584 -7534.5049 302.0507 -381.3478 -285.9454 30276.5693 189.1835 229.0282
ENERGY: 1200000 2.3247 1.8080 2.7864 0.0000 -10622.6888 1387.7082 0.0000 0.0000 1701.5831 -7526.4784 288.4054 -9228.0616 -7531.6652 300.9932 -480.2502 -428.3210 30829.8805 175.2076 220.6388
ENERGY: 1500000 1.9201 1.9879 2.2278 0.0000 -10849.1073 1507.8574 0.0000 0.0000 1767.1195 -7567.9946 299.5133 -9335.1142 -7531.2087 300.4158 589.4904 621.3944 29994.7970 179.8923 222.5709
TCL: Running FEP window   7: Lambda1 0.3    Lambda2 0.35   [dLambda 0.04999999999999999]
TCL: Setting parameter firsttimestep to 0
TCL: Setting parameter alchLambda to 0.3
Info: NONBONDED TABLE R-SQUARED SPACING: 0.0625
Info: NONBONDED TABLE SIZE: 705 POINTS
TCL: Setting parameter alchLambda2 to 0.35
Info: NONBONDED TABLE R-SQUARED SPACING: 0.0625
Info: NONBONDED TABLE SIZE: 705 POINTS
TCL: Running for 1500000 steps
ETITLE: TS BOND ANGLE DIHED IMPRP ELECT VDW BOUNDARY MISC KINETIC TOTAL TEMP POTENTIAL TOTALAVG TEMPAVG PRESSURE GPRESSURE VOLUME PRESSAVG GPRESSAVG
ENERGY: 0 1.9201 1.9879 2.2278 0.0000 -10849.1076 1508.1092 0.0000 0.0000 1766.2220 -7568.6407 299.3612 -9334.8627 -7568.6407 299.3612 552.0811 628.1514 29994.7970 552.0811 628.1514
ENERGY: 300000 3.8342 4.1379 2.2452 0.0000 -10622.4334 1379.2655 0.0000 0.0000 1776.3149 -7456.6357 301.0719 -9232.9506 -7540.9434 299.2582 -418.6006 -421.5151 30972.9574 -79.6915 -15.9122
ENERGY: 600000 3.6882 1.5486 2.0009 0.0000 -10568.9397 1405.0609 0.0000 0.0000 1795.7901 -7360.8511 304.3727 -9156.6412 -7531.1190 300.4708 40.2680 58.0472 30569.6357 69.3373 132.8572
ENERGY: 900000 1.4788 4.0834 5.0458 0.0000 -10651.3382 1408.6618 0.0000 0.0000 1686.5951 -7545.4734 285.8650 -9232.0685 -7540.1481 299.2139 -147.6805 -133.7419 30623.2340 83.9114 148.2534
ENERGY: 1200000 3.1796 2.6505 1.5803 0.0000 -10732.2342 1487.2801 0.0000 0.0000 1751.9127 -7485.6308 296.9359 -9237.5436 -7526.5319 300.0508 246.6707 315.9335 30490.6781 44.8542 115.7723
ENERGY: 1500000 3.9755 4.0954 1.9761 0.0000 -10722.2532 1378.0530 0.0000 0.0000 1770.2672 -7563.8860 300.0468 -9334.1532 -7519.1146 301.1358 -546.3540 -448.0293 30269.3510 -60.1271 13.5487
TCL: Running FEP window   8: Lambda1 0.35   Lambda2 0.39999999999999997 [dLambda 0.04999999999999999]
TCL: Setting parameter firsttimestep to 0
TCL: Setting parameter alchLambda to 0.35
Info: NONBONDED TABLE R-SQUARED SPACING: 0.0625
Info: NONBONDED TABLE SIZE: 705 POINTS
TCL: Setting parameter alchLambda2 to 0.39999999999999997
Info: NONBONDED TABLE R-SQUARED SPACING: 0.0625
Info: NONBONDED TABLE SIZE: 705 POINTS
TCL: Running for 1500000 steps
ETITLE: TS BOND ANGLE DIHED IMPRP ELECT VDW BOUNDARY MISC KINETIC TOTAL TEMP POTENTIAL TOTALAVG TEMPAVG PRESSURE GPRESSURE VOLUME PRESSAVG GPRESSAVG
ENERGY: 0 3.9755 4.0954 1.9761 0.0000 -10722.2538 1377.7005 0.0000 0.0000 1769.4300 -7565.0763 299.9049 -9334.5064 -7565.0763 299.9049 -526.3511 -443.6778 30269.3510 -526.3511 -443.6778
ENERGY: 300000 1.9671 3.4371 3.8083 0.0000 -10735.6971 1429.9233 0.0000 0.0000 1875.1576 -7421.4037 317.8249 -9296.5612 -7513.0532 304.0708 34.8811 85.4754 30462.7973 -148.1600 -88.8578
ENERGY: 600000 3.2468 1.2380 2.5026 0.0000 -10750.5641 1462.7265 0.0000 0.0000 1740.4984 -7540.3519 295.0012 -9280.8503 -7518.2176 299.4293 207.8541 285.2349 30604.0451 -69.7629 -12.8766
ENERGY: 900000 1.5230 4.4418 5.8653 0.0000 -10882.8340 1533.3451 0.0000 0.0000 1730.3558 -7607.3029 293.2821 -9337.6587 -7541.7906 298.1409 279.0983 373.2908 30567.2969 3.4930 57.4007
ENERGY: 1200000 5.1531 3.1287 4.2518 0.0000 -10858.9792 1430.1038 0.0000 0.0000 1746.2507 -7670.0911 295.9762 -9416.3418 -7552.7434 297.3849 -583.0794 -531.1238 31020.4319 -70.7205 -20.7637
ENERGY: 1500000 1.9507 3.0441 1.7780 0.0000 -10747.8993 1462.2446 0.0000 0.0000 1745.3426 -7533.5394 295.8223 -9278.8819 -7549.9811 297.5675 306.3060 384.7400 30159.8757 -89.3370 -34.6536
TCL: Running FEP window   9: Lambda1 0.39999999999999997 Lambda2 0.44999999999999996 [dLambda 0.04999999999999999]
TCL: Setting parameter firsttimestep to 0
TCL: Setting parameter alchLambda to 0.39999999999999997
Info: NONBONDED TABLE R-SQUARED SPACING: 0.0625
Info: NONBONDED TABLE SIZE: 705 POINTS
TCL: Setting parameter alchLambda2 to 0.44999999999999996
Info: NONBONDED TABLE R-SQUARED SPACING: 0.0625
Info: NONBONDED TABLE SIZE: 705 POINTS
TCL: Running for 1500000 steps
ETITLE: TS BOND ANGLE DIHED IMPRP ELECT VDW BOUNDARY MISC KINETIC TOTAL TEMP POTENTIAL TOTALAVG TEMPAVG PRESSURE GPRESSURE VOLUME PRESSAVG GPRESSAVG
ENERGY: 0 1.9507 3.0441 1.7780 0.0000 -10747.8979 1462.8344 0.0000 0.0000 1744.4347 -7533.8559 295.6684 -9278.2906 -7533.8559 295.6684 306.1940 395.5858 30159.8757 306.1940 395.5858
ENERGY: 300000 1.7971 4.5044 2.7041 0.0000 -10780.9900 1463.9761 0.0000 0.0000 1719.6740 -7588.3344 291.4716 -9308.0084 -7545.3039 293.4872 95.5270 104.9532 30546.6864 107.3181 123.5338
ENERGY: 600000 3.0996 0.8071 2.2347 0.0000 -10575.2937 1304.3545 0.0000 0.0000 1757.8833 -7506.9145 297.9478 -9264.7978 -7551.7429 294.8234 -1109.8132 -1077.0810 31104.4094 -49.2369 -15.5565
ENERGY: 900000 3.4546 1.2450 1.7762 0.0000 -10695.2417 1372.6252 0.0000 0.0000 1789.0543 -7527.0864 303.2311 -9316.1408 -7545.2271 296.3040 -844.0453 -718.1075 30953.4031 -17.3979 28.7540
ENERGY: 1200000 2.3776 0.6478 3.4524 0.0000 -10798.5012 1541.4273 0.0000 0.0000 1758.7371 -7491.8590 298.0926 -9250.5961 -7539.1916 296.1482 681.0708 720.8927 30468.6678 -38.7246 13.0396
ENERGY: 1500000 6.5904 2.5543 1.4912 0.0000 -10644.2796 1436.2755 0.0000 0.0000 1766.3908 -7430.9773 299.3898 -9197.3682 -7521.0890 297.6696 -66.2772 -92.1502 30815.2241 -15.5376 34.1505
TCL: Running FEP window  10: Lambda1 0.44999999999999996 Lambda2 0.49999999999999994 [dLambda 0.04999999999999999]
TCL: Setting parameter firsttimestep to 0
TCL: Setting parameter alchLambda to 0.44999999999999996
Info: NONBONDED TABLE R-SQUARED SPACING: 0.0625
Info: NONBONDED TABLE SIZE: 705 POINTS
TCL: Setting parameter alchLambda2 to 0.49999999999999994
Info: NONBONDED TABLE R-SQUARED SPACING: 0.0625
Info: NONBONDED TABLE SIZE: 705 POINTS
TCL: Running for 1500000 steps
ETITLE: TS BOND ANGLE DIHED IMPRP ELECT VDW BOUNDARY MISC KINETIC TOTAL TEMP POTENTIAL TOTALAVG TEMPAVG PRESSURE GPRESSURE VOLUME PRESSAVG GPRESSAVG
ENERGY: 0 6.5904 2.5543 1.4912 0.0000 -10644.2796 1436.0222 0.0000 0.0000 1765.5167 -7432.1048 299.2416 -9197.6215 -7432.1048 299.2416 -157.5048 -85.4664 30815.2241 -157.5048 -85.4664
ENERGY: 300000 2.0842 2.4184 3.0585 0.0000 -10671.6425 1464.8345 0.0000 0.0000 1765.2083 -7434.0385 299.1894 -9199.2469 -7495.8643 299.3845 491.0278 550.9535 30276.7205 126.2651 201.0987
ENERGY: 600000 1.3669 3.0235 0.3082 0.0000 -10846.4568 1496.6790 0.0000 0.0000 1776.1986 -7568.8806 301.0521 -9345.0792 -7506.5215 299.2692 321.9823 379.0917 30424.2780 32.0686 105.2970
ENERGY: 900000 3.0793 2.1575 3.3581 0.0000 -10893.5225 1592.7988 0.0000 0.0000 1785.6012 -7506.5277 302.6458 -9292.1289 -7508.0338 300.5299 1211.1075 1360.0711 30119.2521 132.8508 204.0364
ENERGY: 1200000 2.1457 2.0984 1.5250 0.0000 -10718.3401 1475.4174 0.0000 0.0000 1789.8451 -7447.3085 303.3651 -9237.1536 -7494.4039 301.2093 257.7871 325.1645 30563.4956 111.6464 180.6300
ENERGY: 1500000 2.7542 2.8442 2.2439 0.0000 -10777.3120 1458.5323 0.0000 0.0000 1740.3777 -7570.5598 294.9808 -9310.9375 -7499.7895 300.9449 -61.4858 -51.5515 30647.0008 117.2223 176.8339
TCL: Running FEP window  11: Lambda1 0.49999999999999994 Lambda2 0.5499999999999999 [dLambda 0.04999999999999999]
TCL: Setting parameter firsttimestep to 0
TCL: Setting parameter alchLambda to 0.49999999999999994
Info: NONBONDED TABLE R-SQUARED SPACING: 0.0625
Info: NONBONDED TABLE SIZE: 705 POINTS
TCL: Setting parameter alchLambda2 to 0.5499999999999999
Info: NONBONDED TABLE R-SQUARED SPACING: 0.0625
Info: NONBONDED TABLE SIZE: 705 POINTS
TCL: Running for 1500000 steps
ETITLE: TS BOND ANGLE DIHED IMPRP ELECT VDW BOUNDARY MISC KINETIC TOTAL TEMP POTENTIAL TOTALAVG TEMPAVG PRESSURE GPRESSURE VOLUME PRESSAVG GPRESSAVG
ENERGY: 0 2.7542 2.8442 2.2439 0.0000 -10777.3110 1459.4900 0.0000 0.0000 1739.5254 -7570.4535 294.8363 -9309.9789 -7570.4535 294.8363 -103.3792 -33.7723 30647.0008 -103.3792 -33.7723
ENERGY: 300000 5.8961 3.0197 1.5170 0.0000 -10699.9906 1412.9689 0.0000 0.0000 1733.2093 -7543.3797 293.7658 -9276.5890 -7539.7058 294.5174 -148.3745 -94.3747 30615.8980 -236.7606 -182.3186
ENERGY: 600000 5.9091 1.8623 1.5565 0.0000 -10728.9069 1439.4544 0.0000 0.0000 1745.8440 -7534.2806 295.9073 -9280.1246 -7542.9546 296.3838 -79.7612 -19.8819 30519.3995 -263.2627 -209.9139
ENERGY: 900000 1.0113 2.4141 2.6914 0.0000 -10739.9331 1406.8535 0.0000 0.0000 1806.7093 -7520.2534 306.2235 -9326.9627 -7521.2114 299.5159 -578.6400 -607.9013 31063.5445 -314.9900 -265.4692
ENERGY: 1200000 1.4704 1.8446 4.4529 0.0000 -10616.2403 1362.4790 0.0000 0.0000 1796.2298 -7449.7636 304.4473 -9245.9935 -7525.7848 298.6749 -287.8386 -206.1785 30263.5035 -252.9773 -191.5934
ENERGY: 1500000 4.8410 1.3391 1.5614 0.0000 -10685.1783 1404.6436 0.0000 0.0000 1735.8318 -7536.9615 294.2103 -9272.7933 -7521.8872 299.4982 -467.9560 -367.3830 30493.5888 -206.7272 -145.2686
TCL: Running FEP window  12: Lambda1 0.5499999999999999 Lambda2 0.6    [dLambda 0.050000000000000044]
TCL: Setting parameter firsttimestep to 0
TCL: Setting parameter alchLambda to 0.5499999999999999
Info: NONBONDED TABLE R-SQUARED SPACING: 0.0625
Info: NONBONDED TABLE SIZE: 705 POINTS
TCL: Setting parameter alchLambda2 to 0.6
Info: NONBONDED TABLE R-SQUARED SPACING: 0.0625
Info: NONBONDED TABLE SIZE: 705 POINTS
TCL: Running for 1500000 steps
ETITLE: TS BOND ANGLE DIHED IMPRP ELECT VDW BOUNDARY MISC KINETIC TOTAL TEMP POTENTIAL TOTALAVG TEMPAVG PRESSURE GPRESSURE VOLUME PRESSAVG GPRESSAVG
ENERGY: 0 4.8410 1.3391 1.5614 0.0000 -10685.3085 1404.6289 0.0000 0.0000 1734.9683 -7537.9698 294.0639 -9272.9381 -7537.9698 294.0639 -439.7845 -358.1196 30493.5888 -439.7845 -358.1196
ENERGY: 300000 3.7511 7.9806 6.1155 0.0000 -10498.4741 1320.6076 0.0000 0.0000 1785.9264 -7374.0929 302.7009 -9160.0193 -7462.2919 302.2660 -662.8655 -632.7365 30812.2755 -506.8421 -464.9666
ENERGY: 600000 4.9682 2.0582 1.9813 0.0000 -10747.9338 1408.1872 0.0000 0.0000 1775.7652 -7554.9737 300.9787 -9330.7390 -7480.4437 302.8283 -340.1639 -279.5598 30499.9032 -284.5477 -241.0038
ENERGY: 900000 2.8260 3.7656 3.5298 0.0000 -10710.5913 1440.8281 0.0000 0.0000 1816.8402 -7442.8015 307.9406 -9259.6417 -7481.3352 303.4894 73.5121 133.0847 30454.4449 -296.8010 -250.6773
ENERGY: 1200000 0.6937 0.3993 3.8829 0.0000 -10615.4391 1378.7714 0.0000 0.0000 1787.5277 -7444.1641 302.9723 -9231.6918 -7484.2506 302.7579 -373.8125 -372.5555 30818.6212 -331.4577 -283.6859
ENERGY: 1500000 2.4373 3.1609 1.9149 0.0000 -10787.1906 1448.6270 0.0000 0.0000 1760.1411 -7570.9094 298.3305 -9331.0505 -7490.8995 302.8533 138.2532 181.4702 30323.0667 -204.6535 -153.9387
TCL: Running FEP window  13: Lambda1 0.6    Lambda2 0.65   [dLambda 0.050000000000000044]
TCL: Setting parameter firsttimestep to 0
TCL: Setting parameter alchLambda to 0.6
Info: NONBONDED TABLE R-SQUARED SPACING: 0.0625
Info: NONBONDED TABLE SIZE: 705 POINTS
TCL: Setting parameter alchLambda2 to 0.65
Info: NONBONDED TABLE R-SQUARED SPACING: 0.0625
Info: NONBONDED TABLE SIZE: 705 POINTS
TCL: Running for 1500000 steps
ETITLE: TS BOND ANGLE DIHED IMPRP ELECT VDW BOUNDARY MISC KINETIC TOTAL TEMP POTENTIAL TOTALAVG TEMPAVG PRESSURE GPRESSURE VOLUME PRESSAVG GPRESSAVG
ENERGY: 0 2.4373 3.1609 1.9149 0.0000 -10787.3059 1449.1296 0.0000 0.0000 1759.2067 -7571.4566 298.1721 -9330.6633 -7571.4566 298.1721 118.0415 197.7044 30323.0667 118.0415 197.7044
ENERGY: 300000 2.6065 1.4681 2.3733 0.0000 -10669.6668 1421.8913 0.0000 0.0000 1729.3123 -7512.0153 293.1053 -9241.3276 -7521.2708 298.8177 154.1413 140.7667 30493.8587 -160.2338 -115.1801
ENERGY: 600000 0.2258 3.1675 2.3902 0.0000 -10780.5766 1498.7697 0.0000 0.0000 1801.3497 -7474.6738 305.3151 -9276.0235 -7529.8825 297.7809 317.0637 399.5616 30939.3798 -141.1427 -89.7894
ENERGY: 900000 5.1304 3.0904 4.8007 0.0000 -10629.4030 1353.5047 0.0000 0.0000 1762.8962 -7499.9806 298.7975 -9262.8768 -7523.9349 298.3071 -841.6119 -809.5101 30942.6866 -301.0780 -242.2104
ENERGY: 1200000 3.6805 2.2860 2.8481 0.0000 -10832.1680 1508.2131 0.0000 0.0000 1769.7008 -7545.4395 299.9508 -9315.1403 -7525.5160 298.4872 321.0937 370.3510 30588.1828 -277.3450 -222.9174
ENERGY: 1500000 5.0764 1.8840 2.4416 0.0000 -10814.4208 1489.1372 0.0000 0.0000 1788.8039 -7527.0778 303.1886 -9315.8817 -7528.6764 298.8727 395.3109 431.6677 29972.0862 -153.0712 -94.0086
TCL: Running FEP window  14: Lambda1 0.65   Lambda2 0.7000000000000001 [dLambda 0.050000000000000044]
TCL: Setting parameter firsttimestep to 0
TCL: Setting parameter alchLambda to 0.65
Info: NONBONDED TABLE R-SQUARED SPACING: 0.0625
Info: NONBONDED TABLE SIZE: 705 POINTS
TCL: Setting parameter alchLambda2 to 0.7000000000000001
Info: NONBONDED TABLE R-SQUARED SPACING: 0.0625
Info: NONBONDED TABLE SIZE: 705 POINTS
TCL: Running for 1500000 steps
ETITLE: TS BOND ANGLE DIHED IMPRP ELECT VDW BOUNDARY MISC KINETIC TOTAL TEMP POTENTIAL TOTALAVG TEMPAVG PRESSURE GPRESSURE VOLUME PRESSAVG GPRESSAVG
ENERGY: 0 5.0764 1.8840 2.4416 0.0000 -10814.4086 1488.5536 0.0000 0.0000 1787.9114 -7528.5418 303.0374 -9316.4532 -7528.5418 303.0374 366.8333 436.1629 29972.0862 366.8333 436.1629
ENERGY: 300000 3.6422 2.2040 3.5493 0.0000 -10579.7738 1333.9504 0.0000 0.0000 1822.3294 -7414.0985 308.8710 -9236.4279 -7521.2352 302.9039 -920.4845 -852.6447 30859.3837 -76.2403 -14.4410
ENERGY: 600000 3.3788 3.4778 3.1514 0.0000 -10776.5510 1482.9561 0.0000 0.0000 1758.4270 -7525.1600 298.0400 -9283.5870 -7530.5490 301.2511 197.7481 235.3741 30765.6719 -173.4878 -110.4394
ENERGY: 900000 1.3623 1.4203 1.0641 0.0000 -10744.8161 1382.5704 0.0000 0.0000 1783.2916 -7575.1074 302.2544 -9358.3990 -7528.3778 300.9654 -708.7920 -654.4046 30609.4593 -126.1073 -61.2821
ENERGY: 1200000 2.3906 1.7201 2.9182 0.0000 -10666.9122 1376.3197 0.0000 0.0000 1833.3240 -7450.2395 310.7345 -9283.5636 -7518.2941 300.9803 -202.5974 -225.2010 30112.5442 -242.8973 -189.1256
ENERGY: 1500000 2.5737 1.8347 1.3585 0.0000 -10739.6744 1445.5323 0.0000 0.0000 1707.7649 -7580.6103 289.4532 -9288.3752 -7525.3088 300.1238 -36.5649 6.0678 30610.6844 -167.8721 -111.9522
TCL: Running FEP window  15: Lambda1 0.7000000000000001 Lambda2 0.7500000000000001 [dLambda 0.050000000000000044]
TCL: Setting parameter firsttimestep to 0
TCL: Setting parameter alchLambda to 0.7000000000000001
Info: NONBONDED TABLE R-SQUARED SPACING: 0.0625
Info: NONBONDED TABLE SIZE: 705 POINTS
TCL: Setting parameter alchLambda2 to 0.7500000000000001
Info: NONBONDED TABLE R-SQUARED SPACING: 0.0625
Info: NONBONDED TABLE SIZE: 705 POINTS
TCL: Running for 1500000 steps
ETITLE: TS BOND ANGLE DIHED IMPRP ELECT VDW BOUNDARY MISC KINETIC TOTAL TEMP POTENTIAL TOTALAVG TEMPAVG PRESSURE GPRESSURE VOLUME PRESSAVG GPRESSAVG
ENERGY: 0 2.5737 1.8347 1.3585 0.0000 -10739.9540 1445.8054 0.0000 0.0000 1706.8701 -7581.5116 289.3015 -9288.3817 -7581.5116 289.3015 -58.8016 21.7578 30610.6844 -58.8016 21.7578
ENERGY: 300000 5.8338 2.4729 1.5851 0.0000 -10638.4476 1357.3863 0.0000 0.0000 1734.3788 -7536.7909 293.9640 -9271.1697 -7554.2820 295.5233 -539.4658 -490.2713 30598.7178 -621.0406 -538.0165
ENERGY: 600000 1.4788 3.0297 3.3883 0.0000 -10756.5157 1435.8316 0.0000 0.0000 1848.1696 -7464.6177 313.2507 -9312.7872 -7514.2525 301.6428 20.3437 105.2596 30276.1670 -536.0630 -473.1239
ENERGY: 900000 2.4053 4.2054 0.9915 0.0000 -10700.0084 1389.0385 0.0000 0.0000 1749.2857 -7554.0819 296.4906 -9303.3677 -7505.3292 301.7269 -316.0558 -260.3013 30373.5345 -585.0039 -528.7278
ENERGY: 1200000 2.5241 1.7729 1.6973 0.0000 -10863.7875 1499.8473 0.0000 0.0000 1765.9352 -7592.0108 299.3126 -9357.9460 -7515.5993 300.9939 481.3785 488.0231 30270.0867 -437.9112 -379.4607
ENERGY: 1500000 2.6001 1.8637 4.9646 0.0000 -10750.8090 1481.1188 0.0000 0.0000 1753.9563 -7506.3055 297.2822 -9260.2617 -7523.2696 300.1927 499.9268 571.5013 30183.6547 -337.5021 -279.8645
TCL: Running FEP window  16: Lambda1 0.7500000000000001 Lambda2 0.8000000000000002 [dLambda 0.050000000000000044]
TCL: Setting parameter firsttimestep to 0
TCL: Setting parameter alchLambda to 0.7500000000000001
Info: NONBONDED TABLE R-SQUARED SPACING: 0.0625
Info: NONBONDED TABLE SIZE: 705 POINTS
TCL: Setting parameter alchLambda2 to 0.8000000000000002
Info: NONBONDED TABLE R-SQUARED SPACING: 0.0625
Info: NONBONDED TABLE SIZE: 705 POINTS
TCL: Running for 1500000 steps
ETITLE: TS BOND ANGLE DIHED IMPRP ELECT VDW BOUNDARY MISC KINETIC TOTAL TEMP POTENTIAL TOTALAVG TEMPAVG PRESSURE GPRESSURE VOLUME PRESSAVG GPRESSAVG
ENERGY: 0 2.6001 1.8637 4.9646 0.0000 -10750.9279 1481.0839 0.0000 0.0000 1753.0614 -7507.3542 297.1306 -9260.4156 -7507.3542 297.1306 500.1884 584.6890 30183.6547 500.1884 584.6890
ENERGY: 300000 3.3778 3.8962 1.8624 0.0000 -10772.9697 1479.9907 0.0000 0.0000 1796.0209 -7487.8217 304.4119 -9283.8426 -7526.0391 299.4349 254.0687 379.1876 30377.6879 337.0711 436.2262
ENERGY: 600000 3.5531 0.8834 0.9548 0.0000 -10751.3694 1446.7193 0.0000 0.0000 1752.2803 -7546.9786 296.9982 -9299.2589 -7532.6564 299.7683 156.0342 194.3033 30485.2452 190.6620 267.3703
ENERGY: 900000 1.4419 1.5037 2.0650 0.0000 -10807.4255 1515.8920 0.0000 0.0000 1789.5699 -7496.9531 303.3185 -9286.5230 -7531.2315 299.7256 641.2996 736.8561 30345.6084 219.0373 291.6113
ENERGY: 1200000 1.1418 2.6196 2.8439 0.0000 -10828.1824 1467.2632 0.0000 0.0000 1776.7260 -7577.5880 301.1415 -9354.3139 -7527.9978 300.1996 -63.6562 9.9043 30706.8438 67.3567 139.2117
ENERGY: 1500000 0.8461 3.4408 2.0516 0.0000 -10780.7198 1427.6627 0.0000 0.0000 1722.9583 -7623.7604 292.0283 -9346.7187 -7527.3742 299.9921 -296.9103 -187.3225 30435.0147 -41.5460 27.9335
TCL: Running FEP window  17: Lambda1 0.8000000000000002 Lambda2 0.8500000000000002 [dLambda 0.050000000000000044]
TCL: Setting parameter firsttimestep to 0
TCL: Setting parameter alchLambda to 0.8000000000000002
Info: NONBONDED TABLE R-SQUARED SPACING: 0.0625
Info: NONBONDED TABLE SIZE: 705 POINTS
TCL: Setting parameter alchLambda2 to 0.8500000000000002
Info: NONBONDED TABLE R-SQUARED SPACING: 0.0625
Info: NONBONDED TABLE SIZE: 705 POINTS
TCL: Running for 1500000 steps
ETITLE: TS BOND ANGLE DIHED IMPRP ELECT VDW BOUNDARY MISC KINETIC TOTAL TEMP POTENTIAL TOTALAVG TEMPAVG PRESSURE GPRESSURE VOLUME PRESSAVG GPRESSAVG
ENERGY: 0 0.8461 3.4408 2.0516 0.0000 -10780.6895 1427.6904 0.0000 0.0000 1722.0812 -7624.5795 291.8797 -9346.6607 -7624.5795 291.8797 -254.2153 -176.5946 30435.0147 -254.2153 -176.5946
ENERGY: 300000 4.3367 1.8458 7.6249 0.0000 -10654.8542 1365.6077 0.0000 0.0000 1770.3885 -7505.0506 300.0674 -9275.4391 -7568.2564 293.0058 -982.1381 -910.1719 31203.4106 -435.2361 -376.2711
ENERGY: 600000 4.8337 2.5904 2.0684 0.0000 -10505.5918 1264.1013 0.0000 0.0000 1765.3640 -7466.6340 299.2158 -9231.9980 -7553.1084 294.9553 -1315.6772 -1302.0938 31049.5345 -396.5274 -344.5031
ENERGY: 900000 1.0474 2.6666 1.8532 0.0000 -10707.9153 1443.5243 0.0000 0.0000 1820.0947 -7438.7290 308.4922 -9258.8237 -7541.8173 297.3297 78.8494 94.8595 30850.8139 -219.1900 -173.4337
ENERGY: 1200000 5.9983 1.7759 2.4055 0.0000 -10788.8047 1479.8704 0.0000 0.0000 1782.7311 -7516.0234 302.1593 -9298.7545 -7536.6665 297.7973 165.0561 209.0610 30905.7521 -264.8222 -212.1499
ENERGY: 1500000 1.9029 2.1970 2.6974 0.0000 -10628.2914 1335.4349 0.0000 0.0000 1791.9580 -7494.1011 303.7232 -9286.0592 -7528.7391 298.3837 -498.6368 -470.6202 30232.4926 -200.4636 -147.8414
TCL: Running FEP window  18: Lambda1 0.8500000000000002 Lambda2 0.9000000000000002 [dLambda 0.050000000000000044]
TCL: Setting parameter firsttimestep to 0
TCL: Setting parameter alchLambda to 0.8500000000000002
Info: NONBONDED TABLE R-SQUARED SPACING: 0.0625
Info: NONBONDED TABLE SIZE: 705 POINTS
TCL: Setting parameter alchLambda2 to 0.9000000000000002
Info: NONBONDED TABLE R-SQUARED SPACING: 0.0625
Info: NONBONDED TABLE SIZE: 705 POINTS
TCL: Running for 1500000 steps
ETITLE: TS BOND ANGLE DIHED IMPRP ELECT VDW BOUNDARY MISC KINETIC TOTAL TEMP POTENTIAL TOTALAVG TEMPAVG PRESSURE GPRESSURE VOLUME PRESSAVG GPRESSAVG
ENERGY: 0 1.9029 2.1970 2.6974 0.0000 -10628.4369 1334.9728 0.0000 0.0000 1791.0897 -7495.5771 303.5761 -9286.6668 -7495.5771 303.5761 -549.0412 -463.8754 30232.4926 -549.0412 -463.8754
ENERGY: 300000 6.9418 3.8031 3.4224 0.0000 -10621.5196 1370.2944 0.0000 0.0000 1755.8724 -7481.1855 297.6070 -9237.0580 -7499.1252 299.3517 -787.3275 -779.0938 31666.2316 -486.5221 -445.5188
ENERGY: 600000 2.4391 2.5887 2.4562 0.0000 -10838.9630 1543.8716 0.0000 0.0000 1795.9020 -7491.7054 304.3917 -9287.6074 -7483.5516 302.2528 949.6440 1015.2203 30217.8897 11.0010 55.0054
ENERGY: 900000 1.5268 2.2541 4.9503 0.0000 -10730.2453 1451.9627 0.0000 0.0000 1766.6737 -7502.8777 299.4377 -9269.5514 -7481.0703 301.0789 -25.0641 83.2012 30720.9590 135.6275 184.8506
ENERGY: 1200000 1.5541 1.1545 3.9259 0.0000 -10723.4636 1449.2787 0.0000 0.0000 1748.9838 -7518.5665 296.4394 -9267.5503 -7496.0172 299.9920 162.4562 219.1504 30402.3439 71.1569 129.6154
ENERGY: 1500000 5.9921 2.8750 2.1669 0.0000 -10650.5657 1387.9897 0.0000 0.0000 1762.8197 -7488.7222 298.7845 -9251.5419 -7500.4418 299.7496 -838.3886 -757.4276 30998.7460 37.1862 98.0988
TCL: Running FEP window  19: Lambda1 0.9000000000000002 Lambda2 0.9500000000000003 [dLambda 0.050000000000000044]
TCL: Setting parameter firsttimestep to 0
TCL: Setting parameter alchLambda to 0.9000000000000002
Info: NONBONDED TABLE R-SQUARED SPACING: 0.0625
Info: NONBONDED TABLE SIZE: 705 POINTS
TCL: Setting parameter alchLambda2 to 0.9500000000000003
Info: NONBONDED TABLE R-SQUARED SPACING: 0.0625
Info: NONBONDED TABLE SIZE: 705 POINTS
TCL: Running for 1500000 steps
ETITLE: TS BOND ANGLE DIHED IMPRP ELECT VDW BOUNDARY MISC KINETIC TOTAL TEMP POTENTIAL TOTALAVG TEMPAVG PRESSURE GPRESSURE VOLUME PRESSAVG GPRESSAVG
ENERGY: 0 5.9921 2.8750 2.1669 0.0000 -10650.5725 1387.2933 0.0000 0.0000 1761.9415 -7490.3036 298.6357 -9252.2451 -7490.3036 298.6357 -840.5060 -756.6432 30998.7460 -840.5060 -756.6432
ENERGY: 300000 4.5478 1.8735 7.1293 0.0000 -10810.3136 1470.5095 0.0000 0.0000 1774.7163 -7551.5372 300.8009 -9326.2535 -7546.4065 297.0870 8.3145 84.3655 30716.9387 -461.5442 -410.5565
ENERGY: 600000 4.1770 1.9163 1.0792 0.0000 -10812.6202 1501.2088 0.0000 0.0000 1747.8405 -7556.3983 296.2457 -9304.2389 -7549.2144 298.7271 297.0199 422.4701 30567.7587 -248.5391 -198.0105
ENERGY: 900000 4.0321 2.9452 4.9498 0.0000 -10846.0072 1476.0113 0.0000 0.0000 1769.7538 -7588.3150 299.9598 -9358.0688 -7541.8979 299.6065 326.8026 349.5138 30448.1592 -111.0240 -59.6381
ENERGY: 1200000 2.4079 4.1409 4.0420 0.0000 -10819.3324 1484.5938 0.0000 0.0000 1844.7480 -7479.3999 312.6707 -9324.1479 -7521.7011 301.5182 392.4169 524.4833 30317.0850 -2.8482 60.9175
ENERGY: 1500000 4.7042 3.6716 2.2813 0.0000 -10685.6374 1459.5098 0.0000 0.0000 1817.9597 -7397.5107 308.1303 -9215.4704 -7524.3369 301.5708 396.9416 419.6459 30884.4367 2.7570 59.7863
TCL: Running FEP window  20: Lambda1 0.9500000000000003 Lambda2 1.0    [dLambda 0.04999999999999971]
TCL: Setting parameter firsttimestep to 0
TCL: Setting parameter alchLambda to 0.9500000000000003
Info: NONBONDED TABLE R-SQUARED SPACING: 0.0625
Info: NONBONDED TABLE SIZE: 705 POINTS
TCL: Setting parameter alchLambda2 to 1.0
Info: NONBONDED TABLE R-SQUARED SPACING: 0.0625
Info: NONBONDED TABLE SIZE: 705 POINTS
TCL: Running for 1500000 steps
ETITLE: TS BOND ANGLE DIHED IMPRP ELECT VDW BOUNDARY MISC KINETIC TOTAL TEMP POTENTIAL TOTALAVG TEMPAVG PRESSURE GPRESSURE VOLUME PRESSAVG GPRESSAVG
ENERGY: 0 4.7042 3.6716 2.2813 0.0000 -10685.7162 1458.9274 0.0000 0.0000 1817.0796 -7399.0521 307.9812 -9216.1317 -7399.0521 307.9812 351.8235 423.9310 30884.4367 351.8235 423.9310
ENERGY: 300000 6.3276 5.2852 2.6485 0.0000 -10740.8872 1426.3812 0.0000 0.0000 1780.1912 -7520.0534 301.7288 -9300.2446 -7512.9766 303.1061 -310.4084 -247.7541 30999.6940 240.6130 310.3975
ENERGY: 600000 2.2089 2.7680 1.6342 0.0000 -10705.9479 1400.6366 0.0000 0.0000 1742.3762 -7556.3240 295.3195 -9298.7002 -7516.5020 301.5585 -534.4026 -429.8331 30757.0387 201.7017 276.7276
ENERGY: 900000 2.8250 2.0655 3.5777 0.0000 -10840.1875 1457.2019 0.0000 0.0000 1739.1099 -7635.4076 294.7659 -9374.5174 -7534.3656 298.6752 -239.4190 -182.5692 30602.7462 122.3780 181.0789
ENERGY: 1200000 2.6832 3.5712 2.6233 0.0000 -10686.5125 1410.7779 0.0000 0.0000 1750.1676 -7516.6893 296.6401 -9266.8569 -7523.6363 299.3668 -356.4750 -315.2985 31081.7367 11.6778 74.0148
ENERGY: 1500000 0.6312 3.5923 1.7259 0.0000 -10776.8443 1383.4456 0.0000 0.0000 1776.6157 -7610.8336 301.1228 -9387.4492 -7537.6040 298.5893 -585.3903 -528.4639 30469.0766 -41.8868 18.8161
TCL: Exiting due to exit command.
