Info: SIMULATION PARAMETERS:
Info: TIMESTEP               2
Info: NUMBER OF STEPS        0
Info: STEPS PER CYCLE        10
Info: PERIODIC CELL BASIS 1  31.3548 0 0
Info: PERIODIC CELL BASIS 2  0 29.6789 0
Info: PERIODIC CELL BASIS 3  0 0 32.2856
Info: PERIODIC CELL CENTER   0 0 0
Info: WRAPPING WATERS AROUND PERIODIC BOUNDARIES ON OUTPUT.
Info: WRAPPING ALL CLUSTERS AROUND PERIODIC BOUNDARIES ON OUTPUT.
Info: FIRST LDB TIMESTEP     50
Info: LAST LDB TIMESTEP     -1
Info: HOM BACKGROUND SCALING 1
Info: PME BACKGROUND SCALING 1
Info: MIN ATOMS PER PATCH    40
Info: EMPTY PATCH LOAD       40 ATOMS
Info: VELOCITY FILE          mobley_1760914_equil.vel
Info: CENTER OF MASS MOVING INITIALLY? NO
Info: DIELECTRIC             1
Info: EXCLUDE                SCALED ONE-FOUR
Info: 1-4 ELECTROSTATICS SCALED BY 0.833333
Info: MODIFIED 1-4 VDW PARAMETERS WILL BE USED
Info: DCD FILENAME           mobley_1760914_prod.dcd
Info: DCD FREQUENCY          100000
Info: DCD FIRST STEP         100000
Info: DCD FILE WILL CONTAIN UNIT CELL DATA
Info: XST FILENAME           mobley_1760914_prod.xst
Info: XST FREQUENCY          100000
Info: NO VELOCITY DCD OUTPUT
Info: NO FORCE DCD OUTPUT
Info: OUTPUT FILENAME        mobley_1760914_prod
Info: BINARY OUTPUT FILES WILL BE USED
Info: RESTART FILENAME       mobley_1760914_prod.restart
Info: RESTART FREQUENCY      100000
Info: BINARY RESTART FILES WILL BE USED
Info: CUTOFF                 9
Info: PAIRLIST DISTANCE      11
Info: PAIRLIST SHRINK RATE   0.01
Info: PAIRLIST GROW RATE     0.01
Info: PAIRLIST TRIGGER       0.3
Info: PAIRLISTS PER CYCLE    2
Info: PAIRLISTS ENABLED
Info: MARGIN                 2
Info: HYDROGEN GROUP CUTOFF  2.5
Info: PATCH DIMENSION        15.5
Info: ENERGY OUTPUT STEPS    100000
Info: ENERGY EVALUATION STEPS    100000
Info: OUTPUT ENERGY PRECISION 4
Info: CROSSTERM ENERGY INCLUDED IN DIHEDRAL
Info: TIMING OUTPUT STEPS    1000000
Info: PRESSURE OUTPUT STEPS  100000
Info: ALCHEMICAL FEP ON
Info: FEP CURRENT LAMBDA VALUE     1
Info: FEP COMPARISON LAMBDA VALUE  0.95
Info: FEP INTRA-ALCHEMICAL NON-BONDED INTERACTIONS WILL BE RETAINED
Info: FEP INTRA-ALCHEMICAL BONDED INTERACTIONS WILL BE RETAINED
Info: FEP VDW SHIFTING COEFFICIENT 5
Info: FEP ELEC. ACTIVE FOR ANNIHILATED PARTICLES BETWEEN LAMBDA = 0 AND LAMBDA = 0.5
Info: FEP ELEC. ACTIVE FOR EXNIHILATED PARTICLES BETWEEN LAMBDA = 0.5 AND LAMBDA = 1
Info: FEP VDW ACTIVE FOR ANNIHILATED PARTICLES BETWEEN LAMBDA = 0 AND LAMBDA = 1
Info: FEP VDW ACTIVE FOR EXNIHILATED PARTICLES BETWEEN LAMBDA = 0 AND LAMBDA = 1
Info: FEP BOND ACTIVE FOR ANNIHILATED PARTICLES BETWEEN LAMBDA = 1 AND LAMBDA = 1
Info: FEP BOND ACTIVE FOR EXNIHILATED PARTICLES BETWEEN LAMBDA = 0 AND LAMBDA = 0
Info: LANGEVIN DYNAMICS ACTIVE
Info: LANGEVIN TEMPERATURE   300
Info: LANGEVIN USING BBK INTEGRATOR
Info: LANGEVIN DAMPING COEFFICIENT IS 1 INVERSE PS
Info: LANGEVIN DYNAMICS APPLIED TO HYDROGENS
Info: LANGEVIN PISTON PRESSURE CONTROL ACTIVE
Info:        TARGET PRESSURE IS 1.01325 BAR
Info:     OSCILLATION PERIOD IS 50 FS
Info:             DECAY TIME IS 25 FS
Info:     PISTON TEMPERATURE IS 300 K
Info:       PRESSURE CONTROL IS GROUP-BASED
Info:    INITIAL STRAIN RATE IS -5.43806e-05 -5.43806e-05 -5.43806e-05
Info:       CELL FLUCTUATION IS ISOTROPIC
Info: PARTICLE MESH EWALD (PME) ACTIVE
Info: PME TOLERANCE               1e-06
Info: PME EWALD COEFFICIENT       0.348832
Info: PME INTERPOLATION ORDER     4
Info: PME GRID DIMENSIONS         32 32 36
Info: PME MAXIMUM GRID SPACING    1
Info: PME CALCULATION WILL BE PERFORMED ON GPU
Info: FULL ELECTROSTATIC EVALUATION FREQUENCY      2
Info: USING VERLET I (r-RESPA) MTS SCHEME.
Info: C1 SPLITTING OF LONG RANGE ELECTROSTATICS
Info: PLACING ATOMS IN PATCHES BY HYDROGEN GROUPS
Info: RIGID BONDS TO HYDROGEN : ALL
Info:         ERROR TOLERANCE : 1e-08
Info:          MAX ITERATIONS : 100
Info: RIGID WATER USING SETTLE ALGORITHM
Info: RANDOM NUMBER SEED     1743587459
Info: USE HYDROGEN BONDS?    NO
Info: Using AMBER format force field!
Info: AMBER PARM FILE        mobley_1760914.prmtop
Info: COORDINATE PDB         mobley_1760914.pdb
Info: Exclusions will be read from PARM file!
Info: SCNB (VDW SCALING)     2
Info: USING ARITHMETIC MEAN TO COMBINE L-J SIGMA PARAMETERS
Info: BINARY COORDINATES     mobley_1760914_equil.coor
Info: SUMMARY OF PARAMETERS:
Info: 7 BONDS
Info: 6 ANGLES
Info:   6 HARMONIC
Info:   0 COSINE-BASED
Info: 3 DIHEDRAL
Info: 0 IMPROPER
Info: 0 CROSSTERM
Info: 0 VDW
Info: 28 VDW_PAIRS
Info: 0 NBTHOLE_PAIRS
Info: To read alchdata from file: mobley_1760914.pdb
Info: To read alchflag data from column: 5
Info: STRUCTURE SUMMARY:
Info: 2922 ATOMS
Info: 2922 BONDS
Info: 24 ANGLES
Info: 36 DIHEDRALS
Info: 0 IMPROPERS
Info: 0 CROSSTERMS
Info: 2973 EXCLUSIONS
Info: 2914 RIGID BONDS
Info: ALCH: 0 ATOMS TO DISAPPEAR IN FINAL STATE
Info: ALCH: 15 ATOMS TO APPEAR IN FINAL STATE
Info: 5852 DEGREES OF FREEDOM
Info: 977 HYDROGEN GROUPS
Info: 4 ATOMS IN LARGEST HYDROGEN GROUP
Info: 977 MIGRATION GROUPS
Info: 4 ATOMS IN LARGEST MIGRATION GROUP
Info: TOTAL MASS = 17584.1 amu
Info: TOTAL CHARGE = 1.49012e-08 e
Info: MASS DENSITY = 0.971891 g/cm^3
Info: ATOM DENSITY = 0.0972565 atoms/A^3
Info: ADDED 0 IMPLICIT EXCLUSIONS
Info: NONBONDED TABLE R-SQUARED SPACING: 0.0625
Info: NONBONDED TABLE SIZE: 705 POINTS
Info: REMOVING COM VELOCITY -0.0351367 -0.195116 0.140744
Info: Use 3D box decompostion in PME FFT.
Info: Updated CUDA force table with 4096 elements.
Info: Updated CUDA LJ table with 7 x 7 elements.
Info: Found 14 unique exclusion lists needing 28 bytes
TCL: Running for 1500000 steps
ETITLE: TS BOND ANGLE DIHED IMPRP ELECT VDW BOUNDARY MISC KINETIC TOTAL TEMP POTENTIAL TOTALAVG TEMPAVG PRESSURE GPRESSURE VOLUME PRESSAVG GPRESSAVG
ENERGY: 0 0.7641 7.3812 3.1503 0.0000 -10538.0901 1471.5382 0.0000 0.0000 1737.8218 -7317.4344 298.8762 -9055.2562 -7317.4344 298.8762 732.7859 825.7696 30044.2563 732.7859 825.7696
ENERGY: 300000 2.1641 3.6354 2.9009 0.0000 -10617.3826 1471.4347 0.0000 0.0000 1741.9716 -7395.2760 299.5899 -9137.2476 -7382.5131 299.8298 461.0866 487.5398 30392.9577 319.7064 387.5609
ENERGY: 600000 3.6981 5.1588 0.2460 0.0000 -10614.3328 1393.3395 0.0000 0.0000 1704.1450 -7507.7454 293.0843 -9211.8904 -7408.9515 299.2006 -422.1298 -326.8639 29931.4409 15.5781 76.8348
ENERGY: 900000 1.3284 4.4490 2.8125 0.0000 -10673.9845 1569.1332 0.0000 0.0000 1776.1391 -7320.1222 305.4661 -9096.2614 -7395.5727 300.7551 1356.5172 1396.7804 30197.4998 88.9445 150.9274
ENERGY: 1200000 0.2226 3.8403 2.1031 0.0000 -10734.1077 1508.0702 0.0000 0.0000 1713.1244 -7506.7470 294.6286 -9219.8714 -7410.8521 299.4625 545.2750 549.0608 30265.4242 76.2674 142.2742
ENERGY: 1500000 1.5901 4.0637 2.0873 0.0000 -10521.5429 1374.3554 0.0000 0.0000 1699.0506 -7440.3959 292.2082 -9139.4465 -7413.5735 299.0311 -636.7375 -546.6502 30805.7927 68.4473 143.8099
TCL: Running FEP window   2: Lambda1 0.95   Lambda2 0.8999999999999999 [dLambda -0.050000000000000044]
TCL: Setting parameter firsttimestep to 0
TCL: Setting parameter alchLambda to 0.95
Info: NONBONDED TABLE R-SQUARED SPACING: 0.0625
Info: NONBONDED TABLE SIZE: 705 POINTS
TCL: Setting parameter alchLambda2 to 0.8999999999999999
Info: NONBONDED TABLE R-SQUARED SPACING: 0.0625
Info: NONBONDED TABLE SIZE: 705 POINTS
TCL: Running for 1500000 steps
ETITLE: TS BOND ANGLE DIHED IMPRP ELECT VDW BOUNDARY MISC KINETIC TOTAL TEMP POTENTIAL TOTALAVG TEMPAVG PRESSURE GPRESSURE VOLUME PRESSAVG GPRESSAVG
ENERGY: 0 1.5901 4.0637 2.0873 0.0000 -10521.1398 1374.4165 0.0000 0.0000 1698.2186 -7440.7636 292.0651 -9138.9822 -7440.7636 292.0651 -644.1561 -555.8344 30805.7927 -644.1561 -555.8344
ENERGY: 300000 1.1783 5.7296 3.3953 0.0000 -10614.6152 1377.6977 0.0000 0.0000 1737.4923 -7489.1221 298.8195 -9226.6144 -7452.5527 298.6084 -472.2255 -454.1271 30128.4999 -20.6804 26.6258
ENERGY: 600000 2.6619 4.0401 1.0043 0.0000 -10571.1023 1462.3819 0.0000 0.0000 1732.3475 -7368.6666 297.9347 -9101.0141 -7418.3002 299.7623 497.4073 536.7330 30211.2267 96.0218 158.9761
ENERGY: 900000 2.2103 4.0460 2.5006 0.0000 -10543.0085 1396.0771 0.0000 0.0000 1753.1581 -7385.0164 301.5138 -9138.1745 -7421.7664 299.4984 -272.4056 -244.2713 30158.3206 -97.4375 -37.5400
ENERGY: 1200000 4.7445 6.0522 2.5634 0.0000 -10473.8101 1382.7990 0.0000 0.0000 1753.9429 -7323.7082 301.6487 -9077.6511 -7416.6444 300.2818 -248.8138 -164.4462 30479.8850 5.9078 71.5408
ENERGY: 1500000 3.6130 3.4777 1.2615 0.0000 -10362.5389 1280.5980 0.0000 0.0000 1758.3728 -7315.2159 302.4106 -9073.5887 -7411.4870 300.2422 -1060.3149 -1047.0139 30529.1628 -101.7722 -44.0128
TCL: Running FEP window   3: Lambda1 0.8999999999999999 Lambda2 0.8499999999999999 [dLambda -0.050000000000000044]
TCL: Setting parameter firsttimestep to 0
TCL: Setting parameter alchLambda to 0.8999999999999999
Info: NONBONDED TABLE R-SQUARED SPACING: 0.0625
Info: NONBONDED TABLE SIZE: 705 POINTS
TCL: Setting parameter alchLambda2 to 0.8499999999999999
Info: NONBONDED TABLE R-SQUARED SPACING: 0.0625
Info: NONBONDED TABLE SIZE: 705 POINTS
TCL: Running for 1500000 steps
ETITLE: TS BOND ANGLE DIHED IMPRP ELECT VDW BOUNDARY MISC KINETIC TOTAL TEMP POTENTIAL TOTALAVG TEMPAVG PRESSURE GPRESSURE VOLUME PRESSAVG GPRESSAVG
ENERGY: 0 3.6130 3.4777 1.2615 0.0000 -10362.5586 1280.7513 0.0000 0.0000 1757.5227 -7315.9324 302.2644 -9073.4551 -7315.9324 302.2644 -1134.4537 -1055.5407 30529.1628 -1134.4537 -1055.5407
ENERGY: 300000 3.9644 7.6859 1.3163 0.0000 -10495.7665 1416.6094 0.0000 0.0000 1698.4656 -7367.7249 292.1076 -9066.1905 -7326.3258 304.1700 267.6273 277.3501 30362.5440 -470.1733 -426.6072
ENERGY: 600000 4.3982 2.1728 2.5737 0.0000 -10735.5212 1515.3101 0.0000 0.0000 1766.8586 -7444.2079 303.8700 -9211.0665 -7386.6771 302.3736 801.7179 862.3828 29818.6832 -188.0760 -147.0070
ENERGY: 900000 3.3536 3.6418 3.5882 0.0000 -10454.2603 1377.0794 0.0000 0.0000 1716.0053 -7350.5921 295.1241 -9066.5974 -7390.4139 299.9259 -261.8616 -196.6303 30336.1316 -112.2043 -65.3376
ENERGY: 1200000 0.8258 1.7329 3.2726 0.0000 -10644.3265 1444.4110 0.0000 0.0000 1742.9923 -7451.0918 299.7654 -9194.0842 -7394.4141 300.0529 259.4109 325.1602 29877.9401 -60.9333 -7.1155
ENERGY: 1500000 3.4448 2.2334 1.8379 0.0000 -10583.2500 1409.7739 0.0000 0.0000 1733.2668 -7432.6932 298.0928 -9165.9600 -7392.5083 299.7596 -79.8146 27.1549 30076.8855 -100.0158 -44.4592
TCL: Running FEP window   4: Lambda1 0.8499999999999999 Lambda2 0.7999999999999998 [dLambda -0.050000000000000044]
TCL: Setting parameter firsttimestep to 0
TCL: Setting parameter alchLambda to 0.8499999999999999
Info: NONBONDED TABLE R-SQUARED SPACING: 0.0625
Info: NONBONDED TABLE SIZE: 705 POINTS
TCL: Setting parameter alchLambda2 to 0.7999999999999998
Info: NONBONDED TABLE R-SQUARED SPACING: 0.0625
Info: NONBONDED TABLE SIZE: 705 POINTS
TCL: Running for 1500000 steps
ETITLE: TS BOND ANGLE DIHED IMPRP ELECT VDW BOUNDARY MISC KINETIC TOTAL TEMP POTENTIAL TOTALAVG TEMPAVG PRESSURE GPRESSURE VOLUME PRESSAVG GPRESSAVG
ENERGY: 0 3.4448 2.2334 1.8379 0.0000 -10582.9451 1409.7517 0.0000 0.0000 1732.3731 -7433.3042 297.9391 -9165.6773 -7433.3042 297.9391 -68.0057 13.4080 30076.8855 -68.0057 13.4080
ENERGY: 300000 2.0276 3.4456 2.7202 0.0000 -10653.3595 1440.5055 0.0000 0.0000 1703.9498 -7500.7109 293.0508 -9204.6607 -7448.1687 296.3961 -3.1919 30.3329 30024.9985 261.9746 301.3695
ENERGY: 600000 3.8462 2.7964 2.2593 0.0000 -10591.1366 1437.0109 0.0000 0.0000 1741.8655 -7403.3584 299.5716 -9145.2239 -7453.0633 295.5665 4.1029 45.9408 30150.2202 -97.1698 -59.8029
ENERGY: 900000 2.3476 5.7159 1.6478 0.0000 -10540.0093 1369.5017 0.0000 0.0000 1724.5738 -7436.2226 296.5977 -9160.7963 -7443.0461 296.3678 -524.7764 -397.0829 29843.7177 -144.3314 -89.5577
ENERGY: 1200000 3.2976 1.6202 3.7873 0.0000 -10601.9433 1387.2240 0.0000 0.0000 1800.4624 -7405.5518 309.6493 -9206.0142 -7432.2379 298.0027 -638.2845 -562.3824 30461.6138 -228.2452 -163.4024
ENERGY: 1500000 0.8530 3.7591 1.8216 0.0000 -10484.7951 1381.5871 0.0000 0.0000 1752.1966 -7344.5778 301.3484 -9096.7743 -7419.6560 298.4944 -61.7339 9.2341 29923.6024 -119.1875 -50.3713
TCL: Running FEP window   5: Lambda1 0.7999999999999998 Lambda2 0.7499999999999998 [dLambda -0.050000000000000044]
TCL: Setting parameter firsttimestep to 0
TCL: Setting parameter alchLambda to 0.7999999999999998
Info: NONBONDED TABLE R-SQUARED SPACING: 0.0625
Info: NONBONDED TABLE SIZE: 705 POINTS
TCL: Setting parameter alchLambda2 to 0.7499999999999998
Info: NONBONDED TABLE R-SQUARED SPACING: 0.0625
Info: NONBONDED TABLE SIZE: 705 POINTS
TCL: Running for 1500000 steps
ETITLE: TS BOND ANGLE DIHED IMPRP ELECT VDW BOUNDARY MISC KINETIC TOTAL TEMP POTENTIAL TOTALAVG TEMPAVG PRESSURE GPRESSURE VOLUME PRESSAVG GPRESSAVG
ENERGY: 0 0.8530 3.7591 1.8216 0.0000 -10484.1712 1381.9546 0.0000 0.0000 1751.3370 -7344.4459 301.2006 -9095.7830 -7344.4459 301.2006 -79.6158 4.4678 29923.6024 -79.6158 4.4678
ENERGY: 300000 3.3439 3.2263 4.8863 0.0000 -10518.2382 1377.2811 0.0000 0.0000 1763.3997 -7366.1009 303.2752 -9129.5006 -7364.7390 299.5204 -414.6681 -416.9991 30427.0878 27.1545 64.2125
ENERGY: 600000 1.4740 3.4456 3.6297 0.0000 -10504.0587 1436.1085 0.0000 0.0000 1721.9633 -7337.4376 296.1488 -9059.4009 -7356.4529 299.4215 418.6314 438.2080 30163.6793 -77.3853 -22.3562
ENERGY: 900000 1.9487 6.8681 2.0490 0.0000 -10471.5145 1364.3941 0.0000 0.0000 1767.2942 -7328.9604 303.9449 -9096.2546 -7368.3612 299.9696 -309.8627 -256.9940 30320.8388 -147.8161 -97.8638
ENERGY: 1200000 1.1879 5.2730 3.6674 0.0000 -10500.3698 1317.9242 0.0000 0.0000 1787.6558 -7384.6616 307.4468 -9172.3174 -7375.4953 300.2431 -694.1411 -737.6298 30012.8970 -130.5817 -80.6403
ENERGY: 1500000 3.1624 3.2883 2.1530 0.0000 -10464.3405 1394.1747 0.0000 0.0000 1747.4927 -7314.0694 300.5394 -9061.5621 -7373.6641 300.4978 -0.6573 12.5696 30430.3165 -110.8005 -57.7025
TCL: Running FEP window   6: Lambda1 0.7499999999999998 Lambda2 0.6999999999999997 [dLambda -0.050000000000000044]
TCL: Setting parameter firsttimestep to 0
TCL: Setting parameter alchLambda to 0.7499999999999998
Info: NONBONDED TABLE R-SQUARED SPACING: 0.0625
Info: NONBONDED TABLE SIZE: 705 POINTS
TCL: Setting parameter alchLambda2 to 0.6999999999999997
Info: NONBONDED TABLE R-SQUARED SPACING: 0.0625
Info: NONBONDED TABLE SIZE: 705 POINTS
TCL: Running for 1500000 steps
ETITLE: TS BOND ANGLE DIHED IMPRP ELECT VDW BOUNDARY MISC KINETIC TOTAL TEMP POTENTIAL TOTALAVG TEMPAVG PRESSURE GPRESSURE VOLUME PRESSAVG GPRESSAVG
ENERGY: 0 3.1624 3.2883 2.1530 0.0000 -10463.8629 1393.7750 0.0000 0.0000 1746.6072 -7314.8768 300.3871 -9061.4841 -7314.8768 300.3871 -85.5846 -4.3888 30430.3165 -85.5846 -4.3888
ENERGY: 300000 9.9638 3.3266 2.5936 0.0000 -10449.3107 1325.6065 0.0000 0.0000 1778.3318 -7329.4885 305.8432 -9107.8203 -7366.8862 302.5775 -686.3214 -612.9967 30427.1683 -188.2956 -116.8057
ENERGY: 600000 0.3144 2.7787 2.4970 0.0000 -10639.9404 1427.2193 0.0000 0.0000 1758.5407 -7448.5902 302.4395 -9207.1309 -7387.5767 301.9938 -214.1763 -193.4376 30278.5826 -245.8671 -184.4235
ENERGY: 900000 2.1441 7.7628 2.5087 0.0000 -10575.2010 1424.1174 0.0000 0.0000 1759.5078 -7379.1603 302.6058 -9138.6681 -7396.3928 301.9551 -184.7919 -146.4183 30414.4799 -155.4032 -102.3760
ENERGY: 1200000 3.2311 3.6390 2.6365 0.0000 -10546.9560 1405.5320 0.0000 0.0000 1716.1957 -7415.7216 295.1569 -9131.9174 -7393.9888 301.4676 -95.1215 -118.3005 30373.5271 -104.6337 -59.8259
ENERGY: 1500000 3.8721 4.5810 2.3735 0.0000 -10530.1601 1421.8680 0.0000 0.0000 1754.9732 -7342.4925 301.8259 -9097.4657 -7396.5171 301.9540 253.2843 309.5003 29976.5588 -96.5011 -47.8371
TCL: Running FEP window   7: Lambda1 0.6999999999999997 Lambda2 0.6499999999999997 [dLambda -0.050000000000000044]
TCL: Setting parameter firsttimestep to 0
TCL: Setting parameter alchLambda to 0.6999999999999997
Info: NONBONDED TABLE R-SQUARED SPACING: 0.0625
Info: NONBONDED TABLE SIZE: 705 POINTS
TCL: Setting parameter alchLambda2 to 0.6499999999999997
Info: NONBONDED TABLE R-SQUARED SPACING: 0.0625
Info: NONBONDED TABLE SIZE: 705 POINTS
TCL: Running for 1500000 steps
ETITLE: TS BOND ANGLE DIHED IMPRP ELECT VDW BOUNDARY MISC KINETIC TOTAL TEMP POTENTIAL TOTALAVG TEMPAVG PRESSURE GPRESSURE VOLUME PRESSAVG GPRESSAVG
ENERGY: 0 3.8721 4.5810 2.3735 0.0000 -10529.5181 1421.6287 0.0000 0.0000 1754.1045 -7342.9584 301.6765 -9097.0629 -7342.9584 301.6765 221.3727 296.1741 29976.5588 221.3727 296.1741
ENERGY: 300000 2.2353 4.2071 4.0511 0.0000 -10669.8177 1427.2709 0.0000 0.0000 1793.6533 -7438.4000 308.4783 -9232.0533 -7434.0263 302.4345 -314.5836 -280.1030 30075.2312 -196.6049 -119.9182
ENERGY: 600000 3.9664 5.0518 1.8651 0.0000 -10604.6405 1428.0556 0.0000 0.0000 1725.7191 -7439.9825 296.7947 -9165.7016 -7432.9295 301.4891 -233.1356 -188.3891 30372.7606 -222.6706 -118.2330
ENERGY: 900000 3.2944 8.1888 1.3296 0.0000 -10505.6539 1374.5104 0.0000 0.0000 1745.6115 -7372.7191 300.2159 -9118.3307 -7405.1214 301.8614 -445.4687 -401.4799 30330.7829 -231.0590 -151.5488
ENERGY: 1200000 2.7395 5.8508 1.1389 0.0000 -10543.2662 1493.4152 0.0000 0.0000 1752.3863 -7287.7356 301.3810 -9040.1218 -7403.9427 300.9235 1217.5190 1230.9130 29622.2318 -72.5204 -2.1404
ENERGY: 1500000 5.5013 4.7883 1.7314 0.0000 -10495.9522 1354.9964 0.0000 0.0000 1712.8384 -7416.0964 294.5795 -9128.9348 -7407.9177 300.5186 -532.2250 -503.5034 30307.2292 -167.4461 -101.1386
TCL: Running FEP window   8: Lambda1 0.6499999999999997 Lambda2 0.5999999999999996 [dLambda -0.050000000000000044]
TCL: Setting parameter firsttimestep to 0
TCL: Setting parameter alchLambda to 0.6499999999999997
Info: NONBONDED TABLE R-SQUARED SPACING: 0.0625
Info: NONBONDED TABLE SIZE: 705 POINTS
TCL: Setting parameter alchLambda2 to 0.5999999999999996
Info: NONBONDED TABLE R-SQUARED SPACING: 0.0625
Info: NONBONDED TABLE SIZE: 705 POINTS
TCL: Running for 1500000 steps
ETITLE: TS BOND ANGLE DIHED IMPRP ELECT VDW BOUNDARY MISC KINETIC TOTAL TEMP POTENTIAL TOTALAVG TEMPAVG PRESSURE GPRESSURE VOLUME PRESSAVG GPRESSAVG
ENERGY: 0 5.5013 4.7883 1.7314 0.0000 -10495.8442 1355.0689 0.0000 0.0000 1712.0106 -7416.7436 294.4371 -9128.7542 -7416.7436 294.4371 -588.6769 -512.2360 30307.2292 -588.6769 -512.2360
ENERGY: 300000 2.1546 3.9558 2.1581 0.0000 -10480.0203 1355.3044 0.0000 0.0000 1748.6351 -7367.8122 300.7359 -9116.4473 -7350.5440 301.6899 -423.3453 -384.5024 30075.8987 165.1545 213.4044
ENERGY: 600000 4.8186 4.3652 4.7726 0.0000 -10646.7313 1494.8481 0.0000 0.0000 1745.9254 -7392.0014 300.2699 -9137.9268 -7374.7691 300.2741 393.5212 434.9707 30256.5873 -86.0750 -40.3306
ENERGY: 900000 4.9310 7.8082 3.9732 0.0000 -10675.3755 1420.1809 0.0000 0.0000 1760.7331 -7477.7491 302.8165 -9238.4822 -7395.5024 301.2646 -585.5660 -498.3536 30372.7770 -227.5269 -178.9310
ENERGY: 1200000 2.4115 4.5235 3.0930 0.0000 -10605.0286 1430.2891 0.0000 0.0000 1751.0961 -7413.6154 301.1591 -9164.7115 -7397.4952 300.2427 192.8474 222.1482 29846.1733 -152.0376 -106.5430
ENERGY: 1500000 1.8096 1.8729 1.3121 0.0000 -10656.2385 1479.9435 0.0000 0.0000 1769.9786 -7401.3217 304.4066 -9171.3003 -7388.8194 300.0666 678.4998 666.2099 29752.0906 -13.9891 29.5543
TCL: Running FEP window   9: Lambda1 0.5999999999999996 Lambda2 0.5499999999999996 [dLambda -0.050000000000000044]
TCL: Setting parameter firsttimestep to 0
TCL: Setting parameter alchLambda to 0.5999999999999996
Info: NONBONDED TABLE R-SQUARED SPACING: 0.0625
Info: NONBONDED TABLE SIZE: 705 POINTS
TCL: Setting parameter alchLambda2 to 0.5499999999999996
Info: NONBONDED TABLE R-SQUARED SPACING: 0.0625
Info: NONBONDED TABLE SIZE: 705 POINTS
TCL: Running for 1500000 steps
ETITLE: TS BOND ANGLE DIHED IMPRP ELECT VDW BOUNDARY MISC KINETIC TOTAL TEMP POTENTIAL TOTALAVG TEMPAVG PRESSURE GPRESSURE VOLUME PRESSAVG GPRESSAVG
ENERGY: 0 1.8096 1.8729 1.3121 0.0000 -10655.7573 1480.3190 0.0000 0.0000 1769.0683 -7401.3753 304.2501 -9170.4437 -7401.3753 304.2501 591.6488 665.0637 29752.0906 591.6488 665.0637
ENERGY: 300000 4.7473 1.1606 2.7461 0.0000 -10623.2250 1390.7962 0.0000 0.0000 1724.9617 -7498.8130 296.6645 -9223.7747 -7404.9544 302.8205 -467.4487 -383.1688 29709.4013 -264.8595 -206.5140
ENERGY: 600000 0.7240 5.7264 2.5243 0.0000 -10558.9832 1387.0484 0.0000 0.0000 1691.2605 -7471.6996 290.8684 -9162.9602 -7415.8523 301.0982 -377.8876 -326.6611 30006.0082 -9.7736 48.6694
ENERGY: 900000 3.9443 2.3611 2.2790 0.0000 -10570.5196 1377.5994 0.0000 0.0000 1666.5655 -7517.7703 286.6213 -9184.3358 -7421.1310 298.3908 -578.3830 -487.6340 30257.3541 -52.2282 9.1163
ENERGY: 1200000 3.1649 3.3563 2.7165 0.0000 -10537.2278 1383.6851 0.0000 0.0000 1793.6460 -7350.6590 308.4770 -9144.3050 -7419.3603 298.7588 -475.0458 -384.7436 29980.8528 -73.7730 -18.7092
ENERGY: 1500000 1.7738 4.5645 3.4580 0.0000 -10582.3704 1384.9473 0.0000 0.0000 1765.2041 -7422.4228 303.5855 -9187.6268 -7415.3013 299.3825 -256.9028 -200.8083 29897.3674 -96.7495 -41.9104
TCL: Running FEP window  10: Lambda1 0.5499999999999996 Lambda2 0.4999999999999996 [dLambda -0.04999999999999999]
TCL: Setting parameter firsttimestep to 0
TCL: Setting parameter alchLambda to 0.5499999999999996
Info: NONBONDED TABLE R-SQUARED SPACING: 0.0625
Info: NONBONDED TABLE SIZE: 705 POINTS
TCL: Setting parameter alchLambda2 to 0.4999999999999996
Info: NONBONDED TABLE R-SQUARED SPACING: 0.0625
Info: NONBONDED TABLE SIZE: 705 POINTS
TCL: Running for 1500000 steps
ETITLE: TS BOND ANGLE DIHED IMPRP ELECT VDW BOUNDARY MISC KINETIC TOTAL TEMP POTENTIAL TOTALAVG TEMPAVG PRESSURE GPRESSURE VOLUME PRESSAVG GPRESSAVG
ENERGY: 0 1.7738 4.5645 3.4580 0.0000 -10581.9744 1384.9065 0.0000 0.0000 1764.3315 -7422.9401 303.4354 -9187.2715 -7422.9401 303.4354 -284.5138 -207.9418 29897.3674 -284.5138 -207.9418
ENERGY: 300000 2.7697 3.9137 1.4471 0.0000 -10696.1254 1468.8075 0.0000 0.0000 1702.7313 -7516.4561 292.8412 -9219.1873 -7457.2064 299.8583 -51.6141 9.8356 30071.9908 -21.3787 62.4618
ENERGY: 600000 3.4314 3.6185 1.9251 0.0000 -10477.0563 1388.7158 0.0000 0.0000 1734.2005 -7345.1650 298.2534 -9079.3655 -7400.2110 299.8371 -299.7422 -207.0402 30358.8102 16.6190 93.7975
ENERGY: 900000 1.9036 2.8981 1.8333 0.0000 -10641.1236 1437.7410 0.0000 0.0000 1770.9402 -7425.8074 304.5720 -9196.7476 -7406.5538 299.9246 21.6287 63.1930 29921.7508 14.1630 85.2908
ENERGY: 1200000 0.9837 5.5598 2.5888 0.0000 -10540.5305 1422.1828 0.0000 0.0000 1745.0202 -7364.1952 300.1142 -9109.2154 -7398.4164 299.7600 -12.1362 27.4785 30554.5599 -71.1525 -1.1656
ENERGY: 1500000 1.3023 5.6704 2.3954 0.0000 -10783.7170 1486.7004 0.0000 0.0000 1771.1104 -7516.5382 304.6013 -9287.6486 -7407.2788 299.5224 126.4492 162.0101 29843.3443 -49.3652 15.9964
TCL: Running FEP window  11: Lambda1 0.4999999999999996 Lambda2 0.4499999999999996 [dLambda -0.04999999999999999]
TCL: Setting parameter firsttimestep to 0
TCL: Setting parameter alchLambda to 0.4999999999999996
Info: NONBONDED TABLE R-SQUARED SPACING: 0.0625
Info: NONBONDED TABLE SIZE: 705 POINTS
TCL: Setting parameter alchLambda2 to 0.4499999999999996
Info: NONBONDED TABLE R-SQUARED SPACING: 0.0625
Info: NONBONDED TABLE SIZE: 705 POINTS
TCL: Running for 1500000 steps
ETITLE: TS BOND ANGLE DIHED IMPRP ELECT VDW BOUNDARY MISC KINETIC TOTAL TEMP POTENTIAL TOTALAVG TEMPAVG PRESSURE GPRESSURE VOLUME PRESSAVG GPRESSAVG
ENERGY: 0 1.3023 5.6704 2.3954 0.0000 -10783.7934 1487.0386 0.0000 0.0000 1770.2433 -7517.1434 304.4521 -9287.3867 -7517.1434 304.4521 105.2819 159.6129 29843.3443 105.2819 159.6129
ENERGY: 300000 3.3242 4.3854 1.0546 0.0000 -10570.9527 1414.4817 0.0000 0.0000 1745.7887 -7401.9181 300.2464 -9147.7068 -7458.8666 297.3727 -199.9242 -110.0324 30065.9316 -30.0045 23.2109
ENERGY: 600000 0.9811 5.4188 0.8042 0.0000 -10556.8053 1423.8350 0.0000 0.0000 1714.3928 -7411.3734 294.8468 -9125.7662 -7439.7562 297.9849 170.7015 235.7769 29894.4158 194.2175 235.6211
ENERGY: 900000 1.5789 5.8166 3.9367 0.0000 -10559.5401 1460.1549 0.0000 0.0000 1788.5257 -7299.5272 307.5964 -9088.0529 -7407.9720 299.7453 718.3566 756.7288 29819.1259 98.7871 149.2910
ENERGY: 1200000 2.5736 4.7809 1.7297 0.0000 -10707.6080 1529.2320 0.0000 0.0000 1741.2185 -7428.0732 299.4604 -9169.2918 -7400.7875 300.8356 866.6042 969.9542 29618.4782 150.4340 212.1082
ENERGY: 1500000 1.7158 6.2526 0.4371 0.0000 -10630.4891 1392.6835 0.0000 0.0000 1726.8548 -7502.5453 296.9900 -9229.4002 -7404.2648 300.2819 -422.5671 -341.0509 29691.9960 111.8647 173.2790
TCL: Running FEP window  12: Lambda1 0.4499999999999996 Lambda2 0.39999999999999963 [dLambda -0.04999999999999999]
TCL: Setting parameter firsttimestep to 0
TCL: Setting parameter alchLambda to 0.4499999999999996
Info: NONBONDED TABLE R-SQUARED SPACING: 0.0625
Info: NONBONDED TABLE SIZE: 705 POINTS
TCL: Setting parameter alchLambda2 to 0.39999999999999963
Info: NONBONDED TABLE R-SQUARED SPACING: 0.0625
Info: NONBONDED TABLE SIZE: 705 POINTS
TCL: Running for 1500000 steps
ETITLE: TS BOND ANGLE DIHED IMPRP ELECT VDW BOUNDARY MISC KINETIC TOTAL TEMP POTENTIAL TOTALAVG TEMPAVG PRESSURE GPRESSURE VOLUME PRESSAVG GPRESSAVG
ENERGY: 0 1.7158 6.2526 0.4371 0.0000 -10630.4877 1393.1112 0.0000 0.0000 1726.0359 -7502.9351 296.8492 -9228.9710 -7502.9351 296.8492 -425.8256 -343.5981 29691.9960 -425.8256 -343.5981
ENERGY: 300000 1.8253 2.8407 2.4678 0.0000 -10509.4493 1441.7362 0.0000 0.0000 1752.3395 -7308.2399 301.3730 -9060.5794 -7389.8111 301.9943 581.8987 655.0929 29956.2063 43.0311 135.9510
ENERGY: 600000 3.2548 3.2104 2.4100 0.0000 -10376.2384 1295.3529 0.0000 0.0000 1764.4064 -7307.6040 303.4483 -9072.0103 -7383.2412 301.0051 -785.9835 -755.2391 30545.3880 -111.0194 -44.6006
ENERGY: 900000 2.1450 3.4197 2.7024 0.0000 -10619.3250 1481.7527 0.0000 0.0000 1737.8260 -7391.4792 298.8769 -9129.3052 -7376.9912 300.3564 401.1622 537.7339 30004.6640 -54.7549 19.3138
ENERGY: 1200000 2.3860 4.1494 3.3478 0.0000 -10648.4510 1481.6453 0.0000 0.0000 1760.7149 -7396.2076 302.8134 -9156.9226 -7381.3517 300.2299 473.1464 551.3287 29921.5153 98.5788 172.0979
ENERGY: 1500000 1.5687 3.1701 3.4173 0.0000 -10502.3604 1399.0564 0.0000 0.0000 1761.8377 -7333.3102 303.0065 -9095.1479 -7375.7283 301.4632 -34.0754 42.4127 30234.1317 102.8483 175.5629
TCL: Running FEP window  13: Lambda1 0.39999999999999963 Lambda2 0.34999999999999964 [dLambda -0.04999999999999999]
TCL: Setting parameter firsttimestep to 0
TCL: Setting parameter alchLambda to 0.39999999999999963
Info: NONBONDED TABLE R-SQUARED SPACING: 0.0625
Info: NONBONDED TABLE SIZE: 705 POINTS
TCL: Setting parameter alchLambda2 to 0.34999999999999964
Info: NONBONDED TABLE R-SQUARED SPACING: 0.0625
Info: NONBONDED TABLE SIZE: 705 POINTS
TCL: Running for 1500000 steps
ETITLE: TS BOND ANGLE DIHED IMPRP ELECT VDW BOUNDARY MISC KINETIC TOTAL TEMP POTENTIAL TOTALAVG TEMPAVG PRESSURE GPRESSURE VOLUME PRESSAVG GPRESSAVG
ENERGY: 0 1.5687 3.1701 3.4173 0.0000 -10502.3623 1399.5391 0.0000 0.0000 1760.9285 -7333.7385 302.8502 -9094.6671 -7333.7385 302.8502 -31.1044 42.2787 30234.1317 -31.1044 42.2787
ENERGY: 300000 1.6662 4.2297 2.6952 0.0000 -10592.9908 1397.3082 0.0000 0.0000 1760.5110 -7426.5805 302.7783 -9187.0914 -7419.5447 300.5760 -473.0066 -382.4289 30038.0510 -254.1727 -165.6280
ENERGY: 600000 3.5807 7.7244 1.8160 0.0000 -10637.0614 1488.4415 0.0000 0.0000 1740.2597 -7395.2392 299.2955 -9135.4989 -7396.8441 302.2367 363.9809 460.5250 30020.3999 -111.1288 -19.5019
ENERGY: 900000 2.4045 2.9363 4.3699 0.0000 -10653.0100 1491.1045 0.0000 0.0000 1721.6875 -7430.5074 296.1014 -9152.1949 -7389.0249 301.0921 326.9566 350.8658 30092.5146 -49.8148 25.6826
ENERGY: 1200000 1.8066 5.8494 2.4162 0.0000 -10496.4502 1412.3905 0.0000 0.0000 1761.0135 -7312.9740 302.8648 -9073.9875 -7384.0135 300.7720 -117.6646 -79.9871 30761.6982 65.2224 130.5324
ENERGY: 1500000 1.2621 4.9259 2.5777 0.0000 -10404.1269 1326.9610 0.0000 0.0000 1801.7970 -7266.6033 309.8788 -9068.4003 -7388.2325 300.5418 -745.4210 -722.5878 30515.4401 -27.9008 31.6589
TCL: Running FEP window  14: Lambda1 0.34999999999999964 Lambda2 0.29999999999999966 [dLambda -0.04999999999999999]
TCL: Setting parameter firsttimestep to 0
TCL: Setting parameter alchLambda to 0.34999999999999964
Info: NONBONDED TABLE R-SQUARED SPACING: 0.0625
Info: NONBONDED TABLE SIZE: 705 POINTS
TCL: Setting parameter alchLambda2 to 0.29999999999999966
Info: NONBONDED TABLE R-SQUARED SPACING: 0.0625
Info: NONBONDED TABLE SIZE: 705 POINTS
TCL: Running for 1500000 steps
ETITLE: TS BOND ANGLE DIHED IMPRP ELECT VDW BOUNDARY MISC KINETIC TOTAL TEMP POTENTIAL TOTALAVG TEMPAVG PRESSURE GPRESSURE VOLUME PRESSAVG GPRESSAVG
ENERGY: 0 1.2621 4.9259 2.5777 0.0000 -10404.1273 1327.1991 0.0000 0.0000 1800.9270 -7267.2356 309.7292 -9068.1625 -7267.2356 309.7292 -802.7667 -728.2387 30515.4401 -802.7667 -728.2387
ENERGY: 300000 4.4013 5.2262 1.3830 0.0000 -10628.5331 1457.0560 0.0000 0.0000 1743.1811 -7417.2856 299.7979 -9160.4667 -7380.1987 302.6131 83.1150 146.7983 29884.8579 -346.7173 -274.2375
ENERGY: 600000 7.4524 4.1349 3.9335 0.0000 -10761.7291 1487.9960 0.0000 0.0000 1699.8068 -7558.4055 292.3382 -9258.2123 -7429.0563 297.7082 -12.1996 24.8732 29835.9867 -153.2445 -95.8818
ENERGY: 900000 2.8087 4.6986 2.6439 0.0000 -10543.8602 1378.4652 0.0000 0.0000 1781.7860 -7373.4578 306.4373 -9155.2438 -7421.8815 299.2066 -589.3382 -502.0496 30557.8706 -218.3451 -153.7578
ENERGY: 1200000 3.5078 3.8853 5.1998 0.0000 -10447.9752 1355.2834 0.0000 0.0000 1771.2250 -7308.8739 304.6210 -9080.0989 -7410.5275 300.5463 -546.3047 -500.8969 30318.5303 -140.7656 -84.3789
ENERGY: 1500000 1.7765 4.3716 2.0119 0.0000 -10579.5143 1428.3141 0.0000 0.0000 1727.5283 -7415.5118 297.1059 -9143.0401 -7405.2614 300.9834 -65.7456 19.3735 30011.3354 -124.4814 -60.8414
TCL: Running FEP window  15: Lambda1 0.29999999999999966 Lambda2 0.24999999999999967 [dLambda -0.04999999999999999]
TCL: Setting parameter firsttimestep to 0
TCL: Setting parameter alchLambda to 0.29999999999999966
Info: NONBONDED TABLE R-SQUARED SPACING: 0.0625
Info: NONBONDED TABLE SIZE: 705 POINTS
TCL: Setting parameter alchLambda2 to 0.24999999999999967
Info: NONBONDED TABLE R-SQUARED SPACING: 0.0625
Info: NONBONDED TABLE SIZE: 705 POINTS
TCL: Running for 1500000 steps
ETITLE: TS BOND ANGLE DIHED IMPRP ELECT VDW BOUNDARY MISC KINETIC TOTAL TEMP POTENTIAL TOTALAVG TEMPAVG PRESSURE GPRESSURE VOLUME PRESSAVG GPRESSAVG
ENERGY: 0 1.7765 4.3716 2.0119 0.0000 -10579.5142 1428.7899 0.0000 0.0000 1726.6538 -7415.9105 296.9555 -9142.5643 -7415.9105 296.9555 -61.8409 16.6267 30011.3354 -61.8409 16.6267
ENERGY: 300000 1.4704 5.8009 1.3366 0.0000 -10720.1410 1509.1773 0.0000 0.0000 1752.9405 -7449.4153 301.4763 -9202.3558 -7366.7825 302.6639 728.5595 754.8622 29609.6475 32.5528 88.9484
ENERGY: 600000 1.3116 5.5537 2.0093 0.0000 -10544.5156 1381.2369 0.0000 0.0000 1762.7675 -7391.6366 303.1664 -9154.4042 -7364.4262 301.3176 -199.7767 -126.7087 29492.7504 31.3252 90.3625
ENERGY: 900000 1.3641 4.0031 2.0049 0.0000 -10682.8772 1503.4253 0.0000 0.0000 1769.9211 -7402.1587 304.3967 -9172.0798 -7382.1880 300.7924 653.8841 704.5884 29773.1753 19.3715 68.4385
ENERGY: 1200000 2.4434 5.6085 0.8655 0.0000 -10552.7473 1412.5425 0.0000 0.0000 1754.2678 -7377.0197 301.7046 -9131.2875 -7379.8361 301.5293 -155.6289 -54.4894 30151.9226 -26.8730 13.1311
ENERGY: 1500000 4.7316 6.7682 1.8187 0.0000 -10565.5456 1438.1956 0.0000 0.0000 1770.6348 -7343.3967 304.5195 -9114.0315 -7381.2646 301.8623 -7.8190 129.3734 29976.4598 -77.6077 -28.7481
TCL: Running FEP window  16: Lambda1 0.24999999999999967 Lambda2 0.19999999999999968 [dLambda -0.04999999999999999]
TCL: Setting parameter firsttimestep to 0
TCL: Setting parameter alchLambda to 0.24999999999999967
Info: NONBONDED TABLE R-SQUARED SPACING: 0.0625
Info: NONBONDED TABLE SIZE: 705 POINTS
TCL: Setting parameter alchLambda2 to 0.19999999999999968
Info: NONBONDED TABLE R-SQUARED SPACING: 0.0625
Info: NONBONDED TABLE SIZE: 705 POINTS
TCL: Running for 1500000 steps
ETITLE: TS BOND ANGLE DIHED IMPRP ELECT VDW BOUNDARY MISC KINETIC TOTAL TEMP POTENTIAL TOTALAVG TEMPAVG PRESSURE GPRESSURE VOLUME PRESSAVG GPRESSAVG
ENERGY: 0 4.7316 6.7682 1.8187 0.0000 -10565.5462 1437.9465 0.0000 0.0000 1769.7650 -7344.5162 304.3699 -9114.2813 -7344.5162 304.3699 45.1131 122.4153 29976.4598 45.1131 122.4153
ENERGY: 300000 1.4056 5.2342 3.5102 0.0000 -10563.3621 1414.0991 0.0000 0.0000 1720.8710 -7418.2420 295.9609 -9139.1130 -7413.6947 298.9717 101.0043 126.5272 29918.7994 153.5324 209.4074
ENERGY: 600000 1.7463 1.7386 2.0280 0.0000 -10555.2234 1413.4734 0.0000 0.0000 1680.9228 -7455.3142 289.0905 -9136.2370 -7438.0183 296.0211 -326.3393 -232.1733 30422.8007 -56.6257 10.2482
ENERGY: 900000 1.9433 2.2910 1.5299 0.0000 -10445.4427 1335.9742 0.0000 0.0000 1763.8065 -7339.8978 303.3451 -9103.7043 -7425.9444 297.1000 -508.2774 -465.6247 30002.4860 -52.4542 5.8465
ENERGY: 1200000 1.8923 4.0569 2.8516 0.0000 -10611.0373 1392.6980 0.0000 0.0000 1671.8305 -7537.7079 287.5268 -9209.5384 -7430.7382 295.5714 -598.4248 -466.6339 30043.7542 -184.8151 -119.0468
ENERGY: 1500000 2.7223 4.6879 2.5283 0.0000 -10591.1931 1383.3753 0.0000 0.0000 1729.8238 -7468.0556 297.5007 -9197.8794 -7432.1338 295.5506 -494.9698 -438.4327 29996.4849 -142.0226 -73.8804
TCL: Running FEP window  17: Lambda1 0.19999999999999968 Lambda2 0.1499999999999997 [dLambda -0.04999999999999999]
TCL: Setting parameter firsttimestep to 0
TCL: Setting parameter alchLambda to 0.19999999999999968
Info: NONBONDED TABLE R-SQUARED SPACING: 0.0625
Info: NONBONDED TABLE SIZE: 705 POINTS
TCL: Setting parameter alchLambda2 to 0.1499999999999997
Info: NONBONDED TABLE R-SQUARED SPACING: 0.0625
Info: NONBONDED TABLE SIZE: 705 POINTS
TCL: Running for 1500000 steps
ETITLE: TS BOND ANGLE DIHED IMPRP ELECT VDW BOUNDARY MISC KINETIC TOTAL TEMP POTENTIAL TOTALAVG TEMPAVG PRESSURE GPRESSURE VOLUME PRESSAVG GPRESSAVG
ENERGY: 0 2.7223 4.6879 2.5283 0.0000 -10591.1927 1383.3284 0.0000 0.0000 1728.9488 -7468.9771 297.3502 -9197.9259 -7468.9771 297.3502 -527.3174 -442.5996 29996.4849 -527.3174 -442.5996
ENERGY: 300000 2.1588 3.7447 0.8145 0.0000 -10569.5943 1471.1935 0.0000 0.0000 1677.7427 -7413.9400 288.5436 -9091.6827 -7413.5874 297.4544 697.5511 699.4304 29617.9155 -88.3363 -45.2860
ENERGY: 600000 2.9512 4.4734 3.0604 0.0000 -10802.8575 1531.1268 0.0000 0.0000 1716.2670 -7544.9786 295.1691 -9261.2457 -7433.7102 296.7149 858.7399 880.5282 29297.1577 -48.2598 -0.6861
ENERGY: 900000 6.0326 3.7003 2.3663 0.0000 -10480.9880 1360.9472 0.0000 0.0000 1799.1046 -7308.8369 309.4158 -9107.9415 -7413.0650 298.5707 -433.6963 -393.5366 30237.9540 9.8511 55.5601
ENERGY: 1200000 1.2948 4.0492 1.5222 0.0000 -10681.2431 1495.8251 0.0000 0.0000 1780.4503 -7398.1017 306.2076 -9178.5520 -7409.6862 299.1224 473.3494 584.1022 29845.8294 83.1214 128.3397
ENERGY: 1500000 3.3272 2.6620 1.2382 0.0000 -10554.1836 1413.9728 0.0000 0.0000 1726.9580 -7406.0253 297.0078 -9132.9834 -7399.3310 299.5553 -139.6127 -47.4697 30120.1694 41.6009 89.2474
TCL: Running FEP window  18: Lambda1 0.1499999999999997 Lambda2 0.09999999999999969 [dLambda -0.05 ]
TCL: Setting parameter firsttimestep to 0
TCL: Setting parameter alchLambda to 0.1499999999999997
Info: NONBONDED TABLE R-SQUARED SPACING: 0.0625
Info: NONBONDED TABLE SIZE: 705 POINTS
TCL: Setting parameter alchLambda2 to 0.09999999999999969
Info: NONBONDED TABLE R-SQUARED SPACING: 0.0625
Info: NONBONDED TABLE SIZE: 705 POINTS
TCL: Running for 1500000 steps
ETITLE: TS BOND ANGLE DIHED IMPRP ELECT VDW BOUNDARY MISC KINETIC TOTAL TEMP POTENTIAL TOTALAVG TEMPAVG PRESSURE GPRESSURE VOLUME PRESSAVG GPRESSAVG
ENERGY: 0 3.3272 2.6620 1.2382 0.0000 -10554.1819 1413.5460 0.0000 0.0000 1726.0544 -7407.3541 296.8524 -9133.4084 -7407.3541 296.8524 -119.4348 -52.5383 30120.1694 -119.4348 -52.5383
ENERGY: 300000 4.4192 5.7621 1.3292 0.0000 -10625.8187 1447.1790 0.0000 0.0000 1759.0803 -7408.0488 302.5323 -9167.1291 -7404.8573 301.7404 -55.1332 46.0705 30223.7166 -216.6878 -142.7990
ENERGY: 600000 0.6054 6.2424 3.4194 0.0000 -10437.3960 1295.1477 0.0000 0.0000 1747.6285 -7384.3526 300.5628 -9131.9811 -7413.8715 299.7255 -1013.4529 -900.8907 29950.4196 -303.4222 -224.2799
ENERGY: 900000 1.6301 5.3413 1.7904 0.0000 -10534.0719 1394.9203 0.0000 0.0000 1774.6593 -7355.7305 305.2116 -9130.3898 -7388.7452 300.3631 -383.6676 -314.6145 30276.2278 -220.6080 -145.8770
ENERGY: 1200000 1.8787 4.5080 3.0724 0.0000 -10695.3951 1477.9153 0.0000 0.0000 1740.9884 -7467.0323 299.4208 -9208.0207 -7398.7782 300.2399 253.1282 308.6700 29867.7824 -198.2574 -124.7455
ENERGY: 1500000 3.4838 3.8462 3.0229 0.0000 -10404.9202 1325.8983 0.0000 0.0000 1788.0514 -7280.6177 307.5148 -9068.6690 -7396.0197 300.3655 -618.1302 -645.2062 30009.2462 -271.2993 -205.4444
TCL: Running FEP window  19: Lambda1 0.09999999999999969 Lambda2 0.049999999999999684 [dLambda -0.05 ]
TCL: Setting parameter firsttimestep to 0
TCL: Setting parameter alchLambda to 0.09999999999999969
Info: NONBONDED TABLE R-SQUARED SPACING: 0.0625
Info: NONBONDED TABLE SIZE: 705 POINTS
TCL: Setting parameter alchLambda2 to 0.049999999999999684
Info: NONBONDED TABLE R-SQUARED SPACING: 0.0625
Info: NONBONDED TABLE SIZE: 705 POINTS
TCL: Running for 1500000 steps
ETITLE: TS BOND ANGLE DIHED IMPRP ELECT VDW BOUNDARY MISC KINETIC TOTAL TEMP POTENTIAL TOTALAVG TEMPAVG PRESSURE GPRESSURE VOLUME PRESSAVG GPRESSAVG
ENERGY: 0 3.4838 3.8462 3.0229 0.0000 -10404.9202 1325.3559 0.0000 0.0000 1787.1420 -7282.0694 307.3584 -9069.2114 -7282.0694 307.3584 -726.5261 -648.9087 30009.2462 -726.5261 -648.9087
ENERGY: 300000 3.2050 4.6092 2.2645 0.0000 -10507.4997 1370.4714 0.0000 0.0000 1707.1271 -7419.8226 293.5972 -9126.9497 -7388.8805 298.8660 -724.5323 -626.8594 30404.3101 -175.0409 -96.7332
ENERGY: 600000 1.7137 3.6275 1.1530 0.0000 -10550.2301 1379.2084 0.0000 0.0000 1774.0542 -7390.4733 305.1076 -9164.5275 -7394.8201 300.4611 -295.1078 -193.7251 30021.1273 -205.3849 -134.7654
ENERGY: 900000 2.5890 5.6730 1.1316 0.0000 -10691.3156 1529.5697 0.0000 0.0000 1688.1072 -7464.2451 290.3261 -9152.3523 -7403.5184 298.9481 727.3444 789.2297 30056.0890 -21.8458 49.4933
ENERGY: 1200000 2.5511 2.9669 2.2888 0.0000 -10420.2318 1320.1039 0.0000 0.0000 1711.8285 -7380.4926 294.4058 -9092.3210 -7410.5106 298.7528 -983.3285 -937.4426 30240.5875 -47.0081 26.4403
ENERGY: 1500000 2.3351 5.9297 6.0947 0.0000 -10576.8867 1416.9552 0.0000 0.0000 1769.6032 -7375.9689 304.3421 -9145.5721 -7409.8143 298.7921 -61.7254 -22.3715 29999.0427 -54.8748 16.0487
TCL: Running FEP window  20: Lambda1 0.049999999999999684 Lambda2 0.0    [dLambda -0.049999999999999684]
TCL: Setting parameter firsttimestep to 0
TCL: Setting parameter alchLambda to 0.049999999999999684
Info: NONBONDED TABLE R-SQUARED SPACING: 0.0625
Info: NONBONDED TABLE SIZE: 705 POINTS
TCL: Setting parameter alchLambda2 to 0.0
Info: NONBONDED TABLE R-SQUARED SPACING: 0.0625
Info: NONBONDED TABLE SIZE: 705 POINTS
TCL: Running for 1500000 steps
ETITLE: TS BOND ANGLE DIHED IMPRP ELECT VDW BOUNDARY MISC KINETIC TOTAL TEMP POTENTIAL TOTALAVG TEMPAVG PRESSURE GPRESSURE VOLUME PRESSAVG GPRESSAVG
ENERGY: 0 2.3350 5.9297 6.0947 0.0000 -10576.8851 1415.9476 0.0000 0.0000 1768.7617 -7377.8163 304.1973 -9146.5780 -7377.8163 304.1973 -108.4946 -27.1032 29999.0427 -108.4946 -27.1032
ENERGY: 300000 3.5100 6.3387 2.2242 0.0000 -10540.7049 1483.1854 0.0000 0.0000 1781.5850 -7263.8615 306.4027 -9045.4466 -7350.7038 303.9085 789.5394 932.5161 29648.8911 95.0116 197.7522
ENERGY: 600000 1.6796 4.1736 1.8827 0.0000 -10732.6044 1562.7374 0.0000 0.0000 1712.0387 -7450.0923 294.4419 -9162.1310 -7393.4686 301.4877 687.3199 754.2183 30404.0325 191.1361 265.7608
ENERGY: 900000 2.7160 2.9987 3.6799 0.0000 -10750.4345 1557.4169 0.0000 0.0000 1719.0436 -7464.5793 295.6467 -9183.6230 -7407.5980 299.2052 890.1369 999.9981 29935.5220 193.8461 269.2580
ENERGY: 1200000 2.8989 5.2374 2.4890 0.0000 -10652.8781 1416.2868 0.0000 0.0000 1793.2167 -7432.7492 308.4032 -9225.9659 -7403.2249 301.3921 10.6408 28.7780 29458.0867 100.9555 166.8723
ENERGY: 1500000 1.2043 4.9698 1.6721 0.0000 -10610.5190 1427.7773 0.0000 0.0000 1769.0682 -7405.8273 304.2500 -9174.8955 -7408.9216 300.7427 -88.0685 20.9060 29973.4534 109.4689 177.8428
TCL: Exiting due to exit command.
