Info: SIMULATION PARAMETERS:
Info: TIMESTEP               2
Info: NUMBER OF STEPS        0
Info: STEPS PER CYCLE        10
Info: PERIODIC CELL BASIS 1  31.9266 0 0
Info: PERIODIC CELL BASIS 2  0 30.1482 0
Info: PERIODIC CELL BASIS 3  0 0 31.5526
Info: PERIODIC CELL CENTER   0 0 0
Info: WRAPPING WATERS AROUND PERIODIC BOUNDARIES ON OUTPUT.
Info: WRAPPING ALL CLUSTERS AROUND PERIODIC BOUNDARIES ON OUTPUT.
Info: FIRST LDB TIMESTEP     50
Info: LAST LDB TIMESTEP     -1
Info: HOM BACKGROUND SCALING 1
Info: PME BACKGROUND SCALING 1
Info: MIN ATOMS PER PATCH    40
Info: EMPTY PATCH LOAD       40 ATOMS
Info: VELOCITY FILE          mobley_1733799_equil.vel
Info: CENTER OF MASS MOVING INITIALLY? NO
Info: DIELECTRIC             1
Info: EXCLUDE                SCALED ONE-FOUR
Info: 1-4 ELECTROSTATICS SCALED BY 0.833333
Info: MODIFIED 1-4 VDW PARAMETERS WILL BE USED
Info: DCD FILENAME           mobley_1733799_prod.dcd
Info: DCD FREQUENCY          100000
Info: DCD FIRST STEP         100000
Info: DCD FILE WILL CONTAIN UNIT CELL DATA
Info: XST FILENAME           mobley_1733799_prod.xst
Info: XST FREQUENCY          100000
Info: NO VELOCITY DCD OUTPUT
Info: NO FORCE DCD OUTPUT
Info: OUTPUT FILENAME        mobley_1733799_prod
Info: BINARY OUTPUT FILES WILL BE USED
Info: RESTART FILENAME       mobley_1733799_prod.restart
Info: RESTART FREQUENCY      100000
Info: BINARY RESTART FILES WILL BE USED
Info: CUTOFF                 9
Info: PAIRLIST DISTANCE      11
Info: PAIRLIST SHRINK RATE   0.01
Info: PAIRLIST GROW RATE     0.01
Info: PAIRLIST TRIGGER       0.3
Info: PAIRLISTS PER CYCLE    2
Info: PAIRLISTS ENABLED
Info: MARGIN                 2
Info: HYDROGEN GROUP CUTOFF  2.5
Info: PATCH DIMENSION        15.5
Info: ENERGY OUTPUT STEPS    100000
Info: ENERGY EVALUATION STEPS    100000
Info: OUTPUT ENERGY PRECISION 4
Info: CROSSTERM ENERGY INCLUDED IN DIHEDRAL
Info: TIMING OUTPUT STEPS    1000000
Info: PRESSURE OUTPUT STEPS  100000
Info: ALCHEMICAL FEP ON
Info: FEP CURRENT LAMBDA VALUE     1
Info: FEP COMPARISON LAMBDA VALUE  0.95
Info: FEP INTRA-ALCHEMICAL NON-BONDED INTERACTIONS WILL BE RETAINED
Info: FEP INTRA-ALCHEMICAL BONDED INTERACTIONS WILL BE RETAINED
Info: FEP VDW SHIFTING COEFFICIENT 5
Info: FEP ELEC. ACTIVE FOR ANNIHILATED PARTICLES BETWEEN LAMBDA = 0 AND LAMBDA = 0.5
Info: FEP ELEC. ACTIVE FOR EXNIHILATED PARTICLES BETWEEN LAMBDA = 0.5 AND LAMBDA = 1
Info: FEP VDW ACTIVE FOR ANNIHILATED PARTICLES BETWEEN LAMBDA = 0 AND LAMBDA = 1
Info: FEP VDW ACTIVE FOR EXNIHILATED PARTICLES BETWEEN LAMBDA = 0 AND LAMBDA = 1
Info: FEP BOND ACTIVE FOR ANNIHILATED PARTICLES BETWEEN LAMBDA = 1 AND LAMBDA = 1
Info: FEP BOND ACTIVE FOR EXNIHILATED PARTICLES BETWEEN LAMBDA = 0 AND LAMBDA = 0
Info: LANGEVIN DYNAMICS ACTIVE
Info: LANGEVIN TEMPERATURE   300
Info: LANGEVIN USING BBK INTEGRATOR
Info: LANGEVIN DAMPING COEFFICIENT IS 1 INVERSE PS
Info: LANGEVIN DYNAMICS APPLIED TO HYDROGENS
Info: LANGEVIN PISTON PRESSURE CONTROL ACTIVE
Info:        TARGET PRESSURE IS 1.01325 BAR
Info:     OSCILLATION PERIOD IS 50 FS
Info:             DECAY TIME IS 25 FS
Info:     PISTON TEMPERATURE IS 300 K
Info:       PRESSURE CONTROL IS GROUP-BASED
Info:    INITIAL STRAIN RATE IS 1.85336e-05 1.85336e-05 1.85336e-05
Info:       CELL FLUCTUATION IS ISOTROPIC
Info: PARTICLE MESH EWALD (PME) ACTIVE
Info: PME TOLERANCE               1e-06
Info: PME EWALD COEFFICIENT       0.348832
Info: PME INTERPOLATION ORDER     4
Info: PME GRID DIMENSIONS         32 32 32
Info: PME MAXIMUM GRID SPACING    1
Info: PME CALCULATION WILL BE PERFORMED ON GPU
Info: FULL ELECTROSTATIC EVALUATION FREQUENCY      2
Info: USING VERLET I (r-RESPA) MTS SCHEME.
Info: C1 SPLITTING OF LONG RANGE ELECTROSTATICS
Info: PLACING ATOMS IN PATCHES BY HYDROGEN GROUPS
Info: RIGID BONDS TO HYDROGEN : ALL
Info:         ERROR TOLERANCE : 1e-08
Info:          MAX ITERATIONS : 100
Info: RIGID WATER USING SETTLE ALGORITHM
Info: RANDOM NUMBER SEED     1743560449
Info: USE HYDROGEN BONDS?    NO
Info: Using AMBER format force field!
Info: AMBER PARM FILE        mobley_1733799.prmtop
Info: COORDINATE PDB         mobley_1733799.pdb
Info: Exclusions will be read from PARM file!
Info: SCNB (VDW SCALING)     2
Info: USING ARITHMETIC MEAN TO COMBINE L-J SIGMA PARAMETERS
Info: BINARY COORDINATES     mobley_1733799_equil.coor
Info: SUMMARY OF PARAMETERS:
Info: 7 BONDS
Info: 5 ANGLES
Info:   5 HARMONIC
Info:   0 COSINE-BASED
Info: 3 DIHEDRAL
Info: 0 IMPROPER
Info: 0 CROSSTERM
Info: 0 VDW
Info: 21 VDW_PAIRS
Info: 0 NBTHOLE_PAIRS
Info: To read alchdata from file: mobley_1733799.pdb
Info: To read alchflag data from column: 5
Info: STRUCTURE SUMMARY:
Info: 2953 ATOMS
Info: 2953 BONDS
Info: 19 ANGLES
Info: 32 DIHEDRALS
Info: 0 IMPROPERS
Info: 0 CROSSTERMS
Info: 2995 EXCLUSIONS
Info: 2945 RIGID BONDS
Info: ALCH: 0 ATOMS TO DISAPPEAR IN FINAL STATE
Info: ALCH: 13 ATOMS TO APPEAR IN FINAL STATE
Info: 5914 DEGREES OF FREEDOM
Info: 988 HYDROGEN GROUPS
Info: 3 ATOMS IN LARGEST HYDROGEN GROUP
Info: 988 MIGRATION GROUPS
Info: 3 ATOMS IN LARGEST MIGRATION GROUP
Info: TOTAL MASS = 17828.7 amu
Info: TOTAL CHARGE = 0.000100002 e
Info: MASS DENSITY = 0.97483 g/cm^3
Info: ATOM DENSITY = 0.097233 atoms/A^3
Info: ADDED 0 IMPLICIT EXCLUSIONS
Info: NONBONDED TABLE R-SQUARED SPACING: 0.0625
Info: NONBONDED TABLE SIZE: 705 POINTS
Info: REMOVING COM VELOCITY -0.0813165 0.154167 -0.0659037
Info: Use 3D box decompostion in PME FFT.
Info: Updated CUDA force table with 4096 elements.
Info: Updated CUDA LJ table with 6 x 6 elements.
Info: Found 15 unique exclusion lists needing 28 bytes
TCL: Running for 1500000 steps
ETITLE: TS BOND ANGLE DIHED IMPRP ELECT VDW BOUNDARY MISC KINETIC TOTAL TEMP POTENTIAL TOTALAVG TEMPAVG PRESSURE GPRESSURE VOLUME PRESSAVG GPRESSAVG
ENERGY: 0 3.4577 3.8541 5.6516 0.0000 -10636.8213 1384.9032 0.0000 0.0000 1740.6692 -7498.2854 296.2275 -9238.9547 -7498.2854 296.2275 -260.8004 -179.1840 30370.3337 -260.8004 -179.1840
ENERGY: 300000 0.4218 3.3477 3.0558 0.0000 -10616.5634 1385.8039 0.0000 0.0000 1718.6611 -7505.2730 292.4821 -9223.9341 -7509.4897 296.0437 -241.4632 -124.0507 30428.4212 3.0276 56.3910
ENERGY: 600000 2.5649 3.8072 2.0554 0.0000 -10890.0828 1562.9179 0.0000 0.0000 1778.8244 -7539.9130 302.7207 -9318.7374 -7517.6767 296.8217 767.8657 831.1227 30522.1387 125.2077 186.7541
ENERGY: 900000 0.6284 4.0348 1.7322 0.0000 -10717.6618 1470.8083 0.0000 0.0000 1764.4663 -7475.9918 300.2773 -9240.4581 -7520.4902 297.2548 203.0569 268.8469 30728.1888 -57.3976 7.3149
ENERGY: 1200000 3.0330 2.9418 4.3978 0.0000 -10624.7936 1421.1279 0.0000 0.0000 1776.8007 -7416.4924 302.3763 -9193.2931 -7511.5006 298.2953 -162.7317 -71.9749 30920.5181 -146.4913 -81.7689
ENERGY: 1500000 2.2919 4.8050 3.0042 0.0000 -10665.7493 1405.3945 0.0000 0.0000 1817.2941 -7432.9597 309.2675 -9250.2538 -7504.8860 299.6634 176.0588 224.7467 30296.5741 -123.4024 -52.6868
TCL: Running FEP window   2: Lambda1 0.95   Lambda2 0.8999999999999999 [dLambda -0.050000000000000044]
TCL: Setting parameter firsttimestep to 0
TCL: Setting parameter alchLambda to 0.95
Info: NONBONDED TABLE R-SQUARED SPACING: 0.0625
Info: NONBONDED TABLE SIZE: 705 POINTS
TCL: Setting parameter alchLambda2 to 0.8999999999999999
Info: NONBONDED TABLE R-SQUARED SPACING: 0.0625
Info: NONBONDED TABLE SIZE: 705 POINTS
TCL: Running for 1500000 steps
ETITLE: TS BOND ANGLE DIHED IMPRP ELECT VDW BOUNDARY MISC KINETIC TOTAL TEMP POTENTIAL TOTALAVG TEMPAVG PRESSURE GPRESSURE VOLUME PRESSAVG GPRESSAVG
ENERGY: 0 2.2919 4.8050 3.0042 0.0000 -10664.6069 1405.3629 0.0000 0.0000 1816.4153 -7432.7277 309.1179 -9249.1429 -7432.7277 309.1179 122.1572 212.0503 30296.5741 122.1572 212.0503
ENERGY: 300000 4.3627 2.3322 1.5653 0.0000 -10553.6006 1310.6611 0.0000 0.0000 1729.8907 -7504.7887 294.3932 -9234.6794 -7446.9533 305.0755 -1026.8350 -1009.8309 30708.3032 -71.0812 1.4302
ENERGY: 600000 2.5884 2.7883 4.4057 0.0000 -10647.3250 1409.1902 0.0000 0.0000 1734.3187 -7494.0336 295.1467 -9228.3523 -7487.3267 300.9554 -104.4207 -33.4761 30249.2120 -23.8237 53.6560
ENERGY: 900000 1.2279 0.6592 3.7837 0.0000 -10881.7128 1500.3230 0.0000 0.0000 1754.1162 -7621.6027 298.5159 -9375.7190 -7499.3770 300.6475 358.9865 399.1854 30099.1452 -1.8867 67.6931
ENERGY: 1200000 1.3545 5.9873 2.4982 0.0000 -10768.2044 1410.1666 0.0000 0.0000 1839.8005 -7508.3974 313.0976 -9348.1979 -7502.3805 300.9360 -385.2409 -326.8889 30326.2560 -1.8791 64.2463
ENERGY: 1500000 1.8825 0.9140 5.8977 0.0000 -10913.0340 1552.5121 0.0000 0.0000 1780.4664 -7571.3614 303.0001 -9351.8278 -7507.9652 301.3535 812.3956 849.0272 30487.7251 -2.9475 56.1434
TCL: Running FEP window   3: Lambda1 0.8999999999999999 Lambda2 0.8499999999999999 [dLambda -0.050000000000000044]
TCL: Setting parameter firsttimestep to 0
TCL: Setting parameter alchLambda to 0.8999999999999999
Info: NONBONDED TABLE R-SQUARED SPACING: 0.0625
Info: NONBONDED TABLE SIZE: 705 POINTS
TCL: Setting parameter alchLambda2 to 0.8499999999999999
Info: NONBONDED TABLE R-SQUARED SPACING: 0.0625
Info: NONBONDED TABLE SIZE: 705 POINTS
TCL: Running for 1500000 steps
ETITLE: TS BOND ANGLE DIHED IMPRP ELECT VDW BOUNDARY MISC KINETIC TOTAL TEMP POTENTIAL TOTALAVG TEMPAVG PRESSURE GPRESSURE VOLUME PRESSAVG GPRESSAVG
ENERGY: 0 1.8825 0.9140 5.8977 0.0000 -10911.7973 1552.7298 0.0000 0.0000 1779.5792 -7570.7941 302.8492 -9350.3733 -7570.7941 302.8492 758.8655 843.1753 30487.7251 758.8655 843.1753
ENERGY: 300000 2.7680 3.9129 2.6652 0.0000 -10746.3582 1436.6277 0.0000 0.0000 1788.4996 -7511.8849 304.3672 -9300.3846 -7540.3592 303.9522 -133.4979 -111.1849 30345.6877 -50.4395 0.0071
ENERGY: 600000 1.3829 3.6248 6.2638 0.0000 -10730.0111 1450.6164 0.0000 0.0000 1799.9183 -7468.2049 306.3105 -9268.1233 -7513.1573 302.2641 280.8686 362.1609 30174.8984 -0.2369 66.6193
ENERGY: 900000 1.6981 3.5556 2.9769 0.0000 -10671.5945 1468.9263 0.0000 0.0000 1745.1043 -7449.3332 296.9822 -9194.4375 -7507.2328 301.6487 46.9253 166.5612 30950.4675 40.2680 111.0267
ENERGY: 1200000 3.5436 2.0981 2.7350 0.0000 -10708.4681 1430.6041 0.0000 0.0000 1732.7536 -7536.7338 294.8804 -9269.4874 -7512.1653 300.6260 -92.7379 -75.5810 30580.0888 14.6272 76.6652
ENERGY: 1500000 2.6314 3.5562 2.7808 0.0000 -10625.6737 1356.2860 0.0000 0.0000 1734.4977 -7525.9217 295.1772 -9260.4194 -7506.4443 301.4431 -671.9273 -657.1522 30721.4889 -5.3883 56.5532
TCL: Running FEP window   4: Lambda1 0.8499999999999999 Lambda2 0.7999999999999998 [dLambda -0.050000000000000044]
TCL: Setting parameter firsttimestep to 0
TCL: Setting parameter alchLambda to 0.8499999999999999
Info: NONBONDED TABLE R-SQUARED SPACING: 0.0625
Info: NONBONDED TABLE SIZE: 705 POINTS
TCL: Setting parameter alchLambda2 to 0.7999999999999998
Info: NONBONDED TABLE R-SQUARED SPACING: 0.0625
Info: NONBONDED TABLE SIZE: 705 POINTS
TCL: Running for 1500000 steps
ETITLE: TS BOND ANGLE DIHED IMPRP ELECT VDW BOUNDARY MISC KINETIC TOTAL TEMP POTENTIAL TOTALAVG TEMPAVG PRESSURE GPRESSURE VOLUME PRESSAVG GPRESSAVG
ENERGY: 0 2.6314 3.5562 2.7808 0.0000 -10624.0881 1356.0371 0.0000 0.0000 1733.6258 -7525.4568 295.0288 -9259.0826 -7525.4568 295.0288 -758.3478 -673.0504 30721.4889 -758.3478 -673.0504
ENERGY: 300000 6.0129 3.9617 4.6828 0.0000 -10697.8016 1409.6612 0.0000 0.0000 1821.3472 -7452.1358 309.9573 -9273.4830 -7476.4412 303.8979 -347.3726 -240.2337 30312.6611 -257.1240 -161.8573
ENERGY: 600000 1.3836 4.0973 4.9748 0.0000 -10646.6009 1389.7124 0.0000 0.0000 1788.5455 -7457.8872 304.3751 -9246.4328 -7496.9321 303.2999 34.7005 103.0008 29844.5268 5.1587 93.2878
ENERGY: 900000 3.3400 3.2821 3.0753 0.0000 -10826.5912 1481.9933 0.0000 0.0000 1836.5755 -7498.3250 312.5488 -9334.9005 -7503.4782 303.4770 343.4748 369.6381 30193.8646 105.4807 181.7310
ENERGY: 1200000 1.6584 4.3053 1.1558 0.0000 -10935.0751 1638.3774 0.0000 0.0000 1753.7599 -7535.8183 298.4552 -9289.5782 -7516.8698 302.3782 1266.7931 1334.6557 30534.5060 183.8175 257.6093
ENERGY: 1500000 3.9856 2.5123 4.0979 0.0000 -10649.2423 1402.0190 0.0000 0.0000 1782.5587 -7454.0689 303.3562 -9236.6276 -7505.3314 302.5522 -291.9541 -196.2146 30383.0555 136.8098 208.9276
TCL: Running FEP window   5: Lambda1 0.7999999999999998 Lambda2 0.7499999999999998 [dLambda -0.050000000000000044]
TCL: Setting parameter firsttimestep to 0
TCL: Setting parameter alchLambda to 0.7999999999999998
Info: NONBONDED TABLE R-SQUARED SPACING: 0.0625
Info: NONBONDED TABLE SIZE: 705 POINTS
TCL: Setting parameter alchLambda2 to 0.7499999999999998
Info: NONBONDED TABLE R-SQUARED SPACING: 0.0625
Info: NONBONDED TABLE SIZE: 705 POINTS
TCL: Running for 1500000 steps
ETITLE: TS BOND ANGLE DIHED IMPRP ELECT VDW BOUNDARY MISC KINETIC TOTAL TEMP POTENTIAL TOTALAVG TEMPAVG PRESSURE GPRESSURE VOLUME PRESSAVG GPRESSAVG
ENERGY: 0 3.9856 2.5123 4.0979 0.0000 -10647.0951 1401.8292 0.0000 0.0000 1781.6717 -7452.9985 303.2053 -9234.6702 -7452.9985 303.2053 -298.5363 -200.2440 30383.0555 -298.5363 -200.2440
ENERGY: 300000 1.7112 5.8733 1.5586 0.0000 -10648.0692 1394.3081 0.0000 0.0000 1788.9893 -7455.6286 304.4506 -9244.6179 -7540.1023 299.0747 -225.6401 -194.3818 30394.0602 -373.7978 -284.5890
ENERGY: 600000 3.6472 1.3821 4.3354 0.0000 -10635.0695 1460.3597 0.0000 0.0000 1796.4916 -7368.8535 305.7273 -9165.3451 -7507.5449 300.0458 336.7479 400.3064 30607.7006 -122.8480 -54.3508
ENERGY: 900000 1.1361 1.8868 2.2737 0.0000 -10758.8358 1536.6809 0.0000 0.0000 1848.8904 -7367.9679 314.6446 -9216.8583 -7498.3882 301.0901 830.3473 904.5570 30557.4675 -52.2775 7.2447
ENERGY: 1200000 2.1894 1.2087 3.2147 0.0000 -10714.2338 1442.3827 0.0000 0.0000 1804.5794 -7460.6590 307.1037 -9265.2383 -7499.3782 301.6236 81.7343 109.4776 30341.0890 -54.9806 -4.9443
ENERGY: 1500000 3.7186 2.8361 4.0079 0.0000 -10688.9789 1478.1604 0.0000 0.0000 1700.4015 -7499.8544 289.3747 -9200.2559 -7504.7640 300.9952 219.0297 325.7021 30502.2664 -83.0289 -35.3936
TCL: Running FEP window   6: Lambda1 0.7499999999999998 Lambda2 0.6999999999999997 [dLambda -0.050000000000000044]
TCL: Setting parameter firsttimestep to 0
TCL: Setting parameter alchLambda to 0.7499999999999998
Info: NONBONDED TABLE R-SQUARED SPACING: 0.0625
Info: NONBONDED TABLE SIZE: 705 POINTS
TCL: Setting parameter alchLambda2 to 0.6999999999999997
Info: NONBONDED TABLE R-SQUARED SPACING: 0.0625
Info: NONBONDED TABLE SIZE: 705 POINTS
TCL: Running for 1500000 steps
ETITLE: TS BOND ANGLE DIHED IMPRP ELECT VDW BOUNDARY MISC KINETIC TOTAL TEMP POTENTIAL TOTALAVG TEMPAVG PRESSURE GPRESSURE VOLUME PRESSAVG GPRESSAVG
ENERGY: 0 3.7186 2.8361 4.0079 0.0000 -10686.8876 1478.0991 0.0000 0.0000 1699.5332 -7498.6927 289.2269 -9198.2259 -7498.6927 289.2269 234.0632 323.0355 30502.2664 234.0632 323.0355
ENERGY: 300000 1.0207 5.1312 1.5886 0.0000 -10812.9849 1513.0960 0.0000 0.0000 1738.7352 -7553.4133 295.8983 -9292.1485 -7527.6703 296.0306 678.7498 717.5172 30104.1949 119.6806 206.5653
ENERGY: 600000 1.1251 2.5564 2.2159 0.0000 -10610.6882 1336.8775 0.0000 0.0000 1750.9779 -7516.9354 297.9818 -9267.9133 -7512.7468 297.2673 -708.4652 -626.9279 30211.9776 -174.1326 -87.3334
ENERGY: 900000 2.9989 4.5201 1.5604 0.0000 -10808.7433 1480.6040 0.0000 0.0000 1718.8454 -7600.2144 292.5135 -9319.0598 -7527.3748 296.5526 367.0773 451.6819 29917.8517 26.9371 105.9571
ENERGY: 1200000 2.4131 1.9058 1.9038 0.0000 -10736.2551 1452.3706 0.0000 0.0000 1762.6614 -7515.0004 299.9701 -9277.6618 -7525.0320 297.5232 -244.2066 -187.9182 30814.9538 -14.4320 61.6312
ENERGY: 1500000 3.5338 4.0604 2.5861 0.0000 -10890.6323 1588.3449 0.0000 0.0000 1721.6483 -7570.4588 292.9905 -9292.1071 -7526.2787 296.8604 867.6783 955.3557 30328.9786 99.7053 170.2000
TCL: Running FEP window   7: Lambda1 0.6999999999999997 Lambda2 0.6499999999999997 [dLambda -0.050000000000000044]
TCL: Setting parameter firsttimestep to 0
TCL: Setting parameter alchLambda to 0.6999999999999997
Info: NONBONDED TABLE R-SQUARED SPACING: 0.0625
Info: NONBONDED TABLE SIZE: 705 POINTS
TCL: Setting parameter alchLambda2 to 0.6499999999999997
Info: NONBONDED TABLE R-SQUARED SPACING: 0.0625
Info: NONBONDED TABLE SIZE: 705 POINTS
TCL: Running for 1500000 steps
ETITLE: TS BOND ANGLE DIHED IMPRP ELECT VDW BOUNDARY MISC KINETIC TOTAL TEMP POTENTIAL TOTALAVG TEMPAVG PRESSURE GPRESSURE VOLUME PRESSAVG GPRESSAVG
ENERGY: 0 3.5338 4.0604 2.5861 0.0000 -10889.3684 1588.5852 0.0000 0.0000 1720.8112 -7569.7916 292.8480 -9290.6028 -7569.7916 292.8480 871.7077 951.7281 30328.9786 871.7077 951.7281
ENERGY: 300000 3.5626 2.4245 1.3836 0.0000 -10829.1213 1481.6980 0.0000 0.0000 1750.5188 -7589.5337 297.9037 -9340.0525 -7541.2853 297.2716 243.3802 256.1294 30225.3979 177.3949 212.0949
ENERGY: 600000 3.1200 2.1171 2.9881 0.0000 -10777.6312 1429.2873 0.0000 0.0000 1787.0091 -7553.1096 304.1136 -9340.1187 -7511.7150 302.4780 -221.9834 -166.1926 30182.0132 -166.2790 -112.0457
ENERGY: 900000 1.8606 3.0527 4.6287 0.0000 -10686.1707 1416.3337 0.0000 0.0000 1807.4436 -7452.8515 307.5911 -9260.2951 -7507.6192 301.4615 -325.6067 -240.7613 30798.5198 -163.8907 -99.5343
ENERGY: 1200000 3.5395 2.1940 6.3844 0.0000 -10753.4815 1456.0546 0.0000 0.0000 1790.6775 -7494.6315 304.7379 -9285.3090 -7510.8804 301.0489 229.7735 214.6189 30173.9886 -94.7746 -39.5453
ENERGY: 1500000 1.4888 3.1672 3.8941 0.0000 -10795.8785 1504.5980 0.0000 0.0000 1800.0006 -7482.7297 306.3245 -9282.7303 -7503.8026 300.9565 637.7858 667.8970 30032.5239 -69.3096 -13.3697
TCL: Running FEP window   8: Lambda1 0.6499999999999997 Lambda2 0.5999999999999996 [dLambda -0.050000000000000044]
TCL: Setting parameter firsttimestep to 0
TCL: Setting parameter alchLambda to 0.6499999999999997
Info: NONBONDED TABLE R-SQUARED SPACING: 0.0625
Info: NONBONDED TABLE SIZE: 705 POINTS
TCL: Setting parameter alchLambda2 to 0.5999999999999996
Info: NONBONDED TABLE R-SQUARED SPACING: 0.0625
Info: NONBONDED TABLE SIZE: 705 POINTS
TCL: Running for 1500000 steps
ETITLE: TS BOND ANGLE DIHED IMPRP ELECT VDW BOUNDARY MISC KINETIC TOTAL TEMP POTENTIAL TOTALAVG TEMPAVG PRESSURE GPRESSURE VOLUME PRESSAVG GPRESSAVG
ENERGY: 0 1.4888 3.1672 3.8941 0.0000 -10794.2344 1504.8149 0.0000 0.0000 1799.0822 -7481.7871 306.1682 -9280.8693 -7481.7871 306.1682 586.5934 668.0003 30032.5239 586.5934 668.0003
ENERGY: 300000 3.1700 4.4863 2.8379 0.0000 -10586.5573 1379.7728 0.0000 0.0000 1794.7532 -7401.5370 305.4315 -9196.2901 -7473.2964 300.2306 -356.7536 -268.9197 30822.9355 -119.0027 -45.0958
ENERGY: 600000 1.0456 4.9450 1.8900 0.0000 -10766.6270 1526.3886 0.0000 0.0000 1793.4395 -7438.9182 305.2079 -9232.3578 -7482.0091 300.8457 837.7347 909.0391 30243.2479 230.6965 306.0348
ENERGY: 900000 2.1912 4.6123 2.0217 0.0000 -10694.4919 1428.9353 0.0000 0.0000 1721.6200 -7535.1115 292.9857 -9256.7315 -7490.7632 300.3216 13.7788 122.8869 30338.0264 131.9972 221.3086
ENERGY: 1200000 1.1216 1.7555 3.5636 0.0000 -10761.0813 1529.6923 0.0000 0.0000 1731.5511 -7493.3973 294.6757 -9224.9484 -7495.1325 300.2825 1024.3329 1026.0510 30434.1807 166.6293 239.1967
ENERGY: 1500000 1.6724 5.5361 3.7748 0.0000 -10875.6471 1521.9547 0.0000 0.0000 1742.9952 -7599.7140 296.6233 -9342.7092 -7501.9741 300.2147 501.8061 559.4671 30158.5819 165.3093 240.0985
TCL: Running FEP window   9: Lambda1 0.5999999999999996 Lambda2 0.5499999999999996 [dLambda -0.050000000000000044]
TCL: Setting parameter firsttimestep to 0
TCL: Setting parameter alchLambda to 0.5999999999999996
Info: NONBONDED TABLE R-SQUARED SPACING: 0.0625
Info: NONBONDED TABLE SIZE: 705 POINTS
TCL: Setting parameter alchLambda2 to 0.5499999999999996
Info: NONBONDED TABLE R-SQUARED SPACING: 0.0625
Info: NONBONDED TABLE SIZE: 705 POINTS
TCL: Running for 1500000 steps
ETITLE: TS BOND ANGLE DIHED IMPRP ELECT VDW BOUNDARY MISC KINETIC TOTAL TEMP POTENTIAL TOTALAVG TEMPAVG PRESSURE GPRESSURE VOLUME PRESSAVG GPRESSAVG
ENERGY: 0 1.6724 5.5361 3.7748 0.0000 -10874.8884 1522.3245 0.0000 0.0000 1742.1276 -7599.4531 296.4756 -9341.5807 -7599.4531 296.4756 461.9942 557.0032 30158.5819 461.9942 557.0032
ENERGY: 300000 1.4949 2.5848 1.7439 0.0000 -10636.8731 1406.9961 0.0000 0.0000 1777.0138 -7447.0395 302.4126 -9224.0533 -7510.6372 302.7520 -26.0575 63.4909 30315.3659 -110.6745 -36.0010
ENERGY: 600000 3.1963 2.7708 5.4590 0.0000 -10694.0474 1453.6425 0.0000 0.0000 1813.2627 -7415.7160 308.5814 -9228.9787 -7493.2618 304.1627 95.7825 192.5594 30336.8922 -30.1118 32.9026
ENERGY: 900000 1.5007 5.0081 4.0063 0.0000 -10679.5379 1440.5898 0.0000 0.0000 1802.2318 -7426.2013 306.7042 -9228.4331 -7494.9390 303.3076 222.4930 290.7285 30372.7821 -98.8977 -37.5786
ENERGY: 1200000 2.1035 0.7461 2.9881 0.0000 -10524.2717 1262.2416 0.0000 0.0000 1772.9947 -7483.1978 301.7286 -9256.1925 -7499.0512 302.5334 -1405.7146 -1381.5723 30796.1191 -190.0050 -132.7818
ENERGY: 1500000 0.8339 2.6236 1.4320 0.0000 -10617.3771 1380.7670 0.0000 0.0000 1794.6401 -7437.0804 305.4122 -9231.7206 -7485.2416 303.0207 -217.9827 -156.4890 30334.4352 -163.3940 -115.3776
TCL: Running FEP window  10: Lambda1 0.5499999999999996 Lambda2 0.4999999999999996 [dLambda -0.04999999999999999]
TCL: Setting parameter firsttimestep to 0
TCL: Setting parameter alchLambda to 0.5499999999999996
Info: NONBONDED TABLE R-SQUARED SPACING: 0.0625
Info: NONBONDED TABLE SIZE: 705 POINTS
TCL: Setting parameter alchLambda2 to 0.4999999999999996
Info: NONBONDED TABLE R-SQUARED SPACING: 0.0625
Info: NONBONDED TABLE SIZE: 705 POINTS
TCL: Running for 1500000 steps
ETITLE: TS BOND ANGLE DIHED IMPRP ELECT VDW BOUNDARY MISC KINETIC TOTAL TEMP POTENTIAL TOTALAVG TEMPAVG PRESSURE GPRESSURE VOLUME PRESSAVG GPRESSAVG
ENERGY: 0 0.8339 2.6236 1.4320 0.0000 -10617.3556 1380.9754 0.0000 0.0000 1793.7551 -7437.7355 305.2616 -9231.4906 -7437.7355 305.2616 -248.1538 -163.2964 30334.4352 -248.1538 -163.2964
ENERGY: 300000 2.4239 4.0412 6.6546 0.0000 -10651.2055 1379.0954 0.0000 0.0000 1719.2679 -7539.7225 292.5854 -9258.9904 -7507.7216 300.5239 -581.6122 -543.3046 30426.7836 -81.4157 -24.4502
ENERGY: 600000 3.2102 2.4190 1.9275 0.0000 -10778.2474 1467.3491 0.0000 0.0000 1767.2596 -7536.0819 300.7526 -9303.3416 -7524.8963 300.1887 409.4505 525.0511 29783.8699 -26.3547 33.4982
ENERGY: 900000 1.9344 3.5636 3.9258 0.0000 -10644.4451 1348.4017 0.0000 0.0000 1734.9702 -7551.6493 295.2576 -9286.6195 -7523.7441 299.0171 -953.6287 -827.7385 30690.4551 -203.5397 -138.9100
ENERGY: 1200000 3.0943 2.3428 3.3236 0.0000 -10803.3054 1517.4196 0.0000 0.0000 1743.4387 -7533.6863 296.6988 -9277.1250 -7527.9260 298.6246 609.0882 661.2261 30113.3468 -160.1846 -93.8732
ENERGY: 1500000 2.2790 4.0434 2.5292 0.0000 -10628.8621 1334.4055 0.0000 0.0000 1745.9177 -7539.6872 297.1206 -9285.6049 -7514.1929 298.2520 -702.4545 -702.6542 30030.4558 -191.9190 -130.6781
TCL: Running FEP window  11: Lambda1 0.4999999999999996 Lambda2 0.4499999999999996 [dLambda -0.04999999999999999]
TCL: Setting parameter firsttimestep to 0
TCL: Setting parameter alchLambda to 0.4999999999999996
Info: NONBONDED TABLE R-SQUARED SPACING: 0.0625
Info: NONBONDED TABLE SIZE: 705 POINTS
TCL: Setting parameter alchLambda2 to 0.4499999999999996
Info: NONBONDED TABLE R-SQUARED SPACING: 0.0625
Info: NONBONDED TABLE SIZE: 705 POINTS
TCL: Running for 1500000 steps
ETITLE: TS BOND ANGLE DIHED IMPRP ELECT VDW BOUNDARY MISC KINETIC TOTAL TEMP POTENTIAL TOTALAVG TEMPAVG PRESSURE GPRESSURE VOLUME PRESSAVG GPRESSAVG
ENERGY: 0 2.2790 4.0434 2.5292 0.0000 -10628.5184 1334.1564 0.0000 0.0000 1745.0511 -7540.4593 296.9732 -9285.5104 -7540.4593 296.9732 -791.0003 -709.7575 30030.4558 -791.0003 -709.7575
ENERGY: 300000 3.2690 1.0720 0.9301 0.0000 -10664.0235 1412.7301 0.0000 0.0000 1768.6650 -7477.3572 300.9918 -9246.0223 -7488.7051 298.4206 86.1578 110.3288 30057.4828 -293.6478 -254.9244
ENERGY: 600000 2.1507 3.4849 5.7625 0.0000 -10766.6681 1507.4362 0.0000 0.0000 1746.4811 -7501.3526 297.2165 -9247.8337 -7505.9044 298.4666 744.0797 763.1171 30129.5680 -40.4512 -2.9447
ENERGY: 900000 2.3723 1.5437 2.6185 0.0000 -10609.5551 1388.9557 0.0000 0.0000 1772.5849 -7441.4800 301.6589 -9214.0649 -7494.5761 299.9155 -15.2378 25.0367 30289.8959 -178.0791 -135.1309
ENERGY: 1200000 3.5688 3.9602 2.4257 0.0000 -10820.2503 1494.6810 0.0000 0.0000 1723.6027 -7592.0118 293.3231 -9315.6146 -7509.4669 299.0984 384.6968 480.8965 30172.3776 -107.0941 -62.8991
ENERGY: 1500000 1.2297 2.9811 1.6433 0.0000 -10782.7046 1460.2409 0.0000 0.0000 1751.1112 -7565.4983 298.0045 -9316.6095 -7516.7641 299.2429 -152.2886 -117.2380 30635.8129 -108.7414 -63.6170
TCL: Running FEP window  12: Lambda1 0.4499999999999996 Lambda2 0.39999999999999963 [dLambda -0.04999999999999999]
TCL: Setting parameter firsttimestep to 0
TCL: Setting parameter alchLambda to 0.4499999999999996
Info: NONBONDED TABLE R-SQUARED SPACING: 0.0625
Info: NONBONDED TABLE SIZE: 705 POINTS
TCL: Setting parameter alchLambda2 to 0.39999999999999963
Info: NONBONDED TABLE R-SQUARED SPACING: 0.0625
Info: NONBONDED TABLE SIZE: 705 POINTS
TCL: Running for 1500000 steps
ETITLE: TS BOND ANGLE DIHED IMPRP ELECT VDW BOUNDARY MISC KINETIC TOTAL TEMP POTENTIAL TOTALAVG TEMPAVG PRESSURE GPRESSURE VOLUME PRESSAVG GPRESSAVG
ENERGY: 0 1.2297 2.9811 1.6433 0.0000 -10782.7059 1460.2284 0.0000 0.0000 1750.2376 -7566.3857 297.8558 -9316.6234 -7566.3857 297.8558 -204.9519 -122.4776 30635.8129 -204.9519 -122.4776
ENERGY: 300000 0.6918 3.4176 5.1606 0.0000 -10645.9016 1390.7102 0.0000 0.0000 1729.0470 -7516.8743 294.2496 -9245.9214 -7524.3776 297.1358 -582.1349 -460.9106 30806.7132 -314.4212 -213.2322
ENERGY: 600000 3.2714 3.8413 2.8271 0.0000 -10707.8353 1481.8631 0.0000 0.0000 1752.4731 -7463.5591 298.2363 -9216.0323 -7514.9043 296.8534 564.7057 597.6778 30127.1866 -24.5674 45.7058
ENERGY: 900000 3.5351 2.1872 1.4587 0.0000 -10732.2334 1440.1835 0.0000 0.0000 1710.2403 -7574.6286 291.0491 -9284.8689 -7518.1699 297.6287 111.0167 127.1839 30022.2499 -47.3918 12.0740
ENERGY: 1200000 1.8427 2.8338 2.9111 0.0000 -10665.2281 1436.1169 0.0000 0.0000 1698.4521 -7523.0713 289.0429 -9221.5234 -7510.7375 297.1272 148.9859 164.8608 30238.3072 -27.5625 26.3803
ENERGY: 1500000 1.6704 1.0198 1.4864 0.0000 -10855.6494 1575.1357 0.0000 0.0000 1748.8171 -7527.5200 297.6141 -9276.3371 -7512.8216 297.6059 1255.2269 1363.9112 30052.1430 40.7519 98.6650
TCL: Running FEP window  13: Lambda1 0.39999999999999963 Lambda2 0.34999999999999964 [dLambda -0.04999999999999999]
TCL: Setting parameter firsttimestep to 0
TCL: Setting parameter alchLambda to 0.39999999999999963
Info: NONBONDED TABLE R-SQUARED SPACING: 0.0625
Info: NONBONDED TABLE SIZE: 705 POINTS
TCL: Setting parameter alchLambda2 to 0.34999999999999964
Info: NONBONDED TABLE R-SQUARED SPACING: 0.0625
Info: NONBONDED TABLE SIZE: 705 POINTS
TCL: Running for 1500000 steps
ETITLE: TS BOND ANGLE DIHED IMPRP ELECT VDW BOUNDARY MISC KINETIC TOTAL TEMP POTENTIAL TOTALAVG TEMPAVG PRESSURE GPRESSURE VOLUME PRESSAVG GPRESSAVG
ENERGY: 0 1.6704 1.0198 1.4864 0.0000 -10855.6495 1574.7351 0.0000 0.0000 1747.9628 -7528.7750 297.4687 -9276.7378 -7528.7750 297.4687 1265.7759 1351.5399 30052.1430 1265.7759 1351.5399
ENERGY: 300000 0.8149 4.6799 2.0953 0.0000 -10674.7710 1426.3557 0.0000 0.0000 1801.7190 -7439.1062 306.6169 -9240.8252 -7501.5652 301.2496 60.8683 84.0304 30494.4248 182.8792 248.9389
ENERGY: 600000 3.7895 3.1420 3.9757 0.0000 -10790.8253 1452.8427 0.0000 0.0000 1825.4363 -7501.6391 310.6531 -9327.0754 -7521.0615 299.6650 -222.3772 -162.6460 30596.8872 -9.5120 56.9933
ENERGY: 900000 1.3428 3.8502 6.9178 0.0000 -10702.8810 1418.8748 0.0000 0.0000 1758.1433 -7513.7522 299.2012 -9271.8956 -7533.3622 300.0433 23.4151 10.7668 29861.2197 41.9528 112.6264
ENERGY: 1200000 1.8468 3.0611 3.6094 0.0000 -10728.1507 1401.7164 0.0000 0.0000 1743.1791 -7574.7379 296.6546 -9317.9170 -7531.6294 299.9212 -227.9876 -258.8493 29992.5912 -5.2115 53.4440
ENERGY: 1500000 1.2938 1.0302 3.2636 0.0000 -10809.1330 1491.2227 0.0000 0.0000 1737.5627 -7574.7599 295.6988 -9312.3226 -7527.6392 300.6081 -34.8185 -50.8116 30765.8219 11.6673 70.8386
TCL: Running FEP window  14: Lambda1 0.34999999999999964 Lambda2 0.29999999999999966 [dLambda -0.04999999999999999]
TCL: Setting parameter firsttimestep to 0
TCL: Setting parameter alchLambda to 0.34999999999999964
Info: NONBONDED TABLE R-SQUARED SPACING: 0.0625
Info: NONBONDED TABLE SIZE: 705 POINTS
TCL: Setting parameter alchLambda2 to 0.29999999999999966
Info: NONBONDED TABLE R-SQUARED SPACING: 0.0625
Info: NONBONDED TABLE SIZE: 705 POINTS
TCL: Running for 1500000 steps
ETITLE: TS BOND ANGLE DIHED IMPRP ELECT VDW BOUNDARY MISC KINETIC TOTAL TEMP POTENTIAL TOTALAVG TEMPAVG PRESSURE GPRESSURE VOLUME PRESSAVG GPRESSAVG
ENERGY: 0 1.2938 1.0302 3.2636 0.0000 -10809.1333 1491.3287 0.0000 0.0000 1736.7026 -7575.5143 295.5524 -9312.2169 -7575.5143 295.5524 -142.6612 -53.5774 30765.8219 -142.6612 -53.5774
ENERGY: 300000 1.8363 2.4168 1.0406 0.0000 -10594.0218 1375.1593 0.0000 0.0000 1772.5252 -7441.0436 301.6487 -9213.5688 -7503.9616 301.5537 -349.2613 -292.0014 30361.7209 -289.1722 -221.1660
ENERGY: 600000 1.7278 2.6016 4.2664 0.0000 -10683.3155 1384.6119 0.0000 0.0000 1819.1445 -7470.9634 309.5824 -9290.1079 -7500.0805 303.0149 -553.1885 -552.5649 30483.3294 -98.3548 -58.3284
ENERGY: 900000 2.0790 3.9614 2.1024 0.0000 -10786.5315 1445.3468 0.0000 0.0000 1768.5129 -7564.5289 300.9659 -9333.0419 -7490.2687 303.4445 -303.5148 -209.1066 30412.6034 -88.1907 -37.5364
ENERGY: 1200000 3.4303 1.6202 4.5394 0.0000 -10702.9262 1429.5320 0.0000 0.0000 1737.0091 -7526.7952 295.6046 -9263.8043 -7497.2361 301.5971 -101.9589 -34.2116 30273.2881 -104.5388 -46.3875
ENERGY: 1500000 3.1469 2.2244 4.2948 0.0000 -10666.7003 1431.5759 0.0000 0.0000 1739.8270 -7485.6313 296.0841 -9225.4583 -7487.3842 301.6884 -235.8144 -178.9790 30852.6378 -135.7260 -70.2984
TCL: Running FEP window  15: Lambda1 0.29999999999999966 Lambda2 0.24999999999999967 [dLambda -0.04999999999999999]
TCL: Setting parameter firsttimestep to 0
TCL: Setting parameter alchLambda to 0.29999999999999966
Info: NONBONDED TABLE R-SQUARED SPACING: 0.0625
Info: NONBONDED TABLE SIZE: 705 POINTS
TCL: Setting parameter alchLambda2 to 0.24999999999999967
Info: NONBONDED TABLE R-SQUARED SPACING: 0.0625
Info: NONBONDED TABLE SIZE: 705 POINTS
TCL: Running for 1500000 steps
ETITLE: TS BOND ANGLE DIHED IMPRP ELECT VDW BOUNDARY MISC KINETIC TOTAL TEMP POTENTIAL TOTALAVG TEMPAVG PRESSURE GPRESSURE VOLUME PRESSAVG GPRESSAVG
ENERGY: 0 3.1469 2.2244 4.2948 0.0000 -10666.7000 1431.8844 0.0000 0.0000 1738.9286 -7486.2208 295.9312 -9225.1494 -7486.2208 295.9312 -282.0788 -181.2889 30852.6378 -282.0788 -181.2889
ENERGY: 300000 1.2770 4.1439 2.7382 0.0000 -10711.2732 1423.1396 0.0000 0.0000 1762.7008 -7517.2737 299.9768 -9279.9745 -7521.4791 297.1630 126.3467 164.5983 30019.2170 -15.6664 38.3806
ENERGY: 600000 1.5502 2.7254 2.3678 0.0000 -10745.1741 1486.2711 0.0000 0.0000 1780.3337 -7471.9259 302.9776 -9252.2596 -7505.9199 299.0197 55.9133 124.6515 31111.4004 -146.7844 -102.2285
ENERGY: 900000 3.0551 3.2970 1.9269 0.0000 -10653.3646 1438.3662 0.0000 0.0000 1737.0121 -7469.7073 295.6051 -9206.7194 -7496.4261 300.1953 126.8613 133.5993 30535.1762 -75.3685 -40.4504
ENERGY: 1200000 1.7296 2.5579 3.6749 0.0000 -10718.0595 1463.3728 0.0000 0.0000 1774.9776 -7471.7468 302.0661 -9246.7244 -7508.9788 299.1003 241.3040 224.9972 30599.6683 -71.5904 -36.7262
ENERGY: 1500000 2.0158 2.6960 2.7079 0.0000 -10663.6500 1341.2789 0.0000 0.0000 1738.2717 -7576.6798 295.8194 -9314.9515 -7509.8244 298.4752 -877.9287 -820.7946 30332.5070 -99.1664 -54.5180
TCL: Running FEP window  16: Lambda1 0.24999999999999967 Lambda2 0.19999999999999968 [dLambda -0.04999999999999999]
TCL: Setting parameter firsttimestep to 0
TCL: Setting parameter alchLambda to 0.24999999999999967
Info: NONBONDED TABLE R-SQUARED SPACING: 0.0625
Info: NONBONDED TABLE SIZE: 705 POINTS
TCL: Setting parameter alchLambda2 to 0.19999999999999968
Info: NONBONDED TABLE R-SQUARED SPACING: 0.0625
Info: NONBONDED TABLE SIZE: 705 POINTS
TCL: Running for 1500000 steps
ETITLE: TS BOND ANGLE DIHED IMPRP ELECT VDW BOUNDARY MISC KINETIC TOTAL TEMP POTENTIAL TOTALAVG TEMPAVG PRESSURE GPRESSURE VOLUME PRESSAVG GPRESSAVG
ENERGY: 0 2.0158 2.6960 2.7079 0.0000 -10663.6503 1341.4879 0.0000 0.0000 1737.3855 -7577.3572 295.6686 -9314.7427 -7577.3572 295.6686 -906.5136 -823.5292 30332.5070 -906.5136 -823.5292
ENERGY: 300000 3.6677 2.0336 2.7437 0.0000 -10692.3220 1443.6317 0.0000 0.0000 1740.3327 -7499.9126 296.1702 -9240.2453 -7503.9355 300.4743 -155.0276 -24.6037 30576.8886 -53.7289 31.1131
ENERGY: 600000 1.8559 3.7828 4.5980 0.0000 -10804.4825 1452.9428 0.0000 0.0000 1736.1927 -7605.1102 295.4656 -9341.3029 -7510.9932 300.9189 -173.1243 -180.1883 30374.4877 -154.5171 -75.5479
ENERGY: 900000 2.4746 1.9336 4.0131 0.0000 -10900.3456 1572.5770 0.0000 0.0000 1758.6237 -7560.7235 299.2830 -9319.3472 -7498.6724 301.7637 1114.4562 1190.2753 30009.4198 -86.5594 -0.8947
ENERGY: 1200000 1.4877 4.2365 2.0201 0.0000 -10627.8344 1360.2386 0.0000 0.0000 1794.0825 -7465.7690 305.3174 -9259.8515 -7508.8002 300.5667 -606.0880 -538.2541 30231.9059 -70.4912 10.5295
ENERGY: 1500000 2.8330 3.7174 0.8075 0.0000 -10702.7056 1392.8935 0.0000 0.0000 1763.5457 -7538.9086 300.1206 -9302.4542 -7514.0315 300.2656 -349.6644 -294.1989 29998.8537 -57.6513 20.2651
TCL: Running FEP window  17: Lambda1 0.19999999999999968 Lambda2 0.1499999999999997 [dLambda -0.04999999999999999]
TCL: Setting parameter firsttimestep to 0
TCL: Setting parameter alchLambda to 0.19999999999999968
Info: NONBONDED TABLE R-SQUARED SPACING: 0.0625
Info: NONBONDED TABLE SIZE: 705 POINTS
TCL: Setting parameter alchLambda2 to 0.1499999999999997
Info: NONBONDED TABLE R-SQUARED SPACING: 0.0625
Info: NONBONDED TABLE SIZE: 705 POINTS
TCL: Running for 1500000 steps
ETITLE: TS BOND ANGLE DIHED IMPRP ELECT VDW BOUNDARY MISC KINETIC TOTAL TEMP POTENTIAL TOTALAVG TEMPAVG PRESSURE GPRESSURE VOLUME PRESSAVG GPRESSAVG
ENERGY: 0 2.8330 3.7174 0.8075 0.0000 -10702.7059 1392.7391 0.0000 0.0000 1762.6954 -7539.9136 299.9759 -9302.6090 -7539.9136 299.9759 -379.1293 -298.3030 29998.8537 -379.1293 -298.3030
ENERGY: 300000 1.5664 4.7276 3.1384 0.0000 -10730.9937 1387.6107 0.0000 0.0000 1744.2792 -7589.6714 296.8418 -9333.9506 -7536.3834 301.4347 -465.0722 -389.7907 30236.7095 -75.4423 11.7015
ENERGY: 600000 2.6865 3.1231 4.9251 0.0000 -10696.3150 1423.8498 0.0000 0.0000 1733.1055 -7528.6249 294.9403 -9261.7305 -7507.3104 302.3732 31.9637 109.4816 29965.2625 -122.5197 -53.0831
ENERGY: 900000 1.1358 1.1127 1.8867 0.0000 -10676.0638 1378.5269 0.0000 0.0000 1776.8872 -7516.5146 302.3910 -9293.4017 -7507.6253 301.7236 -245.6771 -134.3013 29646.0674 -114.9087 -49.9576
ENERGY: 1200000 3.4099 3.7938 3.2890 0.0000 -10690.2226 1404.4647 0.0000 0.0000 1788.2357 -7487.0295 304.3223 -9275.2652 -7506.1988 301.5569 -447.6798 -434.9673 30369.1255 -146.9199 -94.4639
ENERGY: 1500000 1.3358 2.6744 4.0227 0.0000 -10597.6980 1388.9488 0.0000 0.0000 1815.7272 -7384.9891 309.0008 -9200.7163 -7491.1908 302.4280 -274.1896 -197.7691 30713.2782 -134.0108 -76.1343
TCL: Running FEP window  18: Lambda1 0.1499999999999997 Lambda2 0.09999999999999969 [dLambda -0.05 ]
TCL: Setting parameter firsttimestep to 0
TCL: Setting parameter alchLambda to 0.1499999999999997
Info: NONBONDED TABLE R-SQUARED SPACING: 0.0625
Info: NONBONDED TABLE SIZE: 705 POINTS
TCL: Setting parameter alchLambda2 to 0.09999999999999969
Info: NONBONDED TABLE R-SQUARED SPACING: 0.0625
Info: NONBONDED TABLE SIZE: 705 POINTS
TCL: Running for 1500000 steps
ETITLE: TS BOND ANGLE DIHED IMPRP ELECT VDW BOUNDARY MISC KINETIC TOTAL TEMP POTENTIAL TOTALAVG TEMPAVG PRESSURE GPRESSURE VOLUME PRESSAVG GPRESSAVG
ENERGY: 0 1.3358 2.6744 4.0227 0.0000 -10597.6989 1388.7686 0.0000 0.0000 1814.8097 -7386.0877 308.8447 -9200.8973 -7386.0877 308.8447 -285.1478 -201.4545 30713.2782 -285.1478 -201.4545
ENERGY: 300000 3.4257 7.0845 3.7006 0.0000 -10622.0470 1331.6866 0.0000 0.0000 1790.7977 -7485.3519 304.7583 -9276.1496 -7481.0117 305.2427 -1060.9626 -996.2727 30673.0126 -35.2146 25.7099
ENERGY: 600000 3.0633 1.6654 2.3008 0.0000 -10568.0953 1377.5124 0.0000 0.0000 1760.7132 -7422.8402 299.6385 -9183.5533 -7498.1704 302.4096 -56.5009 -14.5757 29967.3101 112.8408 169.5097
ENERGY: 900000 4.2168 2.3883 6.8306 0.0000 -10632.3477 1389.5366 0.0000 0.0000 1799.5429 -7429.8324 306.2466 -9229.3753 -7489.2342 302.0773 -585.9237 -506.4306 30461.0691 23.5228 78.9572
ENERGY: 1200000 5.0573 3.1436 1.3841 0.0000 -10689.3184 1396.8833 0.0000 0.0000 1736.5044 -7546.3457 295.5187 -9282.8501 -7502.0360 301.1842 -762.4286 -730.9240 30864.5050 -9.0387 37.1984
ENERGY: 1500000 2.0559 2.4008 2.5107 0.0000 -10698.3759 1439.9784 0.0000 0.0000 1801.9242 -7449.5059 306.6518 -9251.4301 -7492.2116 300.9641 -106.0568 -30.0313 30565.7661 -46.5880 -1.2119
TCL: Running FEP window  19: Lambda1 0.09999999999999969 Lambda2 0.049999999999999684 [dLambda -0.05 ]
TCL: Setting parameter firsttimestep to 0
TCL: Setting parameter alchLambda to 0.09999999999999969
Info: NONBONDED TABLE R-SQUARED SPACING: 0.0625
Info: NONBONDED TABLE SIZE: 705 POINTS
TCL: Setting parameter alchLambda2 to 0.049999999999999684
Info: NONBONDED TABLE R-SQUARED SPACING: 0.0625
Info: NONBONDED TABLE SIZE: 705 POINTS
TCL: Running for 1500000 steps
ETITLE: TS BOND ANGLE DIHED IMPRP ELECT VDW BOUNDARY MISC KINETIC TOTAL TEMP POTENTIAL TOTALAVG TEMPAVG PRESSURE GPRESSURE VOLUME PRESSAVG GPRESSAVG
ENERGY: 0 2.0559 2.4008 2.5107 0.0000 -10698.3757 1440.1961 0.0000 0.0000 1801.0374 -7450.1747 306.5009 -9251.2121 -7450.1747 306.5009 -123.1618 -31.1121 30565.7661 -123.1618 -31.1121
ENERGY: 300000 2.2020 2.0045 1.8362 0.0000 -10823.3564 1528.9176 0.0000 0.0000 1774.7719 -7513.6243 302.0311 -9288.3962 -7500.7380 301.0075 692.7466 739.0047 30367.5946 -47.7511 24.6454
ENERGY: 600000 3.0322 2.3563 7.4267 0.0000 -10842.8603 1499.0214 0.0000 0.0000 1818.2572 -7512.7665 309.4314 -9331.0237 -7503.2961 304.1441 453.2053 527.7557 29959.2521 173.1699 248.2610
ENERGY: 900000 3.6846 4.7778 4.5330 0.0000 -10663.0723 1414.2764 0.0000 0.0000 1771.7075 -7464.0931 301.5096 -9235.8006 -7507.5587 302.5482 -272.2711 -236.8920 30632.1060 133.2173 203.5294
ENERGY: 1200000 3.4252 4.0278 3.0389 0.0000 -10584.6908 1336.4412 0.0000 0.0000 1704.7295 -7533.0282 290.1112 -9237.7577 -7517.4170 301.5265 -1056.5636 -959.6386 30641.1623 87.6389 158.4101
ENERGY: 1500000 2.4776 2.3593 3.4578 0.0000 -10754.0743 1434.7888 0.0000 0.0000 1763.4042 -7547.5866 300.0965 -9310.9909 -7525.5950 301.3712 -344.2969 -307.1319 30668.3497 40.3487 101.9032
TCL: Running FEP window  20: Lambda1 0.049999999999999684 Lambda2 0.0    [dLambda -0.049999999999999684]
TCL: Setting parameter firsttimestep to 0
TCL: Setting parameter alchLambda to 0.049999999999999684
Info: NONBONDED TABLE R-SQUARED SPACING: 0.0625
Info: NONBONDED TABLE SIZE: 705 POINTS
TCL: Setting parameter alchLambda2 to 0.0
Info: NONBONDED TABLE R-SQUARED SPACING: 0.0625
Info: NONBONDED TABLE SIZE: 705 POINTS
TCL: Running for 1500000 steps
ETITLE: TS BOND ANGLE DIHED IMPRP ELECT VDW BOUNDARY MISC KINETIC TOTAL TEMP POTENTIAL TOTALAVG TEMPAVG PRESSURE GPRESSURE VOLUME PRESSAVG GPRESSAVG
ENERGY: 0 2.4776 2.3593 3.4578 0.0000 -10754.0734 1434.2815 0.0000 0.0000 1762.5748 -7548.9225 299.9554 -9311.4972 -7548.9225 299.9554 -402.0886 -311.5689 30668.3497 -402.0886 -311.5689
ENERGY: 300000 2.5622 3.5482 3.9493 0.0000 -10703.3361 1426.1620 0.0000 0.0000 1775.3772 -7491.7373 302.1341 -9267.1145 -7526.5057 297.4736 133.5230 125.5500 29815.4527 -135.9911 -108.7278
ENERGY: 600000 3.4014 2.7153 1.9900 0.0000 -10701.3027 1368.2449 0.0000 0.0000 1786.7513 -7538.1998 304.0697 -9324.9511 -7497.7992 300.4795 -1009.3142 -896.6883 30767.3361 -290.5990 -237.8943
ENERGY: 900000 2.5583 2.6992 2.8582 0.0000 -10858.4859 1566.6935 0.0000 0.0000 1751.9229 -7531.7538 298.1426 -9283.6767 -7503.2317 300.2749 923.9747 1003.0617 29801.1114 -75.0060 -23.1960
ENERGY: 1200000 2.3701 0.8766 2.9963 0.0000 -10696.0208 1404.0868 0.0000 0.0000 1734.3805 -7551.3104 295.1572 -9285.6909 -7511.9678 299.5565 -156.9594 -126.4340 29963.8559 6.4839 61.1421
ENERGY: 1500000 2.5406 3.1357 2.9921 0.0000 -10644.9176 1384.6758 0.0000 0.0000 1719.3647 -7532.2086 292.6018 -9251.5732 -7517.0519 299.8459 -433.1674 -355.7857 30160.9757 -92.4187 -39.2641
TCL: Exiting due to exit command.
