Info: SIMULATION PARAMETERS:
Info: TIMESTEP               2
Info: NUMBER OF STEPS        0
Info: STEPS PER CYCLE        10
Info: PERIODIC CELL BASIS 1  30.8171 0 0
Info: PERIODIC CELL BASIS 2  0 32.0855 0
Info: PERIODIC CELL BASIS 3  0 0 30.5266
Info: PERIODIC CELL CENTER   0 0 0
Info: WRAPPING WATERS AROUND PERIODIC BOUNDARIES ON OUTPUT.
Info: WRAPPING ALL CLUSTERS AROUND PERIODIC BOUNDARIES ON OUTPUT.
Info: FIRST LDB TIMESTEP     50
Info: LAST LDB TIMESTEP     -1
Info: HOM BACKGROUND SCALING 1
Info: PME BACKGROUND SCALING 1
Info: MIN ATOMS PER PATCH    40
Info: EMPTY PATCH LOAD       40 ATOMS
Info: VELOCITY FILE          mobley_7099614_equil.vel
Info: CENTER OF MASS MOVING INITIALLY? NO
Info: DIELECTRIC             1
Info: EXCLUDE                SCALED ONE-FOUR
Info: 1-4 ELECTROSTATICS SCALED BY 0.833333
Info: MODIFIED 1-4 VDW PARAMETERS WILL BE USED
Info: DCD FILENAME           mobley_7099614_prod.dcd
Info: DCD FREQUENCY          100000
Info: DCD FIRST STEP         100000
Info: DCD FILE WILL CONTAIN UNIT CELL DATA
Info: XST FILENAME           mobley_7099614_prod.xst
Info: XST FREQUENCY          100000
Info: NO VELOCITY DCD OUTPUT
Info: NO FORCE DCD OUTPUT
Info: OUTPUT FILENAME        mobley_7099614_prod
Info: BINARY OUTPUT FILES WILL BE USED
Info: RESTART FILENAME       mobley_7099614_prod.restart
Info: RESTART FREQUENCY      100000
Info: BINARY RESTART FILES WILL BE USED
Info: CUTOFF                 9
Info: PAIRLIST DISTANCE      11
Info: PAIRLIST SHRINK RATE   0.01
Info: PAIRLIST GROW RATE     0.01
Info: PAIRLIST TRIGGER       0.3
Info: PAIRLISTS PER CYCLE    2
Info: PAIRLISTS ENABLED
Info: MARGIN                 2
Info: HYDROGEN GROUP CUTOFF  2.5
Info: PATCH DIMENSION        15.5
Info: ENERGY OUTPUT STEPS    100000
Info: ENERGY EVALUATION STEPS    100000
Info: OUTPUT ENERGY PRECISION 4
Info: CROSSTERM ENERGY INCLUDED IN DIHEDRAL
Info: TIMING OUTPUT STEPS    1000000
Info: PRESSURE OUTPUT STEPS  100000
Info: ALCHEMICAL FEP ON
Info: FEP CURRENT LAMBDA VALUE     0
Info: FEP COMPARISON LAMBDA VALUE  0.05
Info: FEP INTRA-ALCHEMICAL NON-BONDED INTERACTIONS WILL BE RETAINED
Info: FEP INTRA-ALCHEMICAL BONDED INTERACTIONS WILL BE RETAINED
Info: FEP VDW SHIFTING COEFFICIENT 5
Info: FEP ELEC. ACTIVE FOR ANNIHILATED PARTICLES BETWEEN LAMBDA = 0 AND LAMBDA = 0.5
Info: FEP ELEC. ACTIVE FOR EXNIHILATED PARTICLES BETWEEN LAMBDA = 0.5 AND LAMBDA = 1
Info: FEP VDW ACTIVE FOR ANNIHILATED PARTICLES BETWEEN LAMBDA = 0 AND LAMBDA = 1
Info: FEP VDW ACTIVE FOR EXNIHILATED PARTICLES BETWEEN LAMBDA = 0 AND LAMBDA = 1
Info: FEP BOND ACTIVE FOR ANNIHILATED PARTICLES BETWEEN LAMBDA = 1 AND LAMBDA = 1
Info: FEP BOND ACTIVE FOR EXNIHILATED PARTICLES BETWEEN LAMBDA = 0 AND LAMBDA = 0
Info: LANGEVIN DYNAMICS ACTIVE
Info: LANGEVIN TEMPERATURE   300
Info: LANGEVIN USING BBK INTEGRATOR
Info: LANGEVIN DAMPING COEFFICIENT IS 1 INVERSE PS
Info: LANGEVIN DYNAMICS APPLIED TO HYDROGENS
Info: LANGEVIN PISTON PRESSURE CONTROL ACTIVE
Info:        TARGET PRESSURE IS 1.01325 BAR
Info:     OSCILLATION PERIOD IS 50 FS
Info:             DECAY TIME IS 25 FS
Info:     PISTON TEMPERATURE IS 300 K
Info:       PRESSURE CONTROL IS GROUP-BASED
Info:    INITIAL STRAIN RATE IS 0.000387123 0.000387123 0.000387123
Info:       CELL FLUCTUATION IS ISOTROPIC
Info: PARTICLE MESH EWALD (PME) ACTIVE
Info: PME TOLERANCE               1e-06
Info: PME EWALD COEFFICIENT       0.348832
Info: PME INTERPOLATION ORDER     4
Info: PME GRID DIMENSIONS         32 36 32
Info: PME MAXIMUM GRID SPACING    1
Info: PME CALCULATION WILL BE PERFORMED ON GPU
Info: FULL ELECTROSTATIC EVALUATION FREQUENCY      2
Info: USING VERLET I (r-RESPA) MTS SCHEME.
Info: C1 SPLITTING OF LONG RANGE ELECTROSTATICS
Info: PLACING ATOMS IN PATCHES BY HYDROGEN GROUPS
Info: RIGID BONDS TO HYDROGEN : ALL
Info:         ERROR TOLERANCE : 1e-08
Info:          MAX ITERATIONS : 100
Info: RIGID WATER USING SETTLE ALGORITHM
Info: RANDOM NUMBER SEED     1743673307
Info: USE HYDROGEN BONDS?    NO
Info: Using AMBER format force field!
Info: AMBER PARM FILE        mobley_7099614.prmtop
Info: COORDINATE PDB         mobley_7099614.pdb
Info: Exclusions will be read from PARM file!
Info: SCNB (VDW SCALING)     2
Info: USING ARITHMETIC MEAN TO COMBINE L-J SIGMA PARAMETERS
Info: BINARY COORDINATES     mobley_7099614_equil.coor
Info: SUMMARY OF PARAMETERS:
Info: 7 BONDS
Info: 8 ANGLES
Info:   8 HARMONIC
Info:   0 COSINE-BASED
Info: 3 DIHEDRAL
Info: 0 IMPROPER
Info: 0 CROSSTERM
Info: 0 VDW
Info: 28 VDW_PAIRS
Info: 0 NBTHOLE_PAIRS
Info: To read alchdata from file: mobley_7099614.pdb
Info: To read alchflag data from column: 5
Info: STRUCTURE SUMMARY:
Info: 2904 ATOMS
Info: 2903 BONDS
Info: 12 ANGLES
Info: 12 DIHEDRALS
Info: 0 IMPROPERS
Info: 0 CROSSTERMS
Info: 2925 EXCLUSIONS
Info: 2900 RIGID BONDS
Info: ALCH: 0 ATOMS TO DISAPPEAR IN FINAL STATE
Info: ALCH: 9 ATOMS TO APPEAR IN FINAL STATE
Info: 5812 DEGREES OF FREEDOM
Info: 969 HYDROGEN GROUPS
Info: 3 ATOMS IN LARGEST HYDROGEN GROUP
Info: 969 MIGRATION GROUPS
Info: 3 ATOMS IN LARGEST MIGRATION GROUP
Info: TOTAL MASS = 17462 amu
Info: TOTAL CHARGE = -7.45058e-09 e
Info: MASS DENSITY = 0.960667 g/cm^3
Info: ATOM DENSITY = 0.0962093 atoms/A^3
Info: ADDED 0 IMPLICIT EXCLUSIONS
Info: NONBONDED TABLE R-SQUARED SPACING: 0.0625
Info: NONBONDED TABLE SIZE: 705 POINTS
Info: REMOVING COM VELOCITY 0.0600044 0.053361 -0.0539649
Info: Use 3D box decompostion in PME FFT.
Info: Updated CUDA force table with 4096 elements.
Info: Updated CUDA LJ table with 7 x 7 elements.
Info: Found 12 unique exclusion lists needing 16 bytes
TCL: Running for 1500000 steps
ETITLE: TS BOND ANGLE DIHED IMPRP ELECT VDW BOUNDARY MISC KINETIC TOTAL TEMP POTENTIAL TOTALAVG TEMPAVG PRESSURE GPRESSURE VOLUME PRESSAVG GPRESSAVG
ENERGY: 0 0.8198 2.8250 1.3780 0.0000 -10570.1277 1524.1224 0.0000 0.0000 1715.6859 -7325.2965 297.0999 -9040.9824 -7325.2965 297.0999 752.6290 830.0735 30184.1799 752.6290 830.0735
ENERGY: 300000 1.6841 0.9314 0.1335 0.0000 -10400.9842 1271.3725 0.0000 0.0000 1719.7440 -7407.1188 297.8027 -9126.8627 -7361.5726 299.0253 -1286.3418 -1247.9923 29985.4462 30.1021 90.8486
ENERGY: 600000 1.1683 2.0831 1.0127 0.0000 -10681.3248 1514.7293 0.0000 0.0000 1729.4426 -7432.8887 299.4821 -9162.3313 -7374.0548 299.2609 782.6597 819.6683 29200.1452 153.5725 209.6957
ENERGY: 900000 0.7941 4.0056 0.1107 0.0000 -10510.4478 1401.8831 0.0000 0.0000 1754.2463 -7349.4079 303.7773 -9103.6542 -7375.1821 299.7394 33.1586 36.5357 29725.6366 203.3698 253.1607
ENERGY: 1200000 0.6904 4.0001 0.4175 0.0000 -10616.0237 1465.8341 0.0000 0.0000 1761.1514 -7383.9301 304.9731 -9145.0815 -7370.4494 300.4935 481.7060 557.9041 29318.8336 232.4728 287.7976
ENERGY: 1500000 0.5446 3.8278 2.3448 0.0000 -10719.6904 1521.9547 0.0000 0.0000 1738.6855 -7452.3331 301.0827 -9191.0186 -7378.8916 300.2411 696.6412 716.2677 29485.8688 142.9380 193.9068
TCL: Running FEP window   2: Lambda1 0.05   Lambda2 0.1    [dLambda 0.05  ]
TCL: Setting parameter firsttimestep to 0
TCL: Setting parameter alchLambda to 0.05
Info: NONBONDED TABLE R-SQUARED SPACING: 0.0625
Info: NONBONDED TABLE SIZE: 705 POINTS
TCL: Setting parameter alchLambda2 to 0.1
Info: NONBONDED TABLE R-SQUARED SPACING: 0.0625
Info: NONBONDED TABLE SIZE: 705 POINTS
TCL: Running for 1500000 steps
ETITLE: TS BOND ANGLE DIHED IMPRP ELECT VDW BOUNDARY MISC KINETIC TOTAL TEMP POTENTIAL TOTALAVG TEMPAVG PRESSURE GPRESSURE VOLUME PRESSAVG GPRESSAVG
ENERGY: 0 0.5446 3.8278 2.3448 0.0000 -10719.6897 1524.1406 0.0000 0.0000 1737.7990 -7451.0330 300.9292 -9188.8320 -7451.0330 300.9292 635.5226 722.1288 29485.8688 635.5226 722.1288
ENERGY: 300000 0.2444 1.9286 0.2067 0.0000 -10477.0793 1371.6546 0.0000 0.0000 1711.5585 -7391.4864 296.3852 -9103.0449 -7379.7238 299.6976 -665.7992 -605.2259 30387.8503 189.5975 240.7809
ENERGY: 600000 0.9122 2.7933 0.3266 0.0000 -10491.7524 1352.6271 0.0000 0.0000 1743.1235 -7391.9697 301.8512 -9135.0932 -7383.0282 300.0652 -983.3053 -888.6578 30562.7573 -223.8641 -161.3099
ENERGY: 900000 2.6986 5.0603 0.5393 0.0000 -10532.9959 1416.7976 0.0000 0.0000 1730.4857 -7377.4144 299.6628 -9107.9001 -7389.0848 300.0358 -211.5674 -117.8499 30138.4704 -288.2542 -221.6824
ENERGY: 1200000 0.3086 5.0793 0.5252 0.0000 -10360.6564 1300.4231 0.0000 0.0000 1706.4479 -7347.8722 295.5002 -9054.3201 -7377.4446 298.8213 -912.5097 -836.1308 29835.3176 -332.9037 -256.8031
ENERGY: 1500000 0.9572 3.0656 3.7185 0.0000 -10292.4544 1255.3291 0.0000 0.0000 1708.7740 -7320.6100 295.9030 -9029.3840 -7373.6244 298.9120 -1317.1347 -1253.1045 30300.5891 -424.3190 -347.3311
TCL: Running FEP window   3: Lambda1 0.1    Lambda2 0.15000000000000002 [dLambda 0.05000000000000002]
TCL: Setting parameter firsttimestep to 0
TCL: Setting parameter alchLambda to 0.1
Info: NONBONDED TABLE R-SQUARED SPACING: 0.0625
Info: NONBONDED TABLE SIZE: 705 POINTS
TCL: Setting parameter alchLambda2 to 0.15000000000000002
Info: NONBONDED TABLE R-SQUARED SPACING: 0.0625
Info: NONBONDED TABLE SIZE: 705 POINTS
TCL: Running for 1500000 steps
ETITLE: TS BOND ANGLE DIHED IMPRP ELECT VDW BOUNDARY MISC KINETIC TOTAL TEMP POTENTIAL TOTALAVG TEMPAVG PRESSURE GPRESSURE VOLUME PRESSAVG GPRESSAVG
ENERGY: 0 0.9572 3.0656 3.7185 0.0000 -10292.4556 1256.6824 0.0000 0.0000 1707.9090 -7320.1229 295.7532 -9028.0319 -7320.1229 295.7532 -1330.6537 -1245.1214 30300.5891 -1330.6537 -1245.1214
ENERGY: 300000 1.0105 2.4113 0.4534 0.0000 -10624.7179 1527.4038 0.0000 0.0000 1700.6079 -7392.8310 294.4889 -9093.4389 -7339.1636 299.7321 897.8839 981.1924 29702.6122 -43.0053 27.4757
ENERGY: 600000 2.6559 2.9389 1.7887 0.0000 -10600.4974 1453.2618 0.0000 0.0000 1758.8408 -7381.0113 304.5729 -9139.8522 -7350.8549 301.9252 -97.9722 12.7623 30307.3614 -50.0101 20.0274
ENERGY: 900000 0.2093 2.4818 0.4314 0.0000 -10744.9379 1571.3846 0.0000 0.0000 1781.9328 -7388.4981 308.5717 -9170.4309 -7351.7245 302.3861 1149.6798 1258.7935 29499.4191 -5.5219 68.8033
ENERGY: 1200000 0.4303 2.2774 0.7006 0.0000 -10695.1379 1521.9686 0.0000 0.0000 1723.4391 -7446.3218 298.4425 -9169.7609 -7355.8666 301.8897 498.7072 664.8437 29701.9822 71.8800 145.1836
ENERGY: 1500000 0.9107 2.3667 0.9973 0.0000 -10645.8119 1476.2287 0.0000 0.0000 1773.5032 -7391.8052 307.1120 -9165.3085 -7365.3192 301.6938 180.2979 251.9623 29920.5538 53.8879 128.9245
TCL: Running FEP window   4: Lambda1 0.15000000000000002 Lambda2 0.2    [dLambda 0.04999999999999999]
TCL: Setting parameter firsttimestep to 0
TCL: Setting parameter alchLambda to 0.15000000000000002
Info: NONBONDED TABLE R-SQUARED SPACING: 0.0625
Info: NONBONDED TABLE SIZE: 705 POINTS
TCL: Setting parameter alchLambda2 to 0.2
Info: NONBONDED TABLE R-SQUARED SPACING: 0.0625
Info: NONBONDED TABLE SIZE: 705 POINTS
TCL: Running for 1500000 steps
ETITLE: TS BOND ANGLE DIHED IMPRP ELECT VDW BOUNDARY MISC KINETIC TOTAL TEMP POTENTIAL TOTALAVG TEMPAVG PRESSURE GPRESSURE VOLUME PRESSAVG GPRESSAVG
ENERGY: 0 0.9107 2.3667 0.9973 0.0000 -10645.8124 1476.9751 0.0000 0.0000 1772.6435 -7391.9190 306.9631 -9164.5625 -7391.9190 306.9631 162.4771 257.5513 29920.5538 162.4771 257.5513
ENERGY: 300000 0.9579 5.7486 1.9647 0.0000 -10531.9415 1389.2087 0.0000 0.0000 1712.8519 -7421.2097 296.6092 -9134.0617 -7394.8420 302.0135 -64.9238 10.3943 29342.7070 -82.7804 9.0952
ENERGY: 600000 2.5352 2.8361 0.5412 0.0000 -10443.5243 1354.4638 0.0000 0.0000 1707.7918 -7375.3561 295.7329 -9083.1479 -7384.7093 301.5957 -524.0143 -476.3041 29813.7603 -253.1537 -168.9923
ENERGY: 900000 0.6438 1.4553 1.5205 0.0000 -10767.1858 1527.3738 0.0000 0.0000 1768.7402 -7467.4522 306.2872 -9236.1924 -7382.0878 302.2526 901.0614 911.4707 29249.2683 -105.5391 -31.6488
ENERGY: 1200000 0.3613 3.4689 0.2706 0.0000 -10552.2057 1378.9288 0.0000 0.0000 1723.8742 -7445.3020 298.5179 -9169.1762 -7389.9889 301.6904 -605.6048 -573.1541 30344.0434 -91.0236 -24.9313
ENERGY: 1500000 1.4896 6.7227 4.3706 0.0000 -10498.6585 1390.4051 0.0000 0.0000 1770.1241 -7325.5463 306.5268 -9095.6704 -7390.3694 301.8879 -185.1418 -172.3698 29983.8824 -140.2636 -76.4489
TCL: Running FEP window   5: Lambda1 0.2    Lambda2 0.25   [dLambda 0.04999999999999999]
TCL: Setting parameter firsttimestep to 0
TCL: Setting parameter alchLambda to 0.2
Info: NONBONDED TABLE R-SQUARED SPACING: 0.0625
Info: NONBONDED TABLE SIZE: 705 POINTS
TCL: Setting parameter alchLambda2 to 0.25
Info: NONBONDED TABLE R-SQUARED SPACING: 0.0625
Info: NONBONDED TABLE SIZE: 705 POINTS
TCL: Running for 1500000 steps
ETITLE: TS BOND ANGLE DIHED IMPRP ELECT VDW BOUNDARY MISC KINETIC TOTAL TEMP POTENTIAL TOTALAVG TEMPAVG PRESSURE GPRESSURE VOLUME PRESSAVG GPRESSAVG
ENERGY: 0 1.4896 6.7227 4.3706 0.0000 -10498.6593 1390.5910 0.0000 0.0000 1769.2703 -7326.2151 306.3790 -9095.4853 -7326.2151 306.3790 -264.2766 -173.0111 29983.8824 -264.2766 -173.0111
ENERGY: 300000 0.6889 1.2345 1.4593 0.0000 -10503.2725 1338.4566 0.0000 0.0000 1775.0937 -7386.3396 307.3874 -9161.4333 -7384.3059 304.4117 -914.6369 -765.5370 29877.7583 -257.4023 -167.2650
ENERGY: 600000 0.3440 4.3820 0.0429 0.0000 -10626.5102 1507.8305 0.0000 0.0000 1724.5958 -7389.3149 298.6428 -9113.9108 -7373.9475 303.0811 669.5790 690.3814 29655.0083 -226.3025 -154.8551
ENERGY: 900000 0.5843 4.0215 0.4678 0.0000 -10542.1964 1398.5773 0.0000 0.0000 1761.3520 -7377.1935 305.0078 -9138.5454 -7379.5469 302.7501 -211.4399 -203.4101 29770.6459 -163.4060 -88.5250
ENERGY: 1200000 0.3655 4.0037 1.5776 0.0000 -10564.1936 1438.3187 0.0000 0.0000 1713.2165 -7406.7115 296.6723 -9119.9281 -7381.5433 301.5939 140.1283 154.5217 29870.2747 -115.9497 -40.7969
ENERGY: 1500000 0.0944 2.9090 0.0621 0.0000 -10563.8501 1472.5583 0.0000 0.0000 1751.2593 -7336.9670 303.2601 -9088.2263 -7370.1449 302.1156 686.5042 733.3236 29480.1016 6.3784 79.9491
TCL: Running FEP window   6: Lambda1 0.25   Lambda2 0.3    [dLambda 0.04999999999999999]
TCL: Setting parameter firsttimestep to 0
TCL: Setting parameter alchLambda to 0.25
Info: NONBONDED TABLE R-SQUARED SPACING: 0.0625
Info: NONBONDED TABLE SIZE: 705 POINTS
TCL: Setting parameter alchLambda2 to 0.3
Info: NONBONDED TABLE R-SQUARED SPACING: 0.0625
Info: NONBONDED TABLE SIZE: 705 POINTS
TCL: Running for 1500000 steps
ETITLE: TS BOND ANGLE DIHED IMPRP ELECT VDW BOUNDARY MISC KINETIC TOTAL TEMP POTENTIAL TOTALAVG TEMPAVG PRESSURE GPRESSURE VOLUME PRESSAVG GPRESSAVG
ENERGY: 0 0.0944 2.9090 0.0621 0.0000 -10563.8519 1473.7898 0.0000 0.0000 1750.3663 -7336.6304 303.1054 -9086.9966 -7336.6304 303.1054 659.6485 742.3485 29480.1016 659.6485 742.3485
ENERGY: 300000 1.1063 5.9155 2.1317 0.0000 -10676.0251 1431.9789 0.0000 0.0000 1706.9079 -7527.9849 295.5799 -9234.8927 -7402.6135 301.7111 -372.2769 -279.4963 29642.3824 0.8877 61.1591
ENERGY: 600000 0.0449 3.3169 0.5226 0.0000 -10574.4988 1457.4378 0.0000 0.0000 1715.6082 -7397.5684 297.0865 -9113.1767 -7406.5445 300.6079 401.9954 462.0284 29568.9491 -48.8888 15.5396
ENERGY: 900000 0.5219 3.4190 2.3875 0.0000 -10485.4256 1393.8434 0.0000 0.0000 1727.6290 -7357.6248 299.1681 -9085.2538 -7381.8453 300.9434 -253.4492 -219.2666 29980.0240 -69.4509 -10.7548
ENERGY: 1200000 0.7936 6.9524 0.2011 0.0000 -10535.4427 1379.4516 0.0000 0.0000 1759.6980 -7388.3459 304.7214 -9148.0439 -7374.5715 301.2036 -525.9715 -417.7428 29955.0372 -205.5181 -138.5962
ENERGY: 1500000 0.4719 0.9747 0.8693 0.0000 -10352.5003 1314.0830 0.0000 0.0000 1692.4534 -7343.6480 293.0768 -9036.1013 -7373.8995 300.3675 -941.2932 -857.8982 30492.5402 -247.5347 -185.1025
TCL: Running FEP window   7: Lambda1 0.3    Lambda2 0.35   [dLambda 0.04999999999999999]
TCL: Setting parameter firsttimestep to 0
TCL: Setting parameter alchLambda to 0.3
Info: NONBONDED TABLE R-SQUARED SPACING: 0.0625
Info: NONBONDED TABLE SIZE: 705 POINTS
TCL: Setting parameter alchLambda2 to 0.35
Info: NONBONDED TABLE R-SQUARED SPACING: 0.0625
Info: NONBONDED TABLE SIZE: 705 POINTS
TCL: Running for 1500000 steps
ETITLE: TS BOND ANGLE DIHED IMPRP ELECT VDW BOUNDARY MISC KINETIC TOTAL TEMP POTENTIAL TOTALAVG TEMPAVG PRESSURE GPRESSURE VOLUME PRESSAVG GPRESSAVG
ENERGY: 0 0.4719 0.9747 0.8693 0.0000 -10352.5002 1314.8184 0.0000 0.0000 1691.5850 -7343.7809 292.9265 -9035.3659 -7343.7809 292.9265 -929.4273 -849.4482 30492.5402 -929.4273 -849.4482
ENERGY: 300000 3.2143 0.8833 0.2283 0.0000 -10623.9568 1430.8182 0.0000 0.0000 1760.1143 -7428.6983 304.7935 -9188.8126 -7389.2976 298.2449 304.4492 353.7849 29352.6120 -294.4097 -201.7506
ENERGY: 600000 0.6198 3.2209 0.4109 0.0000 -10538.5525 1410.0474 0.0000 0.0000 1750.8609 -7373.3926 303.1911 -9124.2535 -7370.1539 299.3162 -251.7722 -160.0161 29946.0088 -343.5765 -262.1810
ENERGY: 900000 1.7896 2.2666 0.3035 0.0000 -10571.1324 1423.2431 0.0000 0.0000 1731.1196 -7412.4100 299.7725 -9143.5295 -7368.9477 300.6995 27.9843 95.3948 29538.6054 -171.6661 -96.8914
ENERGY: 1200000 1.2693 2.8835 0.6293 0.0000 -10662.1720 1483.5865 0.0000 0.0000 1722.1153 -7451.6883 298.2133 -9173.8035 -7372.1455 300.6240 229.6212 283.6572 29768.5269 3.0021 67.6354
ENERGY: 1500000 2.2758 1.4107 0.1306 0.0000 -10577.8485 1433.1191 0.0000 0.0000 1719.9567 -7420.9555 297.8395 -9140.9122 -7379.1136 299.4445 210.1617 202.9511 29892.9274 57.4911 119.0000
TCL: Running FEP window   8: Lambda1 0.35   Lambda2 0.39999999999999997 [dLambda 0.04999999999999999]
TCL: Setting parameter firsttimestep to 0
TCL: Setting parameter alchLambda to 0.35
Info: NONBONDED TABLE R-SQUARED SPACING: 0.0625
Info: NONBONDED TABLE SIZE: 705 POINTS
TCL: Setting parameter alchLambda2 to 0.39999999999999997
Info: NONBONDED TABLE R-SQUARED SPACING: 0.0625
Info: NONBONDED TABLE SIZE: 705 POINTS
TCL: Running for 1500000 steps
ETITLE: TS BOND ANGLE DIHED IMPRP ELECT VDW BOUNDARY MISC KINETIC TOTAL TEMP POTENTIAL TOTALAVG TEMPAVG PRESSURE GPRESSURE VOLUME PRESSAVG GPRESSAVG
ENERGY: 0 2.2758 1.4107 0.1306 0.0000 -10577.8476 1432.9032 0.0000 0.0000 1719.0752 -7422.0521 297.6869 -9141.1273 -7422.0521 297.6869 121.6459 202.5896 29892.9274 121.6459 202.5896
ENERGY: 300000 3.1715 3.4863 1.3405 0.0000 -10599.9210 1445.9464 0.0000 0.0000 1740.6860 -7405.2905 301.4291 -9145.9764 -7373.2321 301.6342 -143.8894 -100.3974 29985.9466 -243.1320 -155.5989
ENERGY: 600000 1.5883 1.2020 0.1587 0.0000 -10464.7624 1408.7398 0.0000 0.0000 1701.2458 -7351.8278 294.5994 -9053.0736 -7362.1921 300.7340 52.7619 64.8431 30083.0482 -246.6945 -171.7864
ENERGY: 900000 1.7808 3.4614 0.4618 0.0000 -10467.8732 1371.0527 0.0000 0.0000 1723.9698 -7367.1467 298.5344 -9091.1165 -7375.7431 299.6482 -466.4330 -421.9137 29884.1207 -282.0202 -211.7101
ENERGY: 1200000 0.2915 3.9077 1.7868 0.0000 -10460.4517 1349.6023 0.0000 0.0000 1709.5045 -7395.3587 296.0295 -9104.8632 -7374.0731 299.0361 -387.8389 -270.3388 29575.8810 -208.3294 -128.3770
ENERGY: 1500000 1.1756 1.7811 1.6670 0.0000 -10505.9763 1385.2817 0.0000 0.0000 1785.3434 -7330.7274 309.1623 -9116.0708 -7362.5196 299.5187 -474.2420 -436.6002 30369.3690 -171.8839 -96.0285
TCL: Running FEP window   9: Lambda1 0.39999999999999997 Lambda2 0.44999999999999996 [dLambda 0.04999999999999999]
TCL: Setting parameter firsttimestep to 0
TCL: Setting parameter alchLambda to 0.39999999999999997
Info: NONBONDED TABLE R-SQUARED SPACING: 0.0625
Info: NONBONDED TABLE SIZE: 705 POINTS
TCL: Setting parameter alchLambda2 to 0.44999999999999996
Info: NONBONDED TABLE R-SQUARED SPACING: 0.0625
Info: NONBONDED TABLE SIZE: 705 POINTS
TCL: Running for 1500000 steps
ETITLE: TS BOND ANGLE DIHED IMPRP ELECT VDW BOUNDARY MISC KINETIC TOTAL TEMP POTENTIAL TOTALAVG TEMPAVG PRESSURE GPRESSURE VOLUME PRESSAVG GPRESSAVG
ENERGY: 0 1.1756 1.7811 1.6670 0.0000 -10505.9758 1384.8944 0.0000 0.0000 1784.4695 -7331.9883 309.0110 -9116.4578 -7331.9883 309.0110 -520.9929 -439.5626 30369.3690 -520.9929 -439.5626
ENERGY: 300000 1.3510 2.3851 0.8397 0.0000 -10425.1019 1346.4886 0.0000 0.0000 1713.3916 -7360.6459 296.7026 -9074.0375 -7373.6375 301.2779 -739.0186 -661.9756 30094.8381 -319.4329 -250.7362
ENERGY: 600000 1.4871 2.2213 0.3337 0.0000 -10329.3301 1300.5461 0.0000 0.0000 1764.5425 -7260.1993 305.5603 -9024.7419 -7368.1998 301.1566 -906.5988 -803.1371 30198.5717 -292.2866 -207.1036
ENERGY: 900000 0.7463 0.8791 0.7939 0.0000 -10619.8563 1406.5737 0.0000 0.0000 1725.3787 -7485.4845 298.7784 -9210.8632 -7378.0010 302.3287 -254.2247 -192.1009 29589.0063 -207.6856 -131.6893
ENERGY: 1200000 1.0950 3.0236 0.6344 0.0000 -10479.4596 1381.6305 0.0000 0.0000 1762.6517 -7330.4243 305.2329 -9093.0760 -7376.8908 302.9513 -67.7265 30.3961 29305.0574 -121.1581 -48.6694
ENERGY: 1500000 0.7420 4.1823 0.4554 0.0000 -10477.5037 1380.9498 0.0000 0.0000 1762.9794 -7328.1949 305.2896 -9091.1743 -7372.3715 302.5424 -51.4661 -49.2049 29746.0175 -178.9796 -110.5810
TCL: Running FEP window  10: Lambda1 0.44999999999999996 Lambda2 0.49999999999999994 [dLambda 0.04999999999999999]
TCL: Setting parameter firsttimestep to 0
TCL: Setting parameter alchLambda to 0.44999999999999996
Info: NONBONDED TABLE R-SQUARED SPACING: 0.0625
Info: NONBONDED TABLE SIZE: 705 POINTS
TCL: Setting parameter alchLambda2 to 0.49999999999999994
Info: NONBONDED TABLE R-SQUARED SPACING: 0.0625
Info: NONBONDED TABLE SIZE: 705 POINTS
TCL: Running for 1500000 steps
ETITLE: TS BOND ANGLE DIHED IMPRP ELECT VDW BOUNDARY MISC KINETIC TOTAL TEMP POTENTIAL TOTALAVG TEMPAVG PRESSURE GPRESSURE VOLUME PRESSAVG GPRESSAVG
ENERGY: 0 0.7420 4.1823 0.4554 0.0000 -10477.5025 1381.2688 0.0000 0.0000 1762.1131 -7328.7410 305.1396 -9090.8541 -7328.7410 305.1396 -133.9438 -43.2093 29746.0175 -133.9438 -43.2093
ENERGY: 300000 0.5793 1.0028 0.8016 0.0000 -10720.1966 1579.6678 0.0000 0.0000 1718.6439 -7419.5011 297.6122 -9138.1450 -7377.5862 301.2985 1355.0648 1353.0775 29520.8312 106.2244 189.9196
ENERGY: 600000 0.4291 3.4160 0.4828 0.0000 -10632.7817 1485.6718 0.0000 0.0000 1756.5975 -7386.1845 304.1845 -9142.7820 -7394.1312 300.2366 234.3032 290.8364 30274.2130 14.4221 93.2948
ENERGY: 900000 0.8496 2.5721 1.0356 0.0000 -10485.0432 1368.5944 0.0000 0.0000 1763.3225 -7348.6689 305.3490 -9111.9914 -7379.0032 302.2294 -452.2816 -378.6048 29989.0115 -88.0735 -12.7624
ENERGY: 1200000 1.0677 1.6240 0.0423 0.0000 -10471.0691 1432.1683 0.0000 0.0000 1763.0092 -7273.1575 305.2948 -9036.1667 -7363.0848 303.0069 -68.0513 79.5180 30638.6724 -103.0627 -20.5211
ENERGY: 1500000 0.3266 2.3980 0.7282 0.0000 -10560.1993 1500.8155 0.0000 0.0000 1735.6718 -7320.2592 300.5608 -9055.9310 -7361.6805 302.9181 701.6752 786.5352 29869.0565 -43.8996 35.7195
TCL: Running FEP window  11: Lambda1 0.49999999999999994 Lambda2 0.5499999999999999 [dLambda 0.04999999999999999]
TCL: Setting parameter firsttimestep to 0
TCL: Setting parameter alchLambda to 0.49999999999999994
Info: NONBONDED TABLE R-SQUARED SPACING: 0.0625
Info: NONBONDED TABLE SIZE: 705 POINTS
TCL: Setting parameter alchLambda2 to 0.5499999999999999
Info: NONBONDED TABLE R-SQUARED SPACING: 0.0625
Info: NONBONDED TABLE SIZE: 705 POINTS
TCL: Running for 1500000 steps
ETITLE: TS BOND ANGLE DIHED IMPRP ELECT VDW BOUNDARY MISC KINETIC TOTAL TEMP POTENTIAL TOTALAVG TEMPAVG PRESSURE GPRESSURE VOLUME PRESSAVG GPRESSAVG
ENERGY: 0 0.3266 2.3980 0.7282 0.0000 -10560.2003 1501.3365 0.0000 0.0000 1734.7619 -7320.6491 300.4033 -9055.4110 -7320.6491 300.4033 702.6356 795.9034 29869.0565 702.6356 795.9034
ENERGY: 300000 0.6473 3.0035 0.6354 0.0000 -10432.8776 1380.1993 0.0000 0.0000 1658.1106 -7390.2815 287.1298 -9048.3921 -7395.2551 294.1282 -228.3532 -202.3160 30118.8528 519.4189 584.7921
ENERGY: 600000 0.2703 3.1872 1.8240 0.0000 -10453.7528 1348.2694 0.0000 0.0000 1742.0641 -7358.1377 301.6678 -9100.2018 -7392.1770 297.1782 -582.3739 -454.5548 29887.6906 24.3383 101.9735
ENERGY: 900000 1.1403 5.2294 1.1562 0.0000 -10521.6645 1401.9822 0.0000 0.0000 1751.7538 -7360.4026 303.3457 -9112.1564 -7378.3721 297.7926 8.1055 48.9761 29605.5125 -69.8206 1.3253
ENERGY: 1200000 0.7410 1.6972 0.3712 0.0000 -10552.3511 1388.5456 0.0000 0.0000 1756.4953 -7404.5008 304.1668 -9160.9961 -7380.9814 298.8987 -550.5397 -442.9903 30072.4260 -117.2252 -46.8985
ENERGY: 1500000 0.8675 2.8623 0.2792 0.0000 -10528.5949 1420.0549 0.0000 0.0000 1725.0069 -7379.5240 298.7140 -9104.5309 -7378.6229 299.3879 53.2099 93.8006 30204.0841 -155.0580 -86.8825
TCL: Running FEP window  12: Lambda1 0.5499999999999999 Lambda2 0.6    [dLambda 0.050000000000000044]
TCL: Setting parameter firsttimestep to 0
TCL: Setting parameter alchLambda to 0.5499999999999999
Info: NONBONDED TABLE R-SQUARED SPACING: 0.0625
Info: NONBONDED TABLE SIZE: 705 POINTS
TCL: Setting parameter alchLambda2 to 0.6
Info: NONBONDED TABLE R-SQUARED SPACING: 0.0625
Info: NONBONDED TABLE SIZE: 705 POINTS
TCL: Running for 1500000 steps
ETITLE: TS BOND ANGLE DIHED IMPRP ELECT VDW BOUNDARY MISC KINETIC TOTAL TEMP POTENTIAL TOTALAVG TEMPAVG PRESSURE GPRESSURE VOLUME PRESSAVG GPRESSAVG
ENERGY: 0 0.8675 2.8623 0.2792 0.0000 -10528.3406 1420.3244 0.0000 0.0000 1724.1322 -7379.8749 298.5626 -9104.0071 -7379.8749 298.5626 23.4166 102.5511 30204.0841 23.4166 102.5511
ENERGY: 300000 0.4193 1.2355 0.8958 0.0000 -10485.3820 1370.3193 0.0000 0.0000 1758.6084 -7353.9036 304.5327 -9112.5120 -7406.2348 301.7741 -485.0734 -424.1083 30059.8667 -77.2458 -12.0218
ENERGY: 600000 0.3815 4.0003 1.5557 0.0000 -10394.6294 1376.8195 0.0000 0.0000 1687.6164 -7324.2561 292.2392 -9011.8725 -7393.2556 299.7147 -236.3179 -155.0342 30034.9510 -136.7169 -68.7021
ENERGY: 900000 2.1891 3.3513 0.4170 0.0000 -10544.7600 1458.9877 0.0000 0.0000 1685.2547 -7394.5603 291.8303 -9079.8150 -7399.2459 298.5541 270.7783 327.7027 30017.5836 16.9765 81.3754
ENERGY: 1200000 0.1756 1.8721 0.1834 0.0000 -10584.0883 1481.6782 0.0000 0.0000 1718.3277 -7381.8514 297.5574 -9100.1791 -7395.5857 298.1583 572.8880 678.4728 29606.3031 131.1463 197.5161
ENERGY: 1500000 0.1057 2.5387 1.7813 0.0000 -10580.4589 1446.6503 0.0000 0.0000 1791.8589 -7337.5240 310.2906 -9129.3829 -7387.7142 299.2984 351.4642 359.3890 29782.4737 61.1068 131.3797
TCL: Running FEP window  13: Lambda1 0.6    Lambda2 0.65   [dLambda 0.050000000000000044]
TCL: Setting parameter firsttimestep to 0
TCL: Setting parameter alchLambda to 0.6
Info: NONBONDED TABLE R-SQUARED SPACING: 0.0625
Info: NONBONDED TABLE SIZE: 705 POINTS
TCL: Setting parameter alchLambda2 to 0.65
Info: NONBONDED TABLE R-SQUARED SPACING: 0.0625
Info: NONBONDED TABLE SIZE: 705 POINTS
TCL: Running for 1500000 steps
ETITLE: TS BOND ANGLE DIHED IMPRP ELECT VDW BOUNDARY MISC KINETIC TOTAL TEMP POTENTIAL TOTALAVG TEMPAVG PRESSURE GPRESSURE VOLUME PRESSAVG GPRESSAVG
ENERGY: 0 0.1057 2.5387 1.7813 0.0000 -10580.5018 1446.7981 0.0000 0.0000 1791.0024 -7338.2756 310.1423 -9129.2780 -7338.2756 310.1423 282.8577 364.2217 29782.4737 282.8577 364.2217
ENERGY: 300000 0.6771 3.6597 0.5769 0.0000 -10681.7496 1481.5834 0.0000 0.0000 1712.7340 -7482.5185 296.5888 -9195.2525 -7324.5060 304.9479 115.2395 179.6870 29736.1782 66.9869 133.3088
ENERGY: 600000 0.4824 4.1638 0.2218 0.0000 -10701.4356 1541.1337 0.0000 0.0000 1792.4754 -7362.9585 310.3973 -9155.4339 -7370.7193 302.2956 788.0634 857.0099 29950.2007 152.6767 211.0971
ENERGY: 900000 1.8674 4.6294 1.1175 0.0000 -10366.9787 1312.9426 0.0000 0.0000 1763.5082 -7282.9135 305.3812 -9046.4217 -7358.4921 301.3644 -563.3245 -489.2612 30206.3537 -44.0061 16.5153
ENERGY: 1200000 0.4155 1.4514 0.2194 0.0000 -10546.9597 1469.4198 0.0000 0.0000 1814.9997 -7260.4540 314.2978 -9075.4536 -7349.2842 301.7185 761.6190 820.6427 29719.0699 -85.1457 -22.8228
ENERGY: 1500000 1.2455 2.2380 0.5473 0.0000 -10534.0563 1404.9176 0.0000 0.0000 1782.4753 -7342.6327 308.6656 -9125.1080 -7360.0410 301.1173 -8.7196 79.4444 29688.7677 -39.0469 22.9588
TCL: Running FEP window  14: Lambda1 0.65   Lambda2 0.7000000000000001 [dLambda 0.050000000000000044]
TCL: Setting parameter firsttimestep to 0
TCL: Setting parameter alchLambda to 0.65
Info: NONBONDED TABLE R-SQUARED SPACING: 0.0625
Info: NONBONDED TABLE SIZE: 705 POINTS
TCL: Setting parameter alchLambda2 to 0.7000000000000001
Info: NONBONDED TABLE R-SQUARED SPACING: 0.0625
Info: NONBONDED TABLE SIZE: 705 POINTS
TCL: Running for 1500000 steps
ETITLE: TS BOND ANGLE DIHED IMPRP ELECT VDW BOUNDARY MISC KINETIC TOTAL TEMP POTENTIAL TOTALAVG TEMPAVG PRESSURE GPRESSURE VOLUME PRESSAVG GPRESSAVG
ENERGY: 0 1.2455 2.2380 0.5473 0.0000 -10533.9248 1404.5407 0.0000 0.0000 1781.5989 -7343.7544 308.5139 -9125.3533 -7343.7544 308.5139 -8.2404 79.6439 29688.7677 -8.2404 79.6439
ENERGY: 300000 0.7909 2.3707 0.4616 0.0000 -10458.1854 1385.9759 0.0000 0.0000 1717.7164 -7350.8699 297.4515 -9068.5863 -7399.6655 299.1742 -142.5365 -110.7662 30040.5544 125.5021 237.8163
ENERGY: 600000 0.7990 4.9395 1.0873 0.0000 -10374.6960 1335.9831 0.0000 0.0000 1738.7566 -7293.1305 301.0950 -9031.8871 -7379.2810 301.2944 -404.6307 -312.5160 30032.4018 -37.7354 57.8553
ENERGY: 900000 0.2278 2.3206 2.6583 0.0000 -10432.4627 1324.2843 0.0000 0.0000 1659.0984 -7443.8734 287.3009 -9102.9718 -7385.2068 299.1243 -889.0641 -802.2682 30320.4396 -146.2248 -60.7660
ENERGY: 1200000 1.1816 5.1946 0.8882 0.0000 -10448.0971 1378.2085 0.0000 0.0000 1761.2577 -7301.3665 304.9915 -9062.6242 -7391.9675 298.7083 -362.9825 -257.6601 30284.1068 -249.6794 -170.2438
ENERGY: 1500000 0.2547 3.3071 1.4279 0.0000 -10484.0305 1341.3890 0.0000 0.0000 1634.6079 -7503.0438 283.0599 -9137.6517 -7393.1201 298.5856 -887.2643 -846.2543 30234.8285 -304.3125 -228.3819
TCL: Running FEP window  15: Lambda1 0.7000000000000001 Lambda2 0.7500000000000001 [dLambda 0.050000000000000044]
TCL: Setting parameter firsttimestep to 0
TCL: Setting parameter alchLambda to 0.7000000000000001
Info: NONBONDED TABLE R-SQUARED SPACING: 0.0625
Info: NONBONDED TABLE SIZE: 705 POINTS
TCL: Setting parameter alchLambda2 to 0.7500000000000001
Info: NONBONDED TABLE R-SQUARED SPACING: 0.0625
Info: NONBONDED TABLE SIZE: 705 POINTS
TCL: Running for 1500000 steps
ETITLE: TS BOND ANGLE DIHED IMPRP ELECT VDW BOUNDARY MISC KINETIC TOTAL TEMP POTENTIAL TOTALAVG TEMPAVG PRESSURE GPRESSURE VOLUME PRESSAVG GPRESSAVG
ENERGY: 0 0.2547 3.3071 1.4279 0.0000 -10484.4130 1342.1790 0.0000 0.0000 1633.7535 -7503.4907 282.9120 -9137.2443 -7503.4907 282.9120 -930.9257 -835.7752 30234.8285 -930.9257 -835.7752
ENERGY: 300000 0.1892 2.8925 1.0825 0.0000 -10445.4436 1339.8130 0.0000 0.0000 1703.3665 -7398.0999 294.9666 -9101.4665 -7409.3765 292.5001 -555.1050 -518.8649 29889.7076 -330.8697 -291.6319
ENERGY: 600000 2.4143 0.8979 1.6479 0.0000 -10531.0978 1461.1993 0.0000 0.0000 1715.0382 -7349.9001 296.9878 -9064.9384 -7395.5076 295.5544 792.5897 813.7835 29663.1230 60.0391 112.0425
ENERGY: 900000 0.6230 1.8651 0.2370 0.0000 -10670.1251 1537.6413 0.0000 0.0000 1739.2677 -7390.4909 301.1835 -9129.7587 -7395.2145 296.0930 1106.9711 1192.7365 29455.4370 146.4931 202.7862
ENERGY: 1200000 1.1198 1.6675 0.3867 0.0000 -10546.2207 1432.9137 0.0000 0.0000 1680.5391 -7429.5939 291.0137 -9110.1330 -7396.5902 296.2490 -8.5665 16.0234 29754.8012 128.4961 173.3583
ENERGY: 1500000 0.4780 4.3709 0.0861 0.0000 -10611.6545 1463.5316 0.0000 0.0000 1789.6678 -7353.5201 309.9112 -9143.1880 -7399.9973 296.9534 206.7320 242.4793 30027.2277 144.0678 190.8321
TCL: Running FEP window  16: Lambda1 0.7500000000000001 Lambda2 0.8000000000000002 [dLambda 0.050000000000000044]
TCL: Setting parameter firsttimestep to 0
TCL: Setting parameter alchLambda to 0.7500000000000001
Info: NONBONDED TABLE R-SQUARED SPACING: 0.0625
Info: NONBONDED TABLE SIZE: 705 POINTS
TCL: Setting parameter alchLambda2 to 0.8000000000000002
Info: NONBONDED TABLE R-SQUARED SPACING: 0.0625
Info: NONBONDED TABLE SIZE: 705 POINTS
TCL: Running for 1500000 steps
ETITLE: TS BOND ANGLE DIHED IMPRP ELECT VDW BOUNDARY MISC KINETIC TOTAL TEMP POTENTIAL TOTALAVG TEMPAVG PRESSURE GPRESSURE VOLUME PRESSAVG GPRESSAVG
ENERGY: 0 0.4780 4.3709 0.0861 0.0000 -10611.7248 1463.1557 0.0000 0.0000 1788.8013 -7354.8328 309.7611 -9143.6341 -7354.8328 309.7611 159.6584 245.6575 30027.2277 159.6584 245.6575
ENERGY: 300000 0.8495 4.0172 0.4583 0.0000 -10463.3350 1360.2941 0.0000 0.0000 1700.7951 -7396.9208 294.5213 -9097.7159 -7384.6624 299.5961 -518.5433 -484.0971 30270.9515 -296.7145 -256.8450
ENERGY: 600000 0.4315 2.1211 0.4822 0.0000 -10542.7980 1428.1358 0.0000 0.0000 1715.0241 -7396.6032 296.9853 -9111.6274 -7400.7196 297.3638 -2.5813 104.0013 29876.6004 -110.5948 -53.8239
ENERGY: 900000 0.2207 2.6987 0.0925 0.0000 -10673.9996 1527.5435 0.0000 0.0000 1678.8339 -7464.6103 290.7184 -9143.4442 -7404.9062 297.2054 697.6587 687.8020 29985.7678 4.4605 56.2454
ENERGY: 1200000 0.3229 4.5629 2.1299 0.0000 -10505.9628 1402.9862 0.0000 0.0000 1755.3005 -7340.6603 303.9599 -9095.9608 -7394.3706 299.3919 17.2058 79.2149 29903.5267 -86.5646 -38.2343
ENERGY: 1500000 2.3226 3.5881 0.8934 0.0000 -10618.4859 1521.6536 0.0000 0.0000 1700.6184 -7389.4097 294.4907 -9090.0281 -7404.0042 298.3417 386.5508 452.7565 30390.9613 -76.0696 -26.8812
TCL: Running FEP window  17: Lambda1 0.8000000000000002 Lambda2 0.8500000000000002 [dLambda 0.050000000000000044]
TCL: Setting parameter firsttimestep to 0
TCL: Setting parameter alchLambda to 0.8000000000000002
Info: NONBONDED TABLE R-SQUARED SPACING: 0.0625
Info: NONBONDED TABLE SIZE: 705 POINTS
TCL: Setting parameter alchLambda2 to 0.8500000000000002
Info: NONBONDED TABLE R-SQUARED SPACING: 0.0625
Info: NONBONDED TABLE SIZE: 705 POINTS
TCL: Running for 1500000 steps
ETITLE: TS BOND ANGLE DIHED IMPRP ELECT VDW BOUNDARY MISC KINETIC TOTAL TEMP POTENTIAL TOTALAVG TEMPAVG PRESSURE GPRESSURE VOLUME PRESSAVG GPRESSAVG
ENERGY: 0 2.3226 3.5881 0.8934 0.0000 -10618.5058 1521.3799 0.0000 0.0000 1699.7463 -7390.5754 294.3397 -9090.3217 -7390.5754 294.3397 365.8078 453.4833 30390.9613 365.8078 453.4833
ENERGY: 300000 0.5983 3.6043 0.7276 0.0000 -10713.0082 1556.6470 0.0000 0.0000 1717.6754 -7433.7556 297.4445 -9151.4310 -7386.5739 298.4085 862.4477 940.8438 29887.9575 356.9176 436.8677
ENERGY: 600000 1.9384 4.0929 2.1996 0.0000 -10652.1335 1428.8455 0.0000 0.0000 1728.7562 -7486.3009 299.3633 -9215.0571 -7387.1220 299.0774 -278.1334 -144.5433 29869.2772 -116.4921 -35.1521
ENERGY: 900000 1.9102 0.9628 1.3624 0.0000 -10532.8574 1436.3916 0.0000 0.0000 1748.0051 -7344.2253 302.6965 -9092.2304 -7389.7442 299.8805 289.9129 368.7395 30065.3350 -59.3534 16.2011
ENERGY: 1200000 0.6534 4.1206 0.8445 0.0000 -10605.4615 1464.3129 0.0000 0.0000 1736.1862 -7399.3438 300.6499 -9135.5300 -7387.6501 300.4380 625.2021 634.1688 29443.8780 7.9266 81.2749
ENERGY: 1500000 2.1729 1.8539 0.2469 0.0000 -10545.3122 1443.9738 0.0000 0.0000 1733.1398 -7363.9248 300.1224 -9097.0646 -7387.6519 300.1389 57.3180 136.8666 29965.0575 69.7741 141.1984
TCL: Running FEP window  18: Lambda1 0.8500000000000002 Lambda2 0.9000000000000002 [dLambda 0.050000000000000044]
TCL: Setting parameter firsttimestep to 0
TCL: Setting parameter alchLambda to 0.8500000000000002
Info: NONBONDED TABLE R-SQUARED SPACING: 0.0625
Info: NONBONDED TABLE SIZE: 705 POINTS
TCL: Setting parameter alchLambda2 to 0.9000000000000002
Info: NONBONDED TABLE R-SQUARED SPACING: 0.0625
Info: NONBONDED TABLE SIZE: 705 POINTS
TCL: Running for 1500000 steps
ETITLE: TS BOND ANGLE DIHED IMPRP ELECT VDW BOUNDARY MISC KINETIC TOTAL TEMP POTENTIAL TOTALAVG TEMPAVG PRESSURE GPRESSURE VOLUME PRESSAVG GPRESSAVG
ENERGY: 0 2.1729 1.8539 0.2469 0.0000 -10545.5425 1444.1425 0.0000 0.0000 1732.2765 -7364.8497 299.9729 -9097.1262 -7364.8497 299.9729 64.4376 141.5799 29965.0575 64.4376 141.5799
ENERGY: 300000 0.0471 6.2399 0.1677 0.0000 -10716.5643 1559.2115 0.0000 0.0000 1694.0904 -7456.8077 293.3603 -9150.8981 -7383.4411 300.4228 1182.6290 1247.9817 29590.8916 429.8034 495.1640
ENERGY: 600000 0.2087 1.4452 0.8096 0.0000 -10562.9890 1460.9883 0.0000 0.0000 1734.2877 -7365.2496 300.3212 -9099.5374 -7380.7263 299.6061 221.4778 312.1007 29994.1062 187.1254 257.9221
ENERGY: 900000 2.1405 3.4445 1.8745 0.0000 -10429.3284 1351.2248 0.0000 0.0000 1751.9984 -7318.6457 303.3881 -9070.6441 -7386.3535 300.1449 -495.5813 -454.7798 29991.5455 83.8218 137.9023
ENERGY: 1200000 0.5865 2.0972 0.6846 0.0000 -10507.8434 1401.8922 0.0000 0.0000 1788.2323 -7314.3507 309.6626 -9102.5830 -7364.2026 302.2874 14.2085 -27.6229 30076.8697 12.7377 63.8157
ENERGY: 1500000 0.1968 4.0658 0.5433 0.0000 -10612.3026 1451.0476 0.0000 0.0000 1728.6321 -7427.8171 299.3418 -9156.4492 -7370.3725 300.9610 311.5039 359.6839 29456.4236 -25.2868 23.5121
TCL: Running FEP window  19: Lambda1 0.9000000000000002 Lambda2 0.9500000000000003 [dLambda 0.050000000000000044]
TCL: Setting parameter firsttimestep to 0
TCL: Setting parameter alchLambda to 0.9000000000000002
Info: NONBONDED TABLE R-SQUARED SPACING: 0.0625
Info: NONBONDED TABLE SIZE: 705 POINTS
TCL: Setting parameter alchLambda2 to 0.9500000000000003
Info: NONBONDED TABLE R-SQUARED SPACING: 0.0625
Info: NONBONDED TABLE SIZE: 705 POINTS
TCL: Running for 1500000 steps
ETITLE: TS BOND ANGLE DIHED IMPRP ELECT VDW BOUNDARY MISC KINETIC TOTAL TEMP POTENTIAL TOTALAVG TEMPAVG PRESSURE GPRESSURE VOLUME PRESSAVG GPRESSAVG
ENERGY: 0 0.1968 4.0658 0.5433 0.0000 -10612.7646 1451.0607 0.0000 0.0000 1727.7728 -7429.1252 299.1930 -9156.8980 -7429.1252 299.1930 278.6896 367.9882 29456.4236 278.6896 367.9882
ENERGY: 300000 0.9448 1.3492 0.2486 0.0000 -10514.0724 1449.7888 0.0000 0.0000 1716.1244 -7345.6165 297.1759 -9061.7409 -7420.9282 296.4084 262.7236 329.4949 30295.1120 492.1422 556.3562
ENERGY: 600000 0.3497 4.4126 0.1861 0.0000 -10492.0650 1374.1151 0.0000 0.0000 1737.8282 -7375.1733 300.9343 -9113.0015 -7395.9379 299.5792 -406.3661 -353.6682 30527.7338 78.7645 147.5189
ENERGY: 900000 1.7872 1.7509 1.0740 0.0000 -10569.6700 1436.1664 0.0000 0.0000 1659.4673 -7469.4241 287.3647 -9128.8915 -7400.1744 299.1704 -98.2304 -34.8669 30285.5505 43.0023 102.5558
ENERGY: 1200000 0.9379 2.8807 0.8222 0.0000 -10620.8966 1443.3179 0.0000 0.0000 1763.9203 -7409.0176 305.4525 -9172.9379 -7399.2000 299.3145 45.2655 139.9363 29644.8090 19.6983 86.2659
ENERGY: 1500000 1.9767 2.8015 1.3321 0.0000 -10454.3559 1362.5374 0.0000 0.0000 1748.4693 -7337.2389 302.7769 -9085.7082 -7398.1948 299.3798 -374.2537 -251.2966 29870.8493 -58.2549 8.8706
TCL: Running FEP window  20: Lambda1 0.9500000000000003 Lambda2 1.0    [dLambda 0.04999999999999971]
TCL: Setting parameter firsttimestep to 0
TCL: Setting parameter alchLambda to 0.9500000000000003
Info: NONBONDED TABLE R-SQUARED SPACING: 0.0625
Info: NONBONDED TABLE SIZE: 705 POINTS
TCL: Setting parameter alchLambda2 to 1.0
Info: NONBONDED TABLE R-SQUARED SPACING: 0.0625
Info: NONBONDED TABLE SIZE: 705 POINTS
TCL: Running for 1500000 steps
ETITLE: TS BOND ANGLE DIHED IMPRP ELECT VDW BOUNDARY MISC KINETIC TOTAL TEMP POTENTIAL TOTALAVG TEMPAVG PRESSURE GPRESSURE VOLUME PRESSAVG GPRESSAVG
ENERGY: 0 1.9767 2.8015 1.3321 0.0000 -10454.2623 1362.9979 0.0000 0.0000 1747.5843 -7337.5698 302.6237 -9085.1541 -7337.5698 302.6237 -333.6981 -233.2020 29870.8493 -333.6981 -233.2020
ENERGY: 300000 0.3666 2.3098 0.2636 0.0000 -10685.4583 1483.9285 0.0000 0.0000 1710.7187 -7487.8712 296.2398 -9198.5898 -7420.0551 299.6551 175.6482 308.5257 29985.8625 -59.8616 26.4364
ENERGY: 600000 2.8325 4.9661 0.7770 0.0000 -10638.3003 1488.6454 0.0000 0.0000 1826.4125 -7314.6668 316.2741 -9141.0794 -7386.2188 301.8456 507.8107 646.4922 29803.7179 138.3357 218.9938
ENERGY: 900000 0.8602 1.6563 0.2092 0.0000 -10581.5600 1427.3048 0.0000 0.0000 1761.8110 -7389.7186 305.0873 -9151.5296 -7391.5032 301.1546 428.5209 380.0877 29376.0691 103.3898 167.5980
ENERGY: 1200000 0.1835 3.8014 0.1174 0.0000 -10468.5757 1417.7237 0.0000 0.0000 1761.8567 -7284.8931 305.0952 -9046.7498 -7381.8770 302.2058 312.7742 292.8416 29891.4010 46.3133 108.3205
ENERGY: 1500000 0.1083 4.0472 1.9666 0.0000 -10459.2038 1384.1000 0.0000 0.0000 1725.7922 -7343.1895 298.8500 -9068.9817 -7382.3822 300.8693 -33.3494 -3.1291 29743.3295 39.2742 94.7238
TCL: Exiting due to exit command.
