Info: SIMULATION PARAMETERS:
Info: TIMESTEP               2
Info: NUMBER OF STEPS        0
Info: STEPS PER CYCLE        10
Info: PERIODIC CELL BASIS 1  31.213 0 0
Info: PERIODIC CELL BASIS 2  0 30.5653 0
Info: PERIODIC CELL BASIS 3  0 0 32.2952
Info: PERIODIC CELL CENTER   0 0 0
Info: WRAPPING WATERS AROUND PERIODIC BOUNDARIES ON OUTPUT.
Info: WRAPPING ALL CLUSTERS AROUND PERIODIC BOUNDARIES ON OUTPUT.
Info: FIRST LDB TIMESTEP     50
Info: LAST LDB TIMESTEP     -1
Info: HOM BACKGROUND SCALING 1
Info: PME BACKGROUND SCALING 1
Info: MIN ATOMS PER PATCH    40
Info: EMPTY PATCH LOAD       40 ATOMS
Info: VELOCITY FILE          mobley_628086_equil.vel
Info: CENTER OF MASS MOVING INITIALLY? NO
Info: DIELECTRIC             1
Info: EXCLUDE                SCALED ONE-FOUR
Info: 1-4 ELECTROSTATICS SCALED BY 0.833333
Info: MODIFIED 1-4 VDW PARAMETERS WILL BE USED
Info: DCD FILENAME           mobley_628086_prod.dcd
Info: DCD FREQUENCY          100000
Info: DCD FIRST STEP         100000
Info: DCD FILE WILL CONTAIN UNIT CELL DATA
Info: XST FILENAME           mobley_628086_prod.xst
Info: XST FREQUENCY          100000
Info: NO VELOCITY DCD OUTPUT
Info: NO FORCE DCD OUTPUT
Info: OUTPUT FILENAME        mobley_628086_prod
Info: BINARY OUTPUT FILES WILL BE USED
Info: RESTART FILENAME       mobley_628086_prod.restart
Info: RESTART FREQUENCY      100000
Info: BINARY RESTART FILES WILL BE USED
Info: CUTOFF                 9
Info: PAIRLIST DISTANCE      11
Info: PAIRLIST SHRINK RATE   0.01
Info: PAIRLIST GROW RATE     0.01
Info: PAIRLIST TRIGGER       0.3
Info: PAIRLISTS PER CYCLE    2
Info: PAIRLISTS ENABLED
Info: MARGIN                 2
Info: HYDROGEN GROUP CUTOFF  2.5
Info: PATCH DIMENSION        15.5
Info: ENERGY OUTPUT STEPS    100000
Info: ENERGY EVALUATION STEPS    100000
Info: OUTPUT ENERGY PRECISION 4
Info: CROSSTERM ENERGY INCLUDED IN DIHEDRAL
Info: TIMING OUTPUT STEPS    1000000
Info: PRESSURE OUTPUT STEPS  100000
Info: ALCHEMICAL FEP ON
Info: FEP CURRENT LAMBDA VALUE     1
Info: FEP COMPARISON LAMBDA VALUE  0.95
Info: FEP INTRA-ALCHEMICAL NON-BONDED INTERACTIONS WILL BE RETAINED
Info: FEP INTRA-ALCHEMICAL BONDED INTERACTIONS WILL BE RETAINED
Info: FEP VDW SHIFTING COEFFICIENT 5
Info: FEP ELEC. ACTIVE FOR ANNIHILATED PARTICLES BETWEEN LAMBDA = 0 AND LAMBDA = 0.5
Info: FEP ELEC. ACTIVE FOR EXNIHILATED PARTICLES BETWEEN LAMBDA = 0.5 AND LAMBDA = 1
Info: FEP VDW ACTIVE FOR ANNIHILATED PARTICLES BETWEEN LAMBDA = 0 AND LAMBDA = 1
Info: FEP VDW ACTIVE FOR EXNIHILATED PARTICLES BETWEEN LAMBDA = 0 AND LAMBDA = 1
Info: FEP BOND ACTIVE FOR ANNIHILATED PARTICLES BETWEEN LAMBDA = 1 AND LAMBDA = 1
Info: FEP BOND ACTIVE FOR EXNIHILATED PARTICLES BETWEEN LAMBDA = 0 AND LAMBDA = 0
Info: LANGEVIN DYNAMICS ACTIVE
Info: LANGEVIN TEMPERATURE   300
Info: LANGEVIN USING BBK INTEGRATOR
Info: LANGEVIN DAMPING COEFFICIENT IS 1 INVERSE PS
Info: LANGEVIN DYNAMICS APPLIED TO HYDROGENS
Info: LANGEVIN PISTON PRESSURE CONTROL ACTIVE
Info:        TARGET PRESSURE IS 1.01325 BAR
Info:     OSCILLATION PERIOD IS 50 FS
Info:             DECAY TIME IS 25 FS
Info:     PISTON TEMPERATURE IS 300 K
Info:       PRESSURE CONTROL IS GROUP-BASED
Info:    INITIAL STRAIN RATE IS -0.000271701 -0.000271701 -0.000271701
Info:       CELL FLUCTUATION IS ISOTROPIC
Info: PARTICLE MESH EWALD (PME) ACTIVE
Info: PME TOLERANCE               1e-06
Info: PME EWALD COEFFICIENT       0.348832
Info: PME INTERPOLATION ORDER     4
Info: PME GRID DIMENSIONS         32 32 36
Info: PME MAXIMUM GRID SPACING    1
Info: PME CALCULATION WILL BE PERFORMED ON GPU
Info: FULL ELECTROSTATIC EVALUATION FREQUENCY      2
Info: USING VERLET I (r-RESPA) MTS SCHEME.
Info: C1 SPLITTING OF LONG RANGE ELECTROSTATICS
Info: PLACING ATOMS IN PATCHES BY HYDROGEN GROUPS
Info: RIGID BONDS TO HYDROGEN : ALL
Info:         ERROR TOLERANCE : 1e-08
Info:          MAX ITERATIONS : 100
Info: RIGID WATER USING SETTLE ALGORITHM
Info: RANDOM NUMBER SEED     1743550741
Info: USE HYDROGEN BONDS?    NO
Info: Using AMBER format force field!
Info: AMBER PARM FILE        mobley_628086.prmtop
Info: COORDINATE PDB         mobley_628086.pdb
Info: Exclusions will be read from PARM file!
Info: SCNB (VDW SCALING)     2
Info: USING ARITHMETIC MEAN TO COMBINE L-J SIGMA PARAMETERS
Info: BINARY COORDINATES     mobley_628086_equil.coor
Info: SUMMARY OF PARAMETERS:
Info: 8 BONDS
Info: 9 ANGLES
Info:   9 HARMONIC
Info:   0 COSINE-BASED
Info: 6 DIHEDRAL
Info: 0 IMPROPER
Info: 0 CROSSTERM
Info: 0 VDW
Info: 28 VDW_PAIRS
Info: 0 NBTHOLE_PAIRS
Info: To read alchdata from file: mobley_628086.pdb
Info: To read alchflag data from column: 5
Info: STRUCTURE SUMMARY:
Info: 2964 ATOMS
Info: 2963 BONDS
Info: 19 ANGLES
Info: 29 DIHEDRALS
Info: 0 IMPROPERS
Info: 0 CROSSTERMS
Info: 3003 EXCLUSIONS
Info: 2957 RIGID BONDS
Info: ALCH: 0 ATOMS TO DISAPPEAR IN FINAL STATE
Info: ALCH: 12 ATOMS TO APPEAR IN FINAL STATE
Info: 5935 DEGREES OF FREEDOM
Info: 991 HYDROGEN GROUPS
Info: 4 ATOMS IN LARGEST HYDROGEN GROUP
Info: 991 MIGRATION GROUPS
Info: 4 ATOMS IN LARGEST MIGRATION GROUP
Info: TOTAL MASS = 17841.8 amu
Info: TOTAL CHARGE = -0.000100069 e
Info: MASS DENSITY = 0.961607 g/cm^3
Info: ATOM DENSITY = 0.0962005 atoms/A^3
Info: ADDED 0 IMPLICIT EXCLUSIONS
Info: NONBONDED TABLE R-SQUARED SPACING: 0.0625
Info: NONBONDED TABLE SIZE: 705 POINTS
Info: REMOVING COM VELOCITY 0.00784483 -0.130859 -0.0862841
Info: Use 3D box decompostion in PME FFT.
Info: Updated CUDA force table with 4096 elements.
Info: Updated CUDA LJ table with 7 x 7 elements.
Info: Found 15 unique exclusion lists needing 28 bytes
TCL: Running for 1500000 steps
ETITLE: TS BOND ANGLE DIHED IMPRP ELECT VDW BOUNDARY MISC KINETIC TOTAL TEMP POTENTIAL TOTALAVG TEMPAVG PRESSURE GPRESSURE VOLUME PRESSAVG GPRESSAVG
ENERGY: 0 2.0135 3.6903 2.8317 0.0000 -10801.1620 1484.8649 0.0000 0.0000 1771.9552 -7535.8065 300.4847 -9307.7617 -7535.8065 300.4847 90.6350 166.4162 30810.6377 90.6350 166.4162
ENERGY: 300000 2.9043 6.7469 2.1532 0.0000 -10761.1606 1460.1639 0.0000 0.0000 1776.5804 -7512.6119 301.2691 -9289.1923 -7510.1357 301.9984 -75.8430 38.5574 30773.7484 176.1608 263.9351
ENERGY: 600000 0.7377 4.4346 2.0553 0.0000 -10768.8038 1448.4411 0.0000 0.0000 1752.1381 -7560.9969 297.1242 -9313.1350 -7529.6874 300.1247 -80.7982 -33.5662 30579.3432 211.2290 284.5186
ENERGY: 900000 1.4964 3.6850 2.1515 0.0000 -10805.7275 1469.3716 0.0000 0.0000 1793.0505 -7535.9725 304.0620 -9329.0230 -7512.6492 300.6284 343.1505 390.2661 29879.7997 276.9751 341.0688
ENERGY: 1200000 5.0083 5.5131 3.0418 0.0000 -10701.6091 1394.7606 0.0000 0.0000 1787.1841 -7506.1013 303.0672 -9293.2853 -7512.6407 301.0682 -611.2032 -561.1826 30755.8699 117.2137 183.6765
ENERGY: 1500000 2.6625 5.3550 2.2000 0.0000 -10612.3091 1372.6916 0.0000 0.0000 1774.5696 -7454.8303 300.9281 -9229.3999 -7503.3073 300.8096 -419.1558 -385.3853 30774.4651 76.6638 137.7834
TCL: Running FEP window   2: Lambda1 0.95   Lambda2 0.8999999999999999 [dLambda -0.050000000000000044]
TCL: Setting parameter firsttimestep to 0
TCL: Setting parameter alchLambda to 0.95
Info: NONBONDED TABLE R-SQUARED SPACING: 0.0625
Info: NONBONDED TABLE SIZE: 705 POINTS
TCL: Setting parameter alchLambda2 to 0.8999999999999999
Info: NONBONDED TABLE R-SQUARED SPACING: 0.0625
Info: NONBONDED TABLE SIZE: 705 POINTS
TCL: Running for 1500000 steps
ETITLE: TS BOND ANGLE DIHED IMPRP ELECT VDW BOUNDARY MISC KINETIC TOTAL TEMP POTENTIAL TOTALAVG TEMPAVG PRESSURE GPRESSURE VOLUME PRESSAVG GPRESSAVG
ENERGY: 0 2.6625 5.3550 2.2000 0.0000 -10610.0631 1371.5117 0.0000 0.0000 1773.6920 -7454.6418 300.7792 -9228.3338 -7454.6418 300.7792 -491.0561 -405.5673 30774.4651 -491.0561 -405.5673
ENERGY: 300000 0.6747 6.9690 2.5923 0.0000 -10743.4141 1420.7857 0.0000 0.0000 1802.4133 -7509.9792 305.6497 -9312.3925 -7502.9789 302.2420 -259.0056 -234.1309 30569.0099 -418.0005 -361.2652
ENERGY: 600000 1.9985 5.7808 1.8468 0.0000 -10710.2855 1449.0143 0.0000 0.0000 1756.7665 -7494.8786 297.9091 -9251.6451 -7518.3262 300.3918 358.3873 472.2089 29994.9132 -145.6951 -76.2131
ENERGY: 900000 0.2772 7.1729 2.1694 0.0000 -10734.2000 1463.5895 0.0000 0.0000 1753.5423 -7507.4488 297.3623 -9260.9911 -7508.5967 300.7135 -50.6753 22.9475 30901.9756 -140.8938 -68.5560
ENERGY: 1200000 2.2262 11.6003 2.3508 0.0000 -10674.3361 1433.8910 0.0000 0.0000 1800.4062 -7423.8617 305.3094 -9224.2679 -7499.4800 301.1006 -30.9788 55.9807 30451.3366 -144.8690 -75.3948
ENERGY: 1500000 2.2717 4.7523 1.8838 0.0000 -10836.4759 1510.9194 0.0000 0.0000 1688.2799 -7628.3689 286.2952 -9316.6488 -7516.8882 299.2702 249.5167 377.9998 30379.7820 -137.2563 -71.9218
TCL: Running FEP window   3: Lambda1 0.8999999999999999 Lambda2 0.8499999999999999 [dLambda -0.050000000000000044]
TCL: Setting parameter firsttimestep to 0
TCL: Setting parameter alchLambda to 0.8999999999999999
Info: NONBONDED TABLE R-SQUARED SPACING: 0.0625
Info: NONBONDED TABLE SIZE: 705 POINTS
TCL: Setting parameter alchLambda2 to 0.8499999999999999
Info: NONBONDED TABLE R-SQUARED SPACING: 0.0625
Info: NONBONDED TABLE SIZE: 705 POINTS
TCL: Running for 1500000 steps
ETITLE: TS BOND ANGLE DIHED IMPRP ELECT VDW BOUNDARY MISC KINETIC TOTAL TEMP POTENTIAL TOTALAVG TEMPAVG PRESSURE GPRESSURE VOLUME PRESSAVG GPRESSAVG
ENERGY: 0 2.2717 4.7523 1.8838 0.0000 -10835.1725 1510.7002 0.0000 0.0000 1687.3646 -7628.2000 286.1400 -9315.5646 -7628.2000 286.1400 272.6436 370.2927 30379.7820 272.6436 370.2927
ENERGY: 300000 3.8396 5.7983 2.8342 0.0000 -10552.3978 1323.0111 0.0000 0.0000 1705.1345 -7511.7802 289.1534 -9216.9147 -7523.8483 294.8027 -956.9989 -891.2771 30381.6449 76.0015 155.3138
ENERGY: 600000 1.3475 5.4079 3.9037 0.0000 -10794.6615 1494.2663 0.0000 0.0000 1726.8563 -7562.8798 292.8369 -9289.7361 -7516.0364 295.7181 290.4406 332.9504 30349.9778 197.2993 263.4979
ENERGY: 900000 1.5810 3.2531 2.4554 0.0000 -10822.4804 1496.4627 0.0000 0.0000 1792.3944 -7526.3338 303.9508 -9318.7282 -7513.9714 296.9583 356.7387 465.1230 29973.0966 136.1642 217.4774
ENERGY: 1200000 1.2049 7.5106 2.3094 0.0000 -10784.6252 1448.4891 0.0000 0.0000 1787.5015 -7537.6097 303.1210 -9325.1112 -7521.8584 297.7631 161.5864 176.9458 30054.4866 131.5554 211.9150
ENERGY: 1500000 0.1957 2.6272 2.0973 0.0000 -10612.1233 1413.8884 0.0000 0.0000 1816.9656 -7376.3491 308.1175 -9193.3148 -7507.8178 298.6627 -110.7620 -1.8527 30762.0107 107.7383 181.4068
TCL: Running FEP window   4: Lambda1 0.8499999999999999 Lambda2 0.7999999999999998 [dLambda -0.050000000000000044]
TCL: Setting parameter firsttimestep to 0
TCL: Setting parameter alchLambda to 0.8499999999999999
Info: NONBONDED TABLE R-SQUARED SPACING: 0.0625
Info: NONBONDED TABLE SIZE: 705 POINTS
TCL: Setting parameter alchLambda2 to 0.7999999999999998
Info: NONBONDED TABLE R-SQUARED SPACING: 0.0625
Info: NONBONDED TABLE SIZE: 705 POINTS
TCL: Running for 1500000 steps
ETITLE: TS BOND ANGLE DIHED IMPRP ELECT VDW BOUNDARY MISC KINETIC TOTAL TEMP POTENTIAL TOTALAVG TEMPAVG PRESSURE GPRESSURE VOLUME PRESSAVG GPRESSAVG
ENERGY: 0 0.1957 2.6272 2.0973 0.0000 -10610.3544 1413.4545 0.0000 0.0000 1816.0665 -7375.9132 307.9650 -9191.9797 -7375.9132 307.9650 -102.5256 -9.6075 30762.0107 -102.5256 -9.6075
ENERGY: 300000 2.1465 5.3452 2.5289 0.0000 -10507.9092 1352.3471 0.0000 0.0000 1739.8753 -7405.6662 295.0447 -9145.5415 -7436.9802 300.7009 -308.8252 -322.9097 30546.0005 -286.4179 -242.1127
ENERGY: 600000 2.4119 4.8471 2.3154 0.0000 -10684.7598 1427.6181 0.0000 0.0000 1760.6103 -7486.9570 298.5609 -9247.5673 -7481.9344 299.1900 -128.4203 -92.9609 30352.4553 -363.5801 -305.1841
ENERGY: 900000 2.5679 5.2799 2.1293 0.0000 -10832.0329 1522.5641 0.0000 0.0000 1753.8807 -7545.6110 297.4197 -9299.4917 -7494.8867 298.7770 638.2234 667.9899 30158.7447 -140.8017 -87.7568
ENERGY: 1200000 0.8470 5.2021 1.8460 0.0000 -10671.1191 1415.5227 0.0000 0.0000 1806.8832 -7440.8181 306.4077 -9247.7013 -7500.0767 299.2007 -454.2700 -405.9415 31169.1932 -276.1212 -223.5484
ENERGY: 1500000 1.5207 5.1238 2.2135 0.0000 -10730.3821 1473.8123 0.0000 0.0000 1750.3271 -7497.3846 296.8171 -9247.7117 -7501.1951 299.0918 167.6123 149.3114 30759.0107 -207.3164 -160.3558
TCL: Running FEP window   5: Lambda1 0.7999999999999998 Lambda2 0.7499999999999998 [dLambda -0.050000000000000044]
TCL: Setting parameter firsttimestep to 0
TCL: Setting parameter alchLambda to 0.7999999999999998
Info: NONBONDED TABLE R-SQUARED SPACING: 0.0625
Info: NONBONDED TABLE SIZE: 705 POINTS
TCL: Setting parameter alchLambda2 to 0.7499999999999998
Info: NONBONDED TABLE R-SQUARED SPACING: 0.0625
Info: NONBONDED TABLE SIZE: 705 POINTS
TCL: Running for 1500000 steps
ETITLE: TS BOND ANGLE DIHED IMPRP ELECT VDW BOUNDARY MISC KINETIC TOTAL TEMP POTENTIAL TOTALAVG TEMPAVG PRESSURE GPRESSURE VOLUME PRESSAVG GPRESSAVG
ENERGY: 0 1.5207 5.1238 2.2135 0.0000 -10728.8255 1473.4320 0.0000 0.0000 1749.4864 -7497.0490 296.6745 -9246.5353 -7497.0490 296.6745 57.3100 141.4197 30759.0107 57.3100 141.4197
ENERGY: 300000 3.4554 3.3327 2.0162 0.0000 -10732.8337 1450.9226 0.0000 0.0000 1776.7699 -7496.3369 301.3012 -9273.1068 -7494.7867 299.4416 -281.3884 -222.5210 30710.3452 -163.5372 -107.7126
ENERGY: 600000 2.0695 5.9499 3.3155 0.0000 -10757.7513 1517.8720 0.0000 0.0000 1838.8759 -7389.6684 311.8330 -9228.5443 -7475.9479 304.1256 525.8346 586.1750 30872.8002 126.4156 184.3613
ENERGY: 900000 4.3353 3.4757 2.6319 0.0000 -10785.5539 1464.3115 0.0000 0.0000 1765.4897 -7545.3098 299.3883 -9310.7994 -7484.7883 302.9827 104.2576 168.4773 30068.5601 -0.2346 62.3574
ENERGY: 1200000 1.0783 6.4089 2.9178 0.0000 -10702.7641 1442.2862 0.0000 0.0000 1784.6227 -7465.4501 302.6329 -9250.0728 -7489.4671 302.2678 295.4280 341.4342 30231.7657 53.1581 114.9334
ENERGY: 1500000 0.8417 5.6868 1.8874 0.0000 -10692.7900 1375.7780 0.0000 0.0000 1749.1813 -7559.4147 296.6228 -9308.5961 -7492.6483 301.4326 -649.4715 -569.4074 30490.4861 -5.2528 52.4735
TCL: Running FEP window   6: Lambda1 0.7499999999999998 Lambda2 0.6999999999999997 [dLambda -0.050000000000000044]
TCL: Setting parameter firsttimestep to 0
TCL: Setting parameter alchLambda to 0.7499999999999998
Info: NONBONDED TABLE R-SQUARED SPACING: 0.0625
Info: NONBONDED TABLE SIZE: 705 POINTS
TCL: Setting parameter alchLambda2 to 0.6999999999999997
Info: NONBONDED TABLE R-SQUARED SPACING: 0.0625
Info: NONBONDED TABLE SIZE: 705 POINTS
TCL: Running for 1500000 steps
ETITLE: TS BOND ANGLE DIHED IMPRP ELECT VDW BOUNDARY MISC KINETIC TOTAL TEMP POTENTIAL TOTALAVG TEMPAVG PRESSURE GPRESSURE VOLUME PRESSAVG GPRESSAVG
ENERGY: 0 0.8417 5.6868 1.8874 0.0000 -10691.0996 1375.6564 0.0000 0.0000 1748.3012 -7558.7260 296.4735 -9307.0272 -7558.7260 296.4735 -665.3044 -572.9853 30490.4861 -665.3044 -572.9853
ENERGY: 300000 2.1515 7.8736 2.9561 0.0000 -10732.1026 1466.5629 0.0000 0.0000 1791.8430 -7460.7154 303.8573 -9252.5584 -7506.4059 300.1909 292.8564 372.0666 30293.0544 -231.0729 -151.4640
ENERGY: 600000 1.7797 5.8683 3.2795 0.0000 -10574.5681 1358.2606 0.0000 0.0000 1766.5118 -7438.8682 299.5616 -9205.3800 -7495.1961 298.6317 -675.1777 -608.4480 31015.5325 -322.2978 -248.8085
ENERGY: 900000 1.3671 9.0801 2.1718 0.0000 -10871.5797 1559.4323 0.0000 0.0000 1776.7538 -7522.7745 301.2985 -9299.5284 -7509.4080 298.1164 405.5930 491.6813 30625.1848 -298.6649 -230.1339
ENERGY: 1200000 4.1668 3.2557 1.8344 0.0000 -10645.4650 1395.8200 0.0000 0.0000 1775.1141 -7465.2739 301.0204 -9240.3880 -7502.9482 299.0021 -307.7757 -342.8818 30850.2141 -266.2522 -212.7768
ENERGY: 1500000 1.1235 6.3863 1.7733 0.0000 -10680.7802 1412.3905 0.0000 0.0000 1714.4738 -7544.6327 290.7371 -9259.1065 -7494.9789 299.3005 -32.6305 17.1150 30116.3026 -194.7653 -140.7529
TCL: Running FEP window   7: Lambda1 0.6999999999999997 Lambda2 0.6499999999999997 [dLambda -0.050000000000000044]
TCL: Setting parameter firsttimestep to 0
TCL: Setting parameter alchLambda to 0.6999999999999997
Info: NONBONDED TABLE R-SQUARED SPACING: 0.0625
Info: NONBONDED TABLE SIZE: 705 POINTS
TCL: Setting parameter alchLambda2 to 0.6499999999999997
Info: NONBONDED TABLE R-SQUARED SPACING: 0.0625
Info: NONBONDED TABLE SIZE: 705 POINTS
TCL: Running for 1500000 steps
ETITLE: TS BOND ANGLE DIHED IMPRP ELECT VDW BOUNDARY MISC KINETIC TOTAL TEMP POTENTIAL TOTALAVG TEMPAVG PRESSURE GPRESSURE VOLUME PRESSAVG GPRESSAVG
ENERGY: 0 1.1235 6.3863 1.7733 0.0000 -10678.7204 1410.8429 0.0000 0.0000 1713.5856 -7545.0086 290.5865 -9258.5943 -7545.0086 290.5865 -73.4355 2.3643 30116.3026 -73.4355 2.3643
ENERGY: 300000 0.5338 4.1218 1.8979 0.0000 -10730.3203 1465.5847 0.0000 0.0000 1786.4971 -7471.6851 302.9507 -9258.1822 -7535.2220 297.0674 223.7826 252.2471 30353.3924 198.1241 265.8432
ENERGY: 600000 1.9155 4.3616 2.2920 0.0000 -10738.9288 1394.5848 0.0000 0.0000 1767.0376 -7568.7373 299.6508 -9335.7749 -7518.8869 299.2406 -742.0991 -646.6680 30625.4586 -102.4724 -43.4453
ENERGY: 900000 2.0725 5.0780 2.9774 0.0000 -10728.9537 1441.0749 0.0000 0.0000 1777.4281 -7500.3228 301.4128 -9277.7509 -7501.9473 300.0911 -451.6162 -370.9926 31305.6449 -175.1653 -110.9901
ENERGY: 1200000 2.5885 6.8069 3.5602 0.0000 -10662.3264 1416.5600 0.0000 0.0000 1757.2063 -7475.6044 297.9836 -9232.8107 -7493.7632 300.2997 -554.1221 -492.1662 30997.7144 -134.5966 -79.2503
ENERGY: 1500000 0.3652 5.1173 2.0996 0.0000 -10567.5136 1425.0020 0.0000 0.0000 1767.9979 -7366.9317 299.8137 -9134.9295 -7484.0717 300.6182 -250.3940 -132.1266 31330.7267 -128.2240 -67.6200
TCL: Running FEP window   8: Lambda1 0.6499999999999997 Lambda2 0.5999999999999996 [dLambda -0.050000000000000044]
TCL: Setting parameter firsttimestep to 0
TCL: Setting parameter alchLambda to 0.6499999999999997
Info: NONBONDED TABLE R-SQUARED SPACING: 0.0625
Info: NONBONDED TABLE SIZE: 705 POINTS
TCL: Setting parameter alchLambda2 to 0.5999999999999996
Info: NONBONDED TABLE R-SQUARED SPACING: 0.0625
Info: NONBONDED TABLE SIZE: 705 POINTS
TCL: Running for 1500000 steps
ETITLE: TS BOND ANGLE DIHED IMPRP ELECT VDW BOUNDARY MISC KINETIC TOTAL TEMP POTENTIAL TOTALAVG TEMPAVG PRESSURE GPRESSURE VOLUME PRESSAVG GPRESSAVG
ENERGY: 0 0.3652 5.1173 2.0996 0.0000 -10566.5453 1424.9670 0.0000 0.0000 1767.1118 -7366.8845 299.6634 -9133.9963 -7366.8845 299.6634 -228.5555 -135.4004 31330.7267 -228.5555 -135.4004
ENERGY: 300000 2.3745 4.8541 2.7040 0.0000 -10687.7267 1405.9048 0.0000 0.0000 1734.9507 -7536.9386 294.2096 -9271.8893 -7476.0876 294.7767 -241.9220 -228.1329 30624.7235 -375.5982 -308.0094
ENERGY: 600000 1.6005 4.9185 2.1955 0.0000 -10725.8410 1416.4971 0.0000 0.0000 1728.3232 -7572.3062 293.0857 -9300.6294 -7498.5490 296.3356 -237.5862 -180.7297 30471.2639 -270.2286 -209.9552
ENERGY: 900000 3.2544 3.9394 3.2476 0.0000 -10591.0700 1377.3833 0.0000 0.0000 1724.5771 -7478.6682 292.4504 -9203.2453 -7505.7815 295.4229 -647.5707 -538.9906 30616.2109 -343.9534 -278.4854
ENERGY: 1200000 4.1870 4.7143 2.0714 0.0000 -10738.0037 1414.5105 0.0000 0.0000 1775.0893 -7537.4313 301.0162 -9312.5206 -7493.2203 296.9412 -295.0050 -243.1704 30255.6581 -366.7682 -301.9343
ENERGY: 1500000 2.3858 3.5489 2.8694 0.0000 -10658.7269 1416.2095 0.0000 0.0000 1768.9697 -7464.7436 299.9784 -9233.7133 -7498.2027 297.1270 264.8599 351.6003 30186.7198 -279.6238 -214.4013
TCL: Running FEP window   9: Lambda1 0.5999999999999996 Lambda2 0.5499999999999996 [dLambda -0.050000000000000044]
TCL: Setting parameter firsttimestep to 0
TCL: Setting parameter alchLambda to 0.5999999999999996
Info: NONBONDED TABLE R-SQUARED SPACING: 0.0625
Info: NONBONDED TABLE SIZE: 705 POINTS
TCL: Setting parameter alchLambda2 to 0.5499999999999996
Info: NONBONDED TABLE R-SQUARED SPACING: 0.0625
Info: NONBONDED TABLE SIZE: 705 POINTS
TCL: Running for 1500000 steps
ETITLE: TS BOND ANGLE DIHED IMPRP ELECT VDW BOUNDARY MISC KINETIC TOTAL TEMP POTENTIAL TOTALAVG TEMPAVG PRESSURE GPRESSURE VOLUME PRESSAVG GPRESSAVG
ENERGY: 0 2.3858 3.5489 2.8694 0.0000 -10658.2940 1416.1926 0.0000 0.0000 1768.0896 -7465.2078 299.8292 -9233.2974 -7465.2078 299.8292 269.6051 346.0378 30186.7198 269.6051 346.0378
ENERGY: 300000 0.8300 5.4139 2.8505 0.0000 -10703.2924 1474.7961 0.0000 0.0000 1744.1114 -7475.2905 295.7630 -9219.4019 -7487.8803 296.7855 311.1083 424.8627 30532.7297 194.6522 284.2611
ENERGY: 600000 2.1091 5.9542 3.1854 0.0000 -10671.7619 1391.7186 0.0000 0.0000 1701.8819 -7566.9127 288.6018 -9268.7946 -7502.0316 297.4820 -709.2289 -629.3531 30756.4246 74.0604 160.3966
ENERGY: 900000 1.2522 4.8056 2.4022 0.0000 -10550.7492 1281.9781 0.0000 0.0000 1778.9448 -7481.3663 301.6700 -9260.3110 -7507.1396 299.4295 -1339.7849 -1250.1334 30749.2957 -32.2936 45.4027
ENERGY: 1200000 2.6222 6.5381 2.3532 0.0000 -10573.1481 1368.4869 0.0000 0.0000 1808.9616 -7384.1862 306.7602 -9193.1478 -7501.6542 299.8624 -522.7305 -548.1707 30583.7144 -146.3467 -81.6802
ENERGY: 1500000 3.3698 8.5733 2.0461 0.0000 -10850.6797 1501.3580 0.0000 0.0000 1781.5505 -7553.7820 302.1119 -9335.3325 -7499.1432 300.2143 370.5641 417.1633 30001.0518 -109.5533 -43.7351
TCL: Running FEP window  10: Lambda1 0.5499999999999996 Lambda2 0.4999999999999996 [dLambda -0.04999999999999999]
TCL: Setting parameter firsttimestep to 0
TCL: Setting parameter alchLambda to 0.5499999999999996
Info: NONBONDED TABLE R-SQUARED SPACING: 0.0625
Info: NONBONDED TABLE SIZE: 705 POINTS
TCL: Setting parameter alchLambda2 to 0.4999999999999996
Info: NONBONDED TABLE R-SQUARED SPACING: 0.0625
Info: NONBONDED TABLE SIZE: 705 POINTS
TCL: Running for 1500000 steps
ETITLE: TS BOND ANGLE DIHED IMPRP ELECT VDW BOUNDARY MISC KINETIC TOTAL TEMP POTENTIAL TOTALAVG TEMPAVG PRESSURE GPRESSURE VOLUME PRESSAVG GPRESSAVG
ENERGY: 0 3.3698 8.5733 2.0461 0.0000 -10850.6119 1501.3082 0.0000 0.0000 1780.6690 -7554.6455 301.9624 -9335.3145 -7554.6455 301.9624 328.9850 411.4327 30001.0518 328.9850 411.4327
ENERGY: 300000 0.7320 4.1364 3.3505 0.0000 -10816.8426 1531.7998 0.0000 0.0000 1757.1541 -7519.6697 297.9748 -9276.8239 -7478.9522 303.5374 459.1333 548.1742 30689.8865 237.6647 334.5182
ENERGY: 600000 0.8609 7.5645 4.1209 0.0000 -10790.0652 1576.2676 0.0000 0.0000 1766.2453 -7435.0059 299.5164 -9201.2512 -7486.1474 301.5445 1299.6143 1335.3077 30247.0319 245.7732 321.7024
ENERGY: 900000 1.4064 2.5456 2.9003 0.0000 -10754.4168 1524.3211 0.0000 0.0000 1779.1056 -7444.1378 301.6973 -9223.2433 -7471.9058 300.1992 654.7177 644.7698 30529.4531 154.6284 219.9540
ENERGY: 1200000 4.1802 3.9880 2.5450 0.0000 -10565.2615 1343.6331 0.0000 0.0000 1722.4903 -7488.4249 292.0966 -9210.9152 -7481.2850 299.6216 -819.8710 -704.3492 30689.7895 69.4109 144.3502
ENERGY: 1500000 2.0646 10.3002 3.1883 0.0000 -10729.5077 1513.7306 0.0000 0.0000 1750.5234 -7449.7006 296.8504 -9200.2241 -7470.4028 300.3859 604.0632 662.5358 30652.9382 124.6253 195.5903
TCL: Running FEP window  11: Lambda1 0.4999999999999996 Lambda2 0.4499999999999996 [dLambda -0.04999999999999999]
TCL: Setting parameter firsttimestep to 0
TCL: Setting parameter alchLambda to 0.4999999999999996
Info: NONBONDED TABLE R-SQUARED SPACING: 0.0625
Info: NONBONDED TABLE SIZE: 705 POINTS
TCL: Setting parameter alchLambda2 to 0.4499999999999996
Info: NONBONDED TABLE R-SQUARED SPACING: 0.0625
Info: NONBONDED TABLE SIZE: 705 POINTS
TCL: Running for 1500000 steps
ETITLE: TS BOND ANGLE DIHED IMPRP ELECT VDW BOUNDARY MISC KINETIC TOTAL TEMP POTENTIAL TOTALAVG TEMPAVG PRESSURE GPRESSURE VOLUME PRESSAVG GPRESSAVG
ENERGY: 0 2.0646 10.3002 3.1883 0.0000 -10729.0826 1513.8072 0.0000 0.0000 1749.6417 -7450.0807 296.7008 -9199.7224 -7450.0807 296.7008 563.3724 657.8974 30652.9382 563.3724 657.8974
ENERGY: 300000 5.4066 7.1412 2.9914 0.0000 -10743.7196 1483.5536 0.0000 0.0000 1762.8072 -7481.8197 298.9334 -9244.6268 -7472.6763 298.0242 319.2037 368.2790 30312.9195 96.1156 161.1195
ENERGY: 600000 2.1133 3.8735 3.7530 0.0000 -10592.9887 1400.5864 0.0000 0.0000 1779.9443 -7402.7183 301.8395 -9182.6625 -7465.9097 299.1239 -233.0482 -155.5054 30464.0696 -58.6343 13.8590
ENERGY: 900000 3.4411 3.3610 1.9016 0.0000 -10824.6590 1543.2770 0.0000 0.0000 1741.9949 -7530.6833 295.4041 -9272.6782 -7469.1239 299.7412 685.9416 812.6896 30283.3945 -6.8237 76.9344
ENERGY: 1200000 4.7554 5.4358 2.8430 0.0000 -10710.9590 1404.8771 0.0000 0.0000 1773.3304 -7519.7173 300.7179 -9293.0478 -7477.1031 299.9350 -430.2621 -352.1827 30506.2738 -51.2696 22.0163
ENERGY: 1500000 2.1679 7.7388 2.0731 0.0000 -10621.8573 1414.5681 0.0000 0.0000 1816.0280 -7379.2813 307.9585 -9195.3093 -7472.1636 300.3157 -18.0364 108.6869 30412.9213 -107.7789 -30.8634
TCL: Running FEP window  12: Lambda1 0.4499999999999996 Lambda2 0.39999999999999963 [dLambda -0.04999999999999999]
TCL: Setting parameter firsttimestep to 0
TCL: Setting parameter alchLambda to 0.4499999999999996
Info: NONBONDED TABLE R-SQUARED SPACING: 0.0625
Info: NONBONDED TABLE SIZE: 705 POINTS
TCL: Setting parameter alchLambda2 to 0.39999999999999963
Info: NONBONDED TABLE R-SQUARED SPACING: 0.0625
Info: NONBONDED TABLE SIZE: 705 POINTS
TCL: Running for 1500000 steps
ETITLE: TS BOND ANGLE DIHED IMPRP ELECT VDW BOUNDARY MISC KINETIC TOTAL TEMP POTENTIAL TOTALAVG TEMPAVG PRESSURE GPRESSURE VOLUME PRESSAVG GPRESSAVG
ENERGY: 0 2.1679 7.7388 2.0731 0.0000 -10621.8577 1415.0041 0.0000 0.0000 1815.1158 -7379.7579 307.8038 -9194.8737 -7379.7579 307.8038 26.4883 110.5237 30412.9213 26.4883 110.5237
ENERGY: 300000 1.9737 4.5726 2.4586 0.0000 -10746.6436 1445.8440 0.0000 0.0000 1718.5937 -7573.2009 291.4358 -9291.7946 -7466.9515 298.0195 206.5403 233.2211 29822.4589 61.4486 130.9813
ENERGY: 600000 4.2807 6.0889 2.4082 0.0000 -10803.7380 1483.4246 0.0000 0.0000 1781.3575 -7526.1780 302.0792 -9307.5355 -7464.4688 300.2608 125.3483 171.0269 30507.6363 -72.4599 -15.2459
ENERGY: 900000 1.0384 6.8869 3.1412 0.0000 -10754.8002 1466.7177 0.0000 0.0000 1787.3532 -7489.6627 303.0959 -9277.0160 -7467.9289 301.6718 87.5572 139.1357 30588.1404 -10.4592 44.4560
ENERGY: 1200000 0.7858 4.3401 1.9667 0.0000 -10568.3095 1390.8235 0.0000 0.0000 1746.5804 -7423.8130 296.1817 -9170.3934 -7470.3059 301.3739 -300.9178 -233.5616 30893.0692 -41.7718 13.0076
ENERGY: 1500000 3.0717 4.2869 2.5950 0.0000 -10832.2999 1536.5314 0.0000 0.0000 1762.4950 -7523.3198 298.8805 -9285.8148 -7479.9264 301.3504 834.2066 912.4351 29939.4648 -14.8865 41.8366
TCL: Running FEP window  13: Lambda1 0.39999999999999963 Lambda2 0.34999999999999964 [dLambda -0.04999999999999999]
TCL: Setting parameter firsttimestep to 0
TCL: Setting parameter alchLambda to 0.39999999999999963
Info: NONBONDED TABLE R-SQUARED SPACING: 0.0625
Info: NONBONDED TABLE SIZE: 705 POINTS
TCL: Setting parameter alchLambda2 to 0.34999999999999964
Info: NONBONDED TABLE R-SQUARED SPACING: 0.0625
Info: NONBONDED TABLE SIZE: 705 POINTS
TCL: Running for 1500000 steps
ETITLE: TS BOND ANGLE DIHED IMPRP ELECT VDW BOUNDARY MISC KINETIC TOTAL TEMP POTENTIAL TOTALAVG TEMPAVG PRESSURE GPRESSURE VOLUME PRESSAVG GPRESSAVG
ENERGY: 0 3.0717 4.2869 2.5950 0.0000 -10832.2991 1536.7576 0.0000 0.0000 1761.6389 -7523.9490 298.7353 -9285.5878 -7523.9490 298.7353 820.2849 906.4518 29939.4648 820.2849 906.4518
ENERGY: 300000 0.6551 7.7586 2.4151 0.0000 -10699.7217 1439.8087 0.0000 0.0000 1790.8191 -7458.2651 303.6836 -9249.0842 -7516.9446 299.3572 -187.6201 -146.2480 30572.8591 25.5564 79.1615
ENERGY: 600000 1.3042 3.4718 1.7789 0.0000 -10704.8860 1425.5873 0.0000 0.0000 1753.7274 -7519.0164 297.3937 -9272.7438 -7509.9100 300.3205 -324.5732 -301.2076 30525.0928 -217.1961 -172.1202
ENERGY: 900000 1.7038 5.9130 2.1509 0.0000 -10776.6572 1451.1591 0.0000 0.0000 1761.9625 -7553.7680 298.7902 -9315.7304 -7527.1928 299.8159 -195.7789 -168.7511 30674.2072 -264.4746 -215.8284
ENERGY: 1200000 4.5890 5.1332 3.1683 0.0000 -10746.6119 1484.9245 0.0000 0.0000 1823.8983 -7424.8986 309.2931 -9248.7969 -7503.3361 302.5364 254.1225 338.5557 30403.9770 -138.3892 -83.8783
ENERGY: 1500000 2.3499 3.4384 3.0314 0.0000 -10692.7660 1347.5240 0.0000 0.0000 1776.1225 -7560.2999 301.1914 -9336.4224 -7500.1888 301.9586 -1024.7140 -919.9473 30314.5278 -124.4921 -65.5996
TCL: Running FEP window  14: Lambda1 0.34999999999999964 Lambda2 0.29999999999999966 [dLambda -0.04999999999999999]
TCL: Setting parameter firsttimestep to 0
TCL: Setting parameter alchLambda to 0.34999999999999964
Info: NONBONDED TABLE R-SQUARED SPACING: 0.0625
Info: NONBONDED TABLE SIZE: 705 POINTS
TCL: Setting parameter alchLambda2 to 0.29999999999999966
Info: NONBONDED TABLE R-SQUARED SPACING: 0.0625
Info: NONBONDED TABLE SIZE: 705 POINTS
TCL: Running for 1500000 steps
ETITLE: TS BOND ANGLE DIHED IMPRP ELECT VDW BOUNDARY MISC KINETIC TOTAL TEMP POTENTIAL TOTALAVG TEMPAVG PRESSURE GPRESSURE VOLUME PRESSAVG GPRESSAVG
ENERGY: 0 2.3499 3.4384 3.0314 0.0000 -10692.7657 1347.9823 0.0000 0.0000 1775.2404 -7560.7233 301.0418 -9335.9637 -7560.7233 301.0418 -998.1728 -920.0830 30314.5278 -998.1728 -920.0830
ENERGY: 300000 2.4531 4.6332 2.5202 0.0000 -10614.8679 1375.9841 0.0000 0.0000 1719.3636 -7509.9137 291.5663 -9229.2773 -7498.0619 298.8002 -585.3345 -530.7487 30721.4382 -564.4167 -473.9043
ENERGY: 600000 1.0569 4.5056 3.3437 0.0000 -10742.1498 1452.1481 0.0000 0.0000 1786.2754 -7494.8201 302.9131 -9281.0955 -7485.9258 298.7888 160.6176 231.0570 30222.2393 -416.3360 -337.5952
ENERGY: 900000 3.9952 3.7053 1.8720 0.0000 -10616.4990 1411.3991 0.0000 0.0000 1775.1620 -7420.3655 301.0285 -9195.5275 -7478.1883 299.0962 -112.4051 -40.3759 30277.9083 -435.4800 -364.3347
ENERGY: 1200000 5.6483 3.1253 1.8475 0.0000 -10765.3241 1475.5251 0.0000 0.0000 1781.8101 -7497.3679 302.1559 -9279.1780 -7471.8182 301.2208 276.3497 360.3181 30242.5061 -249.9971 -179.6657
ENERGY: 1500000 2.6571 4.6208 2.0813 0.0000 -10601.1566 1406.9602 0.0000 0.0000 1737.9652 -7446.8720 294.7208 -9184.8373 -7467.1044 300.9723 -246.8144 -213.3280 30825.8580 -214.1540 -145.5981
TCL: Running FEP window  15: Lambda1 0.29999999999999966 Lambda2 0.24999999999999967 [dLambda -0.04999999999999999]
TCL: Setting parameter firsttimestep to 0
TCL: Setting parameter alchLambda to 0.29999999999999966
Info: NONBONDED TABLE R-SQUARED SPACING: 0.0625
Info: NONBONDED TABLE SIZE: 705 POINTS
TCL: Setting parameter alchLambda2 to 0.24999999999999967
Info: NONBONDED TABLE R-SQUARED SPACING: 0.0625
Info: NONBONDED TABLE SIZE: 705 POINTS
TCL: Running for 1500000 steps
ETITLE: TS BOND ANGLE DIHED IMPRP ELECT VDW BOUNDARY MISC KINETIC TOTAL TEMP POTENTIAL TOTALAVG TEMPAVG PRESSURE GPRESSURE VOLUME PRESSAVG GPRESSAVG
ENERGY: 0 2.6571 4.6208 2.0813 0.0000 -10601.1565 1407.0865 0.0000 0.0000 1737.0930 -7447.6178 294.5729 -9184.7108 -7447.6178 294.5729 -291.4531 -211.0730 30825.8580 -291.4531 -211.0730
ENERGY: 300000 2.4456 3.5917 2.3573 0.0000 -10792.1345 1501.7790 0.0000 0.0000 1717.9965 -7563.9643 291.3345 -9281.9609 -7491.0432 297.9514 439.3396 527.3436 30211.0187 125.5555 195.9586
ENERGY: 600000 3.0282 4.6363 2.1613 0.0000 -10663.9712 1412.7898 0.0000 0.0000 1768.0990 -7473.2565 299.8308 -9241.3555 -7480.5905 298.4666 -211.7985 -147.1465 30314.3977 86.5311 163.2793
ENERGY: 900000 6.9803 5.4034 2.3409 0.0000 -10811.0065 1491.1209 0.0000 0.0000 1784.7644 -7520.3967 302.6569 -9305.1610 -7495.2126 300.4371 345.0898 463.3096 30232.1921 83.1643 155.4465
ENERGY: 1200000 2.7485 4.3590 2.1321 0.0000 -10639.6762 1413.5424 0.0000 0.0000 1716.2386 -7500.6556 291.0364 -9216.8942 -7500.0343 299.9440 -36.7145 10.7648 30375.8720 115.9364 181.4138
ENERGY: 1500000 2.3480 8.5474 2.4985 0.0000 -10613.6305 1394.3102 0.0000 0.0000 1728.3390 -7477.5874 293.0884 -9205.9264 -7494.0725 299.6024 -568.7620 -507.6995 30990.2214 36.8548 96.5429
TCL: Running FEP window  16: Lambda1 0.24999999999999967 Lambda2 0.19999999999999968 [dLambda -0.04999999999999999]
TCL: Setting parameter firsttimestep to 0
TCL: Setting parameter alchLambda to 0.24999999999999967
Info: NONBONDED TABLE R-SQUARED SPACING: 0.0625
Info: NONBONDED TABLE SIZE: 705 POINTS
TCL: Setting parameter alchLambda2 to 0.19999999999999968
Info: NONBONDED TABLE R-SQUARED SPACING: 0.0625
Info: NONBONDED TABLE SIZE: 705 POINTS
TCL: Running for 1500000 steps
ETITLE: TS BOND ANGLE DIHED IMPRP ELECT VDW BOUNDARY MISC KINETIC TOTAL TEMP POTENTIAL TOTALAVG TEMPAVG PRESSURE GPRESSURE VOLUME PRESSAVG GPRESSAVG
ENERGY: 0 2.3480 8.5474 2.4985 0.0000 -10613.6310 1394.6758 0.0000 0.0000 1727.4961 -7478.0652 292.9454 -9205.5613 -7478.0652 292.9454 -584.5618 -507.5810 30990.2214 -584.5618 -507.5810
ENERGY: 300000 1.5256 8.0104 2.5087 0.0000 -10856.6496 1499.0705 0.0000 0.0000 1736.1286 -7609.4057 294.4093 -9345.5343 -7489.9265 296.2699 120.0966 237.7211 29946.3734 -315.5601 -238.6605
ENERGY: 600000 4.9976 9.2052 2.7360 0.0000 -10762.5561 1486.2805 0.0000 0.0000 1782.9691 -7476.3676 302.3524 -9259.3367 -7494.1676 298.9651 138.6629 162.6434 30548.4286 -113.6014 -54.7295
ENERGY: 900000 0.7609 9.2212 2.3693 0.0000 -10788.9329 1477.3807 0.0000 0.0000 1730.7384 -7568.4623 293.4953 -9299.2008 -7504.6126 298.1704 383.3304 466.6967 29704.8307 -171.9482 -105.5288
ENERGY: 1200000 0.2509 8.8928 1.7351 0.0000 -10591.0807 1375.7980 0.0000 0.0000 1733.3180 -7471.0858 293.9327 -9204.4039 -7499.4561 298.7318 -313.1422 -222.7410 30430.0663 -244.6358 -176.2231
ENERGY: 1500000 1.3311 8.5577 3.5850 0.0000 -10660.5400 1482.0604 0.0000 0.0000 1754.6351 -7410.3707 297.5476 -9165.0057 -7480.9197 299.2442 118.0764 208.2386 31142.9041 -188.2126 -121.1361
TCL: Running FEP window  17: Lambda1 0.19999999999999968 Lambda2 0.1499999999999997 [dLambda -0.04999999999999999]
TCL: Setting parameter firsttimestep to 0
TCL: Setting parameter alchLambda to 0.19999999999999968
Info: NONBONDED TABLE R-SQUARED SPACING: 0.0625
Info: NONBONDED TABLE SIZE: 705 POINTS
TCL: Setting parameter alchLambda2 to 0.1499999999999997
Info: NONBONDED TABLE R-SQUARED SPACING: 0.0625
Info: NONBONDED TABLE SIZE: 705 POINTS
TCL: Running for 1500000 steps
ETITLE: TS BOND ANGLE DIHED IMPRP ELECT VDW BOUNDARY MISC KINETIC TOTAL TEMP POTENTIAL TOTALAVG TEMPAVG PRESSURE GPRESSURE VOLUME PRESSAVG GPRESSAVG
ENERGY: 0 1.3311 8.5577 3.5850 0.0000 -10660.5400 1482.2609 0.0000 0.0000 1753.7518 -7411.0535 297.3978 -9164.8053 -7411.0535 297.3978 131.7979 208.9912 31142.9041 131.7979 208.9912
ENERGY: 300000 2.2928 3.9802 2.4667 0.0000 -10783.8507 1493.9699 0.0000 0.0000 1742.6039 -7538.5373 295.5074 -9281.1412 -7501.6643 295.1998 229.9775 260.5876 30354.9167 137.7137 172.8975
ENERGY: 600000 1.0610 6.4692 3.8591 0.0000 -10827.6312 1516.0197 0.0000 0.0000 1763.3466 -7536.8757 299.0249 -9300.2223 -7494.2403 296.1108 458.9819 524.5294 30247.7157 63.5729 100.0214
ENERGY: 900000 2.3005 15.2733 3.8070 0.0000 -10817.3816 1473.9426 0.0000 0.0000 1804.2487 -7517.8095 305.9610 -9322.0582 -7491.5304 296.9609 132.1789 168.8431 30109.2994 5.3169 45.6777
ENERGY: 1200000 1.3724 5.4247 3.0118 0.0000 -10583.8407 1387.3107 0.0000 0.0000 1724.0804 -7462.6408 292.3662 -9186.7211 -7492.9673 297.0253 -438.2931 -380.2849 30652.8984 -203.0231 -160.9107
ENERGY: 1500000 1.1378 3.6197 2.2812 0.0000 -10575.4321 1372.1595 0.0000 0.0000 1812.9238 -7383.3100 307.4321 -9196.2338 -7479.5570 298.6573 -345.9936 -276.4612 30365.0265 -271.6964 -232.1209
TCL: Running FEP window  18: Lambda1 0.1499999999999997 Lambda2 0.09999999999999969 [dLambda -0.05 ]
TCL: Setting parameter firsttimestep to 0
TCL: Setting parameter alchLambda to 0.1499999999999997
Info: NONBONDED TABLE R-SQUARED SPACING: 0.0625
Info: NONBONDED TABLE SIZE: 705 POINTS
TCL: Setting parameter alchLambda2 to 0.09999999999999969
Info: NONBONDED TABLE R-SQUARED SPACING: 0.0625
Info: NONBONDED TABLE SIZE: 705 POINTS
TCL: Running for 1500000 steps
ETITLE: TS BOND ANGLE DIHED IMPRP ELECT VDW BOUNDARY MISC KINETIC TOTAL TEMP POTENTIAL TOTALAVG TEMPAVG PRESSURE GPRESSURE VOLUME PRESSAVG GPRESSAVG
ENERGY: 0 1.1378 3.6197 2.2812 0.0000 -10575.4323 1371.6045 0.0000 0.0000 1812.0759 -7384.7132 307.2883 -9196.7890 -7384.7132 307.2883 -359.8940 -282.3076 30365.0265 -359.8940 -282.3076
ENERGY: 300000 2.7868 5.3099 3.1674 0.0000 -10668.0638 1396.2053 0.0000 0.0000 1779.0053 -7481.5890 301.6803 -9260.5944 -7454.9676 300.4500 -560.1330 -503.1130 30622.8374 -271.7368 -187.6304
ENERGY: 600000 0.7724 7.6236 2.3832 0.0000 -10592.8850 1319.7854 0.0000 0.0000 1774.1477 -7488.1725 300.8565 -9262.3203 -7462.9585 300.7084 -1464.6498 -1401.5496 31286.8117 -427.0076 -348.5209
ENERGY: 900000 0.5924 5.2131 2.3314 0.0000 -10729.9999 1488.1054 0.0000 0.0000 1807.3301 -7426.4275 306.4835 -9233.7576 -7459.9405 301.8975 347.9745 415.2304 30598.1334 -330.1610 -264.1729
ENERGY: 1200000 2.7410 4.7345 2.4894 0.0000 -10748.3402 1515.3181 0.0000 0.0000 1738.6855 -7484.3718 294.8429 -9223.0573 -7461.0959 300.7381 302.1065 324.6361 31346.9120 -204.7782 -147.4771
ENERGY: 1500000 3.5373 5.4493 2.3421 0.0000 -10780.9936 1528.0521 0.0000 0.0000 1773.7941 -7467.8188 300.7966 -9241.6129 -7470.2312 300.4760 414.4124 499.9421 30540.9598 -177.6507 -117.9324
TCL: Running FEP window  19: Lambda1 0.09999999999999969 Lambda2 0.049999999999999684 [dLambda -0.05 ]
TCL: Setting parameter firsttimestep to 0
TCL: Setting parameter alchLambda to 0.09999999999999969
Info: NONBONDED TABLE R-SQUARED SPACING: 0.0625
Info: NONBONDED TABLE SIZE: 705 POINTS
TCL: Setting parameter alchLambda2 to 0.049999999999999684
Info: NONBONDED TABLE R-SQUARED SPACING: 0.0625
Info: NONBONDED TABLE SIZE: 705 POINTS
TCL: Running for 1500000 steps
ETITLE: TS BOND ANGLE DIHED IMPRP ELECT VDW BOUNDARY MISC KINETIC TOTAL TEMP POTENTIAL TOTALAVG TEMPAVG PRESSURE GPRESSURE VOLUME PRESSAVG GPRESSAVG
ENERGY: 0 3.5373 5.4493 2.3421 0.0000 -10780.9940 1528.4250 0.0000 0.0000 1772.8866 -7468.3538 300.6427 -9241.2404 -7468.3538 300.6427 410.5065 500.1101 30540.9598 410.5065 500.1101
ENERGY: 300000 4.4789 10.2494 2.1680 0.0000 -10799.8560 1494.4625 0.0000 0.0000 1778.8500 -7509.6471 301.6539 -9288.4971 -7446.8031 303.7512 130.7333 259.9941 30238.9900 483.3321 578.7077
ENERGY: 600000 1.2979 6.7669 2.5894 0.0000 -10624.8075 1409.7815 0.0000 0.0000 1783.6115 -7420.7603 302.4614 -9204.3718 -7445.9980 304.9621 72.7364 70.0374 30322.2690 336.5427 411.2870
ENERGY: 900000 3.5791 5.2443 3.1280 0.0000 -10705.5963 1480.2716 0.0000 0.0000 1815.6333 -7397.7400 307.8916 -9213.3733 -7441.2404 304.1898 174.0895 205.9645 30693.8399 295.5995 347.1197
ENERGY: 1200000 2.0027 5.7639 2.7301 0.0000 -10698.6257 1485.0221 0.0000 0.0000 1782.4964 -7420.6104 302.2723 -9203.1068 -7451.6188 304.1029 615.0175 713.0397 29994.4816 340.9407 399.7092
ENERGY: 1500000 1.9203 3.8003 2.3515 0.0000 -10659.0324 1404.5346 0.0000 0.0000 1740.7168 -7505.7089 295.1874 -9246.4257 -7461.0011 303.2373 -537.8575 -435.9317 30707.5530 229.1732 292.1320
TCL: Running FEP window  20: Lambda1 0.049999999999999684 Lambda2 0.0    [dLambda -0.049999999999999684]
TCL: Setting parameter firsttimestep to 0
TCL: Setting parameter alchLambda to 0.049999999999999684
Info: NONBONDED TABLE R-SQUARED SPACING: 0.0625
Info: NONBONDED TABLE SIZE: 705 POINTS
TCL: Setting parameter alchLambda2 to 0.0
Info: NONBONDED TABLE R-SQUARED SPACING: 0.0625
Info: NONBONDED TABLE SIZE: 705 POINTS
TCL: Running for 1500000 steps
ETITLE: TS BOND ANGLE DIHED IMPRP ELECT VDW BOUNDARY MISC KINETIC TOTAL TEMP POTENTIAL TOTALAVG TEMPAVG PRESSURE GPRESSURE VOLUME PRESSAVG GPRESSAVG
ENERGY: 0 1.9203 3.8003 2.3515 0.0000 -10659.0315 1403.8444 0.0000 0.0000 1739.8797 -7507.2353 295.0454 -9247.1150 -7507.2353 295.0454 -535.8151 -441.2017 30707.5530 -535.8151 -441.2017
ENERGY: 300000 1.2601 6.2022 2.3233 0.0000 -10636.7075 1385.3351 0.0000 0.0000 1822.7165 -7418.8703 309.0927 -9241.5868 -7470.5033 300.3560 -394.7933 -350.6291 30352.9284 -350.2670 -274.6113
ENERGY: 600000 1.0404 2.4572 2.1803 0.0000 -10567.7034 1374.5663 0.0000 0.0000 1758.8857 -7428.5736 298.2684 -9187.4593 -7452.4191 300.7934 132.1807 161.4174 29934.8977 -222.2895 -157.8453
ENERGY: 900000 2.1225 7.9439 2.0084 0.0000 -10873.0772 1495.3974 0.0000 0.0000 1750.2918 -7615.3133 296.8111 -9365.6050 -7475.8603 299.8802 218.9191 343.1847 29694.7421 -223.5610 -154.9144
ENERGY: 1200000 0.6372 5.6976 2.0590 0.0000 -10747.3885 1476.8085 0.0000 0.0000 1773.5303 -7488.6559 300.7518 -9262.1862 -7481.7798 299.8797 141.0043 203.0480 30494.8965 -135.0894 -77.7220
ENERGY: 1500000 3.0257 4.3944 2.1497 0.0000 -10858.5558 1540.2734 0.0000 0.0000 1745.4318 -7563.2808 295.9869 -9308.7126 -7479.1905 299.5381 755.4063 766.0525 30163.8227 -101.8394 -44.6008
TCL: Exiting due to exit command.
