Info: SIMULATION PARAMETERS:
Info: TIMESTEP               2
Info: NUMBER OF STEPS        0
Info: STEPS PER CYCLE        10
Info: PERIODIC CELL BASIS 1  30.9665 0 0
Info: PERIODIC CELL BASIS 2  0 31.6683 0
Info: PERIODIC CELL BASIS 3  0 0 30.9195
Info: PERIODIC CELL CENTER   0 0 0
Info: WRAPPING WATERS AROUND PERIODIC BOUNDARIES ON OUTPUT.
Info: WRAPPING ALL CLUSTERS AROUND PERIODIC BOUNDARIES ON OUTPUT.
Info: FIRST LDB TIMESTEP     50
Info: LAST LDB TIMESTEP     -1
Info: HOM BACKGROUND SCALING 1
Info: PME BACKGROUND SCALING 1
Info: MIN ATOMS PER PATCH    40
Info: EMPTY PATCH LOAD       40 ATOMS
Info: VELOCITY FILE          mobley_525934_equil.vel
Info: CENTER OF MASS MOVING INITIALLY? NO
Info: DIELECTRIC             1
Info: EXCLUDE                SCALED ONE-FOUR
Info: 1-4 ELECTROSTATICS SCALED BY 0.833333
Info: MODIFIED 1-4 VDW PARAMETERS WILL BE USED
Info: DCD FILENAME           mobley_525934_prod.dcd
Info: DCD FREQUENCY          100000
Info: DCD FIRST STEP         100000
Info: DCD FILE WILL CONTAIN UNIT CELL DATA
Info: XST FILENAME           mobley_525934_prod.xst
Info: XST FREQUENCY          100000
Info: NO VELOCITY DCD OUTPUT
Info: NO FORCE DCD OUTPUT
Info: OUTPUT FILENAME        mobley_525934_prod
Info: BINARY OUTPUT FILES WILL BE USED
Info: RESTART FILENAME       mobley_525934_prod.restart
Info: RESTART FREQUENCY      100000
Info: BINARY RESTART FILES WILL BE USED
Info: CUTOFF                 9
Info: PAIRLIST DISTANCE      11
Info: PAIRLIST SHRINK RATE   0.01
Info: PAIRLIST GROW RATE     0.01
Info: PAIRLIST TRIGGER       0.3
Info: PAIRLISTS PER CYCLE    2
Info: PAIRLISTS ENABLED
Info: MARGIN                 2
Info: HYDROGEN GROUP CUTOFF  2.5
Info: PATCH DIMENSION        15.5
Info: ENERGY OUTPUT STEPS    100000
Info: ENERGY EVALUATION STEPS    100000
Info: OUTPUT ENERGY PRECISION 4
Info: CROSSTERM ENERGY INCLUDED IN DIHEDRAL
Info: TIMING OUTPUT STEPS    1000000
Info: PRESSURE OUTPUT STEPS  100000
Info: ALCHEMICAL FEP ON
Info: FEP CURRENT LAMBDA VALUE     1
Info: FEP COMPARISON LAMBDA VALUE  0.95
Info: FEP INTRA-ALCHEMICAL NON-BONDED INTERACTIONS WILL BE RETAINED
Info: FEP INTRA-ALCHEMICAL BONDED INTERACTIONS WILL BE RETAINED
Info: FEP VDW SHIFTING COEFFICIENT 5
Info: FEP ELEC. ACTIVE FOR ANNIHILATED PARTICLES BETWEEN LAMBDA = 0 AND LAMBDA = 0.5
Info: FEP ELEC. ACTIVE FOR EXNIHILATED PARTICLES BETWEEN LAMBDA = 0.5 AND LAMBDA = 1
Info: FEP VDW ACTIVE FOR ANNIHILATED PARTICLES BETWEEN LAMBDA = 0 AND LAMBDA = 1
Info: FEP VDW ACTIVE FOR EXNIHILATED PARTICLES BETWEEN LAMBDA = 0 AND LAMBDA = 1
Info: FEP BOND ACTIVE FOR ANNIHILATED PARTICLES BETWEEN LAMBDA = 1 AND LAMBDA = 1
Info: FEP BOND ACTIVE FOR EXNIHILATED PARTICLES BETWEEN LAMBDA = 0 AND LAMBDA = 0
Info: LANGEVIN DYNAMICS ACTIVE
Info: LANGEVIN TEMPERATURE   300
Info: LANGEVIN USING BBK INTEGRATOR
Info: LANGEVIN DAMPING COEFFICIENT IS 1 INVERSE PS
Info: LANGEVIN DYNAMICS APPLIED TO HYDROGENS
Info: LANGEVIN PISTON PRESSURE CONTROL ACTIVE
Info:        TARGET PRESSURE IS 1.01325 BAR
Info:     OSCILLATION PERIOD IS 50 FS
Info:             DECAY TIME IS 25 FS
Info:     PISTON TEMPERATURE IS 300 K
Info:       PRESSURE CONTROL IS GROUP-BASED
Info:    INITIAL STRAIN RATE IS -0.000410069 -0.000410069 -0.000410069
Info:       CELL FLUCTUATION IS ISOTROPIC
Info: PARTICLE MESH EWALD (PME) ACTIVE
Info: PME TOLERANCE               1e-06
Info: PME EWALD COEFFICIENT       0.348832
Info: PME INTERPOLATION ORDER     4
Info: PME GRID DIMENSIONS         32 32 32
Info: PME MAXIMUM GRID SPACING    1
Info: PME CALCULATION WILL BE PERFORMED ON GPU
Info: FULL ELECTROSTATIC EVALUATION FREQUENCY      2
Info: USING VERLET I (r-RESPA) MTS SCHEME.
Info: C1 SPLITTING OF LONG RANGE ELECTROSTATICS
Info: PLACING ATOMS IN PATCHES BY HYDROGEN GROUPS
Info: RIGID BONDS TO HYDROGEN : ALL
Info:         ERROR TOLERANCE : 1e-08
Info:          MAX ITERATIONS : 100
Info: RIGID WATER USING SETTLE ALGORITHM
Info: RANDOM NUMBER SEED     1743486403
Info: USE HYDROGEN BONDS?    NO
Info: Using AMBER format force field!
Info: AMBER PARM FILE        mobley_525934.prmtop
Info: COORDINATE PDB         mobley_525934.pdb
Info: Exclusions will be read from PARM file!
Info: SCNB (VDW SCALING)     2
Info: USING ARITHMETIC MEAN TO COMBINE L-J SIGMA PARAMETERS
Info: BINARY COORDINATES     mobley_525934_equil.coor
Info: SUMMARY OF PARAMETERS:
Info: 5 BONDS
Info: 3 ANGLES
Info:   3 HARMONIC
Info:   0 COSINE-BASED
Info: 1 DIHEDRAL
Info: 0 IMPROPER
Info: 0 CROSSTERM
Info: 0 VDW
Info: 21 VDW_PAIRS
Info: 0 NBTHOLE_PAIRS
Info: To read alchdata from file: mobley_525934.pdb
Info: To read alchflag data from column: 5
Info: STRUCTURE SUMMARY:
Info: 2904 ATOMS
Info: 2903 BONDS
Info: 7 ANGLES
Info: 3 DIHEDRALS
Info: 0 IMPROPERS
Info: 0 CROSSTERMS
Info: 2913 EXCLUSIONS
Info: 2902 RIGID BONDS
Info: ALCH: 0 ATOMS TO DISAPPEAR IN FINAL STATE
Info: ALCH: 6 ATOMS TO APPEAR IN FINAL STATE
Info: 5810 DEGREES OF FREEDOM
Info: 968 HYDROGEN GROUPS
Info: 4 ATOMS IN LARGEST HYDROGEN GROUP
Info: 968 MIGRATION GROUPS
Info: 4 ATOMS IN LARGEST MIGRATION GROUP
Info: TOTAL MASS = 17451.6 amu
Info: TOTAL CHARGE = 1.86265e-08 e
Info: MASS DENSITY = 0.955748 g/cm^3
Info: ATOM DENSITY = 0.0957738 atoms/A^3
Info: ADDED 0 IMPLICIT EXCLUSIONS
Info: NONBONDED TABLE R-SQUARED SPACING: 0.0625
Info: NONBONDED TABLE SIZE: 705 POINTS
Info: REMOVING COM VELOCITY -0.16299 -0.14203 -0.0855277
Info: Use 3D box decompostion in PME FFT.
Info: Updated CUDA force table with 4096 elements.
Info: Updated CUDA LJ table with 6 x 6 elements.
Info: Found 9 unique exclusion lists needing 12 bytes
TCL: Running for 1500000 steps
ETITLE: TS BOND ANGLE DIHED IMPRP ELECT VDW BOUNDARY MISC KINETIC TOTAL TEMP POTENTIAL TOTALAVG TEMPAVG PRESSURE GPRESSURE VOLUME PRESSAVG GPRESSAVG
ENERGY: 0 0.3864 1.9339 0.1452 0.0000 -10585.0852 1396.4005 0.0000 0.0000 1709.5667 -7476.6525 296.1422 -9186.2192 -7476.6525 296.1422 -624.7130 -554.2891 30321.4512 -624.7130 -554.2891
ENERGY: 300000 0.0541 3.0045 1.3488 0.0000 -10532.8593 1448.8260 0.0000 0.0000 1737.8584 -7341.7675 301.0431 -9079.6259 -7424.8927 303.2058 617.0969 673.7909 29592.3897 -102.4851 -27.6668
ENERGY: 600000 0.0011 3.2904 0.1832 0.0000 -10506.2521 1327.5023 0.0000 0.0000 1763.5057 -7411.7695 305.4859 -9175.2751 -7412.6767 304.5979 -879.9802 -782.8562 29909.5647 -44.3285 25.3697
ENERGY: 900000 1.3887 1.8241 0.3324 0.0000 -10516.0747 1376.1130 0.0000 0.0000 1703.4969 -7432.9197 295.0908 -9136.4166 -7421.1402 301.0188 -374.5002 -274.2706 29805.7234 -60.8576 7.1462
ENERGY: 1200000 0.1686 0.6457 0.8351 0.0000 -10514.8403 1371.5881 0.0000 0.0000 1681.6129 -7459.9900 291.2999 -9141.6029 -7419.0114 299.9267 -210.6172 -198.0563 29634.8241 -79.8002 -21.3608
ENERGY: 1500000 0.0193 2.3841 0.0716 0.0000 -10479.8890 1385.3790 0.0000 0.0000 1689.1123 -7402.9227 292.5990 -9092.0351 -7417.9275 299.2131 -284.1556 -287.3582 30418.1081 -199.5148 -146.8528
TCL: Running FEP window   2: Lambda1 0.95   Lambda2 0.8999999999999999 [dLambda -0.050000000000000044]
TCL: Setting parameter firsttimestep to 0
TCL: Setting parameter alchLambda to 0.95
Info: NONBONDED TABLE R-SQUARED SPACING: 0.0625
Info: NONBONDED TABLE SIZE: 705 POINTS
TCL: Setting parameter alchLambda2 to 0.8999999999999999
Info: NONBONDED TABLE R-SQUARED SPACING: 0.0625
Info: NONBONDED TABLE SIZE: 705 POINTS
TCL: Running for 1500000 steps
ETITLE: TS BOND ANGLE DIHED IMPRP ELECT VDW BOUNDARY MISC KINETIC TOTAL TEMP POTENTIAL TOTALAVG TEMPAVG PRESSURE GPRESSURE VOLUME PRESSAVG GPRESSAVG
ENERGY: 0 0.0193 2.3841 0.0716 0.0000 -10479.5168 1384.4981 0.0000 0.0000 1688.2321 -7404.3116 292.4465 -9092.5437 -7404.3116 292.4465 -383.9696 -306.1181 30418.1081 -383.9696 -306.1181
ENERGY: 300000 0.1042 2.2629 0.1176 0.0000 -10736.0356 1552.0525 0.0000 0.0000 1694.6027 -7486.8957 293.5500 -9181.4984 -7443.4238 298.5873 1087.4751 1096.5266 29638.9502 25.8057 86.8378
ENERGY: 600000 0.0002 1.7635 0.6145 0.0000 -10622.0708 1528.1794 0.0000 0.0000 1829.4421 -7262.0711 316.9078 -9091.5132 -7397.7546 303.3546 909.8869 995.5231 29997.4091 -54.1836 16.0427
ENERGY: 900000 0.2191 1.7383 1.2339 0.0000 -10680.1076 1554.1497 0.0000 0.0000 1749.0621 -7373.7045 302.9838 -9122.7666 -7386.3429 303.2190 1005.6024 1092.6188 29633.1169 -41.1847 24.6706
ENERGY: 1200000 1.2572 0.6381 0.0066 0.0000 -10487.7586 1379.2047 0.0000 0.0000 1715.8385 -7390.8136 297.2286 -9106.6521 -7390.2892 302.1847 -449.5901 -404.1241 30368.2415 -43.8040 22.0724
ENERGY: 1500000 0.0577 0.8012 1.1861 0.0000 -10627.1961 1435.3963 0.0000 0.0000 1694.3648 -7495.3901 293.5088 -9189.7548 -7407.1372 300.4249 -18.6296 44.7207 29949.2876 -45.4451 15.4998
TCL: Running FEP window   3: Lambda1 0.8999999999999999 Lambda2 0.8499999999999999 [dLambda -0.050000000000000044]
TCL: Setting parameter firsttimestep to 0
TCL: Setting parameter alchLambda to 0.8999999999999999
Info: NONBONDED TABLE R-SQUARED SPACING: 0.0625
Info: NONBONDED TABLE SIZE: 705 POINTS
TCL: Setting parameter alchLambda2 to 0.8499999999999999
Info: NONBONDED TABLE R-SQUARED SPACING: 0.0625
Info: NONBONDED TABLE SIZE: 705 POINTS
TCL: Running for 1500000 steps
ETITLE: TS BOND ANGLE DIHED IMPRP ELECT VDW BOUNDARY MISC KINETIC TOTAL TEMP POTENTIAL TOTALAVG TEMPAVG PRESSURE GPRESSURE VOLUME PRESSAVG GPRESSAVG
ENERGY: 0 0.0577 0.8012 1.1861 0.0000 -10626.6347 1435.4948 0.0000 0.0000 1693.4748 -7495.6202 293.3547 -9189.0950 -7495.6202 293.3547 -50.7708 41.4660 29949.2876 -50.7708 41.4660
ENERGY: 300000 0.1383 1.0281 0.5569 0.0000 -10692.3473 1481.1547 0.0000 0.0000 1696.4486 -7513.0208 293.8698 -9209.4693 -7456.1026 296.8744 566.1910 551.2278 29498.8406 -74.1710 5.3860
ENERGY: 600000 0.0717 0.8979 0.0222 0.0000 -10554.4981 1369.0079 0.0000 0.0000 1733.4689 -7451.0295 300.2827 -9184.4984 -7427.4294 299.7308 -731.9656 -633.3715 30279.6894 -44.4902 44.0456
ENERGY: 900000 0.4577 1.3617 0.8851 0.0000 -10471.7159 1387.6227 0.0000 0.0000 1698.7631 -7382.6256 294.2707 -9081.3888 -7424.1325 299.8753 -474.9329 -383.0081 30345.3334 25.4172 98.7525
ENERGY: 1200000 1.8397 1.7489 0.2988 0.0000 -10534.4808 1386.5800 0.0000 0.0000 1674.8801 -7469.1332 290.1336 -9144.0134 -7418.0021 299.2381 -510.4774 -450.2495 30007.4121 64.5193 140.2455
ENERGY: 1500000 0.0406 3.5961 0.0323 0.0000 -10574.0574 1470.6180 0.0000 0.0000 1830.3069 -7269.4635 317.0576 -9099.7705 -7406.7704 300.1660 439.7308 561.0716 29984.9912 19.9512 97.0004
TCL: Running FEP window   4: Lambda1 0.8499999999999999 Lambda2 0.7999999999999998 [dLambda -0.050000000000000044]
TCL: Setting parameter firsttimestep to 0
TCL: Setting parameter alchLambda to 0.8499999999999999
Info: NONBONDED TABLE R-SQUARED SPACING: 0.0625
Info: NONBONDED TABLE SIZE: 705 POINTS
TCL: Setting parameter alchLambda2 to 0.7999999999999998
Info: NONBONDED TABLE R-SQUARED SPACING: 0.0625
Info: NONBONDED TABLE SIZE: 705 POINTS
TCL: Running for 1500000 steps
ETITLE: TS BOND ANGLE DIHED IMPRP ELECT VDW BOUNDARY MISC KINETIC TOTAL TEMP POTENTIAL TOTALAVG TEMPAVG PRESSURE GPRESSURE VOLUME PRESSAVG GPRESSAVG
ENERGY: 0 0.0406 3.5961 0.0323 0.0000 -10573.3630 1470.5908 0.0000 0.0000 1829.4318 -7269.6715 316.9060 -9099.1032 -7269.6715 316.9060 456.0764 553.9282 29984.9912 456.0764 553.9282
ENERGY: 300000 0.0372 1.4495 0.2597 0.0000 -10437.2992 1361.1712 0.0000 0.0000 1715.0004 -7359.3812 297.0835 -9074.3816 -7299.6287 307.5553 -277.0625 -214.8623 29810.9596 32.9277 106.5639
ENERGY: 600000 0.0476 3.8012 1.1756 0.0000 -10518.9940 1446.7023 0.0000 0.0000 1690.3254 -7376.9419 292.8091 -9067.2673 -7312.6456 303.6384 460.6148 538.3919 29582.9411 187.1519 250.6029
ENERGY: 900000 0.1844 1.4567 0.2659 0.0000 -10633.9129 1544.3998 0.0000 0.0000 1819.7950 -7267.8112 315.2367 -9087.6062 -7312.2014 304.2858 1131.7365 1246.0209 29836.5504 249.6602 322.2039
ENERGY: 1200000 0.0962 1.0222 0.3885 0.0000 -10491.9487 1346.2475 0.0000 0.0000 1740.3084 -7403.8859 301.4675 -9144.1943 -7333.3977 303.6113 -776.1863 -714.1641 29883.0822 125.0412 199.2093
ENERGY: 1500000 0.9808 0.5757 0.0117 0.0000 -10680.9571 1507.0955 0.0000 0.0000 1711.4269 -7460.8664 296.4644 -9172.2933 -7351.4547 302.1939 491.1704 550.4356 29849.2903 117.2731 187.1452
TCL: Running FEP window   5: Lambda1 0.7999999999999998 Lambda2 0.7499999999999998 [dLambda -0.050000000000000044]
TCL: Setting parameter firsttimestep to 0
TCL: Setting parameter alchLambda to 0.7999999999999998
Info: NONBONDED TABLE R-SQUARED SPACING: 0.0625
Info: NONBONDED TABLE SIZE: 705 POINTS
TCL: Setting parameter alchLambda2 to 0.7499999999999998
Info: NONBONDED TABLE R-SQUARED SPACING: 0.0625
Info: NONBONDED TABLE SIZE: 705 POINTS
TCL: Running for 1500000 steps
ETITLE: TS BOND ANGLE DIHED IMPRP ELECT VDW BOUNDARY MISC KINETIC TOTAL TEMP POTENTIAL TOTALAVG TEMPAVG PRESSURE GPRESSURE VOLUME PRESSAVG GPRESSAVG
ENERGY: 0 0.9808 0.5757 0.0117 0.0000 -10680.4315 1507.4020 0.0000 0.0000 1710.5551 -7460.9062 296.3134 -9171.4614 -7460.9062 296.3134 451.0412 550.2054 29849.2903 451.0412 550.2054
ENERGY: 300000 0.7788 0.5336 0.2281 0.0000 -10697.6483 1471.1899 0.0000 0.0000 1697.2979 -7527.6200 294.0169 -9224.9179 -7419.8676 299.3032 213.6373 271.0715 29679.9724 -23.8398 72.1468
ENERGY: 600000 0.1870 1.7791 0.6281 0.0000 -10487.8542 1391.2610 0.0000 0.0000 1821.7649 -7272.2341 315.5779 -9093.9990 -7408.8207 299.9744 -62.3829 -35.2107 30076.0793 -88.0774 -12.5397
ENERGY: 900000 0.0704 2.7566 0.2581 0.0000 -10538.6363 1420.5714 0.0000 0.0000 1689.2795 -7425.7003 292.6279 -9114.9798 -7404.4370 299.5987 -432.4566 -336.3573 30636.7450 -76.5836 -7.8771
ENERGY: 1200000 0.0045 3.2474 0.3152 0.0000 -10535.2437 1438.3328 0.0000 0.0000 1718.2169 -7375.1269 297.6407 -9093.3439 -7397.6301 299.2661 273.9684 297.5629 29742.2877 -4.7753 64.5523
ENERGY: 1500000 0.0645 1.6976 0.6736 0.0000 -10512.6291 1381.2358 0.0000 0.0000 1755.5244 -7373.4332 304.1033 -9128.9576 -7393.9047 299.8371 -224.9709 -134.1890 29829.2984 -77.1575 -3.3418
TCL: Running FEP window   6: Lambda1 0.7499999999999998 Lambda2 0.6999999999999997 [dLambda -0.050000000000000044]
TCL: Setting parameter firsttimestep to 0
TCL: Setting parameter alchLambda to 0.7499999999999998
Info: NONBONDED TABLE R-SQUARED SPACING: 0.0625
Info: NONBONDED TABLE SIZE: 705 POINTS
TCL: Setting parameter alchLambda2 to 0.6999999999999997
Info: NONBONDED TABLE R-SQUARED SPACING: 0.0625
Info: NONBONDED TABLE SIZE: 705 POINTS
TCL: Running for 1500000 steps
ETITLE: TS BOND ANGLE DIHED IMPRP ELECT VDW BOUNDARY MISC KINETIC TOTAL TEMP POTENTIAL TOTALAVG TEMPAVG PRESSURE GPRESSURE VOLUME PRESSAVG GPRESSAVG
ENERGY: 0 0.0645 1.6976 0.6736 0.0000 -10512.3099 1381.1572 0.0000 0.0000 1754.6607 -7374.0563 303.9537 -9128.7170 -7374.0563 303.9537 -209.1201 -136.5083 29829.2984 -209.1201 -136.5083
ENERGY: 300000 0.1316 0.4724 0.3159 0.0000 -10600.1228 1452.2843 0.0000 0.0000 1681.9270 -7464.9916 291.3543 -9146.9186 -7455.2924 293.9558 65.1482 123.8194 29892.1564 -221.7343 -154.6690
ENERGY: 600000 0.2573 1.0423 0.4737 0.0000 -10497.0041 1363.7291 0.0000 0.0000 1707.2051 -7424.2965 295.7331 -9131.5016 -7461.3512 294.4244 -696.4950 -588.4243 30424.2020 -215.4883 -136.7401
ENERGY: 900000 0.0010 2.1040 0.2370 0.0000 -10616.9833 1486.2518 0.0000 0.0000 1674.1712 -7454.2184 290.0108 -9128.3895 -7456.5297 294.9843 286.1554 364.3027 30009.3711 -60.7046 9.2908
ENERGY: 1200000 0.1363 1.7210 0.2563 0.0000 -10600.1836 1417.4534 0.0000 0.0000 1755.6914 -7424.9252 304.1322 -9180.6167 -7440.1760 295.6706 194.9129 214.7030 29320.4602 -72.1152 -14.7904
ENERGY: 1500000 0.1478 0.7615 0.0341 0.0000 -10508.3673 1421.6157 0.0000 0.0000 1683.8172 -7401.9910 291.6817 -9085.8082 -7430.2972 296.5105 281.0944 305.9174 29463.1068 -95.1413 -41.3769
TCL: Running FEP window   7: Lambda1 0.6999999999999997 Lambda2 0.6499999999999997 [dLambda -0.050000000000000044]
TCL: Setting parameter firsttimestep to 0
TCL: Setting parameter alchLambda to 0.6999999999999997
Info: NONBONDED TABLE R-SQUARED SPACING: 0.0625
Info: NONBONDED TABLE SIZE: 705 POINTS
TCL: Setting parameter alchLambda2 to 0.6499999999999997
Info: NONBONDED TABLE R-SQUARED SPACING: 0.0625
Info: NONBONDED TABLE SIZE: 705 POINTS
TCL: Running for 1500000 steps
ETITLE: TS BOND ANGLE DIHED IMPRP ELECT VDW BOUNDARY MISC KINETIC TOTAL TEMP POTENTIAL TOTALAVG TEMPAVG PRESSURE GPRESSURE VOLUME PRESSAVG GPRESSAVG
ENERGY: 0 0.1478 0.7615 0.0341 0.0000 -10507.7712 1421.0435 0.0000 0.0000 1682.9511 -7402.8331 291.5317 -9085.7842 -7402.8331 291.5317 206.2069 294.2246 29463.1068 206.2069 294.2246
ENERGY: 300000 0.1649 3.1152 0.3456 0.0000 -10577.8998 1392.6940 0.0000 0.0000 1715.0296 -7466.5504 297.0885 -9181.5800 -7418.7830 296.6482 -301.0649 -266.3121 29892.8807 -163.8067 -85.1320
ENERGY: 600000 0.5282 1.3898 0.4657 0.0000 -10629.4168 1465.7511 0.0000 0.0000 1713.0128 -7448.2692 296.7392 -9161.2820 -7410.9267 298.1188 96.2852 157.0285 30073.7821 9.3722 66.5152
ENERGY: 900000 0.0045 1.9320 0.0926 0.0000 -10513.3820 1350.9726 0.0000 0.0000 1781.5942 -7378.7861 308.6193 -9160.3804 -7398.9830 299.7313 -516.1259 -484.8257 29875.3695 -64.1163 -16.1442
ENERGY: 1200000 0.0031 0.9916 0.9097 0.0000 -10595.5724 1395.2747 0.0000 0.0000 1746.6241 -7451.7693 302.5615 -9198.3934 -7399.8440 299.3496 -592.2508 -549.0656 30279.8922 -144.1701 -92.3456
ENERGY: 1500000 0.0130 2.0674 1.3269 0.0000 -10622.2269 1438.0338 0.0000 0.0000 1739.6898 -7441.0959 301.3603 -9180.7857 -7398.6692 299.2492 55.9905 135.3749 29865.1162 -111.1262 -56.1241
TCL: Running FEP window   8: Lambda1 0.6499999999999997 Lambda2 0.5999999999999996 [dLambda -0.050000000000000044]
TCL: Setting parameter firsttimestep to 0
TCL: Setting parameter alchLambda to 0.6499999999999997
Info: NONBONDED TABLE R-SQUARED SPACING: 0.0625
Info: NONBONDED TABLE SIZE: 705 POINTS
TCL: Setting parameter alchLambda2 to 0.5999999999999996
Info: NONBONDED TABLE R-SQUARED SPACING: 0.0625
Info: NONBONDED TABLE SIZE: 705 POINTS
TCL: Running for 1500000 steps
ETITLE: TS BOND ANGLE DIHED IMPRP ELECT VDW BOUNDARY MISC KINETIC TOTAL TEMP POTENTIAL TOTALAVG TEMPAVG PRESSURE GPRESSURE VOLUME PRESSAVG GPRESSAVG
ENERGY: 0 0.0130 2.0674 1.3269 0.0000 -10622.0673 1437.7027 0.0000 0.0000 1738.8320 -7442.1253 301.2117 -9180.9572 -7442.1253 301.2117 41.3655 126.8784 29865.1162 41.3655 126.8784
ENERGY: 300000 0.0003 2.0978 0.0156 0.0000 -10461.7431 1382.0691 0.0000 0.0000 1731.2095 -7346.3509 299.8913 -9077.5603 -7408.9633 299.9777 -5.4190 77.6668 29574.4877 92.8899 151.4435
ENERGY: 600000 0.0113 1.5097 0.2150 0.0000 -10505.8826 1311.2365 0.0000 0.0000 1752.9077 -7440.0024 303.6500 -9192.9101 -7408.5654 300.2173 -1207.6783 -1072.5580 30208.8272 -62.1918 7.5010
ENERGY: 900000 0.9069 0.9862 0.6091 0.0000 -10641.5984 1455.9892 0.0000 0.0000 1731.6158 -7451.4912 299.9617 -9183.1070 -7413.4087 300.1354 222.2294 299.7077 29634.0296 36.4822 107.3527
ENERGY: 1200000 0.1070 3.1629 1.0287 0.0000 -10604.8508 1425.6589 0.0000 0.0000 1691.6837 -7483.2096 293.0444 -9174.8933 -7417.4192 300.0104 61.0363 28.1245 29457.9508 164.8648 221.5796
ENERGY: 1500000 0.0200 1.0244 0.0493 0.0000 -10668.5010 1464.4933 0.0000 0.0000 1715.1043 -7487.8096 297.1015 -9202.9139 -7421.3447 299.8824 333.5705 326.3601 29384.6972 122.9648 178.4249
TCL: Running FEP window   9: Lambda1 0.5999999999999996 Lambda2 0.5499999999999996 [dLambda -0.050000000000000044]
TCL: Setting parameter firsttimestep to 0
TCL: Setting parameter alchLambda to 0.5999999999999996
Info: NONBONDED TABLE R-SQUARED SPACING: 0.0625
Info: NONBONDED TABLE SIZE: 705 POINTS
TCL: Setting parameter alchLambda2 to 0.5499999999999996
Info: NONBONDED TABLE R-SQUARED SPACING: 0.0625
Info: NONBONDED TABLE SIZE: 705 POINTS
TCL: Running for 1500000 steps
ETITLE: TS BOND ANGLE DIHED IMPRP ELECT VDW BOUNDARY MISC KINETIC TOTAL TEMP POTENTIAL TOTALAVG TEMPAVG PRESSURE GPRESSURE VOLUME PRESSAVG GPRESSAVG
ENERGY: 0 0.0200 1.0244 0.0493 0.0000 -10668.2789 1464.5404 0.0000 0.0000 1714.2411 -7488.4036 296.9519 -9202.6447 -7488.4036 296.9519 249.0070 321.8768 29384.6972 249.0070 321.8768
ENERGY: 300000 1.2967 1.1929 0.4037 0.0000 -10667.0646 1505.2243 0.0000 0.0000 1705.1339 -7453.8129 295.3743 -9158.9469 -7458.5353 297.7955 756.6266 782.4898 29501.2641 522.5930 550.7998
ENERGY: 600000 0.3718 1.5783 0.0779 0.0000 -10639.3945 1482.3251 0.0000 0.0000 1755.2888 -7399.7527 304.0625 -9155.0414 -7443.3114 297.8639 608.1431 657.3860 29453.4891 308.3040 353.0854
ENERGY: 900000 0.0001 1.3825 0.0468 0.0000 -10535.6258 1446.6804 0.0000 0.0000 1801.3389 -7286.1771 312.0396 -9087.5160 -7411.9726 300.6913 314.4453 275.0542 29969.2311 232.8534 275.0571
ENERGY: 1200000 0.2205 0.9317 0.0480 0.0000 -10431.2732 1332.0053 0.0000 0.0000 1702.5762 -7395.4916 294.9313 -9098.0678 -7418.4071 299.9277 -708.8703 -650.4068 29978.0292 161.2707 210.9784
ENERGY: 1500000 0.1464 2.1449 0.2825 0.0000 -10502.1346 1382.1789 0.0000 0.0000 1714.9430 -7402.4390 297.0735 -9117.3820 -7406.9756 299.6043 -75.1308 -105.3097 29804.3926 144.6371 186.5592
TCL: Running FEP window  10: Lambda1 0.5499999999999996 Lambda2 0.4999999999999996 [dLambda -0.04999999999999999]
TCL: Setting parameter firsttimestep to 0
TCL: Setting parameter alchLambda to 0.5499999999999996
Info: NONBONDED TABLE R-SQUARED SPACING: 0.0625
Info: NONBONDED TABLE SIZE: 705 POINTS
TCL: Setting parameter alchLambda2 to 0.4999999999999996
Info: NONBONDED TABLE R-SQUARED SPACING: 0.0625
Info: NONBONDED TABLE SIZE: 705 POINTS
TCL: Running for 1500000 steps
ETITLE: TS BOND ANGLE DIHED IMPRP ELECT VDW BOUNDARY MISC KINETIC TOTAL TEMP POTENTIAL TOTALAVG TEMPAVG PRESSURE GPRESSURE VOLUME PRESSAVG GPRESSAVG
ENERGY: 0 0.1464 2.1449 0.2825 0.0000 -10502.2669 1382.0890 0.0000 0.0000 1714.0391 -7403.5651 296.9169 -9117.6043 -7403.5651 296.9169 -194.3908 -109.3532 29804.3926 -194.3908 -109.3532
ENERGY: 300000 0.9492 1.6947 0.3224 0.0000 -10433.2584 1348.8393 0.0000 0.0000 1727.1732 -7354.2796 299.1921 -9081.4528 -7375.8448 298.1102 -400.7588 -373.3823 30047.9759 -56.8284 -18.0527
ENERGY: 600000 1.5737 0.7723 0.5088 0.0000 -10607.3049 1464.6879 0.0000 0.0000 1678.0536 -7461.7086 290.6833 -9139.7623 -7390.4866 296.1064 226.1421 228.0876 29951.5380 -52.1830 -16.2830
ENERGY: 900000 0.7913 3.7456 0.0643 0.0000 -10568.2086 1413.3829 0.0000 0.0000 1724.6727 -7425.5518 298.7590 -9150.2245 -7385.7733 297.8476 -313.8530 -217.2744 29998.2436 -83.6676 -39.9290
ENERGY: 1200000 0.0077 2.5890 0.5339 0.0000 -10574.1857 1459.3478 0.0000 0.0000 1715.2414 -7396.4659 297.1252 -9111.7074 -7388.8569 298.3873 351.4537 361.8469 29932.1657 9.4766 52.7675
ENERGY: 1500000 0.1028 4.0525 0.1829 0.0000 -10577.2842 1419.7431 0.0000 0.0000 1738.8034 -7414.3995 301.2068 -9153.2028 -7383.4458 298.7589 -273.5079 -197.0241 30129.7530 -43.9906 5.5089
TCL: Running FEP window  11: Lambda1 0.4999999999999996 Lambda2 0.4499999999999996 [dLambda -0.04999999999999999]
TCL: Setting parameter firsttimestep to 0
TCL: Setting parameter alchLambda to 0.4999999999999996
Info: NONBONDED TABLE R-SQUARED SPACING: 0.0625
Info: NONBONDED TABLE SIZE: 705 POINTS
TCL: Setting parameter alchLambda2 to 0.4499999999999996
Info: NONBONDED TABLE R-SQUARED SPACING: 0.0625
Info: NONBONDED TABLE SIZE: 705 POINTS
TCL: Running for 1500000 steps
ETITLE: TS BOND ANGLE DIHED IMPRP ELECT VDW BOUNDARY MISC KINETIC TOTAL TEMP POTENTIAL TOTALAVG TEMPAVG PRESSURE GPRESSURE VOLUME PRESSAVG GPRESSAVG
ENERGY: 0 0.1028 4.0525 0.1829 0.0000 -10577.0916 1419.8641 0.0000 0.0000 1737.9516 -7414.9376 301.0592 -9152.8892 -7414.9376 301.0592 -287.4827 -199.8988 30129.7530 -287.4827 -199.8988
ENERGY: 300000 0.2445 5.9321 0.0172 0.0000 -10716.1900 1467.2305 0.0000 0.0000 1773.4726 -7469.2931 307.2124 -9242.7657 -7386.9401 304.6885 -65.6629 7.1241 29852.5329 52.3462 97.5189
ENERGY: 600000 0.3441 1.9593 0.4382 0.0000 -10374.5088 1317.2997 0.0000 0.0000 1711.5362 -7342.9313 296.4834 -9054.4675 -7380.9883 302.7472 -628.7077 -539.0649 30023.4698 -37.1351 28.3791
ENERGY: 900000 0.4534 1.8603 0.3491 0.0000 -10559.3463 1414.1292 0.0000 0.0000 1758.7366 -7383.8177 304.6597 -9142.5544 -7374.6830 301.9412 149.0421 174.7275 29669.0010 -110.8149 -51.3873
ENERGY: 1200000 0.1045 1.0610 1.0548 0.0000 -10521.7388 1423.1488 0.0000 0.0000 1768.4675 -7327.9022 306.3454 -9096.3697 -7368.7963 302.2989 67.3452 114.0901 29816.1479 -76.3236 -13.3012
ENERGY: 1500000 0.0338 1.4248 0.0568 0.0000 -10600.9634 1428.0474 0.0000 0.0000 1757.3751 -7414.0256 304.4239 -9171.4007 -7376.4412 302.3963 -495.0779 -393.9963 30799.5361 -112.7119 -45.4586
TCL: Running FEP window  12: Lambda1 0.4499999999999996 Lambda2 0.39999999999999963 [dLambda -0.04999999999999999]
TCL: Setting parameter firsttimestep to 0
TCL: Setting parameter alchLambda to 0.4499999999999996
Info: NONBONDED TABLE R-SQUARED SPACING: 0.0625
Info: NONBONDED TABLE SIZE: 705 POINTS
TCL: Setting parameter alchLambda2 to 0.39999999999999963
Info: NONBONDED TABLE R-SQUARED SPACING: 0.0625
Info: NONBONDED TABLE SIZE: 705 POINTS
TCL: Running for 1500000 steps
ETITLE: TS BOND ANGLE DIHED IMPRP ELECT VDW BOUNDARY MISC KINETIC TOTAL TEMP POTENTIAL TOTALAVG TEMPAVG PRESSURE GPRESSURE VOLUME PRESSAVG GPRESSAVG
ENERGY: 0 0.0338 1.4248 0.0568 0.0000 -10600.9631 1428.1251 0.0000 0.0000 1756.5224 -7414.8004 304.2762 -9171.3227 -7414.8004 304.2762 -486.2000 -396.7532 30799.5361 -486.2000 -396.7532
ENERGY: 300000 0.5977 0.5803 0.0994 0.0000 -10466.8152 1372.8484 0.0000 0.0000 1739.8008 -7352.8885 301.3796 -9092.6893 -7379.6279 300.9033 -311.0331 -214.9569 29774.3577 -11.4395 53.8266
ENERGY: 600000 0.4449 3.2631 0.3993 0.0000 -10420.8977 1341.0228 0.0000 0.0000 1732.8045 -7342.9631 300.1676 -9075.7677 -7363.6540 301.2221 -479.9129 -399.7874 29837.2055 -132.9494 -71.2058
ENERGY: 900000 0.0009 4.1055 0.1194 0.0000 -10415.9792 1347.1501 0.0000 0.0000 1777.3337 -7287.2695 307.8812 -9064.6032 -7358.2235 301.3010 -642.0316 -583.9094 30242.6231 -150.8199 -86.8035
ENERGY: 1200000 0.0315 3.9144 0.4798 0.0000 -10481.9226 1365.2625 0.0000 0.0000 1766.2339 -7346.0005 305.9585 -9112.2344 -7364.5062 301.9282 -508.7603 -469.2728 30353.2902 -153.7980 -93.4874
ENERGY: 1500000 0.0048 2.4434 0.2022 0.0000 -10585.3663 1373.2313 0.0000 0.0000 1745.5331 -7463.9515 302.3725 -9209.4846 -7370.8287 301.8058 -534.5209 -496.3893 29670.2003 -155.4714 -95.5494
TCL: Running FEP window  13: Lambda1 0.39999999999999963 Lambda2 0.34999999999999964 [dLambda -0.04999999999999999]
TCL: Setting parameter firsttimestep to 0
TCL: Setting parameter alchLambda to 0.39999999999999963
Info: NONBONDED TABLE R-SQUARED SPACING: 0.0625
Info: NONBONDED TABLE SIZE: 705 POINTS
TCL: Setting parameter alchLambda2 to 0.34999999999999964
Info: NONBONDED TABLE R-SQUARED SPACING: 0.0625
Info: NONBONDED TABLE SIZE: 705 POINTS
TCL: Running for 1500000 steps
ETITLE: TS BOND ANGLE DIHED IMPRP ELECT VDW BOUNDARY MISC KINETIC TOTAL TEMP POTENTIAL TOTALAVG TEMPAVG PRESSURE GPRESSURE VOLUME PRESSAVG GPRESSAVG
ENERGY: 0 0.0048 2.4434 0.2022 0.0000 -10585.3649 1373.3465 0.0000 0.0000 1744.6837 -7464.6843 302.2254 -9209.3680 -7464.6843 302.2254 -575.6865 -499.7972 29670.2003 -575.6865 -499.7972
ENERGY: 300000 0.3476 1.1730 0.0043 0.0000 -10620.6139 1444.7270 0.0000 0.0000 1626.6660 -7547.6960 281.7816 -9174.3620 -7477.6015 295.4432 -53.7875 20.1890 29748.8225 4.0520 64.6631
ENERGY: 600000 0.0043 2.0120 0.3013 0.0000 -10543.4889 1427.6290 0.0000 0.0000 1728.2284 -7385.3139 299.3749 -9113.5422 -7427.1429 298.2233 -198.1804 -83.6908 30145.4536 -12.3010 52.7626
ENERGY: 900000 0.0518 0.8929 0.2252 0.0000 -10453.8963 1407.8963 0.0000 0.0000 1671.5054 -7373.3246 289.5490 -9044.8301 -7426.0051 297.8646 192.6084 208.9831 29784.0638 26.2994 81.0587
ENERGY: 1200000 0.2898 1.2570 0.1273 0.0000 -10511.2275 1374.6489 0.0000 0.0000 1748.7722 -7386.1322 302.9336 -9134.9044 -7416.2426 298.6457 -503.4928 -413.9900 29902.2850 39.0445 97.9103
ENERGY: 1500000 0.1557 0.9508 0.4934 0.0000 -10611.6634 1446.9583 0.0000 0.0000 1748.8218 -7414.2833 302.9422 -9163.1051 -7412.7399 299.6297 45.5645 195.1277 29703.7432 97.9257 162.1880
TCL: Running FEP window  14: Lambda1 0.34999999999999964 Lambda2 0.29999999999999966 [dLambda -0.04999999999999999]
TCL: Setting parameter firsttimestep to 0
TCL: Setting parameter alchLambda to 0.34999999999999964
Info: NONBONDED TABLE R-SQUARED SPACING: 0.0625
Info: NONBONDED TABLE SIZE: 705 POINTS
TCL: Setting parameter alchLambda2 to 0.29999999999999966
Info: NONBONDED TABLE R-SQUARED SPACING: 0.0625
Info: NONBONDED TABLE SIZE: 705 POINTS
TCL: Running for 1500000 steps
ETITLE: TS BOND ANGLE DIHED IMPRP ELECT VDW BOUNDARY MISC KINETIC TOTAL TEMP POTENTIAL TOTALAVG TEMPAVG PRESSURE GPRESSURE VOLUME PRESSAVG GPRESSAVG
ENERGY: 0 0.1557 0.9508 0.4934 0.0000 -10611.6643 1446.2377 0.0000 0.0000 1747.9664 -7415.8603 302.7940 -9163.8266 -7415.8603 302.7940 104.6889 185.9560 29703.7432 104.6889 185.9560
ENERGY: 300000 0.4090 1.2972 0.4750 0.0000 -10499.4027 1433.0774 0.0000 0.0000 1735.2947 -7328.8495 300.5990 -9064.1441 -7378.6542 302.7880 280.0071 280.1176 30051.1811 126.0199 181.9836
ENERGY: 600000 0.2332 1.8588 0.0280 0.0000 -10540.9231 1387.0674 0.0000 0.0000 1762.1314 -7389.6042 305.2478 -9151.7356 -7373.0520 303.3859 -314.8963 -193.4556 29749.3725 77.1211 133.6862
ENERGY: 900000 0.0446 1.6039 0.4007 0.0000 -10526.1658 1447.2035 0.0000 0.0000 1736.8025 -7340.1106 300.8602 -9076.9131 -7359.1145 303.2454 373.1428 407.7523 29592.4221 17.2657 79.0189
ENERGY: 1200000 0.3848 2.1780 0.1588 0.0000 -10381.9924 1294.6743 0.0000 0.0000 1758.4357 -7326.1608 304.6076 -9084.5965 -7361.2630 302.2387 -588.2123 -575.9234 29479.5837 -39.8488 17.9085
ENERGY: 1500000 0.2728 1.6036 0.7653 0.0000 -10568.9008 1418.6263 0.0000 0.0000 1729.2284 -7418.4045 299.5481 -9147.6329 -7365.5248 302.2400 -55.3417 6.4366 29585.5676 -70.7887 -14.3694
TCL: Running FEP window  15: Lambda1 0.29999999999999966 Lambda2 0.24999999999999967 [dLambda -0.04999999999999999]
TCL: Setting parameter firsttimestep to 0
TCL: Setting parameter alchLambda to 0.29999999999999966
Info: NONBONDED TABLE R-SQUARED SPACING: 0.0625
Info: NONBONDED TABLE SIZE: 705 POINTS
TCL: Setting parameter alchLambda2 to 0.24999999999999967
Info: NONBONDED TABLE R-SQUARED SPACING: 0.0625
Info: NONBONDED TABLE SIZE: 705 POINTS
TCL: Running for 1500000 steps
ETITLE: TS BOND ANGLE DIHED IMPRP ELECT VDW BOUNDARY MISC KINETIC TOTAL TEMP POTENTIAL TOTALAVG TEMPAVG PRESSURE GPRESSURE VOLUME PRESSAVG GPRESSAVG
ENERGY: 0 0.2728 1.6036 0.7653 0.0000 -10568.9010 1418.2241 0.0000 0.0000 1728.3962 -7419.6390 299.4040 -9148.0352 -7419.6390 299.4040 -85.5681 -1.3619 29585.5676 -85.5681 -1.3619
ENERGY: 300000 0.0429 0.7472 1.1320 0.0000 -10623.0293 1435.5170 0.0000 0.0000 1780.7633 -7404.8268 308.4753 -9185.5901 -7407.7977 301.1752 68.3549 97.2087 29716.6632 356.8079 400.8312
ENERGY: 600000 0.0025 2.2243 0.0990 0.0000 -10644.3917 1414.9357 0.0000 0.0000 1707.0951 -7520.0352 295.7140 -9227.1302 -7419.3150 298.6094 -367.3139 -266.9766 29810.6060 216.7434 283.0421
ENERGY: 900000 0.0409 2.6929 1.3829 0.0000 -10554.2944 1420.7409 0.0000 0.0000 1697.8155 -7431.6212 294.1066 -9129.4367 -7412.2773 298.9393 -181.9127 -117.3147 30210.6032 84.4088 139.1948
ENERGY: 1200000 0.5049 1.8260 0.3853 0.0000 -10610.9057 1477.2705 0.0000 0.0000 1682.3629 -7448.5560 291.4298 -9130.9190 -7417.7396 298.3222 381.7064 517.1105 29677.7925 166.4250 228.8532
ENERGY: 1500000 1.1707 1.9996 0.5983 0.0000 -10529.8786 1407.7523 0.0000 0.0000 1746.2346 -7372.1230 302.4941 -9118.3576 -7421.0507 299.1723 -61.1930 -29.7822 30089.2847 126.3581 188.5725
TCL: Running FEP window  16: Lambda1 0.24999999999999967 Lambda2 0.19999999999999968 [dLambda -0.04999999999999999]
TCL: Setting parameter firsttimestep to 0
TCL: Setting parameter alchLambda to 0.24999999999999967
Info: NONBONDED TABLE R-SQUARED SPACING: 0.0625
Info: NONBONDED TABLE SIZE: 705 POINTS
TCL: Setting parameter alchLambda2 to 0.19999999999999968
Info: NONBONDED TABLE R-SQUARED SPACING: 0.0625
Info: NONBONDED TABLE SIZE: 705 POINTS
TCL: Running for 1500000 steps
ETITLE: TS BOND ANGLE DIHED IMPRP ELECT VDW BOUNDARY MISC KINETIC TOTAL TEMP POTENTIAL TOTALAVG TEMPAVG PRESSURE GPRESSURE VOLUME PRESSAVG GPRESSAVG
ENERGY: 0 1.1707 1.9996 0.5983 0.0000 -10529.8764 1407.9111 0.0000 0.0000 1745.3371 -7372.8597 302.3386 -9118.1967 -7372.8597 302.3386 -98.6193 -31.2946 30089.2847 -98.6193 -31.2946
ENERGY: 300000 0.0473 0.9340 0.7567 0.0000 -10542.7608 1392.1459 0.0000 0.0000 1736.1292 -7412.7478 300.7435 -9148.8770 -7355.6113 301.2723 -379.4338 -282.8049 30236.8623 -46.8926 7.0949
ENERGY: 600000 0.5785 4.7116 0.9530 0.0000 -10515.3836 1356.2331 0.0000 0.0000 1742.7341 -7410.1733 301.8877 -9152.9074 -7347.4508 303.5392 -387.7031 -303.8881 29496.2158 -204.2303 -151.1822
ENERGY: 900000 0.1672 0.6937 0.9521 0.0000 -10486.3403 1423.6577 0.0000 0.0000 1715.3786 -7345.4909 297.1490 -9060.8695 -7362.6545 301.9790 183.6597 226.9283 30091.3012 -87.2418 -39.2943
ENERGY: 1200000 1.7946 2.9820 0.0725 0.0000 -10439.9073 1382.2234 0.0000 0.0000 1724.8235 -7328.0113 298.7851 -9052.8348 -7357.5358 301.9228 -190.7559 -114.2044 30201.5061 -50.6521 2.0206
ENERGY: 1500000 0.0528 1.6573 1.4050 0.0000 -10497.7309 1380.7463 0.0000 0.0000 1715.9614 -7397.9082 297.2499 -9113.8696 -7365.7528 301.2848 81.5909 127.5289 29459.8175 41.7218 94.3219
TCL: Running FEP window  17: Lambda1 0.19999999999999968 Lambda2 0.1499999999999997 [dLambda -0.04999999999999999]
TCL: Setting parameter firsttimestep to 0
TCL: Setting parameter alchLambda to 0.19999999999999968
Info: NONBONDED TABLE R-SQUARED SPACING: 0.0625
Info: NONBONDED TABLE SIZE: 705 POINTS
TCL: Setting parameter alchLambda2 to 0.1499999999999997
Info: NONBONDED TABLE R-SQUARED SPACING: 0.0625
Info: NONBONDED TABLE SIZE: 705 POINTS
TCL: Running for 1500000 steps
ETITLE: TS BOND ANGLE DIHED IMPRP ELECT VDW BOUNDARY MISC KINETIC TOTAL TEMP POTENTIAL TOTALAVG TEMPAVG PRESSURE GPRESSURE VOLUME PRESSAVG GPRESSAVG
ENERGY: 0 0.0528 1.6573 1.4050 0.0000 -10497.7313 1380.9323 0.0000 0.0000 1715.0982 -7398.5858 297.1004 -9113.6840 -7398.5858 297.1004 28.2087 125.9728 29459.8175 28.2087 125.9728
ENERGY: 300000 0.6856 2.5026 0.0303 0.0000 -10647.9196 1496.7928 0.0000 0.0000 1770.4699 -7377.4384 306.6923 -9147.9083 -7409.5155 300.8521 559.7000 588.6917 29861.5794 -11.6931 44.5600
ENERGY: 600000 0.0036 0.7777 0.2166 0.0000 -10478.2543 1355.1997 0.0000 0.0000 1722.0377 -7400.0189 298.3025 -9122.0567 -7394.1898 300.8666 -525.0134 -423.0734 29769.8919 -78.8725 -12.7780
ENERGY: 900000 0.0115 3.3366 0.3817 0.0000 -10565.3915 1394.2063 0.0000 0.0000 1702.7511 -7464.7043 294.9616 -9167.4553 -7393.7250 300.3198 -293.4865 -169.6702 29601.6255 -231.5879 -163.9269
ENERGY: 1200000 0.5360 1.5558 0.0652 0.0000 -10702.4408 1556.6655 0.0000 0.0000 1738.0396 -7405.5787 301.0745 -9143.6183 -7403.9648 300.3201 877.2860 984.4106 29852.6960 -241.8747 -172.4388
ENERGY: 1500000 0.1508 1.6844 0.0359 0.0000 -10531.6136 1447.3867 0.0000 0.0000 1735.0167 -7347.3391 300.5508 -9082.3558 -7390.4224 300.7096 485.1561 573.6594 29538.7091 -176.2093 -110.4811
TCL: Running FEP window  18: Lambda1 0.1499999999999997 Lambda2 0.09999999999999969 [dLambda -0.05 ]
TCL: Setting parameter firsttimestep to 0
TCL: Setting parameter alchLambda to 0.1499999999999997
Info: NONBONDED TABLE R-SQUARED SPACING: 0.0625
Info: NONBONDED TABLE SIZE: 705 POINTS
TCL: Setting parameter alchLambda2 to 0.09999999999999969
Info: NONBONDED TABLE R-SQUARED SPACING: 0.0625
Info: NONBONDED TABLE SIZE: 705 POINTS
TCL: Running for 1500000 steps
ETITLE: TS BOND ANGLE DIHED IMPRP ELECT VDW BOUNDARY MISC KINETIC TOTAL TEMP POTENTIAL TOTALAVG TEMPAVG PRESSURE GPRESSURE VOLUME PRESSAVG GPRESSAVG
ENERGY: 0 0.1508 1.6844 0.0359 0.0000 -10531.6143 1446.3070 0.0000 0.0000 1734.1399 -7349.2963 300.3989 -9083.4362 -7349.2963 300.3989 492.0856 566.8526 29538.7091 492.0856 566.8526
ENERGY: 300000 0.1426 4.0288 1.4157 0.0000 -10558.8712 1450.9231 0.0000 0.0000 1732.6163 -7369.7447 300.1350 -9102.3610 -7381.6017 297.1271 169.4255 230.2541 30076.3932 398.7824 467.9303
ENERGY: 600000 0.0020 3.3578 0.0335 0.0000 -10624.9730 1475.5731 0.0000 0.0000 1662.3258 -7483.6808 287.9588 -9146.0066 -7380.3087 299.4590 270.0684 320.5905 29904.6376 379.2033 459.3000
ENERGY: 900000 0.5234 1.2261 0.0836 0.0000 -10543.2108 1443.3874 0.0000 0.0000 1718.8654 -7379.1248 297.7530 -9097.9902 -7387.1033 299.2133 26.4940 82.5966 30212.0589 340.6695 417.0442
ENERGY: 1200000 0.4464 1.7574 1.1349 0.0000 -10535.4957 1384.7020 0.0000 0.0000 1767.7305 -7379.7245 306.2177 -9147.4550 -7389.7663 299.6682 -287.4417 -266.6874 29989.8392 255.1440 327.9275
ENERGY: 1500000 0.3111 2.3502 0.0668 0.0000 -10637.4480 1457.7685 0.0000 0.0000 1706.4728 -7470.4786 295.6063 -9176.9514 -7393.4147 300.0559 98.5350 170.1965 29941.7246 205.8162 270.5367
TCL: Running FEP window  19: Lambda1 0.09999999999999969 Lambda2 0.049999999999999684 [dLambda -0.05 ]
TCL: Setting parameter firsttimestep to 0
TCL: Setting parameter alchLambda to 0.09999999999999969
Info: NONBONDED TABLE R-SQUARED SPACING: 0.0625
Info: NONBONDED TABLE SIZE: 705 POINTS
TCL: Setting parameter alchLambda2 to 0.049999999999999684
Info: NONBONDED TABLE R-SQUARED SPACING: 0.0625
Info: NONBONDED TABLE SIZE: 705 POINTS
TCL: Running for 1500000 steps
ETITLE: TS BOND ANGLE DIHED IMPRP ELECT VDW BOUNDARY MISC KINETIC TOTAL TEMP POTENTIAL TOTALAVG TEMPAVG PRESSURE GPRESSURE VOLUME PRESSAVG GPRESSAVG
ENERGY: 0 0.3111 2.3502 0.0668 0.0000 -10637.4486 1457.8141 0.0000 0.0000 1705.6087 -7471.2976 295.4566 -9176.9063 -7471.2976 295.4566 84.2857 166.8626 29941.7246 84.2857 166.8626
ENERGY: 300000 0.0484 2.1420 0.2281 0.0000 -10651.3503 1498.7411 0.0000 0.0000 1682.8670 -7467.3237 291.5171 -9150.1907 -7422.7587 296.4551 629.8514 707.6327 29690.5726 -126.7150 -49.5419
ENERGY: 600000 0.0747 4.6673 0.1045 0.0000 -10511.6511 1391.9042 0.0000 0.0000 1739.6704 -7375.2299 301.3570 -9114.9003 -7430.9338 296.4803 -170.4534 -123.0908 29771.0629 -241.4512 -164.4421
ENERGY: 900000 0.0092 2.9148 0.0835 0.0000 -10638.7765 1510.1228 0.0000 0.0000 1773.9628 -7351.6834 307.2973 -9125.6461 -7415.0448 299.1327 979.9965 1085.9376 29372.2433 -52.8320 31.4886
ENERGY: 1200000 0.0429 1.9351 0.0287 0.0000 -10624.9982 1491.0181 0.0000 0.0000 1749.9106 -7382.0629 303.1308 -9131.9734 -7413.4323 298.7679 660.8527 701.3339 29537.7628 -37.3191 37.2289
ENERGY: 1500000 0.0044 2.5638 1.1122 0.0000 -10581.4609 1422.1003 0.0000 0.0000 1700.4777 -7455.2025 294.5678 -9155.6802 -7413.8390 298.5207 -51.4272 21.4411 29602.2198 11.7052 77.5341
TCL: Running FEP window  20: Lambda1 0.049999999999999684 Lambda2 0.0    [dLambda -0.049999999999999684]
TCL: Setting parameter firsttimestep to 0
TCL: Setting parameter alchLambda to 0.049999999999999684
Info: NONBONDED TABLE R-SQUARED SPACING: 0.0625
Info: NONBONDED TABLE SIZE: 705 POINTS
TCL: Setting parameter alchLambda2 to 0.0
Info: NONBONDED TABLE R-SQUARED SPACING: 0.0625
Info: NONBONDED TABLE SIZE: 705 POINTS
TCL: Running for 1500000 steps
ETITLE: TS BOND ANGLE DIHED IMPRP ELECT VDW BOUNDARY MISC KINETIC TOTAL TEMP POTENTIAL TOTALAVG TEMPAVG PRESSURE GPRESSURE VOLUME PRESSAVG GPRESSAVG
ENERGY: 0 0.0044 2.5638 1.1122 0.0000 -10581.4601 1421.4037 0.0000 0.0000 1699.5714 -7456.8047 294.4108 -9156.3761 -7456.8047 294.4108 -70.5036 15.8647 29602.2198 -70.5036 15.8647
ENERGY: 300000 0.1584 0.3189 0.2399 0.0000 -10649.2594 1470.5553 0.0000 0.0000 1767.3749 -7410.6120 306.1561 -9177.9869 -7440.3090 299.6010 53.4418 163.7899 29819.4603 -69.6805 21.7099
ENERGY: 600000 0.0085 2.0590 0.1050 0.0000 -10469.7763 1440.5889 0.0000 0.0000 1741.1949 -7285.8200 301.6210 -9027.0149 -7413.4429 299.7361 394.4461 483.6597 30070.9585 129.4831 207.8912
ENERGY: 900000 0.2246 2.1055 0.5273 0.0000 -10500.8923 1377.9583 0.0000 0.0000 1736.4361 -7383.6404 300.7967 -9120.0766 -7407.8109 298.7733 -407.9910 -415.2209 30055.2749 -26.2239 42.1412
ENERGY: 1200000 0.0778 1.9151 0.1156 0.0000 -10488.0800 1400.1603 0.0000 0.0000 1718.9549 -7366.8563 297.7685 -9085.8112 -7405.7556 298.6628 -11.1986 75.9928 29800.2221 -55.7072 14.9453
ENERGY: 1500000 0.0096 3.0131 0.4913 0.0000 -10583.4711 1458.2012 0.0000 0.0000 1758.6782 -7363.0777 304.6496 -9121.7558 -7407.1627 299.0657 352.3203 408.8555 29735.9707 -5.3880 66.8704
TCL: Exiting due to exit command.
