Info: SIMULATION PARAMETERS:
Info: TIMESTEP               2
Info: NUMBER OF STEPS        0
Info: STEPS PER CYCLE        10
Info: PERIODIC CELL BASIS 1  31.0788 0 0
Info: PERIODIC CELL BASIS 2  0 29.796 0
Info: PERIODIC CELL BASIS 3  0 0 33.2685
Info: PERIODIC CELL CENTER   0 0 0
Info: WRAPPING WATERS AROUND PERIODIC BOUNDARIES ON OUTPUT.
Info: WRAPPING ALL CLUSTERS AROUND PERIODIC BOUNDARIES ON OUTPUT.
Info: FIRST LDB TIMESTEP     50
Info: LAST LDB TIMESTEP     -1
Info: HOM BACKGROUND SCALING 1
Info: PME BACKGROUND SCALING 1
Info: MIN ATOMS PER PATCH    40
Info: EMPTY PATCH LOAD       40 ATOMS
Info: VELOCITY FILE          mobley_2972345_equil.vel
Info: CENTER OF MASS MOVING INITIALLY? NO
Info: DIELECTRIC             1
Info: EXCLUDE                SCALED ONE-FOUR
Info: 1-4 ELECTROSTATICS SCALED BY 0.833333
Info: MODIFIED 1-4 VDW PARAMETERS WILL BE USED
Info: DCD FILENAME           mobley_2972345_prod.dcd
Info: DCD FREQUENCY          100000
Info: DCD FIRST STEP         100000
Info: DCD FILE WILL CONTAIN UNIT CELL DATA
Info: XST FILENAME           mobley_2972345_prod.xst
Info: XST FREQUENCY          100000
Info: NO VELOCITY DCD OUTPUT
Info: NO FORCE DCD OUTPUT
Info: OUTPUT FILENAME        mobley_2972345_prod
Info: BINARY OUTPUT FILES WILL BE USED
Info: RESTART FILENAME       mobley_2972345_prod.restart
Info: RESTART FREQUENCY      100000
Info: BINARY RESTART FILES WILL BE USED
Info: CUTOFF                 9
Info: PAIRLIST DISTANCE      11
Info: PAIRLIST SHRINK RATE   0.01
Info: PAIRLIST GROW RATE     0.01
Info: PAIRLIST TRIGGER       0.3
Info: PAIRLISTS PER CYCLE    2
Info: PAIRLISTS ENABLED
Info: MARGIN                 2
Info: HYDROGEN GROUP CUTOFF  2.5
Info: PATCH DIMENSION        15.5
Info: ENERGY OUTPUT STEPS    100000
Info: ENERGY EVALUATION STEPS    100000
Info: OUTPUT ENERGY PRECISION 4
Info: CROSSTERM ENERGY INCLUDED IN DIHEDRAL
Info: TIMING OUTPUT STEPS    1000000
Info: PRESSURE OUTPUT STEPS  100000
Info: ALCHEMICAL FEP ON
Info: FEP CURRENT LAMBDA VALUE     1
Info: FEP COMPARISON LAMBDA VALUE  0.95
Info: FEP INTRA-ALCHEMICAL NON-BONDED INTERACTIONS WILL BE RETAINED
Info: FEP INTRA-ALCHEMICAL BONDED INTERACTIONS WILL BE RETAINED
Info: FEP VDW SHIFTING COEFFICIENT 5
Info: FEP ELEC. ACTIVE FOR ANNIHILATED PARTICLES BETWEEN LAMBDA = 0 AND LAMBDA = 0.5
Info: FEP ELEC. ACTIVE FOR EXNIHILATED PARTICLES BETWEEN LAMBDA = 0.5 AND LAMBDA = 1
Info: FEP VDW ACTIVE FOR ANNIHILATED PARTICLES BETWEEN LAMBDA = 0 AND LAMBDA = 1
Info: FEP VDW ACTIVE FOR EXNIHILATED PARTICLES BETWEEN LAMBDA = 0 AND LAMBDA = 1
Info: FEP BOND ACTIVE FOR ANNIHILATED PARTICLES BETWEEN LAMBDA = 1 AND LAMBDA = 1
Info: FEP BOND ACTIVE FOR EXNIHILATED PARTICLES BETWEEN LAMBDA = 0 AND LAMBDA = 0
Info: LANGEVIN DYNAMICS ACTIVE
Info: LANGEVIN TEMPERATURE   300
Info: LANGEVIN USING BBK INTEGRATOR
Info: LANGEVIN DAMPING COEFFICIENT IS 1 INVERSE PS
Info: LANGEVIN DYNAMICS APPLIED TO HYDROGENS
Info: LANGEVIN PISTON PRESSURE CONTROL ACTIVE
Info:        TARGET PRESSURE IS 1.01325 BAR
Info:     OSCILLATION PERIOD IS 50 FS
Info:             DECAY TIME IS 25 FS
Info:     PISTON TEMPERATURE IS 300 K
Info:       PRESSURE CONTROL IS GROUP-BASED
Info:    INITIAL STRAIN RATE IS -0.000677565 -0.000677565 -0.000677565
Info:       CELL FLUCTUATION IS ISOTROPIC
Info: PARTICLE MESH EWALD (PME) ACTIVE
Info: PME TOLERANCE               1e-06
Info: PME EWALD COEFFICIENT       0.348832
Info: PME INTERPOLATION ORDER     4
Info: PME GRID DIMENSIONS         32 32 36
Info: PME MAXIMUM GRID SPACING    1
Info: PME CALCULATION WILL BE PERFORMED ON GPU
Info: FULL ELECTROSTATIC EVALUATION FREQUENCY      2
Info: USING VERLET I (r-RESPA) MTS SCHEME.
Info: C1 SPLITTING OF LONG RANGE ELECTROSTATICS
Info: PLACING ATOMS IN PATCHES BY HYDROGEN GROUPS
Info: RIGID BONDS TO HYDROGEN : ALL
Info:         ERROR TOLERANCE : 1e-08
Info:          MAX ITERATIONS : 100
Info: RIGID WATER USING SETTLE ALGORITHM
Info: RANDOM NUMBER SEED     1743662803
Info: USE HYDROGEN BONDS?    NO
Info: Using AMBER format force field!
Info: AMBER PARM FILE        mobley_2972345.prmtop
Info: COORDINATE PDB         mobley_2972345.pdb
Info: Exclusions will be read from PARM file!
Info: SCNB (VDW SCALING)     2
Info: USING ARITHMETIC MEAN TO COMBINE L-J SIGMA PARAMETERS
Info: BINARY COORDINATES     mobley_2972345_equil.coor
Info: SUMMARY OF PARAMETERS:
Info: 6 BONDS
Info: 6 ANGLES
Info:   6 HARMONIC
Info:   0 COSINE-BASED
Info: 3 DIHEDRAL
Info: 0 IMPROPER
Info: 0 CROSSTERM
Info: 0 VDW
Info: 21 VDW_PAIRS
Info: 0 NBTHOLE_PAIRS
Info: To read alchdata from file: mobley_2972345.pdb
Info: To read alchflag data from column: 5
Info: STRUCTURE SUMMARY:
Info: 2993 ATOMS
Info: 2995 BONDS
Info: 48 ANGLES
Info: 84 DIHEDRALS
Info: 0 IMPROPERS
Info: 0 CROSSTERMS
Info: 3106 EXCLUSIONS
Info: 2979 RIGID BONDS
Info: ALCH: 0 ATOMS TO DISAPPEAR IN FINAL STATE
Info: ALCH: 26 ATOMS TO APPEAR IN FINAL STATE
Info: 6000 DEGREES OF FREEDOM
Info: 1003 HYDROGEN GROUPS
Info: 3 ATOMS IN LARGEST HYDROGEN GROUP
Info: 1003 MIGRATION GROUPS
Info: 3 ATOMS IN LARGEST MIGRATION GROUP
Info: TOTAL MASS = 17998.1 amu
Info: TOTAL CHARGE = -0.000200078 e
Info: MASS DENSITY = 0.970129 g/cm^3
Info: ATOM DENSITY = 0.0971519 atoms/A^3
Info: ADDED 0 IMPLICIT EXCLUSIONS
Info: NONBONDED TABLE R-SQUARED SPACING: 0.0625
Info: NONBONDED TABLE SIZE: 705 POINTS
Info: REMOVING COM VELOCITY -0.0869072 -0.0764208 -0.0516415
Info: Use 3D box decompostion in PME FFT.
Info: Updated CUDA force table with 4096 elements.
Info: Updated CUDA LJ table with 6 x 6 elements.
Info: Found 24 unique exclusion lists needing 84 bytes
TCL: Running for 1500000 steps
ETITLE: TS BOND ANGLE DIHED IMPRP ELECT VDW BOUNDARY MISC KINETIC TOTAL TEMP POTENTIAL TOTALAVG TEMPAVG PRESSURE GPRESSURE VOLUME PRESSAVG GPRESSAVG
ENERGY: 0 3.6462 7.5405 6.7893 0.0000 -10932.3863 1544.3988 0.0000 0.0000 1813.9772 -7556.0343 304.2783 -9370.0115 -7556.0343 304.2783 556.5380 618.2168 30807.4396 556.5380 618.2168
ENERGY: 300000 6.5253 10.0687 6.4210 0.0000 -10865.0261 1507.7456 0.0000 0.0000 1804.1858 -7530.0796 302.6359 -9334.2654 -7566.5610 300.4549 655.6470 753.2978 30470.4032 131.9197 210.5625
ENERGY: 600000 4.3045 7.3740 6.2220 0.0000 -10886.2801 1512.4322 0.0000 0.0000 1829.0661 -7526.8813 306.8093 -9355.9475 -7550.7147 300.2110 526.5081 551.4910 30578.9222 65.6046 124.4778
ENERGY: 900000 6.9026 6.5774 2.7168 0.0000 -10902.6981 1556.7479 0.0000 0.0000 1802.5385 -7527.2149 302.3595 -9329.7534 -7555.5123 299.6858 1104.2043 1215.3608 30624.6581 156.2347 218.7736
ENERGY: 1200000 2.5528 5.0775 3.1360 0.0000 -10789.0345 1443.9280 0.0000 0.0000 1758.9661 -7575.3742 295.0507 -9334.3403 -7555.2745 299.3805 -194.5699 -57.9184 30946.8456 60.0049 127.0628
ENERGY: 1500000 2.7368 7.8641 3.7195 0.0000 -10965.1182 1561.3729 0.0000 0.0000 1782.2402 -7607.1848 298.9547 -9389.4249 -7565.0248 299.4792 786.9777 882.8447 30582.1706 169.2154 239.9867
TCL: Running FEP window   2: Lambda1 0.95   Lambda2 0.8999999999999999 [dLambda -0.050000000000000044]
TCL: Setting parameter firsttimestep to 0
TCL: Setting parameter alchLambda to 0.95
Info: NONBONDED TABLE R-SQUARED SPACING: 0.0625
Info: NONBONDED TABLE SIZE: 705 POINTS
TCL: Setting parameter alchLambda2 to 0.8999999999999999
Info: NONBONDED TABLE R-SQUARED SPACING: 0.0625
Info: NONBONDED TABLE SIZE: 705 POINTS
TCL: Running for 1500000 steps
ETITLE: TS BOND ANGLE DIHED IMPRP ELECT VDW BOUNDARY MISC KINETIC TOTAL TEMP POTENTIAL TOTALAVG TEMPAVG PRESSURE GPRESSURE VOLUME PRESSAVG GPRESSAVG
ENERGY: 0 2.7368 7.8641 3.7195 0.0000 -10964.1133 1561.7621 0.0000 0.0000 1781.3566 -7606.6741 298.8065 -9388.0308 -7606.6741 298.8065 787.9826 869.6257 30582.1706 787.9826 869.6257
ENERGY: 300000 4.6792 14.0349 3.1390 0.0000 -10738.1261 1387.6480 0.0000 0.0000 1827.3288 -7501.2963 306.5179 -9328.6250 -7554.0281 300.9258 -447.3566 -386.1657 30879.0881 11.3320 95.3008
ENERGY: 600000 6.5434 7.1112 8.8742 0.0000 -10810.9919 1449.3993 0.0000 0.0000 1749.1514 -7589.9124 293.4043 -9339.0638 -7553.1931 299.6965 -50.7128 -14.4081 30886.1021 -43.8725 26.0451
ENERGY: 900000 3.0630 7.5589 7.5751 0.0000 -10677.2121 1373.0607 0.0000 0.0000 1769.8585 -7516.0958 296.8778 -9285.9543 -7557.9930 298.8162 -787.7727 -718.0238 31386.0554 -99.5291 -20.8113
ENERGY: 1200000 3.4237 12.5188 5.8280 0.0000 -10903.4845 1475.1336 0.0000 0.0000 1792.4204 -7614.1600 300.6623 -9406.5804 -7559.7859 299.0611 30.3368 118.9025 30599.1322 10.4766 92.7409
ENERGY: 1500000 7.9778 10.4635 3.3808 0.0000 -10981.3137 1556.1582 0.0000 0.0000 1831.5890 -7571.7444 307.2325 -9403.3334 -7559.3002 299.6069 297.7027 353.9223 30840.7898 -38.9560 39.4401
TCL: Running FEP window   3: Lambda1 0.8999999999999999 Lambda2 0.8499999999999999 [dLambda -0.050000000000000044]
TCL: Setting parameter firsttimestep to 0
TCL: Setting parameter alchLambda to 0.8999999999999999
Info: NONBONDED TABLE R-SQUARED SPACING: 0.0625
Info: NONBONDED TABLE SIZE: 705 POINTS
TCL: Setting parameter alchLambda2 to 0.8499999999999999
Info: NONBONDED TABLE R-SQUARED SPACING: 0.0625
Info: NONBONDED TABLE SIZE: 705 POINTS
TCL: Running for 1500000 steps
ETITLE: TS BOND ANGLE DIHED IMPRP ELECT VDW BOUNDARY MISC KINETIC TOTAL TEMP POTENTIAL TOTALAVG TEMPAVG PRESSURE GPRESSURE VOLUME PRESSAVG GPRESSAVG
ENERGY: 0 7.9778 10.4635 3.3808 0.0000 -10980.3972 1556.6320 0.0000 0.0000 1830.7055 -7571.2375 307.0843 -9401.9431 -7571.2375 307.0843 261.4962 347.9702 30840.7898 261.4962 347.9702
ENERGY: 300000 5.5875 9.0400 3.9427 0.0000 -10731.2898 1429.0915 0.0000 0.0000 1797.3827 -7486.2454 301.4947 -9283.6282 -7513.7140 304.2086 142.5483 289.2845 30358.7800 175.4038 276.6909
ENERGY: 600000 8.2237 7.2685 9.1452 0.0000 -10783.7263 1428.0483 0.0000 0.0000 1804.3646 -7526.6759 302.6659 -9331.0405 -7529.4223 302.1199 -434.1756 -327.1798 30815.9385 100.3113 176.9949
ENERGY: 900000 2.8207 10.5070 4.9823 0.0000 -10811.3496 1501.0820 0.0000 0.0000 1788.6099 -7503.3478 300.0231 -9291.9577 -7521.7970 301.5415 387.9389 480.8785 30990.8164 135.6425 201.7378
ENERGY: 1200000 6.8872 7.5214 6.5978 0.0000 -10640.0324 1373.4520 0.0000 0.0000 1733.7087 -7511.8653 290.8140 -9245.5740 -7527.7890 300.1624 -654.3929 -585.5010 30914.9663 8.2568 71.2825
ENERGY: 1500000 4.4829 8.9466 6.2776 0.0000 -10851.4181 1511.6267 0.0000 0.0000 1722.2552 -7597.8291 288.8927 -9320.0843 -7533.1993 300.1554 528.3231 621.4073 30584.8757 -71.8215 -4.1526
TCL: Running FEP window   4: Lambda1 0.8499999999999999 Lambda2 0.7999999999999998 [dLambda -0.050000000000000044]
TCL: Setting parameter firsttimestep to 0
TCL: Setting parameter alchLambda to 0.8499999999999999
Info: NONBONDED TABLE R-SQUARED SPACING: 0.0625
Info: NONBONDED TABLE SIZE: 705 POINTS
TCL: Setting parameter alchLambda2 to 0.7999999999999998
Info: NONBONDED TABLE R-SQUARED SPACING: 0.0625
Info: NONBONDED TABLE SIZE: 705 POINTS
TCL: Running for 1500000 steps
ETITLE: TS BOND ANGLE DIHED IMPRP ELECT VDW BOUNDARY MISC KINETIC TOTAL TEMP POTENTIAL TOTALAVG TEMPAVG PRESSURE GPRESSURE VOLUME PRESSAVG GPRESSAVG
ENERGY: 0 4.4829 8.9466 6.2776 0.0000 -10850.7391 1511.6878 0.0000 0.0000 1721.3898 -7597.9544 288.7476 -9319.3443 -7597.9544 288.7476 509.3143 604.0537 30584.8757 509.3143 604.0537
ENERGY: 300000 2.6335 9.2470 7.8758 0.0000 -10744.4232 1450.0448 0.0000 0.0000 1830.0073 -7444.6147 306.9672 -9274.6220 -7566.7418 295.6587 75.4173 199.9342 31087.1175 92.7830 221.1702
ENERGY: 600000 2.3847 11.9319 5.6828 0.0000 -10843.3475 1484.8543 0.0000 0.0000 1846.1127 -7492.3810 309.6687 -9338.4938 -7551.3499 298.3266 199.2540 236.0025 30814.5543 80.3372 176.3727
ENERGY: 900000 9.9253 9.8192 5.0812 0.0000 -10773.3879 1434.5805 0.0000 0.0000 1757.9541 -7556.0276 294.8809 -9313.9817 -7547.6905 297.6167 -105.7727 14.4116 30426.3393 40.0212 126.8812
ENERGY: 1200000 7.8762 7.8483 12.1037 0.0000 -10704.9629 1386.0320 0.0000 0.0000 1824.2168 -7466.8858 305.9959 -9291.1026 -7532.3524 298.4897 -326.2694 -310.9868 30812.0467 -27.9755 48.9754
ENERGY: 1500000 2.2641 8.1435 5.2814 0.0000 -10694.6754 1368.9000 0.0000 0.0000 1826.2954 -7483.7909 306.3446 -9310.0863 -7527.9737 298.9576 -466.2781 -388.4378 30702.8944 -55.0205 21.0139
TCL: Running FEP window   5: Lambda1 0.7999999999999998 Lambda2 0.7499999999999998 [dLambda -0.050000000000000044]
TCL: Setting parameter firsttimestep to 0
TCL: Setting parameter alchLambda to 0.7999999999999998
Info: NONBONDED TABLE R-SQUARED SPACING: 0.0625
Info: NONBONDED TABLE SIZE: 705 POINTS
TCL: Setting parameter alchLambda2 to 0.7499999999999998
Info: NONBONDED TABLE R-SQUARED SPACING: 0.0625
Info: NONBONDED TABLE SIZE: 705 POINTS
TCL: Running for 1500000 steps
ETITLE: TS BOND ANGLE DIHED IMPRP ELECT VDW BOUNDARY MISC KINETIC TOTAL TEMP POTENTIAL TOTALAVG TEMPAVG PRESSURE GPRESSURE VOLUME PRESSAVG GPRESSAVG
ENERGY: 0 2.2641 8.1435 5.2814 0.0000 -10693.6038 1369.5850 0.0000 0.0000 1825.4047 -7482.9250 306.1951 -9308.3297 -7482.9250 306.1951 -479.1446 -391.6838 30702.8944 -479.1446 -391.6838
ENERGY: 300000 7.9806 8.5728 4.4104 0.0000 -10744.8429 1490.8150 0.0000 0.0000 1797.9181 -7435.1460 301.5845 -9233.0641 -7494.5004 305.3694 612.0341 593.9509 30628.9028 79.6510 137.3670
ENERGY: 600000 4.6643 6.8748 4.2462 0.0000 -10731.0897 1427.8351 0.0000 0.0000 1785.2643 -7502.2050 299.4620 -9287.4693 -7500.7694 304.2412 -34.2307 25.1133 30687.8104 209.7774 267.3705
ENERGY: 900000 5.6599 8.4966 4.8265 0.0000 -10796.4453 1476.4235 0.0000 0.0000 1813.8182 -7487.2205 304.2516 -9301.0387 -7497.9232 304.4844 429.5405 494.0606 30543.6176 101.1513 161.9930
ENERGY: 1200000 3.5794 7.5131 3.2380 0.0000 -10724.9451 1456.6192 0.0000 0.0000 1751.3502 -7502.6452 293.7732 -9253.9954 -7498.1724 302.7124 426.4447 487.8635 30701.0133 231.3042 295.7093
ENERGY: 1500000 8.5669 6.6576 7.1070 0.0000 -10773.4518 1420.7145 0.0000 0.0000 1790.6402 -7539.7655 300.3637 -9330.4058 -7508.1247 302.0281 -699.3959 -607.1323 31357.5329 139.7331 204.9493
TCL: Running FEP window   6: Lambda1 0.7499999999999998 Lambda2 0.6999999999999997 [dLambda -0.050000000000000044]
TCL: Setting parameter firsttimestep to 0
TCL: Setting parameter alchLambda to 0.7499999999999998
Info: NONBONDED TABLE R-SQUARED SPACING: 0.0625
Info: NONBONDED TABLE SIZE: 705 POINTS
TCL: Setting parameter alchLambda2 to 0.6999999999999997
Info: NONBONDED TABLE R-SQUARED SPACING: 0.0625
Info: NONBONDED TABLE SIZE: 705 POINTS
TCL: Running for 1500000 steps
ETITLE: TS BOND ANGLE DIHED IMPRP ELECT VDW BOUNDARY MISC KINETIC TOTAL TEMP POTENTIAL TOTALAVG TEMPAVG PRESSURE GPRESSURE VOLUME PRESSAVG GPRESSAVG
ENERGY: 0 8.5669 6.6576 7.1070 0.0000 -10772.7748 1421.0927 0.0000 0.0000 1789.7292 -7539.6214 300.2109 -9329.3506 -7539.6214 300.2109 -697.4361 -613.4505 31357.5329 -697.4361 -613.4505
ENERGY: 300000 5.6074 6.7498 5.4012 0.0000 -10725.9228 1414.5489 0.0000 0.0000 1823.7766 -7469.8389 305.9220 -9293.6155 -7537.8866 298.9629 42.0736 135.3241 30470.6598 -296.4121 -207.6323
ENERGY: 600000 2.1998 7.1221 2.9601 0.0000 -10741.9118 1368.9415 0.0000 0.0000 1815.3681 -7545.3202 304.5116 -9360.6884 -7513.3762 302.1065 -824.9468 -763.3336 30983.8586 -345.3766 -254.5811
ENERGY: 900000 5.0856 6.8285 5.8571 0.0000 -10740.8959 1483.1238 0.0000 0.0000 1775.7650 -7464.2359 297.8685 -9240.0009 -7514.0278 300.8880 399.5557 492.0213 30879.9004 -307.2194 -215.6105
ENERGY: 1200000 8.1801 5.3135 2.8083 0.0000 -10691.3524 1418.5892 0.0000 0.0000 1782.5169 -7473.9444 299.0011 -9256.4612 -7519.1432 299.8414 48.1160 119.9409 30385.4608 -301.9501 -213.0371
ENERGY: 1500000 7.5664 9.5472 7.8220 0.0000 -10687.9559 1404.8381 0.0000 0.0000 1779.4630 -7478.7193 298.4888 -9258.1823 -7519.1652 298.8737 -186.5925 -173.5948 30931.7901 -238.0695 -163.8732
TCL: Running FEP window   7: Lambda1 0.6999999999999997 Lambda2 0.6499999999999997 [dLambda -0.050000000000000044]
TCL: Setting parameter firsttimestep to 0
TCL: Setting parameter alchLambda to 0.6999999999999997
Info: NONBONDED TABLE R-SQUARED SPACING: 0.0625
Info: NONBONDED TABLE SIZE: 705 POINTS
TCL: Setting parameter alchLambda2 to 0.6499999999999997
Info: NONBONDED TABLE R-SQUARED SPACING: 0.0625
Info: NONBONDED TABLE SIZE: 705 POINTS
TCL: Running for 1500000 steps
ETITLE: TS BOND ANGLE DIHED IMPRP ELECT VDW BOUNDARY MISC KINETIC TOTAL TEMP POTENTIAL TOTALAVG TEMPAVG PRESSURE GPRESSURE VOLUME PRESSAVG GPRESSAVG
ENERGY: 0 7.5663 9.5472 7.8220 0.0000 -10687.2408 1405.0923 0.0000 0.0000 1778.5778 -7478.6352 298.3404 -9257.2130 -7478.6352 298.3404 -248.8878 -181.2479 30931.7901 -248.8878 -181.2479
ENERGY: 300000 8.4428 10.7581 2.8456 0.0000 -10767.5260 1408.7655 0.0000 0.0000 1754.1612 -7582.5528 294.2447 -9336.7139 -7560.4628 297.7544 -610.2516 -544.3600 30763.9354 -157.9348 -78.3447
ENERGY: 600000 9.4916 7.0098 4.6432 0.0000 -10763.1150 1446.5241 0.0000 0.0000 1735.6577 -7559.7886 291.1409 -9295.4463 -7569.5377 296.1017 -301.3160 -201.3973 31140.0015 61.9637 124.3437
ENERGY: 900000 1.8151 6.6043 4.0340 0.0000 -10773.4681 1483.5515 0.0000 0.0000 1800.5909 -7476.8723 302.0329 -9277.4632 -7557.0577 298.2527 876.6770 889.7076 30445.7601 238.0342 299.4009
ENERGY: 1200000 3.1708 9.2985 4.9407 0.0000 -10766.3286 1476.0226 0.0000 0.0000 1768.5548 -7504.3412 296.6591 -9272.8959 -7553.3769 298.4468 163.9085 256.6757 30841.6515 189.0432 248.3667
ENERGY: 1500000 3.5782 7.6552 4.7982 0.0000 -10770.9663 1465.0937 0.0000 0.0000 1808.2226 -7481.6186 303.3130 -9289.8411 -7557.6489 297.7784 359.5900 395.2694 30571.2683 264.7162 318.3667
TCL: Running FEP window   8: Lambda1 0.6499999999999997 Lambda2 0.5999999999999996 [dLambda -0.050000000000000044]
TCL: Setting parameter firsttimestep to 0
TCL: Setting parameter alchLambda to 0.6499999999999997
Info: NONBONDED TABLE R-SQUARED SPACING: 0.0625
Info: NONBONDED TABLE SIZE: 705 POINTS
TCL: Setting parameter alchLambda2 to 0.5999999999999996
Info: NONBONDED TABLE R-SQUARED SPACING: 0.0625
Info: NONBONDED TABLE SIZE: 705 POINTS
TCL: Running for 1500000 steps
ETITLE: TS BOND ANGLE DIHED IMPRP ELECT VDW BOUNDARY MISC KINETIC TOTAL TEMP POTENTIAL TOTALAVG TEMPAVG PRESSURE GPRESSURE VOLUME PRESSAVG GPRESSAVG
ENERGY: 0 3.5782 7.6552 4.7982 0.0000 -10770.7405 1465.2066 0.0000 0.0000 1807.3247 -7482.1777 303.1624 -9289.5024 -7482.1777 303.1624 303.1230 382.6086 30571.2683 303.1230 382.6086
ENERGY: 300000 8.8768 7.6377 4.8534 0.0000 -10855.4681 1460.2872 0.0000 0.0000 1806.0888 -7567.7242 302.9551 -9373.8130 -7550.3808 298.9755 -384.0995 -251.6445 30816.4651 -27.8095 52.9515
ENERGY: 600000 3.9696 9.5875 4.5733 0.0000 -10735.9606 1372.4927 0.0000 0.0000 1821.1370 -7524.2004 305.4793 -9345.3374 -7548.3295 299.4418 -594.5330 -555.0173 30570.2946 -215.2145 -136.8020
ENERGY: 900000 3.3738 8.5068 5.9585 0.0000 -10814.6956 1455.9785 0.0000 0.0000 1796.6872 -7544.1907 301.3780 -9340.8780 -7537.2952 298.6546 -105.1125 21.7254 31002.0156 -7.5400 71.6387
ENERGY: 1200000 8.7820 6.4863 8.3392 0.0000 -10825.0970 1483.7952 0.0000 0.0000 1821.5651 -7496.1292 305.5511 -9317.6943 -7546.2792 298.8345 -128.0954 -62.0977 31146.4473 -120.3114 -39.0600
ENERGY: 1500000 5.1293 7.4053 3.0853 0.0000 -10823.5179 1473.4359 0.0000 0.0000 1803.7656 -7530.6965 302.5654 -9334.4621 -7537.7197 299.5085 44.8120 124.3676 30769.0350 -111.0456 -34.7186
TCL: Running FEP window   9: Lambda1 0.5999999999999996 Lambda2 0.5499999999999996 [dLambda -0.050000000000000044]
TCL: Setting parameter firsttimestep to 0
TCL: Setting parameter alchLambda to 0.5999999999999996
Info: NONBONDED TABLE R-SQUARED SPACING: 0.0625
Info: NONBONDED TABLE SIZE: 705 POINTS
TCL: Setting parameter alchLambda2 to 0.5499999999999996
Info: NONBONDED TABLE R-SQUARED SPACING: 0.0625
Info: NONBONDED TABLE SIZE: 705 POINTS
TCL: Running for 1500000 steps
ETITLE: TS BOND ANGLE DIHED IMPRP ELECT VDW BOUNDARY MISC KINETIC TOTAL TEMP POTENTIAL TOTALAVG TEMPAVG PRESSURE GPRESSURE VOLUME PRESSAVG GPRESSAVG
ENERGY: 0 5.1293 7.4053 3.0853 0.0000 -10823.4203 1474.0018 0.0000 0.0000 1802.8585 -7530.9402 302.4132 -9333.7987 -7530.9402 302.4132 25.8498 121.2694 30769.0350 25.8498 121.2694
ENERGY: 300000 8.5951 9.5891 10.2015 0.0000 -10727.9105 1407.9408 0.0000 0.0000 1805.6477 -7485.9364 302.8811 -9291.5841 -7528.4571 301.5652 -484.9993 -472.8790 31366.0838 -164.5456 -98.3051
ENERGY: 600000 7.3391 7.5046 5.7400 0.0000 -10831.7792 1490.7005 0.0000 0.0000 1817.6685 -7502.8266 304.8975 -9320.4951 -7510.8413 302.8271 179.5494 254.7427 31001.9697 -163.6615 -96.3926
ENERGY: 900000 4.7649 5.8985 7.1816 0.0000 -10720.5994 1322.3251 0.0000 0.0000 1755.0755 -7625.3538 294.3981 -9380.4293 -7524.2397 302.4414 -1208.1982 -1130.6693 30739.8656 -209.3858 -142.4005
ENERGY: 1200000 4.2151 8.4396 2.2131 0.0000 -10819.0603 1476.7535 0.0000 0.0000 1796.5845 -7530.8546 301.3608 -9327.4391 -7517.4074 302.9217 128.4567 177.6663 31039.7303 -238.2148 -168.7655
ENERGY: 1500000 3.7089 10.7450 5.8233 0.0000 -10805.1610 1459.5292 0.0000 0.0000 1799.8909 -7525.4636 301.9154 -9325.3546 -7523.5735 302.5676 284.0087 381.8437 30312.3769 -214.7973 -146.2040
TCL: Running FEP window  10: Lambda1 0.5499999999999996 Lambda2 0.4999999999999996 [dLambda -0.04999999999999999]
TCL: Setting parameter firsttimestep to 0
TCL: Setting parameter alchLambda to 0.5499999999999996
Info: NONBONDED TABLE R-SQUARED SPACING: 0.0625
Info: NONBONDED TABLE SIZE: 705 POINTS
TCL: Setting parameter alchLambda2 to 0.4999999999999996
Info: NONBONDED TABLE R-SQUARED SPACING: 0.0625
Info: NONBONDED TABLE SIZE: 705 POINTS
TCL: Running for 1500000 steps
ETITLE: TS BOND ANGLE DIHED IMPRP ELECT VDW BOUNDARY MISC KINETIC TOTAL TEMP POTENTIAL TOTALAVG TEMPAVG PRESSURE GPRESSURE VOLUME PRESSAVG GPRESSAVG
ENERGY: 0 3.7089 10.7450 5.8233 0.0000 -10804.6764 1460.2658 0.0000 0.0000 1798.9905 -7525.1430 301.7644 -9324.1335 -7525.1430 301.7644 288.1966 378.3176 30312.3769 288.1966 378.3176
ENERGY: 300000 5.5788 4.2142 4.9687 0.0000 -10809.3547 1520.3771 0.0000 0.0000 1806.1813 -7468.0348 302.9706 -9274.2160 -7531.2772 297.8206 619.5383 641.7337 30988.3601 305.0973 372.3939
ENERGY: 600000 6.3712 8.7264 7.8858 0.0000 -10732.1129 1372.1612 0.0000 0.0000 1812.8710 -7524.0973 304.0927 -9336.9683 -7517.4227 300.9274 -484.2210 -385.1686 30393.7278 44.5681 126.2108
ENERGY: 900000 5.4754 7.6551 5.8880 0.0000 -10829.5392 1481.2240 0.0000 0.0000 1789.2002 -7540.0966 300.1222 -9329.2968 -7514.7633 302.1783 144.8723 242.0668 30665.9484 -55.9454 22.6187
ENERGY: 1200000 8.5424 10.9358 6.3916 0.0000 -10884.9089 1479.0829 0.0000 0.0000 1785.5868 -7594.3693 299.5161 -9379.9562 -7536.0198 300.4561 -141.9857 -107.1550 30897.2312 -79.2562 -3.7065
ENERGY: 1500000 7.9802 7.3180 7.7617 0.0000 -10727.2233 1444.1488 0.0000 0.0000 1756.7975 -7503.2171 294.6869 -9260.0146 -7536.6007 299.5577 -147.2870 -38.6941 30921.5479 -65.0061 8.4950
TCL: Running FEP window  11: Lambda1 0.4999999999999996 Lambda2 0.4499999999999996 [dLambda -0.04999999999999999]
TCL: Setting parameter firsttimestep to 0
TCL: Setting parameter alchLambda to 0.4999999999999996
Info: NONBONDED TABLE R-SQUARED SPACING: 0.0625
Info: NONBONDED TABLE SIZE: 705 POINTS
TCL: Setting parameter alchLambda2 to 0.4499999999999996
Info: NONBONDED TABLE R-SQUARED SPACING: 0.0625
Info: NONBONDED TABLE SIZE: 705 POINTS
TCL: Running for 1500000 steps
ETITLE: TS BOND ANGLE DIHED IMPRP ELECT VDW BOUNDARY MISC KINETIC TOTAL TEMP POTENTIAL TOTALAVG TEMPAVG PRESSURE GPRESSURE VOLUME PRESSAVG GPRESSAVG
ENERGY: 0 7.9802 7.3180 7.7617 0.0000 -10727.2680 1443.8983 0.0000 0.0000 1755.8740 -7504.4358 294.5320 -9260.3097 -7504.4358 294.5320 -123.2433 -51.2812 30921.5479 -123.2433 -51.2812
ENERGY: 300000 5.6114 8.6148 10.5230 0.0000 -10758.9193 1476.7049 0.0000 0.0000 1706.0588 -7551.4064 286.1760 -9257.4652 -7536.6266 295.5579 282.8582 288.4784 30756.1295 -261.2715 -218.6443
ENERGY: 600000 3.3590 6.7696 4.5546 0.0000 -10912.0154 1482.3935 0.0000 0.0000 1810.1560 -7604.7827 303.6373 -9414.9387 -7546.4685 296.2469 102.3428 155.3149 30826.4576 70.6536 116.7459
ENERGY: 900000 3.9963 8.1870 8.9097 0.0000 -10885.8957 1492.5105 0.0000 0.0000 1731.6899 -7640.6023 290.4753 -9372.2922 -7533.9710 297.1067 200.6829 261.6693 30619.8413 59.9539 106.0945
ENERGY: 1200000 4.6050 8.4267 5.2619 0.0000 -10937.9659 1556.4798 0.0000 0.0000 1775.2759 -7587.9166 297.7865 -9363.1925 -7534.1203 297.3338 623.5789 712.3384 30813.2560 74.1994 126.7420
ENERGY: 1500000 3.6426 8.3248 5.3800 0.0000 -10759.8292 1401.3481 0.0000 0.0000 1774.9820 -7566.1517 297.7372 -9341.1337 -7534.9539 297.0758 -525.5505 -398.5270 30783.0343 55.3863 114.3475
TCL: Running FEP window  12: Lambda1 0.4499999999999996 Lambda2 0.39999999999999963 [dLambda -0.04999999999999999]
TCL: Setting parameter firsttimestep to 0
TCL: Setting parameter alchLambda to 0.4499999999999996
Info: NONBONDED TABLE R-SQUARED SPACING: 0.0625
Info: NONBONDED TABLE SIZE: 705 POINTS
TCL: Setting parameter alchLambda2 to 0.39999999999999963
Info: NONBONDED TABLE R-SQUARED SPACING: 0.0625
Info: NONBONDED TABLE SIZE: 705 POINTS
TCL: Running for 1500000 steps
ETITLE: TS BOND ANGLE DIHED IMPRP ELECT VDW BOUNDARY MISC KINETIC TOTAL TEMP POTENTIAL TOTALAVG TEMPAVG PRESSURE GPRESSURE VOLUME PRESSAVG GPRESSAVG
ENERGY: 0 3.6426 8.3248 5.3800 0.0000 -10759.8298 1401.9690 0.0000 0.0000 1774.1011 -7566.4123 297.5894 -9340.5134 -7566.4123 297.5894 -499.7389 -402.5311 30783.0343 -499.7389 -402.5311
ENERGY: 300000 4.0652 5.3513 7.0463 0.0000 -10830.1820 1471.5793 0.0000 0.0000 1736.1388 -7606.0012 291.2216 -9342.1400 -7575.4370 298.0097 -125.3941 -86.5509 30757.2173 -538.3757 -475.8581
ENERGY: 600000 6.0388 9.5804 4.1784 0.0000 -10749.5121 1378.5376 0.0000 0.0000 1801.1186 -7550.0583 302.1214 -9351.1770 -7551.7489 299.0144 -681.2558 -689.9876 30665.6655 -431.5795 -382.2125
ENERGY: 900000 4.0786 9.0483 5.7177 0.0000 -10743.1530 1376.2880 0.0000 0.0000 1801.5453 -7546.4750 302.1930 -9348.0204 -7556.7601 299.1311 -696.0328 -595.4268 31130.6388 -373.6324 -316.8119
ENERGY: 1200000 5.6114 8.0308 4.9995 0.0000 -10815.6335 1436.4820 0.0000 0.0000 1767.4794 -7593.0304 296.4787 -9360.5098 -7560.9442 299.0128 -131.9574 -58.7960 30619.5289 -251.3308 -192.7050
ENERGY: 1500000 5.0459 8.8177 5.3951 0.0000 -10880.7347 1489.8180 0.0000 0.0000 1773.4189 -7598.2391 297.4750 -9371.6580 -7564.5688 298.8443 106.2299 205.1568 30316.1813 -212.8255 -152.0667
TCL: Running FEP window  13: Lambda1 0.39999999999999963 Lambda2 0.34999999999999964 [dLambda -0.04999999999999999]
TCL: Setting parameter firsttimestep to 0
TCL: Setting parameter alchLambda to 0.39999999999999963
Info: NONBONDED TABLE R-SQUARED SPACING: 0.0625
Info: NONBONDED TABLE SIZE: 705 POINTS
TCL: Setting parameter alchLambda2 to 0.34999999999999964
Info: NONBONDED TABLE R-SQUARED SPACING: 0.0625
Info: NONBONDED TABLE SIZE: 705 POINTS
TCL: Running for 1500000 steps
ETITLE: TS BOND ANGLE DIHED IMPRP ELECT VDW BOUNDARY MISC KINETIC TOTAL TEMP POTENTIAL TOTALAVG TEMPAVG PRESSURE GPRESSURE VOLUME PRESSAVG GPRESSAVG
ENERGY: 0 5.0459 8.8177 5.3951 0.0000 -10880.7323 1489.7344 0.0000 0.0000 1772.4973 -7599.2419 297.3204 -9371.7391 -7599.2419 297.3204 106.4158 194.0939 30316.1813 106.4158 194.0939
ENERGY: 300000 4.4747 9.0919 3.6674 0.0000 -10876.3423 1520.9758 0.0000 0.0000 1825.8296 -7512.3030 306.2664 -9338.1326 -7569.5585 299.9832 429.3266 526.2344 30444.6610 82.0885 163.6014
ENERGY: 600000 4.5667 7.3863 4.2712 0.0000 -10662.7636 1365.9610 0.0000 0.0000 1786.5949 -7493.9835 299.6852 -9280.5785 -7563.9001 300.1508 -508.2706 -451.8719 30630.9941 -19.7816 62.0028
ENERGY: 900000 4.8934 8.6037 7.8295 0.0000 -10834.8990 1456.9607 0.0000 0.0000 1699.5385 -7657.0731 285.0822 -9356.6117 -7568.5673 298.2399 89.1398 210.1537 30344.4771 -5.7047 86.6580
ENERGY: 1200000 5.1635 8.8389 8.0485 0.0000 -10809.0653 1453.2814 0.0000 0.0000 1832.5497 -7501.1834 307.3936 -9333.7331 -7564.8731 298.4940 -55.6886 13.2144 30965.2803 -53.2504 36.7359
ENERGY: 1500000 4.4266 8.0224 7.2359 0.0000 -10747.7957 1432.5146 0.0000 0.0000 1761.3856 -7534.2106 295.4565 -9295.5962 -7559.7496 298.8510 -135.0243 -86.1955 30565.3636 40.8612 115.1053
TCL: Running FEP window  14: Lambda1 0.34999999999999964 Lambda2 0.29999999999999966 [dLambda -0.04999999999999999]
TCL: Setting parameter firsttimestep to 0
TCL: Setting parameter alchLambda to 0.34999999999999964
Info: NONBONDED TABLE R-SQUARED SPACING: 0.0625
Info: NONBONDED TABLE SIZE: 705 POINTS
TCL: Setting parameter alchLambda2 to 0.29999999999999966
Info: NONBONDED TABLE R-SQUARED SPACING: 0.0625
Info: NONBONDED TABLE SIZE: 705 POINTS
TCL: Running for 1500000 steps
ETITLE: TS BOND ANGLE DIHED IMPRP ELECT VDW BOUNDARY MISC KINETIC TOTAL TEMP POTENTIAL TOTALAVG TEMPAVG PRESSURE GPRESSURE VOLUME PRESSAVG GPRESSAVG
ENERGY: 0 4.4266 8.0224 7.2359 0.0000 -10747.7968 1431.6836 0.0000 0.0000 1760.4789 -7535.9494 295.3044 -9296.4282 -7535.9494 295.3044 -192.4866 -99.0351 30565.3636 -192.4866 -99.0351
ENERGY: 300000 3.3553 5.4611 3.2021 0.0000 -10797.6290 1446.6871 0.0000 0.0000 1735.6682 -7603.2552 291.1427 -9338.9234 -7576.1628 295.4252 -525.2335 -436.4590 31366.2277 -214.5636 -145.8121
ENERGY: 600000 2.9324 7.5677 3.8503 0.0000 -10990.3957 1569.5721 0.0000 0.0000 1791.6140 -7614.8592 300.5271 -9406.4733 -7572.0362 298.0929 707.7354 686.6542 30992.6013 -97.4204 -54.5898
ENERGY: 900000 3.2554 7.4772 5.8926 0.0000 -10896.5823 1505.2300 0.0000 0.0000 1689.9609 -7684.7662 283.4757 -9374.7271 -7572.0322 298.0729 7.6374 114.1276 30757.0769 -60.3765 -16.6359
ENERGY: 1200000 3.6728 8.0406 6.2622 0.0000 -10828.9165 1528.2757 0.0000 0.0000 1788.3056 -7494.3596 299.9721 -9282.6652 -7567.1946 297.6192 592.9046 663.9606 30702.6483 -74.8985 -29.3439
ENERGY: 1500000 7.4444 4.5633 5.4068 0.0000 -10715.1111 1453.8510 0.0000 0.0000 1785.3109 -7458.5347 299.4698 -9243.8455 -7555.8495 297.7736 38.2014 38.9880 30860.3008 -26.3723 26.0251
TCL: Running FEP window  15: Lambda1 0.29999999999999966 Lambda2 0.24999999999999967 [dLambda -0.04999999999999999]
TCL: Setting parameter firsttimestep to 0
TCL: Setting parameter alchLambda to 0.29999999999999966
Info: NONBONDED TABLE R-SQUARED SPACING: 0.0625
Info: NONBONDED TABLE SIZE: 705 POINTS
TCL: Setting parameter alchLambda2 to 0.24999999999999967
Info: NONBONDED TABLE R-SQUARED SPACING: 0.0625
Info: NONBONDED TABLE SIZE: 705 POINTS
TCL: Running for 1500000 steps
ETITLE: TS BOND ANGLE DIHED IMPRP ELECT VDW BOUNDARY MISC KINETIC TOTAL TEMP POTENTIAL TOTALAVG TEMPAVG PRESSURE GPRESSURE VOLUME PRESSAVG GPRESSAVG
ENERGY: 0 7.4444 4.5633 5.4068 0.0000 -10715.1109 1454.3243 0.0000 0.0000 1784.4198 -7458.9522 299.3203 -9243.3721 -7458.9522 299.3203 -39.9103 36.3893 30860.3008 -39.9103 36.3893
ENERGY: 300000 10.4337 9.0005 2.2597 0.0000 -10856.4742 1517.1254 0.0000 0.0000 1809.0281 -7508.6268 303.4481 -9317.6549 -7514.1973 300.0902 369.7215 427.4010 30484.8763 126.6461 193.1139
ENERGY: 600000 8.2773 10.6092 7.1164 0.0000 -10821.9899 1482.6738 0.0000 0.0000 1792.5318 -7520.7813 300.6810 -9313.3131 -7509.8496 302.2411 -171.4984 -142.1150 30877.4179 -13.2239 38.6408
ENERGY: 900000 5.4145 11.0509 5.7530 0.0000 -10845.4029 1483.1244 0.0000 0.0000 1766.6123 -7573.4477 296.3333 -9340.0600 -7521.1629 301.6469 -107.0306 50.0137 30716.8579 -83.0390 -17.1786
ENERGY: 1200000 4.7212 8.6155 6.8682 0.0000 -10738.5187 1399.2040 0.0000 0.0000 1749.2376 -7569.8721 293.4188 -9319.1098 -7522.8955 301.5480 -470.3154 -368.5768 30642.9650 -186.8200 -126.8871
ENERGY: 1500000 6.0722 7.9259 5.9694 0.0000 -10775.7131 1485.4245 0.0000 0.0000 1784.3186 -7486.0026 299.3033 -9270.3212 -7512.5448 302.0004 149.1474 226.3220 30928.6978 -186.5933 -124.3252
TCL: Running FEP window  16: Lambda1 0.24999999999999967 Lambda2 0.19999999999999968 [dLambda -0.04999999999999999]
TCL: Setting parameter firsttimestep to 0
TCL: Setting parameter alchLambda to 0.24999999999999967
Info: NONBONDED TABLE R-SQUARED SPACING: 0.0625
Info: NONBONDED TABLE SIZE: 705 POINTS
TCL: Setting parameter alchLambda2 to 0.19999999999999968
Info: NONBONDED TABLE R-SQUARED SPACING: 0.0625
Info: NONBONDED TABLE SIZE: 705 POINTS
TCL: Running for 1500000 steps
ETITLE: TS BOND ANGLE DIHED IMPRP ELECT VDW BOUNDARY MISC KINETIC TOTAL TEMP POTENTIAL TOTALAVG TEMPAVG PRESSURE GPRESSURE VOLUME PRESSAVG GPRESSAVG
ENERGY: 0 6.0722 7.9259 5.9694 0.0000 -10775.7135 1485.6700 0.0000 0.0000 1783.4239 -7486.6522 299.1532 -9270.0761 -7486.6522 299.1532 149.4276 218.9371 30928.6978 149.4276 218.9371
ENERGY: 300000 4.6735 12.1909 8.4069 0.0000 -10891.7245 1483.1420 0.0000 0.0000 1799.8161 -7583.4952 301.9029 -9383.3113 -7535.6088 299.3389 0.6875 24.2144 30507.8983 -16.8136 21.8760
ENERGY: 600000 11.0583 7.0614 4.3713 0.0000 -10691.7211 1365.9199 0.0000 0.0000 1813.1875 -7490.1226 304.1458 -9303.3101 -7518.9464 302.0743 -1025.0011 -946.6741 30873.5713 -173.2579 -114.4616
ENERGY: 900000 6.0729 10.6461 5.1646 0.0000 -10758.3163 1444.4379 0.0000 0.0000 1687.8739 -7604.1210 283.1256 -9291.9949 -7518.7021 300.1007 158.9277 180.1028 30005.5807 -168.4866 -119.4688
ENERGY: 1200000 3.8927 7.7391 2.5638 0.0000 -10812.6944 1531.8987 0.0000 0.0000 1802.8198 -7463.7803 302.4067 -9266.6001 -7523.1666 300.8945 750.1779 869.5388 30503.9200 -130.5870 -72.0665
ENERGY: 1500000 6.8372 4.2659 8.9806 0.0000 -10794.7044 1370.8785 0.0000 0.0000 1833.8649 -7569.8774 307.6143 -9403.7423 -7519.6099 301.1147 -891.4065 -865.1871 30767.6186 -114.7433 -60.4411
TCL: Running FEP window  17: Lambda1 0.19999999999999968 Lambda2 0.1499999999999997 [dLambda -0.04999999999999999]
TCL: Setting parameter firsttimestep to 0
TCL: Setting parameter alchLambda to 0.19999999999999968
Info: NONBONDED TABLE R-SQUARED SPACING: 0.0625
Info: NONBONDED TABLE SIZE: 705 POINTS
TCL: Setting parameter alchLambda2 to 0.1499999999999997
Info: NONBONDED TABLE R-SQUARED SPACING: 0.0625
Info: NONBONDED TABLE SIZE: 705 POINTS
TCL: Running for 1500000 steps
ETITLE: TS BOND ANGLE DIHED IMPRP ELECT VDW BOUNDARY MISC KINETIC TOTAL TEMP POTENTIAL TOTALAVG TEMPAVG PRESSURE GPRESSURE VOLUME PRESSAVG GPRESSAVG
ENERGY: 0 6.8372 4.2659 8.9806 0.0000 -10794.7042 1370.5769 0.0000 0.0000 1832.9768 -7571.0668 307.4653 -9404.0436 -7571.0668 307.4653 -952.1029 -872.5389 30767.6186 -952.1029 -872.5389
ENERGY: 300000 1.8919 7.7595 6.7316 0.0000 -10927.9970 1540.0169 0.0000 0.0000 1788.6236 -7582.9735 300.0254 -9371.5971 -7605.3795 300.4825 475.8139 559.0558 30652.6115 -208.7945 -119.0351
ENERGY: 600000 6.3584 9.8730 3.2858 0.0000 -10915.5274 1547.0304 0.0000 0.0000 1765.8476 -7583.1321 296.2050 -9348.9797 -7600.7727 297.6575 760.7898 782.8514 30486.3407 -269.2921 -195.6902
ENERGY: 900000 5.6484 8.6224 6.0616 0.0000 -10915.8041 1536.4058 0.0000 0.0000 1803.2826 -7555.7832 302.4844 -9359.0658 -7584.3514 301.1160 731.1572 716.8648 30097.6452 -139.1009 -69.0918
ENERGY: 1200000 6.3208 6.9240 5.3077 0.0000 -10862.1834 1480.7281 0.0000 0.0000 1773.9754 -7588.9274 297.5683 -9362.9028 -7579.6592 300.6573 55.6563 73.4395 30605.3479 -127.2503 -57.0031
ENERGY: 1500000 3.6339 9.7164 1.9099 0.0000 -10746.7782 1446.2206 0.0000 0.0000 1812.9978 -7472.2996 304.1140 -9285.2974 -7557.1343 301.0523 -9.7770 64.5812 30809.4455 -34.1152 33.7057
TCL: Running FEP window  18: Lambda1 0.1499999999999997 Lambda2 0.09999999999999969 [dLambda -0.05 ]
TCL: Setting parameter firsttimestep to 0
TCL: Setting parameter alchLambda to 0.1499999999999997
Info: NONBONDED TABLE R-SQUARED SPACING: 0.0625
Info: NONBONDED TABLE SIZE: 705 POINTS
TCL: Setting parameter alchLambda2 to 0.09999999999999969
Info: NONBONDED TABLE R-SQUARED SPACING: 0.0625
Info: NONBONDED TABLE SIZE: 705 POINTS
TCL: Running for 1500000 steps
ETITLE: TS BOND ANGLE DIHED IMPRP ELECT VDW BOUNDARY MISC KINETIC TOTAL TEMP POTENTIAL TOTALAVG TEMPAVG PRESSURE GPRESSURE VOLUME PRESSAVG GPRESSAVG
ENERGY: 0 3.6339 9.7164 1.9099 0.0000 -10746.7778 1445.7998 0.0000 0.0000 1812.1263 -7473.5915 303.9678 -9285.7178 -7473.5915 303.9678 -15.5788 58.3602 30809.4455 -15.5788 58.3602
ENERGY: 300000 5.6602 7.8024 5.6699 0.0000 -10742.6187 1413.3225 0.0000 0.0000 1783.3234 -7526.8403 299.1364 -9310.1636 -7483.6829 300.3629 -285.9148 -215.7323 30551.9174 281.8283 341.4611
ENERGY: 600000 5.3788 8.1841 3.1707 0.0000 -10788.8579 1490.4718 0.0000 0.0000 1830.6908 -7450.9616 307.0818 -9281.6524 -7496.3049 302.3294 167.3239 180.9453 30840.5616 190.5374 248.0447
ENERGY: 900000 2.9897 6.6959 3.4983 0.0000 -10651.3086 1347.0072 0.0000 0.0000 1832.8894 -7458.2281 307.4506 -9291.1175 -7489.9846 302.0473 -705.0503 -647.8078 30446.2573 -57.0847 -0.6046
ENERGY: 1200000 4.8265 8.0783 4.2086 0.0000 -10838.0799 1441.3492 0.0000 0.0000 1753.1028 -7626.5145 294.0672 -9379.6173 -7494.5395 301.4939 -375.6738 -315.3211 30532.7070 -109.8640 -50.8337
ENERGY: 1500000 5.7543 9.5120 3.0090 0.0000 -10905.5610 1492.8225 0.0000 0.0000 1803.5639 -7590.8993 302.5315 -9394.4632 -7511.6331 301.0268 169.9042 215.2148 30437.6555 -37.3766 18.8429
TCL: Running FEP window  19: Lambda1 0.09999999999999969 Lambda2 0.049999999999999684 [dLambda -0.05 ]
TCL: Setting parameter firsttimestep to 0
TCL: Setting parameter alchLambda to 0.09999999999999969
Info: NONBONDED TABLE R-SQUARED SPACING: 0.0625
Info: NONBONDED TABLE SIZE: 705 POINTS
TCL: Setting parameter alchLambda2 to 0.049999999999999684
Info: NONBONDED TABLE R-SQUARED SPACING: 0.0625
Info: NONBONDED TABLE SIZE: 705 POINTS
TCL: Running for 1500000 steps
ETITLE: TS BOND ANGLE DIHED IMPRP ELECT VDW BOUNDARY MISC KINETIC TOTAL TEMP POTENTIAL TOTALAVG TEMPAVG PRESSURE GPRESSURE VOLUME PRESSAVG GPRESSAVG
ENERGY: 0 5.7543 9.5120 3.0090 0.0000 -10905.5620 1492.6743 0.0000 0.0000 1802.6615 -7591.9508 302.3802 -9394.6123 -7591.9508 302.3802 139.7293 213.9188 30437.6555 139.7293 213.9188
ENERGY: 300000 4.0665 6.9885 5.2423 0.0000 -10728.0463 1403.5440 0.0000 0.0000 1791.4394 -7516.7656 300.4978 -9308.2050 -7517.4967 302.4843 -336.3020 -249.8633 30811.1500 -217.6663 -157.2336
ENERGY: 600000 4.3800 9.0185 5.7099 0.0000 -10822.8387 1477.6081 0.0000 0.0000 1799.1231 -7526.9991 301.7866 -9326.1222 -7531.9617 300.1700 159.7934 278.3704 30271.4533 -175.5444 -120.8146
ENERGY: 900000 4.8234 10.1988 7.6929 0.0000 -10847.1531 1481.8903 0.0000 0.0000 1774.1359 -7568.4118 297.5953 -9342.5477 -7527.7120 301.2600 64.0466 132.5199 30665.1437 -134.9205 -80.7725
ENERGY: 1200000 5.6580 9.7903 5.7320 0.0000 -10632.5236 1361.1768 0.0000 0.0000 1769.7412 -7480.4253 296.8581 -9250.1665 -7510.3259 301.2238 -780.4545 -737.4039 30795.9926 -152.8013 -93.8057
ENERGY: 1500000 5.0080 7.9550 6.8711 0.0000 -10793.0447 1428.8940 0.0000 0.0000 1750.8327 -7593.4839 293.6864 -9344.3166 -7522.3813 299.9694 -614.7583 -543.3829 31058.3659 -195.1124 -133.7377
TCL: Running FEP window  20: Lambda1 0.049999999999999684 Lambda2 0.0    [dLambda -0.049999999999999684]
TCL: Setting parameter firsttimestep to 0
TCL: Setting parameter alchLambda to 0.049999999999999684
Info: NONBONDED TABLE R-SQUARED SPACING: 0.0625
Info: NONBONDED TABLE SIZE: 705 POINTS
TCL: Setting parameter alchLambda2 to 0.0
Info: NONBONDED TABLE R-SQUARED SPACING: 0.0625
Info: NONBONDED TABLE SIZE: 705 POINTS
TCL: Running for 1500000 steps
ETITLE: TS BOND ANGLE DIHED IMPRP ELECT VDW BOUNDARY MISC KINETIC TOTAL TEMP POTENTIAL TOTALAVG TEMPAVG PRESSURE GPRESSURE VOLUME PRESSAVG GPRESSAVG
ENERGY: 0 5.0080 7.9550 6.8711 0.0000 -10793.0447 1426.4749 0.0000 0.0000 1749.9457 -7596.7900 293.5376 -9346.7358 -7596.7900 293.5376 -635.4825 -555.3910 31058.3659 -635.4825 -555.3910
ENERGY: 300000 5.5547 8.9579 4.4643 0.0000 -10739.0436 1406.8100 0.0000 0.0000 1799.1819 -7514.0750 301.7965 -9313.2568 -7535.2184 299.0394 -750.9667 -693.6980 31002.5167 -201.7564 -148.7555
ENERGY: 600000 4.8732 7.1022 6.2424 0.0000 -10812.2900 1441.8955 0.0000 0.0000 1779.7162 -7572.4606 298.5313 -9352.1768 -7544.8073 299.6480 -213.5631 -139.6048 30157.1156 -272.6868 -198.3251
ENERGY: 900000 10.0629 6.3353 4.1820 0.0000 -10948.4021 1580.9031 0.0000 0.0000 1743.6728 -7603.2460 292.4854 -9346.9188 -7558.8953 298.4322 859.7986 894.9449 30005.2768 -136.2620 -77.8805
ENERGY: 1200000 4.6818 6.7456 4.5062 0.0000 -10816.7461 1470.1525 0.0000 0.0000 1757.6230 -7573.0370 294.8254 -9330.6601 -7552.4711 298.6315 254.3284 352.3341 30090.6483 -18.2210 40.8365
ENERGY: 1500000 2.7631 10.7769 5.3471 0.0000 -10817.2331 1465.6493 0.0000 0.0000 1810.1852 -7522.5115 303.6422 -9332.6967 -7554.3908 299.6623 -300.9563 -242.3602 31009.4392 2.1933 55.0819
TCL: Exiting due to exit command.
