Info: SIMULATION PARAMETERS:
Info: TIMESTEP               2
Info: NUMBER OF STEPS        0
Info: STEPS PER CYCLE        10
Info: PERIODIC CELL BASIS 1  30.9193 0 0
Info: PERIODIC CELL BASIS 2  0 30.663 0
Info: PERIODIC CELL BASIS 3  0 0 31.9913
Info: PERIODIC CELL CENTER   0 0 0
Info: WRAPPING WATERS AROUND PERIODIC BOUNDARIES ON OUTPUT.
Info: WRAPPING ALL CLUSTERS AROUND PERIODIC BOUNDARIES ON OUTPUT.
Info: FIRST LDB TIMESTEP     50
Info: LAST LDB TIMESTEP     -1
Info: HOM BACKGROUND SCALING 1
Info: PME BACKGROUND SCALING 1
Info: MIN ATOMS PER PATCH    40
Info: EMPTY PATCH LOAD       40 ATOMS
Info: VELOCITY FILE          mobley_1893815_equil.vel
Info: CENTER OF MASS MOVING INITIALLY? NO
Info: DIELECTRIC             1
Info: EXCLUDE                SCALED ONE-FOUR
Info: 1-4 ELECTROSTATICS SCALED BY 0.833333
Info: MODIFIED 1-4 VDW PARAMETERS WILL BE USED
Info: DCD FILENAME           mobley_1893815_prod.dcd
Info: DCD FREQUENCY          100000
Info: DCD FIRST STEP         100000
Info: DCD FILE WILL CONTAIN UNIT CELL DATA
Info: XST FILENAME           mobley_1893815_prod.xst
Info: XST FREQUENCY          100000
Info: NO VELOCITY DCD OUTPUT
Info: NO FORCE DCD OUTPUT
Info: OUTPUT FILENAME        mobley_1893815_prod
Info: BINARY OUTPUT FILES WILL BE USED
Info: RESTART FILENAME       mobley_1893815_prod.restart
Info: RESTART FREQUENCY      100000
Info: BINARY RESTART FILES WILL BE USED
Info: CUTOFF                 9
Info: PAIRLIST DISTANCE      11
Info: PAIRLIST SHRINK RATE   0.01
Info: PAIRLIST GROW RATE     0.01
Info: PAIRLIST TRIGGER       0.3
Info: PAIRLISTS PER CYCLE    2
Info: PAIRLISTS ENABLED
Info: MARGIN                 2
Info: HYDROGEN GROUP CUTOFF  2.5
Info: PATCH DIMENSION        15.5
Info: ENERGY OUTPUT STEPS    100000
Info: ENERGY EVALUATION STEPS    100000
Info: OUTPUT ENERGY PRECISION 4
Info: CROSSTERM ENERGY INCLUDED IN DIHEDRAL
Info: TIMING OUTPUT STEPS    1000000
Info: PRESSURE OUTPUT STEPS  100000
Info: ALCHEMICAL FEP ON
Info: FEP CURRENT LAMBDA VALUE     0
Info: FEP COMPARISON LAMBDA VALUE  0.05
Info: FEP INTRA-ALCHEMICAL NON-BONDED INTERACTIONS WILL BE RETAINED
Info: FEP INTRA-ALCHEMICAL BONDED INTERACTIONS WILL BE RETAINED
Info: FEP VDW SHIFTING COEFFICIENT 5
Info: FEP ELEC. ACTIVE FOR ANNIHILATED PARTICLES BETWEEN LAMBDA = 0 AND LAMBDA = 0.5
Info: FEP ELEC. ACTIVE FOR EXNIHILATED PARTICLES BETWEEN LAMBDA = 0.5 AND LAMBDA = 1
Info: FEP VDW ACTIVE FOR ANNIHILATED PARTICLES BETWEEN LAMBDA = 0 AND LAMBDA = 1
Info: FEP VDW ACTIVE FOR EXNIHILATED PARTICLES BETWEEN LAMBDA = 0 AND LAMBDA = 1
Info: FEP BOND ACTIVE FOR ANNIHILATED PARTICLES BETWEEN LAMBDA = 1 AND LAMBDA = 1
Info: FEP BOND ACTIVE FOR EXNIHILATED PARTICLES BETWEEN LAMBDA = 0 AND LAMBDA = 0
Info: LANGEVIN DYNAMICS ACTIVE
Info: LANGEVIN TEMPERATURE   300
Info: LANGEVIN USING BBK INTEGRATOR
Info: LANGEVIN DAMPING COEFFICIENT IS 1 INVERSE PS
Info: LANGEVIN DYNAMICS APPLIED TO HYDROGENS
Info: LANGEVIN PISTON PRESSURE CONTROL ACTIVE
Info:        TARGET PRESSURE IS 1.01325 BAR
Info:     OSCILLATION PERIOD IS 50 FS
Info:             DECAY TIME IS 25 FS
Info:     PISTON TEMPERATURE IS 300 K
Info:       PRESSURE CONTROL IS GROUP-BASED
Info:    INITIAL STRAIN RATE IS -0.000213586 -0.000213586 -0.000213586
Info:       CELL FLUCTUATION IS ISOTROPIC
Info: PARTICLE MESH EWALD (PME) ACTIVE
Info: PME TOLERANCE               1e-06
Info: PME EWALD COEFFICIENT       0.348832
Info: PME INTERPOLATION ORDER     4
Info: PME GRID DIMENSIONS         32 32 32
Info: PME MAXIMUM GRID SPACING    1
Info: PME CALCULATION WILL BE PERFORMED ON GPU
Info: FULL ELECTROSTATIC EVALUATION FREQUENCY      2
Info: USING VERLET I (r-RESPA) MTS SCHEME.
Info: C1 SPLITTING OF LONG RANGE ELECTROSTATICS
Info: PLACING ATOMS IN PATCHES BY HYDROGEN GROUPS
Info: RIGID BONDS TO HYDROGEN : ALL
Info:         ERROR TOLERANCE : 1e-08
Info:          MAX ITERATIONS : 100
Info: RIGID WATER USING SETTLE ALGORITHM
Info: RANDOM NUMBER SEED     1743480221
Info: USE HYDROGEN BONDS?    NO
Info: Using AMBER format force field!
Info: AMBER PARM FILE        mobley_1893815.prmtop
Info: COORDINATE PDB         mobley_1893815.pdb
Info: Exclusions will be read from PARM file!
Info: SCNB (VDW SCALING)     2
Info: USING ARITHMETIC MEAN TO COMBINE L-J SIGMA PARAMETERS
Info: BINARY COORDINATES     mobley_1893815_equil.coor
Info: SUMMARY OF PARAMETERS:
Info: 5 BONDS
Info: 5 ANGLES
Info:   5 HARMONIC
Info:   0 COSINE-BASED
Info: 3 DIHEDRAL
Info: 0 IMPROPER
Info: 0 CROSSTERM
Info: 0 VDW
Info: 15 VDW_PAIRS
Info: 0 NBTHOLE_PAIRS
Info: To read alchdata from file: mobley_1893815.pdb
Info: To read alchflag data from column: 5
Info: STRUCTURE SUMMARY:
Info: 2951 ATOMS
Info: 2950 BONDS
Info: 12 ANGLES
Info: 18 DIHEDRALS
Info: 0 IMPROPERS
Info: 0 CROSSTERMS
Info: 2971 EXCLUSIONS
Info: 2945 RIGID BONDS
Info: ALCH: 0 ATOMS TO DISAPPEAR IN FINAL STATE
Info: ALCH: 8 ATOMS TO APPEAR IN FINAL STATE
Info: 5908 DEGREES OF FREEDOM
Info: 987 HYDROGEN GROUPS
Info: 3 ATOMS IN LARGEST HYDROGEN GROUP
Info: 987 MIGRATION GROUPS
Info: 3 ATOMS IN LARGEST MIGRATION GROUP
Info: TOTAL MASS = 17841.5 amu
Info: TOTAL CHARGE = -0.00010001 e
Info: MASS DENSITY = 0.976822 g/cm^3
Info: ATOM DENSITY = 0.0972956 atoms/A^3
Info: ADDED 0 IMPLICIT EXCLUSIONS
Info: NONBONDED TABLE R-SQUARED SPACING: 0.0625
Info: NONBONDED TABLE SIZE: 705 POINTS
Info: REMOVING COM VELOCITY -0.170934 -0.180896 0.177312
Info: Use 3D box decompostion in PME FFT.
Info: Updated CUDA force table with 4096 elements.
Info: Updated CUDA LJ table with 5 x 5 elements.
Info: Found 11 unique exclusion lists needing 16 bytes
TCL: Running for 1500000 steps
ETITLE: TS BOND ANGLE DIHED IMPRP ELECT VDW BOUNDARY MISC KINETIC TOTAL TEMP POTENTIAL TOTALAVG TEMPAVG PRESSURE GPRESSURE VOLUME PRESSAVG GPRESSAVG
ENERGY: 0 0.2755 6.3982 2.8197 0.0000 -10615.3348 1398.9123 0.0000 0.0000 1691.0918 -7515.8374 288.0826 -9206.9292 -7515.8374 288.0826 -192.3109 -116.2909 30330.2415 -192.3109 -116.2909
ENERGY: 300000 1.9077 4.1769 2.8145 0.0000 -10643.7505 1458.6714 0.0000 0.0000 1769.4173 -7406.7627 301.4256 -9176.1799 -7467.4962 297.2492 443.6954 481.1819 30307.8329 -170.6812 -121.9254
ENERGY: 600000 0.7056 1.2663 2.8365 0.0000 -10608.5096 1398.1230 0.0000 0.0000 1714.6843 -7490.8938 292.1017 -9205.5781 -7499.3931 296.6947 -270.9648 -175.1702 30437.5578 -261.1365 -213.7529
ENERGY: 900000 0.0868 2.5587 2.8784 0.0000 -10766.9018 1468.0645 0.0000 0.0000 1773.1826 -7520.1308 302.0670 -9293.3133 -7502.7935 298.4441 25.1249 130.3835 30275.6226 -217.7606 -164.0490
ENERGY: 1200000 0.7842 3.1558 2.8665 0.0000 -10649.7963 1354.2660 0.0000 0.0000 1770.1536 -7518.5701 301.5511 -9288.7237 -7507.1527 298.4677 -630.6262 -574.8873 30328.0666 -179.7397 -132.2301
ENERGY: 1500000 0.3432 1.2073 2.9089 0.0000 -10813.8685 1498.4500 0.0000 0.0000 1797.2405 -7513.7185 306.1654 -9310.9591 -7510.4347 298.9415 156.4817 213.6258 30580.1178 -125.4964 -80.9811
TCL: Running FEP window   2: Lambda1 0.05   Lambda2 0.1    [dLambda 0.05  ]
TCL: Setting parameter firsttimestep to 0
TCL: Setting parameter alchLambda to 0.05
Info: NONBONDED TABLE R-SQUARED SPACING: 0.0625
Info: NONBONDED TABLE SIZE: 705 POINTS
TCL: Setting parameter alchLambda2 to 0.1
Info: NONBONDED TABLE R-SQUARED SPACING: 0.0625
Info: NONBONDED TABLE SIZE: 705 POINTS
TCL: Running for 1500000 steps
ETITLE: TS BOND ANGLE DIHED IMPRP ELECT VDW BOUNDARY MISC KINETIC TOTAL TEMP POTENTIAL TOTALAVG TEMPAVG PRESSURE GPRESSURE VOLUME PRESSAVG GPRESSAVG
ENERGY: 0 0.3432 1.2073 2.9089 0.0000 -10813.8679 1501.1591 0.0000 0.0000 1796.3842 -7511.8653 306.0195 -9308.2495 -7511.8653 306.0195 139.5406 219.4913 30580.1178 139.5406 219.4913
ENERGY: 300000 0.6530 2.6538 2.8513 0.0000 -10688.8911 1421.6741 0.0000 0.0000 1788.4778 -7472.5811 304.6726 -9261.0589 -7500.4285 301.8765 -240.0585 -158.3497 30783.1127 17.1989 82.4966
ENERGY: 600000 0.7713 2.8914 2.8815 0.0000 -10708.7127 1432.0824 0.0000 0.0000 1771.2391 -7498.8469 301.7360 -9270.0860 -7512.6552 300.2255 162.1404 113.2770 30028.0982 -13.1448 45.4792
ENERGY: 900000 0.4920 1.7990 2.8791 0.0000 -10907.4682 1553.0918 0.0000 0.0000 1703.7439 -7645.4625 290.2380 -9349.2063 -7508.6202 299.3087 363.9652 473.1419 30565.0079 -163.3459 -100.1827
ENERGY: 1200000 2.0065 4.0547 2.8199 0.0000 -10679.7055 1467.5280 0.0000 0.0000 1741.1993 -7462.0971 296.6186 -9203.2964 -7494.7470 299.4386 532.0217 497.7555 29863.0796 -84.6461 -30.4154
ENERGY: 1500000 0.5372 3.6210 2.8398 0.0000 -10631.9719 1388.1213 0.0000 0.0000 1709.6754 -7527.1773 291.2484 -9236.8527 -7484.4401 299.6058 -426.8170 -331.5885 30322.1133 -4.9095 55.5108
TCL: Running FEP window   3: Lambda1 0.1    Lambda2 0.15000000000000002 [dLambda 0.05000000000000002]
TCL: Setting parameter firsttimestep to 0
TCL: Setting parameter alchLambda to 0.1
Info: NONBONDED TABLE R-SQUARED SPACING: 0.0625
Info: NONBONDED TABLE SIZE: 705 POINTS
TCL: Setting parameter alchLambda2 to 0.15000000000000002
Info: NONBONDED TABLE R-SQUARED SPACING: 0.0625
Info: NONBONDED TABLE SIZE: 705 POINTS
TCL: Running for 1500000 steps
ETITLE: TS BOND ANGLE DIHED IMPRP ELECT VDW BOUNDARY MISC KINETIC TOTAL TEMP POTENTIAL TOTALAVG TEMPAVG PRESSURE GPRESSURE VOLUME PRESSAVG GPRESSAVG
ENERGY: 0 0.5372 3.6210 2.8398 0.0000 -10631.9714 1389.7693 0.0000 0.0000 1708.7441 -7526.4600 291.0898 -9235.2041 -7526.4600 291.0898 -426.4739 -322.8708 30322.1133 -426.4739 -322.8708
ENERGY: 300000 2.3008 3.6892 2.8070 0.0000 -10678.3900 1405.6052 0.0000 0.0000 1724.7694 -7539.2185 293.8197 -9263.9879 -7513.4455 298.4843 -443.9966 -393.7735 30572.8069 -210.0997 -124.5852
ENERGY: 600000 1.6554 1.5627 2.9260 0.0000 -10780.3597 1418.1160 0.0000 0.0000 1782.9981 -7573.1015 303.7391 -9356.0995 -7513.7449 300.0070 -392.6323 -343.7404 29972.2431 -161.9179 -82.9042
ENERGY: 900000 0.3859 2.0528 2.9012 0.0000 -10763.1579 1515.2375 0.0000 0.0000 1751.1889 -7491.3916 298.3204 -9242.5805 -7521.5695 299.1305 462.8047 491.8942 30679.4345 9.0332 83.6332
ENERGY: 1200000 1.3669 2.5746 2.8995 0.0000 -10720.3603 1390.8951 0.0000 0.0000 1743.0372 -7579.5870 296.9317 -9322.6243 -7526.7870 298.8680 -527.8765 -483.6657 30057.6422 -15.2104 52.1930
ENERGY: 1500000 0.9306 2.4935 2.9085 0.0000 -10654.2679 1404.9126 0.0000 0.0000 1714.0714 -7528.9515 291.9973 -9243.0228 -7525.1494 297.8391 -325.9297 -223.2342 30383.9973 -43.1360 28.0613
TCL: Running FEP window   4: Lambda1 0.15000000000000002 Lambda2 0.2    [dLambda 0.04999999999999999]
TCL: Setting parameter firsttimestep to 0
TCL: Setting parameter alchLambda to 0.15000000000000002
Info: NONBONDED TABLE R-SQUARED SPACING: 0.0625
Info: NONBONDED TABLE SIZE: 705 POINTS
TCL: Setting parameter alchLambda2 to 0.2
Info: NONBONDED TABLE R-SQUARED SPACING: 0.0625
Info: NONBONDED TABLE SIZE: 705 POINTS
TCL: Running for 1500000 steps
ETITLE: TS BOND ANGLE DIHED IMPRP ELECT VDW BOUNDARY MISC KINETIC TOTAL TEMP POTENTIAL TOTALAVG TEMPAVG PRESSURE GPRESSURE VOLUME PRESSAVG GPRESSAVG
ENERGY: 0 0.9306 2.4935 2.9085 0.0000 -10654.2678 1404.6278 0.0000 0.0000 1713.2041 -7530.1033 291.8495 -9243.3074 -7530.1033 291.8495 -308.0396 -220.2853 30383.9973 -308.0396 -220.2853
ENERGY: 300000 1.4370 2.1849 2.8477 0.0000 -10796.6549 1521.4180 0.0000 0.0000 1710.1957 -7558.5716 291.3370 -9268.7673 -7509.9619 297.1979 568.0741 693.5332 30214.7559 33.3931 127.9934
ENERGY: 600000 6.7752 3.6979 2.8366 0.0000 -10654.8929 1408.7823 0.0000 0.0000 1740.1992 -7492.6016 296.4482 -9232.8008 -7501.4583 297.2443 -284.8538 -203.4262 30185.5979 -80.2654 6.5997
ENERGY: 900000 1.9240 3.2535 2.9631 0.0000 -10765.0731 1422.2519 0.0000 0.0000 1744.1214 -7590.5592 297.1164 -9334.6806 -7507.7496 297.5459 -414.8413 -314.9368 30098.3761 -176.8555 -93.1943
ENERGY: 1200000 2.1271 5.4555 2.8669 0.0000 -10782.5726 1481.5883 0.0000 0.0000 1773.8276 -7516.7072 302.1769 -9290.5347 -7513.9989 297.6630 286.2949 302.4744 30358.6430 -166.1343 -87.3140
ENERGY: 1500000 2.4187 1.1470 2.8973 0.0000 -10547.5456 1318.1429 0.0000 0.0000 1731.7933 -7491.1464 295.0163 -9222.9397 -7509.5028 297.6640 -1038.3937 -1045.4460 30960.6675 -240.1802 -168.7198
TCL: Running FEP window   5: Lambda1 0.2    Lambda2 0.25   [dLambda 0.04999999999999999]
TCL: Setting parameter firsttimestep to 0
TCL: Setting parameter alchLambda to 0.2
Info: NONBONDED TABLE R-SQUARED SPACING: 0.0625
Info: NONBONDED TABLE SIZE: 705 POINTS
TCL: Setting parameter alchLambda2 to 0.25
Info: NONBONDED TABLE R-SQUARED SPACING: 0.0625
Info: NONBONDED TABLE SIZE: 705 POINTS
TCL: Running for 1500000 steps
ETITLE: TS BOND ANGLE DIHED IMPRP ELECT VDW BOUNDARY MISC KINETIC TOTAL TEMP POTENTIAL TOTALAVG TEMPAVG PRESSURE GPRESSURE VOLUME PRESSAVG GPRESSAVG
ENERGY: 0 2.4187 1.1470 2.8973 0.0000 -10547.5446 1318.7203 0.0000 0.0000 1730.9413 -7491.4200 294.8711 -9222.3613 -7491.4200 294.8711 -1113.0348 -1039.6967 30960.6675 -1113.0348 -1039.6967
ENERGY: 300000 0.9278 2.5093 2.8543 0.0000 -10747.8619 1473.5722 0.0000 0.0000 1725.1814 -7542.8169 293.8899 -9267.9983 -7510.9097 295.4768 210.6438 191.0098 30473.3239 -494.0268 -466.9959
ENERGY: 600000 0.6698 4.4550 2.8175 0.0000 -10579.1885 1398.4562 0.0000 0.0000 1757.3396 -7415.4504 299.3682 -9172.7901 -7486.8724 298.2246 -216.5189 -141.0036 30703.8919 -564.5853 -543.3206
ENERGY: 900000 1.9489 2.4393 2.8199 0.0000 -10564.1095 1353.8808 0.0000 0.0000 1797.1582 -7405.8624 306.1514 -9203.0206 -7483.8489 298.9610 -438.6876 -392.3926 30461.0646 -454.9803 -419.6013
ENERGY: 1200000 1.1035 3.6749 2.8742 0.0000 -10654.2139 1395.0465 0.0000 0.0000 1747.9158 -7503.5989 297.7628 -9251.5147 -7495.2355 297.9322 -423.5976 -361.7868 30436.9198 -376.4641 -332.0509
ENERGY: 1500000 1.4115 6.5350 2.8817 0.0000 -10635.7108 1397.5221 0.0000 0.0000 1787.2629 -7440.0976 304.4657 -9227.3605 -7492.8267 298.2794 -228.2301 -198.6021 30628.5796 -341.6636 -290.8448
TCL: Running FEP window   6: Lambda1 0.25   Lambda2 0.3    [dLambda 0.04999999999999999]
TCL: Setting parameter firsttimestep to 0
TCL: Setting parameter alchLambda to 0.25
Info: NONBONDED TABLE R-SQUARED SPACING: 0.0625
Info: NONBONDED TABLE SIZE: 705 POINTS
TCL: Setting parameter alchLambda2 to 0.3
Info: NONBONDED TABLE R-SQUARED SPACING: 0.0625
Info: NONBONDED TABLE SIZE: 705 POINTS
TCL: Running for 1500000 steps
ETITLE: TS BOND ANGLE DIHED IMPRP ELECT VDW BOUNDARY MISC KINETIC TOTAL TEMP POTENTIAL TOTALAVG TEMPAVG PRESSURE GPRESSURE VOLUME PRESSAVG GPRESSAVG
ENERGY: 0 1.4115 6.5350 2.8817 0.0000 -10635.7109 1397.6539 0.0000 0.0000 1786.3655 -7440.8633 304.3128 -9227.2287 -7440.8633 304.3128 -264.4673 -191.7233 30628.5796 -264.4673 -191.7233
ENERGY: 300000 3.6166 5.0801 2.9095 0.0000 -10852.0452 1520.2068 0.0000 0.0000 1802.3668 -7517.8654 307.0387 -9320.2322 -7501.4619 302.7549 470.1151 461.9111 30403.6400 105.6147 174.0015
ENERGY: 600000 2.5889 5.4257 2.8844 0.0000 -10688.6275 1411.8725 0.0000 0.0000 1779.8518 -7486.0042 303.2032 -9265.8560 -7496.2478 302.4937 -328.3223 -256.9343 30591.7913 -274.7377 -207.8127
ENERGY: 900000 3.6690 3.1369 2.9460 0.0000 -10657.8309 1383.5181 0.0000 0.0000 1781.4255 -7483.1354 303.4712 -9264.5608 -7493.6593 302.8303 -501.2769 -470.6176 30645.2762 -214.3466 -150.6357
ENERGY: 1200000 0.2176 3.1297 2.9421 0.0000 -10627.1439 1363.7358 0.0000 0.0000 1721.4363 -7535.6823 293.2519 -9257.1186 -7490.4402 302.1633 -755.2727 -711.3447 30664.8787 -240.3549 -182.0859
ENERGY: 1500000 3.4403 2.2428 2.9190 0.0000 -10655.8684 1441.6397 0.0000 0.0000 1805.9119 -7399.7147 307.6426 -9205.6266 -7483.4918 302.6587 -73.3606 -15.2084 30695.0227 -175.4700 -115.1755
TCL: Running FEP window   7: Lambda1 0.3    Lambda2 0.35   [dLambda 0.04999999999999999]
TCL: Setting parameter firsttimestep to 0
TCL: Setting parameter alchLambda to 0.3
Info: NONBONDED TABLE R-SQUARED SPACING: 0.0625
Info: NONBONDED TABLE SIZE: 705 POINTS
TCL: Setting parameter alchLambda2 to 0.35
Info: NONBONDED TABLE R-SQUARED SPACING: 0.0625
Info: NONBONDED TABLE SIZE: 705 POINTS
TCL: Running for 1500000 steps
ETITLE: TS BOND ANGLE DIHED IMPRP ELECT VDW BOUNDARY MISC KINETIC TOTAL TEMP POTENTIAL TOTALAVG TEMPAVG PRESSURE GPRESSURE VOLUME PRESSAVG GPRESSAVG
ENERGY: 0 3.4403 2.2428 2.9190 0.0000 -10655.8676 1441.8789 0.0000 0.0000 1805.0496 -7400.3370 307.4957 -9205.3866 -7400.3370 307.4957 -86.3924 -10.7263 30695.0227 -86.3924 -10.7263
ENERGY: 300000 1.1072 2.7854 2.9049 0.0000 -10730.3802 1487.2790 0.0000 0.0000 1770.5046 -7465.7991 301.6109 -9236.3038 -7458.0129 304.0900 273.4495 373.4295 30792.3456 -39.0028 49.1852
ENERGY: 600000 0.7984 1.0030 2.8215 0.0000 -10629.6095 1351.4118 0.0000 0.0000 1811.9329 -7461.6419 308.6683 -9273.5748 -7473.9962 302.1806 -759.0628 -777.1980 30756.5395 -128.5181 -72.3477
ENERGY: 900000 1.0422 1.9216 2.8283 0.0000 -10725.2804 1387.2603 0.0000 0.0000 1722.7236 -7609.5044 293.4712 -9332.2280 -7484.5704 301.3775 -805.1550 -665.2374 30402.4737 -157.1424 -97.0671
ENERGY: 1200000 0.9548 3.2289 2.7894 0.0000 -10577.8682 1336.0319 0.0000 0.0000 1789.3852 -7445.4780 304.8272 -9234.8632 -7484.4322 302.0335 -704.4021 -656.2037 30314.7956 -207.6998 -151.7168
ENERGY: 1500000 2.2146 3.4150 2.8599 0.0000 -10734.4557 1414.8497 0.0000 0.0000 1752.4706 -7558.6459 298.5387 -9311.1164 -7490.7700 302.3455 -429.2988 -379.0722 30316.4404 -188.1847 -128.4668
TCL: Running FEP window   8: Lambda1 0.35   Lambda2 0.39999999999999997 [dLambda 0.04999999999999999]
TCL: Setting parameter firsttimestep to 0
TCL: Setting parameter alchLambda to 0.35
Info: NONBONDED TABLE R-SQUARED SPACING: 0.0625
Info: NONBONDED TABLE SIZE: 705 POINTS
TCL: Setting parameter alchLambda2 to 0.39999999999999997
Info: NONBONDED TABLE R-SQUARED SPACING: 0.0625
Info: NONBONDED TABLE SIZE: 705 POINTS
TCL: Running for 1500000 steps
ETITLE: TS BOND ANGLE DIHED IMPRP ELECT VDW BOUNDARY MISC KINETIC TOTAL TEMP POTENTIAL TOTALAVG TEMPAVG PRESSURE GPRESSURE VOLUME PRESSAVG GPRESSAVG
ENERGY: 0 2.2146 3.4150 2.8599 0.0000 -10734.4564 1415.2104 0.0000 0.0000 1751.6015 -7559.1550 298.3906 -9310.7565 -7559.1550 298.3906 -460.3446 -372.9635 30316.4404 -460.3446 -372.9635
ENERGY: 300000 2.8572 1.0829 2.8383 0.0000 -10723.5627 1437.6398 0.0000 0.0000 1772.4209 -7506.7236 301.9373 -9279.1445 -7485.3868 302.7129 -183.9518 -179.1670 30708.5267 -112.2384 -50.0959
ENERGY: 600000 0.7084 5.1305 2.9141 0.0000 -10715.3688 1401.1207 0.0000 0.0000 1808.8322 -7496.6629 308.1401 -9305.4950 -7480.4745 304.6341 -368.1413 -390.6987 30529.2402 -137.1033 -81.6742
ENERGY: 900000 2.4359 1.7664 2.8431 0.0000 -10715.5872 1499.1328 0.0000 0.0000 1808.6230 -7400.7860 308.1044 -9209.4090 -7479.0409 304.8093 773.6193 876.4622 30141.4092 47.7385 110.8625
ENERGY: 1200000 2.5238 2.9080 2.8274 0.0000 -10474.7398 1251.0893 0.0000 0.0000 1705.9005 -7509.4908 290.6053 -9215.3912 -7479.7833 303.0637 -1528.9379 -1474.9479 30985.0492 -64.7128 -1.5234
ENERGY: 1500000 2.2184 4.0470 2.8730 0.0000 -10780.0094 1434.8833 0.0000 0.0000 1749.2928 -7586.6949 297.9974 -9335.9877 -7491.9719 302.4999 -386.8545 -301.2072 30200.2068 -127.8598 -61.2069
TCL: Running FEP window   9: Lambda1 0.39999999999999997 Lambda2 0.44999999999999996 [dLambda 0.04999999999999999]
TCL: Setting parameter firsttimestep to 0
TCL: Setting parameter alchLambda to 0.39999999999999997
Info: NONBONDED TABLE R-SQUARED SPACING: 0.0625
Info: NONBONDED TABLE SIZE: 705 POINTS
TCL: Setting parameter alchLambda2 to 0.44999999999999996
Info: NONBONDED TABLE R-SQUARED SPACING: 0.0625
Info: NONBONDED TABLE SIZE: 705 POINTS
TCL: Running for 1500000 steps
ETITLE: TS BOND ANGLE DIHED IMPRP ELECT VDW BOUNDARY MISC KINETIC TOTAL TEMP POTENTIAL TOTALAVG TEMPAVG PRESSURE GPRESSURE VOLUME PRESSAVG GPRESSAVG
ENERGY: 0 2.2184 4.0470 2.8730 0.0000 -10780.0103 1434.5373 0.0000 0.0000 1748.4475 -7587.8872 297.8533 -9336.3346 -7587.8872 297.8533 -375.5940 -301.3892 30200.2068 -375.5940 -301.3892
ENERGY: 300000 0.7583 3.3249 2.8283 0.0000 -10809.8673 1523.7519 0.0000 0.0000 1754.9092 -7524.2947 298.9541 -9279.2038 -7526.3203 295.3815 616.1869 718.4936 30140.5930 -165.9801 -80.7695
ENERGY: 600000 1.6857 4.6760 2.8290 0.0000 -10703.0520 1409.4491 0.0000 0.0000 1749.5707 -7534.8415 298.0447 -9284.4122 -7500.7532 296.8822 -207.0923 -161.3949 30320.9479 -141.6413 -67.0127
ENERGY: 900000 5.3357 1.0594 2.8558 0.0000 -10788.1398 1495.7785 0.0000 0.0000 1776.5955 -7506.5150 302.6485 -9283.1105 -7510.0424 297.3853 533.3264 713.4620 29891.2569 100.7435 180.5020
ENERGY: 1200000 0.7940 5.3797 2.7948 0.0000 -10621.4171 1372.4942 0.0000 0.0000 1792.0941 -7447.8603 305.2887 -9239.9544 -7510.4045 298.0149 -702.1893 -609.3900 30668.9596 12.0175 91.6236
ENERGY: 1500000 1.1445 3.8403 2.8507 0.0000 -10785.6899 1486.1676 0.0000 0.0000 1724.1604 -7567.5264 293.7160 -9291.6868 -7514.8875 298.2863 291.1356 332.4097 30378.8602 89.6952 166.3222
TCL: Running FEP window  10: Lambda1 0.44999999999999996 Lambda2 0.49999999999999994 [dLambda 0.04999999999999999]
TCL: Setting parameter firsttimestep to 0
TCL: Setting parameter alchLambda to 0.44999999999999996
Info: NONBONDED TABLE R-SQUARED SPACING: 0.0625
Info: NONBONDED TABLE SIZE: 705 POINTS
TCL: Setting parameter alchLambda2 to 0.49999999999999994
Info: NONBONDED TABLE R-SQUARED SPACING: 0.0625
Info: NONBONDED TABLE SIZE: 705 POINTS
TCL: Running for 1500000 steps
ETITLE: TS BOND ANGLE DIHED IMPRP ELECT VDW BOUNDARY MISC KINETIC TOTAL TEMP POTENTIAL TOTALAVG TEMPAVG PRESSURE GPRESSURE VOLUME PRESSAVG GPRESSAVG
ENERGY: 0 1.1445 3.8403 2.8507 0.0000 -10785.6896 1485.8891 0.0000 0.0000 1723.3219 -7568.6431 293.5731 -9291.9650 -7568.6431 293.5731 254.9592 332.5903 30378.8602 254.9592 332.5903
ENERGY: 300000 2.7049 1.8792 2.8288 0.0000 -10646.6104 1442.2103 0.0000 0.0000 1787.0942 -7409.8931 304.4369 -9196.9873 -7488.9372 300.9607 -108.8083 -102.0201 30886.6729 127.4317 194.4883
ENERGY: 600000 2.7479 2.7066 2.8453 0.0000 -10671.2512 1471.4811 0.0000 0.0000 1795.1382 -7396.3321 305.8073 -9191.4703 -7478.4905 301.9222 642.4724 724.9769 30347.4841 119.7537 179.7950
ENERGY: 900000 0.4015 2.7172 2.9762 0.0000 -10802.3077 1493.2688 0.0000 0.0000 1749.5592 -7553.3847 298.0427 -9302.9440 -7497.6951 301.8341 317.1133 324.8247 30315.5866 113.3782 162.5890
ENERGY: 1200000 1.1788 1.1699 2.8641 0.0000 -10577.5494 1367.8011 0.0000 0.0000 1766.6298 -7437.9057 300.9508 -9204.5355 -7493.4769 301.4923 -490.0945 -477.4242 30929.0513 23.5878 65.4479
ENERGY: 1500000 1.0010 5.9324 2.8275 0.0000 -10708.5027 1404.9897 0.0000 0.0000 1830.3192 -7463.4329 311.8004 -9293.7521 -7485.6216 301.9070 -467.3404 -397.0052 30457.2547 -52.8091 -7.7479
TCL: Running FEP window  11: Lambda1 0.49999999999999994 Lambda2 0.5499999999999999 [dLambda 0.04999999999999999]
TCL: Setting parameter firsttimestep to 0
TCL: Setting parameter alchLambda to 0.49999999999999994
Info: NONBONDED TABLE R-SQUARED SPACING: 0.0625
Info: NONBONDED TABLE SIZE: 705 POINTS
TCL: Setting parameter alchLambda2 to 0.5499999999999999
Info: NONBONDED TABLE R-SQUARED SPACING: 0.0625
Info: NONBONDED TABLE SIZE: 705 POINTS
TCL: Running for 1500000 steps
ETITLE: TS BOND ANGLE DIHED IMPRP ELECT VDW BOUNDARY MISC KINETIC TOTAL TEMP POTENTIAL TOTALAVG TEMPAVG PRESSURE GPRESSURE VOLUME PRESSAVG GPRESSAVG
ENERGY: 0 1.0010 5.9324 2.8275 0.0000 -10708.5012 1404.8988 0.0000 0.0000 1829.4519 -7464.3896 311.6527 -9293.8415 -7464.3896 311.6527 -478.7889 -394.3614 30457.2547 -478.7889 -394.3614
ENERGY: 300000 2.3922 2.6848 2.7815 0.0000 -10625.2117 1349.6387 0.0000 0.0000 1737.3501 -7530.3644 295.9629 -9267.7145 -7470.5817 305.0917 -705.4343 -625.1530 30219.9749 -347.3006 -275.7078
ENERGY: 600000 1.5957 2.2014 2.8148 0.0000 -10721.0165 1440.6739 0.0000 0.0000 1735.4262 -7538.3045 295.6351 -9273.7307 -7500.2913 301.7722 -311.1674 -278.2123 30992.7061 -328.2734 -258.9847
ENERGY: 900000 0.6878 0.6192 2.8304 0.0000 -10804.8715 1546.5341 0.0000 0.0000 1784.3429 -7469.8570 303.9682 -9254.1999 -7481.0332 302.5207 925.1561 929.4719 30364.0366 -150.1755 -88.1423
ENERGY: 1200000 1.5049 2.7988 2.8090 0.0000 -10722.9657 1449.0351 0.0000 0.0000 1747.8574 -7518.9607 297.7528 -9266.8180 -7488.4841 302.6984 -86.9265 -50.8818 30471.2834 -78.8420 -21.3883
ENERGY: 1500000 1.0351 5.2780 2.9197 0.0000 -10875.7835 1546.0849 0.0000 0.0000 1699.6747 -7620.7911 289.5448 -9320.4658 -7497.8573 301.6399 724.5785 771.9049 30295.8323 -154.4508 -98.8630
TCL: Running FEP window  12: Lambda1 0.5499999999999999 Lambda2 0.6    [dLambda 0.050000000000000044]
TCL: Setting parameter firsttimestep to 0
TCL: Setting parameter alchLambda to 0.5499999999999999
Info: NONBONDED TABLE R-SQUARED SPACING: 0.0625
Info: NONBONDED TABLE SIZE: 705 POINTS
TCL: Setting parameter alchLambda2 to 0.6
Info: NONBONDED TABLE R-SQUARED SPACING: 0.0625
Info: NONBONDED TABLE SIZE: 705 POINTS
TCL: Running for 1500000 steps
ETITLE: TS BOND ANGLE DIHED IMPRP ELECT VDW BOUNDARY MISC KINETIC TOTAL TEMP POTENTIAL TOTALAVG TEMPAVG PRESSURE GPRESSURE VOLUME PRESSAVG GPRESSAVG
ENERGY: 0 1.0351 5.2780 2.9197 0.0000 -10875.8122 1545.6293 0.0000 0.0000 1698.8308 -7622.1193 289.4010 -9320.9501 -7622.1193 289.4010 683.7536 770.7071 30295.8323 683.7536 770.7071
ENERGY: 300000 2.4158 3.6553 2.7638 0.0000 -10655.2626 1411.9703 0.0000 0.0000 1772.8862 -7461.5712 302.0166 -9234.4574 -7537.7480 297.1038 -233.9928 -170.6228 30865.2820 343.0309 400.4641
ENERGY: 600000 1.6140 2.9426 2.8177 0.0000 -10853.5744 1547.1831 0.0000 0.0000 1789.3102 -7509.7069 304.8144 -9299.0170 -7520.2200 300.5606 1200.4855 1253.1439 29732.4488 372.9165 453.7286
ENERGY: 900000 2.0464 3.3455 2.8119 0.0000 -10646.2031 1357.1507 0.0000 0.0000 1740.3621 -7540.4865 296.4760 -9280.8486 -7526.2305 299.5435 -973.3941 -806.1561 30794.9689 83.8882 166.7991
ENERGY: 1200000 1.6556 1.8165 2.8995 0.0000 -10793.0135 1513.5349 0.0000 0.0000 1749.1664 -7523.9407 297.9758 -9273.1071 -7532.4945 299.3087 554.2046 577.5911 30278.1502 217.5800 289.2945
ENERGY: 1500000 0.9598 1.2960 2.8582 0.0000 -10696.9466 1439.6350 0.0000 0.0000 1767.5150 -7484.6826 301.1016 -9252.1976 -7520.9635 299.5844 -354.3666 -275.2142 30944.0245 133.1860 202.3828
TCL: Running FEP window  13: Lambda1 0.6    Lambda2 0.65   [dLambda 0.050000000000000044]
TCL: Setting parameter firsttimestep to 0
TCL: Setting parameter alchLambda to 0.6
Info: NONBONDED TABLE R-SQUARED SPACING: 0.0625
Info: NONBONDED TABLE SIZE: 705 POINTS
TCL: Setting parameter alchLambda2 to 0.65
Info: NONBONDED TABLE R-SQUARED SPACING: 0.0625
Info: NONBONDED TABLE SIZE: 705 POINTS
TCL: Running for 1500000 steps
ETITLE: TS BOND ANGLE DIHED IMPRP ELECT VDW BOUNDARY MISC KINETIC TOTAL TEMP POTENTIAL TOTALAVG TEMPAVG PRESSURE GPRESSURE VOLUME PRESSAVG GPRESSAVG
ENERGY: 0 0.9598 1.2960 2.8582 0.0000 -10697.0848 1439.7737 0.0000 0.0000 1766.6571 -7485.5400 300.9554 -9252.1971 -7485.5400 300.9554 -357.4532 -268.5021 30944.0245 -357.4532 -268.5021
ENERGY: 300000 3.1769 4.2839 2.8962 0.0000 -10657.0681 1385.9185 0.0000 0.0000 1760.6331 -7500.1594 299.9292 -9260.7926 -7534.6679 297.7716 -172.8715 -192.4416 30240.1456 -185.5685 -160.1744
ENERGY: 600000 2.5770 2.4443 2.8326 0.0000 -10654.2649 1403.2162 0.0000 0.0000 1740.2889 -7502.9060 296.4635 -9243.1948 -7534.2700 298.7335 -193.5874 4.1909 30002.1766 78.0930 132.3488
ENERGY: 900000 0.9601 4.2206 2.9500 0.0000 -10652.7542 1412.4724 0.0000 0.0000 1748.9245 -7483.2266 297.9346 -9232.1511 -7523.2515 296.3510 -15.0836 83.3795 30287.3655 -44.5092 22.1355
ENERGY: 1200000 0.5590 4.1818 2.9971 0.0000 -10793.8464 1492.0514 0.0000 0.0000 1728.5367 -7565.5203 294.4615 -9294.0571 -7521.4397 297.1085 378.7154 450.7919 30251.9025 75.3790 131.9271
ENERGY: 1500000 0.7003 2.4065 2.8918 0.0000 -10941.6378 1555.0955 0.0000 0.0000 1767.3114 -7613.2324 301.0669 -9380.5438 -7515.1550 299.3214 675.3020 689.5733 30482.6283 66.5269 125.3888
TCL: Running FEP window  14: Lambda1 0.65   Lambda2 0.7000000000000001 [dLambda 0.050000000000000044]
TCL: Setting parameter firsttimestep to 0
TCL: Setting parameter alchLambda to 0.65
Info: NONBONDED TABLE R-SQUARED SPACING: 0.0625
Info: NONBONDED TABLE SIZE: 705 POINTS
TCL: Setting parameter alchLambda2 to 0.7000000000000001
Info: NONBONDED TABLE R-SQUARED SPACING: 0.0625
Info: NONBONDED TABLE SIZE: 705 POINTS
TCL: Running for 1500000 steps
ETITLE: TS BOND ANGLE DIHED IMPRP ELECT VDW BOUNDARY MISC KINETIC TOTAL TEMP POTENTIAL TOTALAVG TEMPAVG PRESSURE GPRESSURE VOLUME PRESSAVG GPRESSAVG
ENERGY: 0 0.7003 2.4065 2.8918 0.0000 -10941.8140 1555.2901 0.0000 0.0000 1766.4193 -7614.1061 300.9149 -9380.5254 -7614.1061 300.9149 621.4579 700.0615 30482.6283 621.4579 700.0615
ENERGY: 300000 0.3516 1.8100 2.8270 0.0000 -10840.4908 1498.9540 0.0000 0.0000 1733.8904 -7602.6579 295.3735 -9336.5483 -7579.3254 295.8480 592.7794 572.8811 29850.8480 371.3653 410.9902
ENERGY: 600000 1.3053 5.5512 2.9024 0.0000 -10804.6596 1482.7840 0.0000 0.0000 1812.1411 -7499.9756 308.7038 -9312.1167 -7541.8252 299.0137 546.4607 592.3143 30199.7040 197.3343 245.3023
ENERGY: 900000 0.7289 3.4610 2.8819 0.0000 -10771.8675 1471.9848 0.0000 0.0000 1731.6527 -7561.1582 294.9923 -9292.8110 -7535.7921 299.0756 142.0417 226.7003 30642.3141 168.5655 231.4550
ENERGY: 1200000 3.1660 4.6083 2.9168 0.0000 -10688.2535 1407.1063 0.0000 0.0000 1757.2879 -7513.1682 299.3593 -9270.4561 -7531.1699 298.4274 -208.1812 -130.2476 30452.7911 90.2284 155.5950
ENERGY: 1500000 0.4012 2.9546 2.8749 0.0000 -10745.1825 1460.4640 0.0000 0.0000 1727.4937 -7550.9940 294.2838 -9278.4877 -7527.7042 299.2131 60.3136 115.1262 30473.6606 77.1739 146.7063
TCL: Running FEP window  15: Lambda1 0.7000000000000001 Lambda2 0.7500000000000001 [dLambda 0.050000000000000044]
TCL: Setting parameter firsttimestep to 0
TCL: Setting parameter alchLambda to 0.7000000000000001
Info: NONBONDED TABLE R-SQUARED SPACING: 0.0625
Info: NONBONDED TABLE SIZE: 705 POINTS
TCL: Setting parameter alchLambda2 to 0.7500000000000001
Info: NONBONDED TABLE R-SQUARED SPACING: 0.0625
Info: NONBONDED TABLE SIZE: 705 POINTS
TCL: Running for 1500000 steps
ETITLE: TS BOND ANGLE DIHED IMPRP ELECT VDW BOUNDARY MISC KINETIC TOTAL TEMP POTENTIAL TOTALAVG TEMPAVG PRESSURE GPRESSURE VOLUME PRESSAVG GPRESSAVG
ENERGY: 0 0.4012 2.9546 2.8749 0.0000 -10745.4712 1460.7883 0.0000 0.0000 1726.6358 -7551.8164 294.1377 -9278.4521 -7551.8164 294.1377 47.6090 124.0439 30473.6606 47.6090 124.0439
ENERGY: 300000 1.9165 3.0363 2.7958 0.0000 -10770.6057 1540.3029 0.0000 0.0000 1755.9954 -7466.5588 299.1392 -9222.5542 -7498.3936 297.9585 692.5312 737.5518 30486.5528 88.4114 140.7215
ENERGY: 600000 0.9167 2.4373 2.8646 0.0000 -10836.4674 1569.6949 0.0000 0.0000 1743.0065 -7517.5474 296.9265 -9260.5539 -7506.6494 298.1725 1155.1903 1197.7857 30274.0492 204.3410 256.7493
ENERGY: 900000 1.2969 1.1731 2.8533 0.0000 -10726.3513 1421.6056 0.0000 0.0000 1787.1387 -7512.2837 304.4445 -9299.4224 -7513.4900 299.9044 -277.1933 -186.2954 30664.8503 49.1485 102.3721
ENERGY: 1200000 0.2483 3.5084 2.7829 0.0000 -10793.4619 1520.6899 0.0000 0.0000 1825.7468 -7440.4857 311.0215 -9266.2325 -7509.1557 300.2029 945.6354 960.6868 30016.7436 88.7067 143.0933
ENERGY: 1500000 0.8821 3.7162 2.9018 0.0000 -10590.7034 1337.4354 0.0000 0.0000 1785.4177 -7460.3502 304.1513 -9245.7679 -7499.7512 301.1481 -829.4987 -797.8737 30976.8235 90.3726 145.3630
TCL: Running FEP window  16: Lambda1 0.7500000000000001 Lambda2 0.8000000000000002 [dLambda 0.050000000000000044]
TCL: Setting parameter firsttimestep to 0
TCL: Setting parameter alchLambda to 0.7500000000000001
Info: NONBONDED TABLE R-SQUARED SPACING: 0.0625
Info: NONBONDED TABLE SIZE: 705 POINTS
TCL: Setting parameter alchLambda2 to 0.8000000000000002
Info: NONBONDED TABLE R-SQUARED SPACING: 0.0625
Info: NONBONDED TABLE SIZE: 705 POINTS
TCL: Running for 1500000 steps
ETITLE: TS BOND ANGLE DIHED IMPRP ELECT VDW BOUNDARY MISC KINETIC TOTAL TEMP POTENTIAL TOTALAVG TEMPAVG PRESSURE GPRESSURE VOLUME PRESSAVG GPRESSAVG
ENERGY: 0 0.8821 3.7162 2.9018 0.0000 -10590.8991 1337.7233 0.0000 0.0000 1784.5537 -7461.1219 304.0042 -9245.6757 -7461.1219 304.0042 -864.6063 -787.7571 30976.8235 -864.6063 -787.7571
ENERGY: 300000 1.1139 8.4536 2.8876 0.0000 -10691.4383 1370.1558 0.0000 0.0000 1787.4931 -7521.3344 304.5049 -9308.8275 -7524.7708 302.2623 -842.5038 -733.6918 30619.6191 -311.5618 -263.9396
ENERGY: 600000 2.6617 4.4011 2.8326 0.0000 -10748.9850 1497.4509 0.0000 0.0000 1752.6095 -7489.0292 298.5624 -9241.6387 -7524.4451 301.4043 159.7638 229.4131 30978.3804 -200.5795 -142.2388
ENERGY: 900000 0.7160 2.5217 2.8694 0.0000 -10721.9005 1431.8538 0.0000 0.0000 1770.7825 -7513.1572 301.6582 -9283.9397 -7520.1335 302.0908 -14.8488 -21.5092 30573.3400 -119.3952 -67.7546
ENERGY: 1200000 2.6653 3.0089 2.8280 0.0000 -10619.4027 1376.6913 0.0000 0.0000 1780.2163 -7453.9929 303.2653 -9234.2092 -7512.1680 300.9251 -570.7655 -459.0128 30837.5781 -208.2973 -146.1360
ENERGY: 1500000 0.4768 1.8097 2.9198 0.0000 -10797.3554 1431.4769 0.0000 0.0000 1746.8034 -7613.8689 297.5733 -9360.6723 -7523.5079 300.3207 -408.0575 -341.0954 30653.3705 -216.0116 -153.7201
TCL: Running FEP window  17: Lambda1 0.8000000000000002 Lambda2 0.8500000000000002 [dLambda 0.050000000000000044]
TCL: Setting parameter firsttimestep to 0
TCL: Setting parameter alchLambda to 0.8000000000000002
Info: NONBONDED TABLE R-SQUARED SPACING: 0.0625
Info: NONBONDED TABLE SIZE: 705 POINTS
TCL: Setting parameter alchLambda2 to 0.8500000000000002
Info: NONBONDED TABLE R-SQUARED SPACING: 0.0625
Info: NONBONDED TABLE SIZE: 705 POINTS
TCL: Running for 1500000 steps
ETITLE: TS BOND ANGLE DIHED IMPRP ELECT VDW BOUNDARY MISC KINETIC TOTAL TEMP POTENTIAL TOTALAVG TEMPAVG PRESSURE GPRESSURE VOLUME PRESSAVG GPRESSAVG
ENERGY: 0 0.4768 1.8097 2.9198 0.0000 -10797.5504 1431.2252 0.0000 0.0000 1745.9527 -7615.1661 297.4284 -9361.1189 -7615.1661 297.4284 -419.9719 -339.1320 30653.3705 -419.9719 -339.1320
ENERGY: 300000 1.7489 4.0822 2.8299 0.0000 -10684.3236 1465.7444 0.0000 0.0000 1755.3871 -7454.5312 299.0355 -9209.9182 -7534.2922 299.6416 216.3405 300.9110 30418.7371 -76.7921 -15.8678
ENERGY: 600000 1.3150 2.8193 2.8329 0.0000 -10740.5047 1456.7930 0.0000 0.0000 1740.6757 -7536.0689 296.5294 -9276.7445 -7529.8647 299.6160 253.4329 373.3452 30102.9610 -2.1207 84.2223
ENERGY: 900000 0.9124 0.7691 2.8785 0.0000 -10711.3494 1400.5318 0.0000 0.0000 1798.9967 -7507.2608 306.4646 -9306.2575 -7533.5284 300.3611 -533.8341 -412.3527 30591.0439 -130.2379 -50.6235
ENERGY: 1200000 0.5685 4.1379 2.9126 0.0000 -10664.4756 1405.2189 0.0000 0.0000 1818.0434 -7433.5943 309.7092 -9251.6377 -7519.5383 301.4559 -158.4899 -121.9196 30617.8345 -166.9311 -85.4225
ENERGY: 1500000 1.4523 2.3310 2.8340 0.0000 -10777.4993 1455.6318 0.0000 0.0000 1790.5964 -7524.6539 305.0335 -9315.2503 -7521.0199 301.1772 126.2959 184.7898 30286.8332 -101.7819 -23.4174
TCL: Running FEP window  18: Lambda1 0.8500000000000002 Lambda2 0.9000000000000002 [dLambda 0.050000000000000044]
TCL: Setting parameter firsttimestep to 0
TCL: Setting parameter alchLambda to 0.8500000000000002
Info: NONBONDED TABLE R-SQUARED SPACING: 0.0625
Info: NONBONDED TABLE SIZE: 705 POINTS
TCL: Setting parameter alchLambda2 to 0.9000000000000002
Info: NONBONDED TABLE R-SQUARED SPACING: 0.0625
Info: NONBONDED TABLE SIZE: 705 POINTS
TCL: Running for 1500000 steps
ETITLE: TS BOND ANGLE DIHED IMPRP ELECT VDW BOUNDARY MISC KINETIC TOTAL TEMP POTENTIAL TOTALAVG TEMPAVG PRESSURE GPRESSURE VOLUME PRESSAVG GPRESSAVG
ENERGY: 0 1.4523 2.3310 2.8340 0.0000 -10777.6482 1455.3965 0.0000 0.0000 1789.7283 -7525.9060 304.8857 -9315.6344 -7525.9060 304.8857 97.1927 189.2699 30286.8332 97.1927 189.2699
ENERGY: 300000 2.9526 4.3569 2.8703 0.0000 -10689.9706 1469.2895 0.0000 0.0000 1709.0499 -7501.4514 291.1418 -9210.5012 -7536.5004 296.8722 355.8203 421.2199 30474.4373 234.1568 320.6526
ENERGY: 600000 1.1590 2.8160 2.9326 0.0000 -10750.3678 1455.8174 0.0000 0.0000 1771.3006 -7516.3421 301.7465 -9287.6427 -7533.1856 298.9733 111.3940 134.8232 30409.5481 -10.1207 55.8931
ENERGY: 900000 1.6414 2.8401 2.8046 0.0000 -10663.3714 1441.3150 0.0000 0.0000 1818.2770 -7396.4933 309.7490 -9214.7703 -7517.1191 300.6205 -110.3098 11.7797 30613.1451 -219.0492 -146.4407
ENERGY: 1200000 2.9314 1.8166 2.8390 0.0000 -10673.2225 1493.3011 0.0000 0.0000 1801.7053 -7370.6291 306.9260 -9172.3344 -7491.3738 302.3281 660.2077 651.3913 30788.0641 -97.5301 -33.5685
ENERGY: 1500000 1.5082 2.6287 2.8251 0.0000 -10708.7197 1508.5029 0.0000 0.0000 1810.7158 -7382.5390 308.4610 -9193.2548 -7481.6872 302.7094 709.0083 773.5334 30830.9430 -112.7670 -49.9491
TCL: Running FEP window  19: Lambda1 0.9000000000000002 Lambda2 0.9500000000000003 [dLambda 0.050000000000000044]
TCL: Setting parameter firsttimestep to 0
TCL: Setting parameter alchLambda to 0.9000000000000002
Info: NONBONDED TABLE R-SQUARED SPACING: 0.0625
Info: NONBONDED TABLE SIZE: 705 POINTS
TCL: Setting parameter alchLambda2 to 0.9500000000000003
Info: NONBONDED TABLE R-SQUARED SPACING: 0.0625
Info: NONBONDED TABLE SIZE: 705 POINTS
TCL: Running for 1500000 steps
ETITLE: TS BOND ANGLE DIHED IMPRP ELECT VDW BOUNDARY MISC KINETIC TOTAL TEMP POTENTIAL TOTALAVG TEMPAVG PRESSURE GPRESSURE VOLUME PRESSAVG GPRESSAVG
ENERGY: 0 1.5082 2.6286 2.8251 0.0000 -10708.8663 1508.2462 0.0000 0.0000 1809.8680 -7383.7901 308.3165 -9193.6581 -7383.7901 308.3165 683.0172 778.0525 30830.9430 683.0172 778.0525
ENERGY: 300000 2.0104 2.6613 2.8450 0.0000 -10631.2075 1377.1890 0.0000 0.0000 1786.8740 -7459.6278 304.3994 -9246.5018 -7473.5536 306.6277 -547.3948 -531.8787 31167.5836 198.0852 240.3437
ENERGY: 600000 1.3505 5.8899 2.8221 0.0000 -10928.2306 1548.1748 0.0000 0.0000 1740.9379 -7629.0555 296.5741 -9369.9934 -7489.5620 304.6647 763.4399 860.9996 29818.2348 325.2475 385.5344
ENERGY: 900000 2.7848 2.3928 2.7953 0.0000 -10719.7963 1374.4273 0.0000 0.0000 1730.9477 -7606.4484 294.8722 -9337.3961 -7489.3547 304.5679 -795.5925 -736.2879 30231.3843 249.9282 310.3462
ENERGY: 1200000 1.1721 3.4199 2.8466 0.0000 -10539.5253 1371.7894 0.0000 0.0000 1759.5946 -7400.7027 299.7523 -9160.2973 -7486.5045 303.5302 -215.5954 -140.6187 30718.0117 250.1582 312.2453
ENERGY: 1500000 2.2610 2.7531 2.8987 0.0000 -10822.5907 1467.7430 0.0000 0.0000 1722.9160 -7624.0190 293.5040 -9346.9350 -7502.7811 302.3821 121.7464 139.5038 30341.2795 214.0214 272.7110
TCL: Running FEP window  20: Lambda1 0.9500000000000003 Lambda2 1.0    [dLambda 0.04999999999999971]
TCL: Setting parameter firsttimestep to 0
TCL: Setting parameter alchLambda to 0.9500000000000003
Info: NONBONDED TABLE R-SQUARED SPACING: 0.0625
Info: NONBONDED TABLE SIZE: 705 POINTS
TCL: Setting parameter alchLambda2 to 1.0
Info: NONBONDED TABLE R-SQUARED SPACING: 0.0625
Info: NONBONDED TABLE SIZE: 705 POINTS
TCL: Running for 1500000 steps
ETITLE: TS BOND ANGLE DIHED IMPRP ELECT VDW BOUNDARY MISC KINETIC TOTAL TEMP POTENTIAL TOTALAVG TEMPAVG PRESSURE GPRESSURE VOLUME PRESSAVG GPRESSAVG
ENERGY: 0 2.2610 2.7531 2.8987 0.0000 -10822.8084 1467.6067 0.0000 0.0000 1722.0324 -7625.2565 293.3535 -9347.2889 -7625.2565 293.3535 53.8337 147.8638 30341.2795 53.8337 147.8638
ENERGY: 300000 1.0371 4.1137 2.8213 0.0000 -10780.6202 1482.9677 0.0000 0.0000 1780.4802 -7509.2002 303.3102 -9289.6805 -7536.8671 299.4238 199.7821 329.0031 30079.7206 365.6435 440.5086
ENERGY: 600000 1.0580 3.6606 2.7510 0.0000 -10684.5843 1351.8126 0.0000 0.0000 1778.5257 -7546.7765 302.9773 -9325.3022 -7504.3241 301.2487 -709.0445 -635.5105 30235.3639 133.1148 196.7241
ENERGY: 900000 1.3646 4.2417 2.8741 0.0000 -10567.1623 1402.7903 0.0000 0.0000 1755.8037 -7400.0880 299.1065 -9155.8917 -7488.4955 301.5628 67.1178 77.6283 30678.5011 63.4449 128.2386
ENERGY: 1200000 1.7114 3.8410 2.9261 0.0000 -10742.7909 1499.3318 0.0000 0.0000 1781.5080 -7453.4726 303.4853 -9234.9806 -7492.2371 301.7878 751.8824 846.8699 30092.6166 69.6846 129.9080
ENERGY: 1500000 0.4529 3.4588 2.8394 0.0000 -10760.7183 1421.1880 0.0000 0.0000 1817.2229 -7515.5562 309.5695 -9332.7791 -7502.5824 302.2862 -326.1802 -276.6473 30293.7295 42.7836 107.0715
TCL: Exiting due to exit command.
