Info: SIMULATION PARAMETERS:
Info: TIMESTEP               2
Info: NUMBER OF STEPS        0
Info: STEPS PER CYCLE        10
Info: PERIODIC CELL BASIS 1  32.4144 0 0
Info: PERIODIC CELL BASIS 2  0 32.565 0
Info: PERIODIC CELL BASIS 3  0 0 29.3104
Info: PERIODIC CELL CENTER   0 0 0
Info: WRAPPING WATERS AROUND PERIODIC BOUNDARIES ON OUTPUT.
Info: WRAPPING ALL CLUSTERS AROUND PERIODIC BOUNDARIES ON OUTPUT.
Info: FIRST LDB TIMESTEP     50
Info: LAST LDB TIMESTEP     -1
Info: HOM BACKGROUND SCALING 1
Info: PME BACKGROUND SCALING 1
Info: MIN ATOMS PER PATCH    40
Info: EMPTY PATCH LOAD       40 ATOMS
Info: VELOCITY FILE          mobley_7039935_equil.vel
Info: CENTER OF MASS MOVING INITIALLY? NO
Info: DIELECTRIC             1
Info: EXCLUDE                SCALED ONE-FOUR
Info: 1-4 ELECTROSTATICS SCALED BY 0.833333
Info: MODIFIED 1-4 VDW PARAMETERS WILL BE USED
Info: DCD FILENAME           mobley_7039935_prod.dcd
Info: DCD FREQUENCY          100000
Info: DCD FIRST STEP         100000
Info: DCD FILE WILL CONTAIN UNIT CELL DATA
Info: XST FILENAME           mobley_7039935_prod.xst
Info: XST FREQUENCY          100000
Info: NO VELOCITY DCD OUTPUT
Info: NO FORCE DCD OUTPUT
Info: OUTPUT FILENAME        mobley_7039935_prod
Info: BINARY OUTPUT FILES WILL BE USED
Info: RESTART FILENAME       mobley_7039935_prod.restart
Info: RESTART FREQUENCY      100000
Info: BINARY RESTART FILES WILL BE USED
Info: CUTOFF                 9
Info: PAIRLIST DISTANCE      11
Info: PAIRLIST SHRINK RATE   0.01
Info: PAIRLIST GROW RATE     0.01
Info: PAIRLIST TRIGGER       0.3
Info: PAIRLISTS PER CYCLE    2
Info: PAIRLISTS ENABLED
Info: MARGIN                 2
Info: HYDROGEN GROUP CUTOFF  2.5
Info: PATCH DIMENSION        15.5
Info: ENERGY OUTPUT STEPS    100000
Info: ENERGY EVALUATION STEPS    100000
Info: OUTPUT ENERGY PRECISION 4
Info: CROSSTERM ENERGY INCLUDED IN DIHEDRAL
Info: TIMING OUTPUT STEPS    1000000
Info: PRESSURE OUTPUT STEPS  100000
Info: ALCHEMICAL FEP ON
Info: FEP CURRENT LAMBDA VALUE     0
Info: FEP COMPARISON LAMBDA VALUE  0.05
Info: FEP INTRA-ALCHEMICAL NON-BONDED INTERACTIONS WILL BE RETAINED
Info: FEP INTRA-ALCHEMICAL BONDED INTERACTIONS WILL BE RETAINED
Info: FEP VDW SHIFTING COEFFICIENT 5
Info: FEP ELEC. ACTIVE FOR ANNIHILATED PARTICLES BETWEEN LAMBDA = 0 AND LAMBDA = 0.5
Info: FEP ELEC. ACTIVE FOR EXNIHILATED PARTICLES BETWEEN LAMBDA = 0.5 AND LAMBDA = 1
Info: FEP VDW ACTIVE FOR ANNIHILATED PARTICLES BETWEEN LAMBDA = 0 AND LAMBDA = 1
Info: FEP VDW ACTIVE FOR EXNIHILATED PARTICLES BETWEEN LAMBDA = 0 AND LAMBDA = 1
Info: FEP BOND ACTIVE FOR ANNIHILATED PARTICLES BETWEEN LAMBDA = 1 AND LAMBDA = 1
Info: FEP BOND ACTIVE FOR EXNIHILATED PARTICLES BETWEEN LAMBDA = 0 AND LAMBDA = 0
Info: LANGEVIN DYNAMICS ACTIVE
Info: LANGEVIN TEMPERATURE   300
Info: LANGEVIN USING BBK INTEGRATOR
Info: LANGEVIN DAMPING COEFFICIENT IS 1 INVERSE PS
Info: LANGEVIN DYNAMICS APPLIED TO HYDROGENS
Info: LANGEVIN PISTON PRESSURE CONTROL ACTIVE
Info:        TARGET PRESSURE IS 1.01325 BAR
Info:     OSCILLATION PERIOD IS 50 FS
Info:             DECAY TIME IS 25 FS
Info:     PISTON TEMPERATURE IS 300 K
Info:       PRESSURE CONTROL IS GROUP-BASED
Info:    INITIAL STRAIN RATE IS 0.000380673 0.000380673 0.000380673
Info:       CELL FLUCTUATION IS ISOTROPIC
Info: PARTICLE MESH EWALD (PME) ACTIVE
Info: PME TOLERANCE               1e-06
Info: PME EWALD COEFFICIENT       0.348832
Info: PME INTERPOLATION ORDER     4
Info: PME GRID DIMENSIONS         36 36 32
Info: PME MAXIMUM GRID SPACING    1
Info: PME CALCULATION WILL BE PERFORMED ON GPU
Info: FULL ELECTROSTATIC EVALUATION FREQUENCY      2
Info: USING VERLET I (r-RESPA) MTS SCHEME.
Info: C1 SPLITTING OF LONG RANGE ELECTROSTATICS
Info: PLACING ATOMS IN PATCHES BY HYDROGEN GROUPS
Info: RIGID BONDS TO HYDROGEN : ALL
Info:         ERROR TOLERANCE : 1e-08
Info:          MAX ITERATIONS : 100
Info: RIGID WATER USING SETTLE ALGORITHM
Info: RANDOM NUMBER SEED     1743614556
Info: USE HYDROGEN BONDS?    NO
Info: Using AMBER format force field!
Info: AMBER PARM FILE        mobley_7039935.prmtop
Info: COORDINATE PDB         mobley_7039935.pdb
Info: Exclusions will be read from PARM file!
Info: SCNB (VDW SCALING)     2
Info: USING ARITHMETIC MEAN TO COMBINE L-J SIGMA PARAMETERS
Info: BINARY COORDINATES     mobley_7039935_equil.coor
Info: SUMMARY OF PARAMETERS:
Info: 6 BONDS
Info: 4 ANGLES
Info:   4 HARMONIC
Info:   0 COSINE-BASED
Info: 3 DIHEDRAL
Info: 0 IMPROPER
Info: 0 CROSSTERM
Info: 0 VDW
Info: 15 VDW_PAIRS
Info: 0 NBTHOLE_PAIRS
Info: To read alchdata from file: mobley_7039935.pdb
Info: To read alchflag data from column: 5
Info: STRUCTURE SUMMARY:
Info: 2947 ATOMS
Info: 2948 BONDS
Info: 31 ANGLES
Info: 56 DIHEDRALS
Info: 0 IMPROPERS
Info: 0 CROSSTERMS
Info: 3019 EXCLUSIONS
Info: 2936 RIGID BONDS
Info: ALCH: 0 ATOMS TO DISAPPEAR IN FINAL STATE
Info: ALCH: 19 ATOMS TO APPEAR IN FINAL STATE
Info: 5905 DEGREES OF FREEDOM
Info: 987 HYDROGEN GROUPS
Info: 3 ATOMS IN LARGEST HYDROGEN GROUP
Info: 987 MIGRATION GROUPS
Info: 3 ATOMS IN LARGEST MIGRATION GROUP
Info: TOTAL MASS = 17727.8 amu
Info: TOTAL CHARGE = 0.00019999 e
Info: MASS DENSITY = 0.951487 g/cm^3
Info: ATOM DENSITY = 0.095251 atoms/A^3
Info: ADDED 0 IMPLICIT EXCLUSIONS
Info: NONBONDED TABLE R-SQUARED SPACING: 0.0625
Info: NONBONDED TABLE SIZE: 705 POINTS
Info: REDUCING NUMBER OF PATCHES TO IMPROVE LOAD BALANCE
Info: REMOVING COM VELOCITY 0.0714369 0.12735 -0.136958
Info: Use 3D box decompostion in PME FFT.
Info: Updated CUDA force table with 4096 elements.
Info: Updated CUDA LJ table with 5 x 5 elements.
Info: Found 20 unique exclusion lists needing 52 bytes
TCL: Running for 1500000 steps
ETITLE: TS BOND ANGLE DIHED IMPRP ELECT VDW BOUNDARY MISC KINETIC TOTAL TEMP POTENTIAL TOTALAVG TEMPAVG PRESSURE GPRESSURE VOLUME PRESSAVG GPRESSAVG
ENERGY: 0 2.6654 3.5805 5.0143 0.0000 -10615.2066 1400.5890 0.0000 0.0000 1765.4097 -7437.9477 300.8957 -9203.3574 -7437.9477 300.8957 -430.1595 -340.5703 30939.3041 -430.1595 -340.5703
ENERGY: 300000 4.2673 4.3934 6.8233 0.0000 -10699.5515 1498.0284 0.0000 0.0000 1733.4961 -7452.5430 295.4564 -9186.0391 -7428.1288 300.8942 627.1735 754.8739 29762.9082 -190.3347 -100.8551
ENERGY: 600000 3.6607 3.3940 4.9565 0.0000 -10579.7090 1385.6968 0.0000 0.0000 1764.6412 -7417.3598 300.7647 -9182.0011 -7436.7774 300.6118 -709.5178 -599.4218 30660.1117 -74.1640 12.6734
ENERGY: 900000 5.9777 4.9481 3.2143 0.0000 -10676.8406 1379.9356 0.0000 0.0000 1771.2775 -7511.4875 301.8958 -9282.7650 -7454.2902 300.4915 -264.2059 -237.9559 29558.6385 -78.2250 -9.9492
ENERGY: 1200000 6.8714 5.1779 3.6924 0.0000 -10624.0406 1398.8568 0.0000 0.0000 1699.4152 -7510.0269 289.6476 -9209.4421 -7467.4892 298.5403 -779.3848 -720.7560 30221.1893 -191.7535 -127.9801
ENERGY: 1500000 5.7328 4.4445 8.6753 0.0000 -10704.6695 1435.5189 0.0000 0.0000 1734.6196 -7515.6785 295.6478 -9250.2980 -7472.0546 298.0291 -244.0248 -255.3873 30123.8390 -127.3824 -69.5985
TCL: Running FEP window   2: Lambda1 0.05   Lambda2 0.1    [dLambda 0.05  ]
TCL: Setting parameter firsttimestep to 0
TCL: Setting parameter alchLambda to 0.05
Info: NONBONDED TABLE R-SQUARED SPACING: 0.0625
Info: NONBONDED TABLE SIZE: 705 POINTS
TCL: Setting parameter alchLambda2 to 0.1
Info: NONBONDED TABLE R-SQUARED SPACING: 0.0625
Info: NONBONDED TABLE SIZE: 705 POINTS
TCL: Running for 1500000 steps
ETITLE: TS BOND ANGLE DIHED IMPRP ELECT VDW BOUNDARY MISC KINETIC TOTAL TEMP POTENTIAL TOTALAVG TEMPAVG PRESSURE GPRESSURE VOLUME PRESSAVG GPRESSAVG
ENERGY: 0 5.7328 4.4445 8.6753 0.0000 -10704.6693 1440.2061 0.0000 0.0000 1733.7126 -7511.8980 295.4933 -9245.6106 -7511.8980 295.4933 -332.8277 -243.7136 30123.8390 -332.8277 -243.7136
ENERGY: 300000 3.8171 2.0240 6.0509 0.0000 -10796.9789 1547.3400 0.0000 0.0000 1732.2914 -7505.4554 295.2510 -9237.7468 -7463.4783 298.4795 753.1034 762.8010 29909.8531 88.8735 158.6978
ENERGY: 600000 2.2777 4.9355 10.0964 0.0000 -10680.7309 1451.0564 0.0000 0.0000 1729.7470 -7482.6179 294.8174 -9212.3649 -7474.7055 297.5588 22.3538 108.5624 29780.4291 -44.1213 27.6700
ENERGY: 900000 3.9648 3.7294 3.8843 0.0000 -10629.6682 1413.8347 0.0000 0.0000 1751.4290 -7452.8261 298.5128 -9204.2550 -7468.3171 299.0194 -196.6358 -130.8093 30060.0007 -94.9003 -24.0815
ENERGY: 1200000 3.5995 2.8639 5.1752 0.0000 -10845.7915 1523.3693 0.0000 0.0000 1799.1813 -7511.6023 306.6517 -9310.7836 -7463.7895 299.8851 253.1501 300.6492 30299.6792 -78.5326 -7.1713
ENERGY: 1500000 9.2303 4.7524 4.2965 0.0000 -10663.7479 1449.9280 0.0000 0.0000 1759.0741 -7436.4666 299.8159 -9195.5407 -7474.6735 299.6522 162.5670 185.0424 29833.5255 -56.3501 5.5433
TCL: Running FEP window   3: Lambda1 0.1    Lambda2 0.15000000000000002 [dLambda 0.05000000000000002]
TCL: Setting parameter firsttimestep to 0
TCL: Setting parameter alchLambda to 0.1
Info: NONBONDED TABLE R-SQUARED SPACING: 0.0625
Info: NONBONDED TABLE SIZE: 705 POINTS
TCL: Setting parameter alchLambda2 to 0.15000000000000002
Info: NONBONDED TABLE R-SQUARED SPACING: 0.0625
Info: NONBONDED TABLE SIZE: 705 POINTS
TCL: Running for 1500000 steps
ETITLE: TS BOND ANGLE DIHED IMPRP ELECT VDW BOUNDARY MISC KINETIC TOTAL TEMP POTENTIAL TOTALAVG TEMPAVG PRESSURE GPRESSURE VOLUME PRESSAVG GPRESSAVG
ENERGY: 0 9.2303 4.7524 4.2965 0.0000 -10663.7477 1452.0312 0.0000 0.0000 1758.1994 -7435.2379 299.6668 -9193.4373 -7435.2379 299.6668 122.4394 196.3273 29833.5255 122.4394 196.3273
ENERGY: 300000 8.5758 5.4088 5.0741 0.0000 -10745.2316 1433.2897 0.0000 0.0000 1802.9979 -7489.8853 307.3022 -9292.8831 -7441.0931 304.2185 -493.7096 -471.9658 30096.8039 -259.6673 -223.5283
ENERGY: 600000 3.9252 4.1806 1.8632 0.0000 -10785.1463 1513.8260 0.0000 0.0000 1748.1530 -7513.1984 297.9545 -9261.3514 -7429.2529 302.9529 467.1933 620.1102 29639.2205 22.4095 82.4135
ENERGY: 900000 2.9437 3.9317 3.3527 0.0000 -10569.2568 1396.3158 0.0000 0.0000 1768.5620 -7394.1509 301.4330 -9162.7129 -7441.5853 301.9173 -355.7992 -308.5742 30220.4320 -64.3302 -7.0627
ENERGY: 1200000 5.1303 5.0873 6.9501 0.0000 -10675.8043 1420.8428 0.0000 0.0000 1769.5911 -7468.2026 301.6084 -9237.7936 -7448.9057 301.1648 -545.9749 -468.5191 30346.8168 -123.3398 -65.5219
ENERGY: 1500000 4.9798 4.6393 3.7028 0.0000 -10708.2432 1433.4719 0.0000 0.0000 1833.6229 -7427.8264 312.5219 -9261.4494 -7448.5253 301.9237 -60.4753 -34.6705 29935.6146 -17.1063 42.6005
TCL: Running FEP window   4: Lambda1 0.15000000000000002 Lambda2 0.2    [dLambda 0.04999999999999999]
TCL: Setting parameter firsttimestep to 0
TCL: Setting parameter alchLambda to 0.15000000000000002
Info: NONBONDED TABLE R-SQUARED SPACING: 0.0625
Info: NONBONDED TABLE SIZE: 705 POINTS
TCL: Setting parameter alchLambda2 to 0.2
Info: NONBONDED TABLE R-SQUARED SPACING: 0.0625
Info: NONBONDED TABLE SIZE: 705 POINTS
TCL: Running for 1500000 steps
ETITLE: TS BOND ANGLE DIHED IMPRP ELECT VDW BOUNDARY MISC KINETIC TOTAL TEMP POTENTIAL TOTALAVG TEMPAVG PRESSURE GPRESSURE VOLUME PRESSAVG GPRESSAVG
ENERGY: 0 4.9798 4.6393 3.7028 0.0000 -10708.2418 1433.3891 0.0000 0.0000 1832.7181 -7428.8126 312.3677 -9261.5307 -7428.8126 312.3677 -124.4156 -30.6250 29935.6146 -124.4156 -30.6250
ENERGY: 300000 3.7592 3.2502 4.5150 0.0000 -10671.6009 1454.3130 0.0000 0.0000 1753.8531 -7451.9104 298.9260 -9205.7635 -7414.7315 305.2842 418.3256 401.7526 30252.7285 61.0641 100.6459
ENERGY: 600000 5.4161 5.4930 3.6150 0.0000 -10646.8794 1349.1052 0.0000 0.0000 1737.1882 -7546.0619 296.0856 -9283.2501 -7440.4905 302.2249 -1028.9763 -1015.4981 30237.7245 -78.5914 -30.2903
ENERGY: 900000 3.2714 4.8772 8.4694 0.0000 -10623.2634 1407.0555 0.0000 0.0000 1765.7957 -7433.7942 300.9615 -9199.5899 -7456.1988 301.0310 -45.6906 16.8031 30083.9854 -96.0401 -45.2169
ENERGY: 1200000 3.8627 4.4596 3.4387 0.0000 -10471.2130 1327.9153 0.0000 0.0000 1739.6048 -7391.9320 296.4975 -9131.5368 -7423.5481 301.7295 -700.9319 -700.1432 30294.8077 -144.4244 -98.8025
ENERGY: 1500000 3.7825 3.0436 3.8334 0.0000 -10653.3872 1486.0808 0.0000 0.0000 1767.2747 -7389.3723 301.2136 -9156.6470 -7418.8825 301.1837 341.2511 356.3447 30610.3279 -147.8258 -104.4579
TCL: Running FEP window   5: Lambda1 0.2    Lambda2 0.25   [dLambda 0.04999999999999999]
TCL: Setting parameter firsttimestep to 0
TCL: Setting parameter alchLambda to 0.2
Info: NONBONDED TABLE R-SQUARED SPACING: 0.0625
Info: NONBONDED TABLE SIZE: 705 POINTS
TCL: Setting parameter alchLambda2 to 0.25
Info: NONBONDED TABLE R-SQUARED SPACING: 0.0625
Info: NONBONDED TABLE SIZE: 705 POINTS
TCL: Running for 1500000 steps
ETITLE: TS BOND ANGLE DIHED IMPRP ELECT VDW BOUNDARY MISC KINETIC TOTAL TEMP POTENTIAL TOTALAVG TEMPAVG PRESSURE GPRESSURE VOLUME PRESSAVG GPRESSAVG
ENERGY: 0 3.7825 3.0436 3.8334 0.0000 -10653.3879 1487.0554 0.0000 0.0000 1766.3909 -7389.2822 301.0629 -9155.6731 -7389.2822 301.0629 270.5716 362.7872 30610.3279 270.5716 362.7872
ENERGY: 300000 3.4967 5.1140 3.5569 0.0000 -10656.7757 1397.3704 0.0000 0.0000 1772.8537 -7474.3840 302.1645 -9247.2377 -7421.8728 299.6507 -214.9264 -174.5491 29891.0442 -0.0903 75.1981
ENERGY: 600000 2.7694 6.3143 4.6224 0.0000 -10648.1261 1453.5593 0.0000 0.0000 1759.7566 -7421.1040 299.9322 -9180.8606 -7436.6704 301.0566 365.6120 471.6283 30281.7538 135.9637 213.0484
ENERGY: 900000 4.0370 3.9453 8.8734 0.0000 -10612.2717 1336.3412 0.0000 0.0000 1787.8409 -7471.2339 304.7189 -9259.0748 -7444.1933 301.6153 -1102.8233 -1077.2613 30360.8856 -87.6109 -19.0064
ENERGY: 1200000 11.3569 6.2522 7.4353 0.0000 -10588.6490 1396.1140 0.0000 0.0000 1807.9603 -7359.5302 308.1480 -9167.4906 -7436.9916 302.6051 -706.1638 -630.7295 30540.0756 -60.7891 9.7110
ENERGY: 1500000 4.7311 4.8630 3.8385 0.0000 -10512.2787 1355.1368 0.0000 0.0000 1694.0365 -7449.6728 288.7309 -9143.7093 -7438.5462 300.6459 -769.8686 -712.4994 30795.2532 -124.3160 -56.3546
TCL: Running FEP window   6: Lambda1 0.25   Lambda2 0.3    [dLambda 0.04999999999999999]
TCL: Setting parameter firsttimestep to 0
TCL: Setting parameter alchLambda to 0.25
Info: NONBONDED TABLE R-SQUARED SPACING: 0.0625
Info: NONBONDED TABLE SIZE: 705 POINTS
TCL: Setting parameter alchLambda2 to 0.3
Info: NONBONDED TABLE R-SQUARED SPACING: 0.0625
Info: NONBONDED TABLE SIZE: 705 POINTS
TCL: Running for 1500000 steps
ETITLE: TS BOND ANGLE DIHED IMPRP ELECT VDW BOUNDARY MISC KINETIC TOTAL TEMP POTENTIAL TOTALAVG TEMPAVG PRESSURE GPRESSURE VOLUME PRESSAVG GPRESSAVG
ENERGY: 0 4.7311 4.8630 3.8385 0.0000 -10512.2800 1355.6694 0.0000 0.0000 1693.1738 -7450.0042 288.5839 -9143.1780 -7450.0042 288.5839 -783.8944 -705.7660 30795.2532 -783.8944 -705.7660
ENERGY: 300000 1.3350 5.6275 3.0226 0.0000 -10595.6817 1368.8280 0.0000 0.0000 1705.2160 -7511.6526 290.6363 -9216.8686 -7472.2059 296.2207 -948.9327 -900.8530 30872.9676 -399.2260 -337.8460
ENERGY: 600000 8.0146 6.1261 4.7270 0.0000 -10591.3205 1376.3959 0.0000 0.0000 1746.7806 -7449.2763 297.7206 -9196.0568 -7472.4875 297.2535 -861.0869 -760.3990 30954.0066 -529.9677 -466.8210
ENERGY: 900000 5.5268 6.9007 4.4826 0.0000 -10612.8373 1427.4122 0.0000 0.0000 1742.7830 -7425.7322 297.0392 -9168.5151 -7465.0558 297.0870 -77.9098 51.4102 30537.9901 -375.2007 -299.9884
ENERGY: 1200000 1.7489 2.5407 3.4780 0.0000 -10617.4591 1450.3563 0.0000 0.0000 1771.8515 -7387.4836 301.9937 -9159.3352 -7457.5020 297.5680 23.0391 48.3908 30541.0588 -216.7743 -147.8955
ENERGY: 1500000 4.2211 4.8725 4.6890 0.0000 -10686.7777 1424.3598 0.0000 0.0000 1769.1346 -7479.5007 301.5306 -9248.6353 -7457.9144 297.1771 65.7752 160.0244 29444.8988 -173.3780 -106.4586
TCL: Running FEP window   7: Lambda1 0.3    Lambda2 0.35   [dLambda 0.04999999999999999]
TCL: Setting parameter firsttimestep to 0
TCL: Setting parameter alchLambda to 0.3
Info: NONBONDED TABLE R-SQUARED SPACING: 0.0625
Info: NONBONDED TABLE SIZE: 705 POINTS
TCL: Setting parameter alchLambda2 to 0.35
Info: NONBONDED TABLE R-SQUARED SPACING: 0.0625
Info: NONBONDED TABLE SIZE: 705 POINTS
TCL: Running for 1500000 steps
ETITLE: TS BOND ANGLE DIHED IMPRP ELECT VDW BOUNDARY MISC KINETIC TOTAL TEMP POTENTIAL TOTALAVG TEMPAVG PRESSURE GPRESSURE VOLUME PRESSAVG GPRESSAVG
ENERGY: 0 4.2211 4.8725 4.6890 0.0000 -10686.7782 1424.4272 0.0000 0.0000 1768.2528 -7480.3155 301.3803 -9248.5683 -7480.3155 301.3803 85.9870 165.8877 29444.8988 85.9870 165.8877
ENERGY: 300000 8.3203 4.8247 1.9099 0.0000 -10874.1959 1581.3678 0.0000 0.0000 1759.0246 -7518.7487 299.8074 -9277.7733 -7495.1644 296.6756 735.8644 758.9260 30129.6377 517.9155 575.0687
ENERGY: 600000 4.9211 3.3868 4.9213 0.0000 -10620.9334 1379.5264 0.0000 0.0000 1808.5219 -7419.6560 308.2437 -9228.1779 -7471.0647 299.5077 -300.6396 -281.6609 30041.1912 151.6588 209.7276
ENERGY: 900000 3.8873 6.0956 4.3175 0.0000 -10722.8725 1486.3825 0.0000 0.0000 1721.6442 -7500.5453 293.4363 -9222.1895 -7464.5920 298.6505 53.5488 122.4477 30452.8728 151.6417 211.9073
ENERGY: 1200000 4.9722 11.6261 2.8286 0.0000 -10638.2897 1435.5828 0.0000 0.0000 1748.6710 -7434.6090 298.0428 -9183.2800 -7460.5474 299.1406 -214.9866 -122.6976 30660.0221 178.6480 234.4300
ENERGY: 1500000 2.8277 4.9439 5.8696 0.0000 -10716.1709 1510.7943 0.0000 0.0000 1732.4041 -7459.3313 295.2702 -9191.7354 -7457.8346 298.1232 538.5524 584.6212 30558.1766 167.0099 225.0210
TCL: Running FEP window   8: Lambda1 0.35   Lambda2 0.39999999999999997 [dLambda 0.04999999999999999]
TCL: Setting parameter firsttimestep to 0
TCL: Setting parameter alchLambda to 0.35
Info: NONBONDED TABLE R-SQUARED SPACING: 0.0625
Info: NONBONDED TABLE SIZE: 705 POINTS
TCL: Setting parameter alchLambda2 to 0.39999999999999997
Info: NONBONDED TABLE R-SQUARED SPACING: 0.0625
Info: NONBONDED TABLE SIZE: 705 POINTS
TCL: Running for 1500000 steps
ETITLE: TS BOND ANGLE DIHED IMPRP ELECT VDW BOUNDARY MISC KINETIC TOTAL TEMP POTENTIAL TOTALAVG TEMPAVG PRESSURE GPRESSURE VOLUME PRESSAVG GPRESSAVG
ENERGY: 0 2.8277 4.9439 5.8696 0.0000 -10716.1708 1510.9922 0.0000 0.0000 1731.5481 -7459.9894 295.1244 -9191.5375 -7459.9894 295.1244 505.8022 586.6642 30558.1766 505.8022 586.6642
ENERGY: 300000 4.0123 3.4567 4.2516 0.0000 -10777.2290 1451.4267 0.0000 0.0000 1795.7757 -7518.3060 306.0713 -9314.0817 -7462.8320 301.7543 -210.8157 -157.4903 30306.8123 -230.3275 -154.9691
ENERGY: 600000 5.0281 2.8109 3.4009 0.0000 -10746.9997 1462.3609 0.0000 0.0000 1750.8850 -7522.5138 298.4201 -9273.3989 -7448.4785 301.1842 17.6554 98.4435 30070.2974 53.7923 118.7803
ENERGY: 900000 3.5625 3.1297 7.3067 0.0000 -10674.9143 1442.4755 0.0000 0.0000 1754.5386 -7463.9012 299.0428 -9218.4398 -7462.2246 300.7461 -150.3314 -122.7140 30694.1526 16.7812 81.8650
ENERGY: 1200000 3.6651 6.1667 4.8392 0.0000 -10634.3961 1429.2553 0.0000 0.0000 1759.5153 -7430.9544 299.8911 -9190.4697 -7467.0341 299.8011 -133.2201 -57.2623 30167.4308 -67.9299 4.9864
ENERGY: 1500000 3.1696 2.7527 3.7243 0.0000 -10671.9409 1375.7007 0.0000 0.0000 1780.5443 -7506.0493 303.4752 -9286.5936 -7468.4513 299.8291 -817.2764 -752.2415 30447.2420 -23.2063 48.6938
TCL: Running FEP window   9: Lambda1 0.39999999999999997 Lambda2 0.44999999999999996 [dLambda 0.04999999999999999]
TCL: Setting parameter firsttimestep to 0
TCL: Setting parameter alchLambda to 0.39999999999999997
Info: NONBONDED TABLE R-SQUARED SPACING: 0.0625
Info: NONBONDED TABLE SIZE: 705 POINTS
TCL: Setting parameter alchLambda2 to 0.44999999999999996
Info: NONBONDED TABLE R-SQUARED SPACING: 0.0625
Info: NONBONDED TABLE SIZE: 705 POINTS
TCL: Running for 1500000 steps
ETITLE: TS BOND ANGLE DIHED IMPRP ELECT VDW BOUNDARY MISC KINETIC TOTAL TEMP POTENTIAL TOTALAVG TEMPAVG PRESSURE GPRESSURE VOLUME PRESSAVG GPRESSAVG
ENERGY: 0 3.1696 2.7527 3.7243 0.0000 -10671.9403 1376.1961 0.0000 0.0000 1779.7012 -7506.3965 303.3315 -9286.0977 -7506.3965 303.3315 -833.7835 -744.7761 30447.2420 -833.7835 -744.7761
ENERGY: 300000 6.1349 4.5153 7.7178 0.0000 -10571.6968 1341.2643 0.0000 0.0000 1787.0585 -7425.0060 304.5855 -9212.0644 -7482.9551 303.2278 -801.7401 -803.1402 30171.3380 -479.4974 -421.7871
ENERGY: 600000 5.1420 1.8725 4.4875 0.0000 -10614.1463 1341.3735 0.0000 0.0000 1725.3880 -7535.8829 294.0744 -9261.2709 -7486.0728 302.6732 -1012.9463 -931.6576 30200.9563 -458.9088 -396.4569
ENERGY: 900000 5.0779 5.1614 3.5003 0.0000 -10597.1050 1372.7506 0.0000 0.0000 1764.0221 -7446.5927 300.6592 -9210.6148 -7471.5725 302.9936 -620.3894 -586.0756 30221.6741 -294.6927 -233.3149
ENERGY: 1200000 3.2526 3.3159 2.2845 0.0000 -10700.1949 1420.9686 0.0000 0.0000 1758.5340 -7511.8394 299.7238 -9270.3733 -7467.1391 302.7731 -187.3217 -129.0534 30312.9038 -247.3303 -182.8093
ENERGY: 1500000 7.2196 2.2904 5.5986 0.0000 -10544.8669 1420.2446 0.0000 0.0000 1728.6101 -7380.9036 294.6236 -9109.5136 -7461.7214 302.7799 122.0770 229.3888 30217.3749 -203.1601 -138.4213
TCL: Running FEP window  10: Lambda1 0.44999999999999996 Lambda2 0.49999999999999994 [dLambda 0.04999999999999999]
TCL: Setting parameter firsttimestep to 0
TCL: Setting parameter alchLambda to 0.44999999999999996
Info: NONBONDED TABLE R-SQUARED SPACING: 0.0625
Info: NONBONDED TABLE SIZE: 705 POINTS
TCL: Setting parameter alchLambda2 to 0.49999999999999994
Info: NONBONDED TABLE R-SQUARED SPACING: 0.0625
Info: NONBONDED TABLE SIZE: 705 POINTS
TCL: Running for 1500000 steps
ETITLE: TS BOND ANGLE DIHED IMPRP ELECT VDW BOUNDARY MISC KINETIC TOTAL TEMP POTENTIAL TOTALAVG TEMPAVG PRESSURE GPRESSURE VOLUME PRESSAVG GPRESSAVG
ENERGY: 0 7.2196 2.2904 5.5986 0.0000 -10544.8682 1419.8395 0.0000 0.0000 1727.7471 -7382.1730 294.4765 -9109.9201 -7382.1730 294.4765 131.9121 231.2657 30217.3749 131.9121 231.2657
ENERGY: 300000 4.6237 7.5540 7.1566 0.0000 -10555.8131 1389.7712 0.0000 0.0000 1719.1289 -7427.5787 293.0076 -9146.7076 -7479.7846 294.7628 -101.0313 -43.8433 30103.7090 -221.3076 -165.5560
ENERGY: 600000 3.5662 4.4603 2.1815 0.0000 -10637.4200 1448.3773 0.0000 0.0000 1739.1460 -7439.6887 296.4193 -9178.8347 -7457.3634 297.2346 473.1607 550.2120 30011.7180 -192.8792 -126.8851
ENERGY: 900000 5.4452 6.3115 3.4298 0.0000 -10606.5339 1446.2028 0.0000 0.0000 1797.5275 -7347.6172 306.3699 -9145.1447 -7439.9532 298.4557 127.1090 189.8572 30632.9795 -178.5560 -108.2313
ENERGY: 1200000 2.5289 4.8584 5.0291 0.0000 -10678.1060 1470.5878 0.0000 0.0000 1752.2450 -7442.8568 298.6519 -9195.1018 -7439.3946 298.9181 263.3054 308.6070 30512.0205 -75.2707 -15.1503
ENERGY: 1500000 4.0328 6.9017 4.2521 0.0000 -10731.7199 1479.7585 0.0000 0.0000 1807.5883 -7429.1864 308.0846 -9236.7748 -7449.0432 299.4247 276.6371 399.4450 29867.2678 -28.1766 37.9661
TCL: Running FEP window  11: Lambda1 0.49999999999999994 Lambda2 0.5499999999999999 [dLambda 0.04999999999999999]
TCL: Setting parameter firsttimestep to 0
TCL: Setting parameter alchLambda to 0.49999999999999994
Info: NONBONDED TABLE R-SQUARED SPACING: 0.0625
Info: NONBONDED TABLE SIZE: 705 POINTS
TCL: Setting parameter alchLambda2 to 0.5499999999999999
Info: NONBONDED TABLE R-SQUARED SPACING: 0.0625
Info: NONBONDED TABLE SIZE: 705 POINTS
TCL: Running for 1500000 steps
ETITLE: TS BOND ANGLE DIHED IMPRP ELECT VDW BOUNDARY MISC KINETIC TOTAL TEMP POTENTIAL TOTALAVG TEMPAVG PRESSURE GPRESSURE VOLUME PRESSAVG GPRESSAVG
ENERGY: 0 4.0328 6.9017 4.2521 0.0000 -10731.7194 1479.5397 0.0000 0.0000 1806.6906 -7430.3025 307.9316 -9236.9931 -7430.3025 307.9316 323.6907 407.2182 29867.2678 323.6907 407.2182
ENERGY: 300000 6.1016 6.2500 7.0613 0.0000 -10501.0814 1403.9602 0.0000 0.0000 1745.6574 -7332.0509 297.5291 -9077.7083 -7419.5244 301.7862 -176.4534 -100.3509 31364.1624 -27.4634 38.7584
ENERGY: 600000 3.2449 8.0818 6.5416 0.0000 -10474.0354 1340.7483 0.0000 0.0000 1801.7835 -7313.6353 307.0952 -9115.4188 -7425.4521 300.5943 -435.5603 -392.7112 30420.5408 -214.6275 -160.7706
ENERGY: 900000 5.5507 2.0697 5.4204 0.0000 -10643.7312 1435.8491 0.0000 0.0000 1780.0522 -7414.7891 303.3914 -9194.8413 -7432.8880 299.7404 62.8943 62.8007 30207.8350 -206.2141 -148.4174
ENERGY: 1200000 6.4280 5.3633 2.8671 0.0000 -10693.7253 1477.0311 0.0000 0.0000 1724.7878 -7477.2479 293.9721 -9202.0357 -7441.3365 297.9108 231.3363 272.7005 30490.1201 -202.1891 -142.0976
ENERGY: 1500000 3.3647 6.2915 2.7495 0.0000 -10624.6569 1399.8637 0.0000 0.0000 1744.1607 -7468.2268 297.2740 -9212.3875 -7439.8001 298.4379 -95.3535 -52.0800 30081.0259 -201.4740 -141.0223
TCL: Running FEP window  12: Lambda1 0.5499999999999999 Lambda2 0.6    [dLambda 0.050000000000000044]
TCL: Setting parameter firsttimestep to 0
TCL: Setting parameter alchLambda to 0.5499999999999999
Info: NONBONDED TABLE R-SQUARED SPACING: 0.0625
Info: NONBONDED TABLE SIZE: 705 POINTS
TCL: Setting parameter alchLambda2 to 0.6
Info: NONBONDED TABLE R-SQUARED SPACING: 0.0625
Info: NONBONDED TABLE SIZE: 705 POINTS
TCL: Running for 1500000 steps
ETITLE: TS BOND ANGLE DIHED IMPRP ELECT VDW BOUNDARY MISC KINETIC TOTAL TEMP POTENTIAL TOTALAVG TEMPAVG PRESSURE GPRESSURE VOLUME PRESSAVG GPRESSAVG
ENERGY: 0 3.3647 6.2915 2.7495 0.0000 -10624.8927 1399.3269 0.0000 0.0000 1743.2394 -7469.9206 297.1170 -9213.1601 -7469.9206 297.1170 -128.0584 -50.7961 30081.0259 -128.0584 -50.7961
ENERGY: 300000 2.9307 5.8394 3.2542 0.0000 -10576.7704 1424.2399 0.0000 0.0000 1800.1417 -7340.3646 306.8154 -9140.5062 -7429.7293 300.7320 -85.4403 -76.7392 30698.3436 -35.5388 4.7353
ENERGY: 600000 4.6506 3.8712 3.5560 0.0000 -10728.6804 1412.6258 0.0000 0.0000 1728.1669 -7575.8100 294.5481 -9303.9769 -7443.5979 301.0881 -426.1931 -308.0446 30072.9352 74.8890 130.4681
ENERGY: 900000 4.6830 3.6192 8.8892 0.0000 -10658.1694 1418.9259 0.0000 0.0000 1748.5961 -7473.4560 298.0300 -9222.0520 -7449.7002 300.9365 -256.4044 -184.9143 30084.2945 -65.2784 -12.3014
ENERGY: 1200000 3.1475 4.1039 4.3375 0.0000 -10675.5696 1430.2018 0.0000 0.0000 1669.6292 -7564.1496 284.5709 -9233.7788 -7459.3857 299.5620 -140.2952 -34.8881 30001.1903 -73.5540 -20.5639
ENERGY: 1500000 5.4900 3.0186 5.8021 0.0000 -10655.7232 1431.1716 0.0000 0.0000 1763.1929 -7447.0480 300.5179 -9210.2410 -7459.8672 299.6505 72.4886 127.7827 30325.4140 -1.0119 48.3655
TCL: Running FEP window  13: Lambda1 0.6    Lambda2 0.65   [dLambda 0.050000000000000044]
TCL: Setting parameter firsttimestep to 0
TCL: Setting parameter alchLambda to 0.6
Info: NONBONDED TABLE R-SQUARED SPACING: 0.0625
Info: NONBONDED TABLE SIZE: 705 POINTS
TCL: Setting parameter alchLambda2 to 0.65
Info: NONBONDED TABLE R-SQUARED SPACING: 0.0625
Info: NONBONDED TABLE SIZE: 705 POINTS
TCL: Running for 1500000 steps
ETITLE: TS BOND ANGLE DIHED IMPRP ELECT VDW BOUNDARY MISC KINETIC TOTAL TEMP POTENTIAL TOTALAVG TEMPAVG PRESSURE GPRESSURE VOLUME PRESSAVG GPRESSAVG
ENERGY: 0 5.4900 3.0186 5.8021 0.0000 -10655.6892 1431.7639 0.0000 0.0000 1762.3008 -7447.3139 300.3658 -9209.6147 -7447.3139 300.3658 72.4099 145.8753 30325.4140 72.4099 145.8753
ENERGY: 300000 4.2615 4.7685 2.4039 0.0000 -10690.0451 1432.5646 0.0000 0.0000 1801.6468 -7444.3998 307.0719 -9246.0466 -7446.9701 301.6172 -267.5228 -189.0225 30523.6452 -368.7349 -291.7490
ENERGY: 600000 3.2728 6.6019 3.5877 0.0000 -10766.3449 1495.7180 0.0000 0.0000 1697.7701 -7559.3943 289.3672 -9257.1645 -7464.9222 298.6448 592.5776 677.7519 29849.9517 -233.8925 -163.2007
ENERGY: 900000 4.0792 2.7737 7.0530 0.0000 -10453.9647 1363.9459 0.0000 0.0000 1779.4817 -7296.6314 303.2941 -9076.1130 -7435.3100 300.3653 -395.8976 -352.3470 30941.5713 -195.7276 -119.8724
ENERGY: 1200000 3.5400 3.8308 8.6100 0.0000 -10672.9780 1414.3593 0.0000 0.0000 1783.2360 -7459.4019 303.9340 -9242.6379 -7432.2341 300.9959 -333.8947 -242.8049 30490.4465 -230.0554 -154.4332
ENERGY: 1500000 3.5324 3.4846 5.2853 0.0000 -10736.0388 1505.3860 0.0000 0.0000 1731.6621 -7486.6884 295.1438 -9218.3505 -7437.9760 300.4867 237.1750 209.3889 31001.5502 -184.8969 -121.9830
TCL: Running FEP window  14: Lambda1 0.65   Lambda2 0.7000000000000001 [dLambda 0.050000000000000044]
TCL: Setting parameter firsttimestep to 0
TCL: Setting parameter alchLambda to 0.65
Info: NONBONDED TABLE R-SQUARED SPACING: 0.0625
Info: NONBONDED TABLE SIZE: 705 POINTS
TCL: Setting parameter alchLambda2 to 0.7000000000000001
Info: NONBONDED TABLE R-SQUARED SPACING: 0.0625
Info: NONBONDED TABLE SIZE: 705 POINTS
TCL: Running for 1500000 steps
ETITLE: TS BOND ANGLE DIHED IMPRP ELECT VDW BOUNDARY MISC KINETIC TOTAL TEMP POTENTIAL TOTALAVG TEMPAVG PRESSURE GPRESSURE VOLUME PRESSAVG GPRESSAVG
ENERGY: 0 3.5324 3.4845 5.2853 0.0000 -10736.3560 1504.7012 0.0000 0.0000 1730.7296 -7488.6230 294.9848 -9219.3525 -7488.6230 294.9848 138.8460 209.4542 31001.5502 138.8460 209.4542
ENERGY: 300000 4.1664 4.6595 4.4080 0.0000 -10776.1302 1499.2833 0.0000 0.0000 1782.0983 -7481.5147 303.7401 -9263.6131 -7443.9904 303.0311 328.7432 374.0002 29929.8570 128.6328 175.3935
ENERGY: 600000 1.9614 3.2667 6.2267 0.0000 -10530.7656 1340.4379 0.0000 0.0000 1755.9401 -7422.9327 299.2817 -9178.8728 -7452.3699 300.2323 -579.2722 -495.0460 30319.4227 35.2534 96.2365
ENERGY: 900000 1.7064 3.5614 8.5534 0.0000 -10723.8720 1434.9425 0.0000 0.0000 1807.0582 -7468.0502 307.9943 -9275.1083 -7452.3495 300.5764 -426.4083 -311.3047 30783.4132 -71.3992 -3.5461
ENERGY: 1200000 6.8435 4.0665 4.4055 0.0000 -10694.2150 1412.1407 0.0000 0.0000 1838.8209 -7427.9379 313.4079 -9266.7589 -7451.1352 301.6192 4.8431 105.3317 29854.5544 -98.2408 -27.7193
ENERGY: 1500000 2.3938 6.2490 5.1983 0.0000 -10726.6515 1534.8051 0.0000 0.0000 1706.9532 -7471.0520 290.9324 -9178.0053 -7448.8875 301.2360 908.7308 1021.8586 30074.1578 -54.1927 15.2065
TCL: Running FEP window  15: Lambda1 0.7000000000000001 Lambda2 0.7500000000000001 [dLambda 0.050000000000000044]
TCL: Setting parameter firsttimestep to 0
TCL: Setting parameter alchLambda to 0.7000000000000001
Info: NONBONDED TABLE R-SQUARED SPACING: 0.0625
Info: NONBONDED TABLE SIZE: 705 POINTS
TCL: Setting parameter alchLambda2 to 0.7500000000000001
Info: NONBONDED TABLE R-SQUARED SPACING: 0.0625
Info: NONBONDED TABLE SIZE: 705 POINTS
TCL: Running for 1500000 steps
ETITLE: TS BOND ANGLE DIHED IMPRP ELECT VDW BOUNDARY MISC KINETIC TOTAL TEMP POTENTIAL TOTALAVG TEMPAVG PRESSURE GPRESSURE VOLUME PRESSAVG GPRESSAVG
ENERGY: 0 2.3938 6.2490 5.1983 0.0000 -10727.9835 1534.6480 0.0000 0.0000 1706.0749 -7473.4194 290.7827 -9179.4943 -7473.4194 290.7827 932.8952 1023.7687 30074.1578 932.8952 1023.7687
ENERGY: 300000 6.3588 6.3604 6.4687 0.0000 -10729.4903 1422.8127 0.0000 0.0000 1735.2123 -7552.2774 295.7489 -9287.4897 -7506.7561 295.3121 -467.4934 -466.7702 30336.4897 620.7927 665.8556
ENERGY: 600000 5.8636 5.2204 4.7893 0.0000 -10600.2636 1386.9307 0.0000 0.0000 1798.7523 -7398.7073 306.5786 -9197.4596 -7494.4467 298.8580 -371.0566 -289.5753 30350.0641 155.9972 206.8280
ENERGY: 900000 5.1170 3.4099 4.9770 0.0000 -10440.8822 1313.5356 0.0000 0.0000 1692.6728 -7421.1699 288.4985 -9113.8427 -7483.2822 297.6924 -583.9578 -506.4478 30424.8647 121.4849 178.2733
ENERGY: 1200000 3.4879 3.4305 5.5660 0.0000 -10673.5610 1380.1043 0.0000 0.0000 1781.7780 -7499.1943 303.6855 -9280.9722 -7480.3994 298.7200 -755.7633 -731.2029 30828.7228 79.2374 127.8686
ENERGY: 1500000 5.6411 3.1051 3.0636 0.0000 -10698.5274 1457.0205 0.0000 0.0000 1746.5735 -7483.1236 297.6853 -9229.6971 -7471.7971 299.3422 186.6257 264.0977 30010.8247 47.3498 97.7519
TCL: Running FEP window  16: Lambda1 0.7500000000000001 Lambda2 0.8000000000000002 [dLambda 0.050000000000000044]
TCL: Setting parameter firsttimestep to 0
TCL: Setting parameter alchLambda to 0.7500000000000001
Info: NONBONDED TABLE R-SQUARED SPACING: 0.0625
Info: NONBONDED TABLE SIZE: 705 POINTS
TCL: Setting parameter alchLambda2 to 0.8000000000000002
Info: NONBONDED TABLE R-SQUARED SPACING: 0.0625
Info: NONBONDED TABLE SIZE: 705 POINTS
TCL: Running for 1500000 steps
ETITLE: TS BOND ANGLE DIHED IMPRP ELECT VDW BOUNDARY MISC KINETIC TOTAL TEMP POTENTIAL TOTALAVG TEMPAVG PRESSURE GPRESSURE VOLUME PRESSAVG GPRESSAVG
ENERGY: 0 5.6411 3.1051 3.0636 0.0000 -10699.2630 1456.5270 0.0000 0.0000 1745.6818 -7485.2444 297.5333 -9230.9262 -7485.2444 297.5333 189.1338 267.2338 30010.8247 189.1338 267.2338
ENERGY: 300000 2.8855 5.6417 4.5377 0.0000 -10769.1763 1464.7996 0.0000 0.0000 1774.0203 -7517.2915 302.3633 -9291.3118 -7459.2647 300.2622 60.2609 111.9488 29978.6465 98.7654 175.6788
ENERGY: 600000 5.6807 4.3067 4.3736 0.0000 -10675.9511 1398.0261 0.0000 0.0000 1718.5826 -7544.9814 292.9145 -9263.5641 -7460.4788 300.2724 -370.8627 -303.4343 30206.9622 84.6039 161.5684
ENERGY: 900000 3.2357 4.5355 4.7119 0.0000 -10794.4329 1544.3864 0.0000 0.0000 1751.4752 -7486.0882 298.5207 -9237.5634 -7450.8555 301.2439 874.4015 908.7707 30071.5068 151.2505 225.0410
ENERGY: 1200000 3.4085 5.8740 5.7987 0.0000 -10595.6609 1376.4205 0.0000 0.0000 1750.2187 -7453.9406 298.3066 -9204.1593 -7450.6390 299.1229 -533.2506 -401.8566 30236.0032 62.9576 138.3544
ENERGY: 1500000 3.6317 3.6432 7.4800 0.0000 -10809.5112 1464.0684 0.0000 0.0000 1761.4825 -7569.2053 300.2264 -9330.6879 -7461.0461 299.6423 -301.0704 -198.0386 30597.9822 97.9755 176.2408
TCL: Running FEP window  17: Lambda1 0.8000000000000002 Lambda2 0.8500000000000002 [dLambda 0.050000000000000044]
TCL: Setting parameter firsttimestep to 0
TCL: Setting parameter alchLambda to 0.8000000000000002
Info: NONBONDED TABLE R-SQUARED SPACING: 0.0625
Info: NONBONDED TABLE SIZE: 705 POINTS
TCL: Setting parameter alchLambda2 to 0.8500000000000002
Info: NONBONDED TABLE R-SQUARED SPACING: 0.0625
Info: NONBONDED TABLE SIZE: 705 POINTS
TCL: Running for 1500000 steps
ETITLE: TS BOND ANGLE DIHED IMPRP ELECT VDW BOUNDARY MISC KINETIC TOTAL TEMP POTENTIAL TOTALAVG TEMPAVG PRESSURE GPRESSURE VOLUME PRESSAVG GPRESSAVG
ENERGY: 0 3.6317 3.6432 7.4800 0.0000 -10812.0194 1466.0426 0.0000 0.0000 1760.5977 -7570.6241 300.0756 -9331.2218 -7570.6241 300.0756 -262.8202 -171.9305 30597.9822 -262.8202 -171.9305
ENERGY: 300000 3.2695 2.4980 3.1858 0.0000 -10520.7387 1305.0597 0.0000 0.0000 1767.7433 -7438.9824 301.2935 -9206.7258 -7507.1768 297.9612 -889.2626 -857.6536 30617.8582 -297.0325 -219.1464
ENERGY: 600000 4.7579 3.8906 5.2101 0.0000 -10747.7445 1492.1642 0.0000 0.0000 1791.3297 -7450.3921 305.3135 -9241.7218 -7484.4791 299.6591 325.6228 382.3380 30572.6614 -95.0562 -25.8692
ENERGY: 900000 4.8911 4.3962 6.0080 0.0000 -10452.0233 1296.4786 0.0000 0.0000 1848.7446 -7291.5047 315.0993 -9140.2494 -7469.0333 300.8316 -872.9404 -844.5424 30676.3238 -166.0468 -109.5867
ENERGY: 1200000 4.7418 4.8948 2.3680 0.0000 -10713.5480 1458.9782 0.0000 0.0000 1778.7004 -7463.8648 303.1610 -9242.5652 -7461.6643 300.6729 97.2236 150.7048 30448.3395 -11.3152 42.3794
ENERGY: 1500000 4.9588 2.0831 4.1926 0.0000 -10742.0372 1466.5858 0.0000 0.0000 1763.5283 -7500.6886 300.5750 -9264.2170 -7464.7864 300.7597 465.8674 551.2961 30075.3936 68.2655 124.8824
TCL: Running FEP window  18: Lambda1 0.8500000000000002 Lambda2 0.9000000000000002 [dLambda 0.050000000000000044]
TCL: Setting parameter firsttimestep to 0
TCL: Setting parameter alchLambda to 0.8500000000000002
Info: NONBONDED TABLE R-SQUARED SPACING: 0.0625
Info: NONBONDED TABLE SIZE: 705 POINTS
TCL: Setting parameter alchLambda2 to 0.9000000000000002
Info: NONBONDED TABLE R-SQUARED SPACING: 0.0625
Info: NONBONDED TABLE SIZE: 705 POINTS
TCL: Running for 1500000 steps
ETITLE: TS BOND ANGLE DIHED IMPRP ELECT VDW BOUNDARY MISC KINETIC TOTAL TEMP POTENTIAL TOTALAVG TEMPAVG PRESSURE GPRESSURE VOLUME PRESSAVG GPRESSAVG
ENERGY: 0 4.9588 2.0831 4.1926 0.0000 -10744.6347 1467.4959 0.0000 0.0000 1762.6657 -7503.2386 300.4280 -9265.9044 -7503.2386 300.4280 494.4072 567.1332 30075.3936 494.4072 567.1332
ENERGY: 300000 4.9266 6.0876 3.3577 0.0000 -10654.4250 1423.7014 0.0000 0.0000 1750.5597 -7465.7921 298.3647 -9216.3517 -7470.8825 301.5519 -181.5813 -109.2171 30487.4822 303.0314 360.7844
ENERGY: 600000 4.0424 6.0788 9.5912 0.0000 -10774.8253 1514.8572 0.0000 0.0000 1735.7078 -7504.5480 295.8333 -9240.2557 -7483.6658 301.2363 396.8337 418.3363 30304.3511 -75.1281 -18.3253
ENERGY: 900000 6.6029 8.9472 7.6622 0.0000 -10625.5654 1472.9374 0.0000 0.0000 1739.5575 -7389.8582 296.4895 -9129.4157 -7470.4398 300.8058 272.5416 258.9291 30782.7251 -19.2499 33.9474
ENERGY: 1200000 4.3147 2.1443 3.5533 0.0000 -10722.5334 1433.5230 0.0000 0.0000 1782.2886 -7496.7095 303.7725 -9278.9981 -7465.2433 300.6989 -662.9046 -559.3365 30692.4307 -29.3084 31.6185
ENERGY: 1500000 1.9166 7.4926 5.2110 0.0000 -10636.4974 1403.5577 0.0000 0.0000 1763.8989 -7454.4207 300.6382 -9218.3196 -7462.5153 299.9741 -148.1820 -110.8645 30430.4235 -81.2437 -20.5370
TCL: Running FEP window  19: Lambda1 0.9000000000000002 Lambda2 0.9500000000000003 [dLambda 0.050000000000000044]
TCL: Setting parameter firsttimestep to 0
TCL: Setting parameter alchLambda to 0.9000000000000002
Info: NONBONDED TABLE R-SQUARED SPACING: 0.0625
Info: NONBONDED TABLE SIZE: 705 POINTS
TCL: Setting parameter alchLambda2 to 0.9500000000000003
Info: NONBONDED TABLE R-SQUARED SPACING: 0.0625
Info: NONBONDED TABLE SIZE: 705 POINTS
TCL: Running for 1500000 steps
ETITLE: TS BOND ANGLE DIHED IMPRP ELECT VDW BOUNDARY MISC KINETIC TOTAL TEMP POTENTIAL TOTALAVG TEMPAVG PRESSURE GPRESSURE VOLUME PRESSAVG GPRESSAVG
ENERGY: 0 1.9166 7.4926 5.2110 0.0000 -10638.6911 1405.2475 0.0000 0.0000 1763.0111 -7455.8122 300.4869 -9218.8234 -7455.8122 300.4869 -153.3883 -81.1786 30430.4235 -153.3883 -81.1786
ENERGY: 300000 2.0247 4.9662 7.4719 0.0000 -10660.8823 1413.3806 0.0000 0.0000 1734.8472 -7498.1919 295.6866 -9233.0390 -7463.3438 299.0166 6.6385 115.6869 29952.8246 90.3742 159.9415
ENERGY: 600000 4.7496 4.4031 4.9813 0.0000 -10606.0901 1405.4752 0.0000 0.0000 1752.1492 -7434.3316 298.6356 -9186.4808 -7448.7887 298.9634 -226.0057 -170.1780 30397.7773 258.0178 313.0591
ENERGY: 900000 1.7331 4.3560 6.3274 0.0000 -10710.9221 1397.9273 0.0000 0.0000 1771.9095 -7528.6687 302.0035 -9300.5782 -7459.8958 299.3259 -465.0883 -429.1991 30161.1959 66.3694 117.4513
ENERGY: 1200000 4.2673 3.2489 4.2584 0.0000 -10644.3485 1434.4456 0.0000 0.0000 1778.5609 -7419.5674 303.1372 -9198.1283 -7452.3719 299.1313 -42.7424 13.5828 30580.4428 24.3578 72.8478
ENERGY: 1500000 3.0576 4.3502 4.2460 0.0000 -10696.4812 1451.6910 0.0000 0.0000 1776.0672 -7457.0692 302.7122 -9233.1363 -7461.2502 298.4369 -86.7615 -22.8322 30568.9316 82.6661 134.9032
TCL: Running FEP window  20: Lambda1 0.9500000000000003 Lambda2 1.0    [dLambda 0.04999999999999971]
TCL: Setting parameter firsttimestep to 0
TCL: Setting parameter alchLambda to 0.9500000000000003
Info: NONBONDED TABLE R-SQUARED SPACING: 0.0625
Info: NONBONDED TABLE SIZE: 705 POINTS
TCL: Setting parameter alchLambda2 to 1.0
Info: NONBONDED TABLE R-SQUARED SPACING: 0.0625
Info: NONBONDED TABLE SIZE: 705 POINTS
TCL: Running for 1500000 steps
ETITLE: TS BOND ANGLE DIHED IMPRP ELECT VDW BOUNDARY MISC KINETIC TOTAL TEMP POTENTIAL TOTALAVG TEMPAVG PRESSURE GPRESSURE VOLUME PRESSAVG GPRESSAVG
ENERGY: 0 3.0576 4.3502 4.2460 0.0000 -10698.4742 1454.4173 0.0000 0.0000 1775.2067 -7457.1963 302.5655 -9232.4030 -7457.1963 302.5655 -82.9124 17.4314 30568.9316 -82.9124 17.4314
ENERGY: 300000 5.5190 4.4988 4.9185 0.0000 -10751.7203 1445.2214 0.0000 0.0000 1753.4450 -7538.1176 298.8565 -9291.5626 -7494.1635 299.2740 -261.3440 -276.8123 30284.5262 99.7120 127.2942
ENERGY: 600000 5.1768 2.4904 5.2093 0.0000 -10683.2496 1432.6349 0.0000 0.0000 1706.7224 -7531.0158 290.8931 -9237.7382 -7505.4411 298.6948 -197.8486 -142.5398 30523.7201 8.7574 31.4946
ENERGY: 900000 10.4532 8.0404 2.9481 0.0000 -10653.2012 1406.2057 0.0000 0.0000 1762.5090 -7463.0449 300.4013 -9225.5539 -7488.1094 299.3140 -109.6187 -45.4507 30187.3335 8.2051 33.8858
ENERGY: 1200000 1.6694 3.2441 6.7905 0.0000 -10446.4554 1323.0746 0.0000 0.0000 1695.5297 -7416.1471 288.9854 -9111.6768 -7484.8239 297.8676 -897.9737 -816.4363 31282.1890 -68.6139 -34.5593
ENERGY: 1500000 4.9841 4.2639 4.2237 0.0000 -10563.4805 1414.9692 0.0000 0.0000 1742.2418 -7392.7978 296.9470 -9135.0396 -7486.0616 297.8852 304.9844 334.5056 30381.3159 61.2562 96.5087
TCL: Exiting due to exit command.
