Info: SIMULATION PARAMETERS:
Info: TIMESTEP               2
Info: NUMBER OF STEPS        0
Info: STEPS PER CYCLE        10
Info: PERIODIC CELL BASIS 1  31.9475 0 0
Info: PERIODIC CELL BASIS 2  0 31.1815 0
Info: PERIODIC CELL BASIS 3  0 0 30.3537
Info: PERIODIC CELL CENTER   0 0 0
Info: WRAPPING WATERS AROUND PERIODIC BOUNDARIES ON OUTPUT.
Info: WRAPPING ALL CLUSTERS AROUND PERIODIC BOUNDARIES ON OUTPUT.
Info: FIRST LDB TIMESTEP     50
Info: LAST LDB TIMESTEP     -1
Info: HOM BACKGROUND SCALING 1
Info: PME BACKGROUND SCALING 1
Info: MIN ATOMS PER PATCH    40
Info: EMPTY PATCH LOAD       40 ATOMS
Info: VELOCITY FILE          mobley_5499659_equil.vel
Info: CENTER OF MASS MOVING INITIALLY? NO
Info: DIELECTRIC             1
Info: EXCLUDE                SCALED ONE-FOUR
Info: 1-4 ELECTROSTATICS SCALED BY 0.833333
Info: MODIFIED 1-4 VDW PARAMETERS WILL BE USED
Info: DCD FILENAME           mobley_5499659_prod.dcd
Info: DCD FREQUENCY          100000
Info: DCD FIRST STEP         100000
Info: DCD FILE WILL CONTAIN UNIT CELL DATA
Info: XST FILENAME           mobley_5499659_prod.xst
Info: XST FREQUENCY          100000
Info: NO VELOCITY DCD OUTPUT
Info: NO FORCE DCD OUTPUT
Info: OUTPUT FILENAME        mobley_5499659_prod
Info: BINARY OUTPUT FILES WILL BE USED
Info: RESTART FILENAME       mobley_5499659_prod.restart
Info: RESTART FREQUENCY      100000
Info: BINARY RESTART FILES WILL BE USED
Info: CUTOFF                 9
Info: PAIRLIST DISTANCE      11
Info: PAIRLIST SHRINK RATE   0.01
Info: PAIRLIST GROW RATE     0.01
Info: PAIRLIST TRIGGER       0.3
Info: PAIRLISTS PER CYCLE    2
Info: PAIRLISTS ENABLED
Info: MARGIN                 2
Info: HYDROGEN GROUP CUTOFF  2.5
Info: PATCH DIMENSION        15.5
Info: ENERGY OUTPUT STEPS    100000
Info: ENERGY EVALUATION STEPS    100000
Info: OUTPUT ENERGY PRECISION 4
Info: CROSSTERM ENERGY INCLUDED IN DIHEDRAL
Info: TIMING OUTPUT STEPS    1000000
Info: PRESSURE OUTPUT STEPS  100000
Info: ALCHEMICAL FEP ON
Info: FEP CURRENT LAMBDA VALUE     0
Info: FEP COMPARISON LAMBDA VALUE  0.05
Info: FEP INTRA-ALCHEMICAL NON-BONDED INTERACTIONS WILL BE RETAINED
Info: FEP INTRA-ALCHEMICAL BONDED INTERACTIONS WILL BE RETAINED
Info: FEP VDW SHIFTING COEFFICIENT 5
Info: FEP ELEC. ACTIVE FOR ANNIHILATED PARTICLES BETWEEN LAMBDA = 0 AND LAMBDA = 0.5
Info: FEP ELEC. ACTIVE FOR EXNIHILATED PARTICLES BETWEEN LAMBDA = 0.5 AND LAMBDA = 1
Info: FEP VDW ACTIVE FOR ANNIHILATED PARTICLES BETWEEN LAMBDA = 0 AND LAMBDA = 1
Info: FEP VDW ACTIVE FOR EXNIHILATED PARTICLES BETWEEN LAMBDA = 0 AND LAMBDA = 1
Info: FEP BOND ACTIVE FOR ANNIHILATED PARTICLES BETWEEN LAMBDA = 1 AND LAMBDA = 1
Info: FEP BOND ACTIVE FOR EXNIHILATED PARTICLES BETWEEN LAMBDA = 0 AND LAMBDA = 0
Info: LANGEVIN DYNAMICS ACTIVE
Info: LANGEVIN TEMPERATURE   300
Info: LANGEVIN USING BBK INTEGRATOR
Info: LANGEVIN DAMPING COEFFICIENT IS 1 INVERSE PS
Info: LANGEVIN DYNAMICS APPLIED TO HYDROGENS
Info: LANGEVIN PISTON PRESSURE CONTROL ACTIVE
Info:        TARGET PRESSURE IS 1.01325 BAR
Info:     OSCILLATION PERIOD IS 50 FS
Info:             DECAY TIME IS 25 FS
Info:     PISTON TEMPERATURE IS 300 K
Info:       PRESSURE CONTROL IS GROUP-BASED
Info:    INITIAL STRAIN RATE IS 0.000203912 0.000203912 0.000203912
Info:       CELL FLUCTUATION IS ISOTROPIC
Info: PARTICLE MESH EWALD (PME) ACTIVE
Info: PME TOLERANCE               1e-06
Info: PME EWALD COEFFICIENT       0.348832
Info: PME INTERPOLATION ORDER     4
Info: PME GRID DIMENSIONS         32 32 32
Info: PME MAXIMUM GRID SPACING    1
Info: PME CALCULATION WILL BE PERFORMED ON GPU
Info: FULL ELECTROSTATIC EVALUATION FREQUENCY      2
Info: USING VERLET I (r-RESPA) MTS SCHEME.
Info: C1 SPLITTING OF LONG RANGE ELECTROSTATICS
Info: PLACING ATOMS IN PATCHES BY HYDROGEN GROUPS
Info: RIGID BONDS TO HYDROGEN : ALL
Info:         ERROR TOLERANCE : 1e-08
Info:          MAX ITERATIONS : 100
Info: RIGID WATER USING SETTLE ALGORITHM
Info: RANDOM NUMBER SEED     1743533247
Info: USE HYDROGEN BONDS?    NO
Info: Using AMBER format force field!
Info: AMBER PARM FILE        mobley_5499659.prmtop
Info: COORDINATE PDB         mobley_5499659.pdb
Info: Exclusions will be read from PARM file!
Info: SCNB (VDW SCALING)     2
Info: USING ARITHMETIC MEAN TO COMBINE L-J SIGMA PARAMETERS
Info: BINARY COORDINATES     mobley_5499659_equil.coor
Info: SUMMARY OF PARAMETERS:
Info: 11 BONDS
Info: 14 ANGLES
Info:   14 HARMONIC
Info:   0 COSINE-BASED
Info: 5 DIHEDRAL
Info: 0 IMPROPER
Info: 0 CROSSTERM
Info: 0 VDW
Info: 36 VDW_PAIRS
Info: 0 NBTHOLE_PAIRS
Info: To read alchdata from file: mobley_5499659.pdb
Info: To read alchflag data from column: 5
Info: STRUCTURE SUMMARY:
Info: 2916 ATOMS
Info: 2916 BONDS
Info: 19 ANGLES
Info: 26 DIHEDRALS
Info: 0 IMPROPERS
Info: 0 CROSSTERMS
Info: 2952 EXCLUSIONS
Info: 2910 RIGID BONDS
Info: ALCH: 0 ATOMS TO DISAPPEAR IN FINAL STATE
Info: ALCH: 12 ATOMS TO APPEAR IN FINAL STATE
Info: 5838 DEGREES OF FREEDOM
Info: 974 HYDROGEN GROUPS
Info: 4 ATOMS IN LARGEST HYDROGEN GROUP
Info: 974 MIGRATION GROUPS
Info: 4 ATOMS IN LARGEST MIGRATION GROUP
Info: TOTAL MASS = 17521.6 amu
Info: TOTAL CHARGE = 0.000100017 e
Info: MASS DENSITY = 0.962248 g/cm^3
Info: ATOM DENSITY = 0.0964365 atoms/A^3
Info: ADDED 0 IMPLICIT EXCLUSIONS
Info: NONBONDED TABLE R-SQUARED SPACING: 0.0625
Info: NONBONDED TABLE SIZE: 705 POINTS
Info: REDUCING NUMBER OF PATCHES TO IMPROVE LOAD BALANCE
Info: REMOVING COM VELOCITY -0.117865 0.0918326 0.0158339
Info: Use 3D box decompostion in PME FFT.
Info: Updated CUDA force table with 4096 elements.
Info: Updated CUDA LJ table with 8 x 8 elements.
Info: Found 14 unique exclusion lists needing 28 bytes
TCL: Running for 1500000 steps
ETITLE: TS BOND ANGLE DIHED IMPRP ELECT VDW BOUNDARY MISC KINETIC TOTAL TEMP POTENTIAL TOTALAVG TEMPAVG PRESSURE GPRESSURE VOLUME PRESSAVG GPRESSAVG
ENERGY: 0 2.1038 6.8821 3.5135 0.0000 -10519.7866 1400.0161 0.0000 0.0000 1715.1734 -7392.0976 295.6884 -9107.2710 -7392.0976 295.6884 -236.7026 -145.4872 30237.5080 -236.7026 -145.4872
ENERGY: 300000 0.6500 5.4788 1.0578 0.0000 -10530.2419 1347.2985 0.0000 0.0000 1734.3486 -7441.4081 298.9942 -9175.7568 -7421.4811 297.6716 -512.2551 -478.5076 29637.8653 -210.6254 -147.0826
ENERGY: 600000 1.6377 3.9207 2.9633 0.0000 -10446.5890 1367.2229 0.0000 0.0000 1778.4219 -7292.4225 306.5922 -9070.8444 -7401.2769 299.7106 -352.4118 -315.9377 29987.9815 -253.4929 -191.2892
ENERGY: 900000 1.2763 2.7813 0.8291 0.0000 -10675.1872 1503.6599 0.0000 0.0000 1758.5335 -7408.1072 303.1635 -9166.6406 -7406.3451 299.9780 375.2667 393.4700 30106.7636 -169.0859 -106.5212
ENERGY: 1200000 0.1149 5.4030 1.6784 0.0000 -10591.2738 1449.5145 0.0000 0.0000 1692.7006 -7441.8625 291.8142 -9134.5631 -7405.1892 299.4086 150.4798 189.2458 29848.7729 -144.3454 -88.7113
ENERGY: 1500000 3.0786 1.4033 0.7717 0.0000 -10588.4306 1447.1911 0.0000 0.0000 1758.3081 -7377.6777 303.1247 -9135.9858 -7406.2152 300.6311 -1.8816 106.5953 30356.4587 -50.1308 12.8355
TCL: Running FEP window   2: Lambda1 0.05   Lambda2 0.1    [dLambda 0.05  ]
TCL: Setting parameter firsttimestep to 0
TCL: Setting parameter alchLambda to 0.05
Info: NONBONDED TABLE R-SQUARED SPACING: 0.0625
Info: NONBONDED TABLE SIZE: 705 POINTS
TCL: Setting parameter alchLambda2 to 0.1
Info: NONBONDED TABLE R-SQUARED SPACING: 0.0625
Info: NONBONDED TABLE SIZE: 705 POINTS
TCL: Running for 1500000 steps
ETITLE: TS BOND ANGLE DIHED IMPRP ELECT VDW BOUNDARY MISC KINETIC TOTAL TEMP POTENTIAL TOTALAVG TEMPAVG PRESSURE GPRESSURE VOLUME PRESSAVG GPRESSAVG
ENERGY: 0 3.0786 1.4033 0.7717 0.0000 -10588.4309 1447.6723 0.0000 0.0000 1757.4698 -7378.0350 302.9801 -9135.5048 -7378.0350 302.9801 30.8258 111.3248 30356.4587 30.8258 111.3248
ENERGY: 300000 1.3291 3.9486 2.1819 0.0000 -10746.0752 1527.0013 0.0000 0.0000 1659.5584 -7552.0560 286.1006 -9211.6144 -7436.9378 299.6633 692.2045 799.0164 29277.0528 -7.3401 67.2903
ENERGY: 600000 1.8200 2.4397 0.7139 0.0000 -10666.8121 1539.4741 0.0000 0.0000 1702.5362 -7419.8281 293.5098 -9122.3643 -7441.0717 298.6944 1190.3854 1190.6151 29607.1949 160.0725 221.5712
ENERGY: 900000 2.7065 5.1248 1.3420 0.0000 -10555.9878 1398.3966 0.0000 0.0000 1722.2478 -7426.1700 296.9080 -9148.4178 -7429.7731 298.5032 -325.7213 -284.3578 29866.2163 -92.4473 -33.0942
ENERGY: 1200000 3.1832 3.3908 4.0225 0.0000 -10607.8939 1466.1455 0.0000 0.0000 1727.9899 -7403.1619 297.8979 -9131.1518 -7428.2744 297.6626 389.0589 402.0510 29897.2153 28.0807 84.4426
ENERGY: 1500000 3.8305 1.7630 1.8271 0.0000 -10624.3321 1505.6720 0.0000 0.0000 1695.3041 -7415.9353 292.2630 -9111.2395 -7415.3899 298.3594 787.1027 845.4379 29817.1333 72.5789 129.9010
TCL: Running FEP window   3: Lambda1 0.1    Lambda2 0.15000000000000002 [dLambda 0.05000000000000002]
TCL: Setting parameter firsttimestep to 0
TCL: Setting parameter alchLambda to 0.1
Info: NONBONDED TABLE R-SQUARED SPACING: 0.0625
Info: NONBONDED TABLE SIZE: 705 POINTS
TCL: Setting parameter alchLambda2 to 0.15000000000000002
Info: NONBONDED TABLE R-SQUARED SPACING: 0.0625
Info: NONBONDED TABLE SIZE: 705 POINTS
TCL: Running for 1500000 steps
ETITLE: TS BOND ANGLE DIHED IMPRP ELECT VDW BOUNDARY MISC KINETIC TOTAL TEMP POTENTIAL TOTALAVG TEMPAVG PRESSURE GPRESSURE VOLUME PRESSAVG GPRESSAVG
ENERGY: 0 3.8305 1.7630 1.8271 0.0000 -10624.3307 1510.4718 0.0000 0.0000 1694.4083 -7412.0299 292.1086 -9106.4383 -7412.0299 292.1086 778.0427 854.2077 29817.1333 778.0427 854.2077
ENERGY: 300000 1.5535 2.8377 1.7844 0.0000 -10618.1268 1451.6083 0.0000 0.0000 1765.7535 -7394.5894 304.4082 -9160.3429 -7369.5892 299.9298 107.1600 202.6290 30199.4020 108.7923 177.9993
ENERGY: 600000 3.8174 5.3603 1.5795 0.0000 -10524.9716 1407.0543 0.0000 0.0000 1773.1673 -7333.9928 305.6863 -9107.1602 -7361.3156 301.2595 -118.7339 15.2750 30025.9246 61.6906 151.9556
ENERGY: 900000 4.0373 5.6025 1.5365 0.0000 -10633.9165 1482.8847 0.0000 0.0000 1765.7134 -7374.1420 304.4013 -9139.8554 -7361.2276 300.7148 409.1858 435.0257 29997.5054 8.5061 73.9989
ENERGY: 1200000 1.5314 4.2127 1.8356 0.0000 -10589.3340 1440.6843 0.0000 0.0000 1770.3618 -7370.7082 305.2027 -9141.0700 -7368.8632 301.7707 314.3624 385.4431 29664.5909 -53.4062 10.9784
ENERGY: 1500000 1.2969 2.4346 0.3605 0.0000 -10541.2319 1376.1803 0.0000 0.0000 1721.3029 -7439.6568 296.7451 -9160.9597 -7372.9550 302.1783 -380.7558 -278.5893 29912.3789 -133.2101 -63.7788
TCL: Running FEP window   4: Lambda1 0.15000000000000002 Lambda2 0.2    [dLambda 0.04999999999999999]
TCL: Setting parameter firsttimestep to 0
TCL: Setting parameter alchLambda to 0.15000000000000002
Info: NONBONDED TABLE R-SQUARED SPACING: 0.0625
Info: NONBONDED TABLE SIZE: 705 POINTS
TCL: Setting parameter alchLambda2 to 0.2
Info: NONBONDED TABLE R-SQUARED SPACING: 0.0625
Info: NONBONDED TABLE SIZE: 705 POINTS
TCL: Running for 1500000 steps
ETITLE: TS BOND ANGLE DIHED IMPRP ELECT VDW BOUNDARY MISC KINETIC TOTAL TEMP POTENTIAL TOTALAVG TEMPAVG PRESSURE GPRESSURE VOLUME PRESSAVG GPRESSAVG
ENERGY: 0 1.2969 2.4346 0.3605 0.0000 -10541.2321 1376.5644 0.0000 0.0000 1720.4205 -7440.1552 296.5930 -9160.5757 -7440.1552 296.5930 -363.3368 -274.2913 29912.3789 -363.3368 -274.2913
ENERGY: 300000 1.2280 4.4955 1.6243 0.0000 -10650.6250 1475.6245 0.0000 0.0000 1702.3121 -7465.3406 293.4712 -9167.6527 -7396.5593 299.5887 231.1008 240.1975 30257.2130 38.9294 87.4767
ENERGY: 600000 1.5485 4.2459 1.4131 0.0000 -10606.0805 1468.2865 0.0000 0.0000 1687.0838 -7443.5027 290.8459 -9130.5865 -7391.8645 298.7651 312.9840 405.3786 29838.5502 149.9762 200.7194
ENERGY: 900000 2.1962 3.8773 1.7603 0.0000 -10581.5101 1409.3236 0.0000 0.0000 1759.6441 -7404.7087 303.3550 -9164.3527 -7395.7901 299.7921 -36.9398 -67.1487 29776.7661 60.7773 103.3872
ENERGY: 1200000 1.7728 4.2685 1.6740 0.0000 -10742.6146 1541.7656 0.0000 0.0000 1704.3036 -7488.8301 293.8145 -9193.1337 -7404.1472 299.1209 727.8187 794.9017 29770.1813 93.6006 129.1643
ENERGY: 1500000 1.4777 2.4630 1.0192 0.0000 -10511.4102 1409.1728 0.0000 0.0000 1704.6472 -7392.6304 293.8738 -9097.2776 -7400.8391 298.7067 -175.2802 -111.6829 30096.6133 41.5388 87.1325
TCL: Running FEP window   5: Lambda1 0.2    Lambda2 0.25   [dLambda 0.04999999999999999]
TCL: Setting parameter firsttimestep to 0
TCL: Setting parameter alchLambda to 0.2
Info: NONBONDED TABLE R-SQUARED SPACING: 0.0625
Info: NONBONDED TABLE SIZE: 705 POINTS
TCL: Setting parameter alchLambda2 to 0.25
Info: NONBONDED TABLE R-SQUARED SPACING: 0.0625
Info: NONBONDED TABLE SIZE: 705 POINTS
TCL: Running for 1500000 steps
ETITLE: TS BOND ANGLE DIHED IMPRP ELECT VDW BOUNDARY MISC KINETIC TOTAL TEMP POTENTIAL TOTALAVG TEMPAVG PRESSURE GPRESSURE VOLUME PRESSAVG GPRESSAVG
ENERGY: 0 1.4777 2.4630 1.0192 0.0000 -10511.4089 1409.7185 0.0000 0.0000 1703.7407 -7392.9899 293.7175 -9096.7306 -7392.9899 293.7175 -185.8244 -108.4914 30096.6133 -185.8244 -108.4914
ENERGY: 300000 3.0934 4.4548 1.7518 0.0000 -10626.2708 1487.9328 0.0000 0.0000 1792.6932 -7336.3448 309.0525 -9129.0380 -7422.5658 301.0611 275.5054 322.0240 30022.2988 257.9758 313.3762
ENERGY: 600000 0.3474 4.2238 1.1940 0.0000 -10613.1360 1461.1884 0.0000 0.0000 1740.6678 -7405.5147 300.0836 -9146.1825 -7415.4648 301.1974 215.9236 282.8568 30053.6287 79.2610 122.0035
ENERGY: 900000 1.5409 4.5333 0.6314 0.0000 -10575.0411 1378.3239 0.0000 0.0000 1729.6809 -7460.3306 298.1895 -9190.0115 -7409.3636 300.6794 -629.1316 -505.5913 30074.8043 -13.8783 33.8072
ENERGY: 1200000 0.9662 4.1025 1.2099 0.0000 -10512.2342 1318.7349 0.0000 0.0000 1773.4516 -7413.7691 305.7353 -9187.2207 -7407.5386 300.5001 -1081.8849 -1036.2110 30114.8362 -146.3696 -98.7579
ENERGY: 1500000 2.6838 6.3821 0.7891 0.0000 -10540.0003 1384.4449 0.0000 0.0000 1720.2473 -7425.4531 296.5631 -9145.7004 -7411.4979 299.8828 -324.4899 -278.5617 30105.1618 -157.6417 -102.7377
TCL: Running FEP window   6: Lambda1 0.25   Lambda2 0.3    [dLambda 0.04999999999999999]
TCL: Setting parameter firsttimestep to 0
TCL: Setting parameter alchLambda to 0.25
Info: NONBONDED TABLE R-SQUARED SPACING: 0.0625
Info: NONBONDED TABLE SIZE: 705 POINTS
TCL: Setting parameter alchLambda2 to 0.3
Info: NONBONDED TABLE R-SQUARED SPACING: 0.0625
Info: NONBONDED TABLE SIZE: 705 POINTS
TCL: Running for 1500000 steps
ETITLE: TS BOND ANGLE DIHED IMPRP ELECT VDW BOUNDARY MISC KINETIC TOTAL TEMP POTENTIAL TOTALAVG TEMPAVG PRESSURE GPRESSURE VOLUME PRESSAVG GPRESSAVG
ENERGY: 0 2.6838 6.3821 0.7891 0.0000 -10540.0023 1384.9233 0.0000 0.0000 1719.3483 -7425.8757 296.4082 -9145.2240 -7425.8757 296.4082 -348.4595 -271.9123 30105.1618 -348.4595 -271.9123
ENERGY: 300000 0.9704 3.2588 0.8839 0.0000 -10626.8720 1449.3805 0.0000 0.0000 1744.7991 -7427.5793 300.7958 -9172.3784 -7457.6893 295.6150 -306.0147 -223.8349 30489.3684 -212.1638 -157.1615
ENERGY: 600000 1.7113 5.0104 3.6549 0.0000 -10460.1804 1388.0682 0.0000 0.0000 1807.2492 -7254.4864 311.5619 -9061.7356 -7407.8860 299.1839 -36.0281 66.2121 29883.9792 -209.3134 -141.9195
ENERGY: 900000 2.5744 8.1366 3.5298 0.0000 -10493.4551 1354.1099 0.0000 0.0000 1708.4144 -7416.6901 294.5232 -9125.1045 -7404.2057 298.8771 -306.6943 -251.6976 29469.4388 -18.5774 53.1885
ENERGY: 1200000 0.8582 6.8710 0.5205 0.0000 -10702.3097 1520.9207 0.0000 0.0000 1749.7438 -7423.3955 301.6482 -9173.1393 -7410.4715 298.3842 843.6491 934.6443 29543.5848 73.9931 140.9834
ENERGY: 1500000 2.4736 4.9865 1.0646 0.0000 -10577.4665 1397.3507 0.0000 0.0000 1694.9589 -7476.6323 292.2035 -9171.5912 -7400.1738 299.0292 -298.9008 -197.7197 29874.4800 75.0462 149.1890
TCL: Running FEP window   7: Lambda1 0.3    Lambda2 0.35   [dLambda 0.04999999999999999]
TCL: Setting parameter firsttimestep to 0
TCL: Setting parameter alchLambda to 0.3
Info: NONBONDED TABLE R-SQUARED SPACING: 0.0625
Info: NONBONDED TABLE SIZE: 705 POINTS
TCL: Setting parameter alchLambda2 to 0.35
Info: NONBONDED TABLE R-SQUARED SPACING: 0.0625
Info: NONBONDED TABLE SIZE: 705 POINTS
TCL: Running for 1500000 steps
ETITLE: TS BOND ANGLE DIHED IMPRP ELECT VDW BOUNDARY MISC KINETIC TOTAL TEMP POTENTIAL TOTALAVG TEMPAVG PRESSURE GPRESSURE VOLUME PRESSAVG GPRESSAVG
ENERGY: 0 2.4736 4.9865 1.0646 0.0000 -10577.4663 1397.5467 0.0000 0.0000 1694.1131 -7477.2818 292.0577 -9171.3949 -7477.2818 292.0577 -289.6055 -193.3576 29874.4800 -289.6055 -193.3576
ENERGY: 300000 0.9555 3.2703 2.7542 0.0000 -10530.9939 1357.9302 0.0000 0.0000 1693.2129 -7472.8709 291.9025 -9166.0838 -7442.9996 295.0985 -517.1472 -542.3962 29757.0506 -340.3064 -299.0623
ENERGY: 600000 1.5507 5.7842 2.2639 0.0000 -10490.0684 1347.3649 0.0000 0.0000 1773.9457 -7359.1590 305.8205 -9133.1047 -7423.7251 297.9839 -735.7865 -695.2816 30280.3078 -224.5233 -181.2603
ENERGY: 900000 3.3849 2.1627 2.0151 0.0000 -10534.5478 1365.8338 0.0000 0.0000 1711.2680 -7449.8833 295.0152 -9161.1513 -7429.6730 298.1941 -743.6723 -679.5788 30363.3213 -280.4219 -234.5627
ENERGY: 1200000 1.3734 3.0907 0.5488 0.0000 -10550.1191 1374.8798 0.0000 0.0000 1721.6269 -7448.5996 296.8010 -9170.2265 -7420.6807 298.3206 -389.4529 -319.0610 29827.4627 -236.9587 -186.5016
ENERGY: 1500000 2.6842 3.4970 2.5554 0.0000 -10543.6841 1384.7016 0.0000 0.0000 1695.6975 -7454.5483 292.3309 -9150.2459 -7428.6750 297.9251 -629.9772 -597.0855 30239.3123 -169.8693 -115.0094
TCL: Running FEP window   8: Lambda1 0.35   Lambda2 0.39999999999999997 [dLambda 0.04999999999999999]
TCL: Setting parameter firsttimestep to 0
TCL: Setting parameter alchLambda to 0.35
Info: NONBONDED TABLE R-SQUARED SPACING: 0.0625
Info: NONBONDED TABLE SIZE: 705 POINTS
TCL: Setting parameter alchLambda2 to 0.39999999999999997
Info: NONBONDED TABLE R-SQUARED SPACING: 0.0625
Info: NONBONDED TABLE SIZE: 705 POINTS
TCL: Running for 1500000 steps
ETITLE: TS BOND ANGLE DIHED IMPRP ELECT VDW BOUNDARY MISC KINETIC TOTAL TEMP POTENTIAL TOTALAVG TEMPAVG PRESSURE GPRESSURE VOLUME PRESSAVG GPRESSAVG
ENERGY: 0 2.6842 3.4970 2.5554 0.0000 -10543.6858 1384.5102 0.0000 0.0000 1694.8229 -7455.6160 292.1801 -9150.4389 -7455.6160 292.1801 -686.1951 -598.7814 30239.3123 -686.1951 -598.7814
ENERGY: 300000 1.5267 2.7499 3.2975 0.0000 -10557.1215 1394.4478 0.0000 0.0000 1735.3192 -7419.7804 299.1615 -9155.0996 -7431.7308 298.7274 -387.8046 -286.3532 30094.8072 -162.2827 -71.1800
ENERGY: 600000 1.9334 7.0211 1.7225 0.0000 -10569.0540 1472.8606 0.0000 0.0000 1752.0673 -7333.4492 302.0488 -9085.5165 -7421.6390 300.1454 830.1661 860.4851 29751.0900 20.0367 88.0096
ENERGY: 900000 3.4154 4.8925 1.3973 0.0000 -10502.5372 1321.4556 0.0000 0.0000 1761.9894 -7409.3869 303.7593 -9171.3763 -7411.7418 300.7746 -933.7455 -861.8856 29793.9928 -24.5742 50.0593
ENERGY: 1200000 3.3204 2.9815 1.1745 0.0000 -10571.8959 1400.5759 0.0000 0.0000 1767.7505 -7396.0930 304.7525 -9163.8436 -7404.0375 300.7556 -63.7594 22.3889 29838.2932 -11.1272 58.5308
ENERGY: 1500000 0.7207 3.5031 3.6093 0.0000 -10575.2320 1372.5860 0.0000 0.0000 1724.2702 -7470.5428 297.2567 -9194.8129 -7406.0613 300.3236 -608.2150 -524.8013 30073.3954 -80.5591 -4.7111
TCL: Running FEP window   9: Lambda1 0.39999999999999997 Lambda2 0.44999999999999996 [dLambda 0.04999999999999999]
TCL: Setting parameter firsttimestep to 0
TCL: Setting parameter alchLambda to 0.39999999999999997
Info: NONBONDED TABLE R-SQUARED SPACING: 0.0625
Info: NONBONDED TABLE SIZE: 705 POINTS
TCL: Setting parameter alchLambda2 to 0.44999999999999996
Info: NONBONDED TABLE R-SQUARED SPACING: 0.0625
Info: NONBONDED TABLE SIZE: 705 POINTS
TCL: Running for 1500000 steps
ETITLE: TS BOND ANGLE DIHED IMPRP ELECT VDW BOUNDARY MISC KINETIC TOTAL TEMP POTENTIAL TOTALAVG TEMPAVG PRESSURE GPRESSURE VOLUME PRESSAVG GPRESSAVG
ENERGY: 0 0.7207 3.5031 3.6093 0.0000 -10575.2318 1372.2831 0.0000 0.0000 1723.3986 -7471.7171 297.1064 -9195.1157 -7471.7171 297.1064 -614.0778 -523.0339 30073.3954 -614.0778 -523.0339
ENERGY: 300000 0.9317 4.4419 0.7044 0.0000 -10679.0228 1474.7050 0.0000 0.0000 1703.6606 -7494.5793 293.7037 -9198.2399 -7466.1403 294.6361 -161.8788 -2.8629 30323.8439 -268.6193 -165.2580
ENERGY: 600000 1.6486 2.8116 2.0086 0.0000 -10521.6353 1419.3646 0.0000 0.0000 1722.8729 -7372.9289 297.0158 -9095.8018 -7436.5801 295.9832 77.5379 108.7632 30025.7123 -163.4780 -63.6594
ENERGY: 900000 3.6603 4.3144 1.3175 0.0000 -10461.7428 1328.1415 0.0000 0.0000 1743.7849 -7380.5242 300.6209 -9124.3091 -7424.2838 297.9925 -645.5563 -575.4557 29939.9577 -205.3508 -112.7337
ENERGY: 1200000 3.1222 2.2432 0.5102 0.0000 -10444.5984 1333.9342 0.0000 0.0000 1735.5044 -7369.2843 299.1934 -9104.7887 -7431.0129 297.9841 -593.4835 -519.6702 30068.4358 -227.0405 -140.7726
ENERGY: 1500000 4.0903 2.4688 3.4948 0.0000 -10672.0180 1452.1478 0.0000 0.0000 1717.8328 -7491.9836 296.1469 -9209.8164 -7434.0038 298.7752 -159.7440 -43.9288 30042.2629 -153.4207 -66.5018
TCL: Running FEP window  10: Lambda1 0.44999999999999996 Lambda2 0.49999999999999994 [dLambda 0.04999999999999999]
TCL: Setting parameter firsttimestep to 0
TCL: Setting parameter alchLambda to 0.44999999999999996
Info: NONBONDED TABLE R-SQUARED SPACING: 0.0625
Info: NONBONDED TABLE SIZE: 705 POINTS
TCL: Setting parameter alchLambda2 to 0.49999999999999994
Info: NONBONDED TABLE R-SQUARED SPACING: 0.0625
Info: NONBONDED TABLE SIZE: 705 POINTS
TCL: Running for 1500000 steps
ETITLE: TS BOND ANGLE DIHED IMPRP ELECT VDW BOUNDARY MISC KINETIC TOTAL TEMP POTENTIAL TOTALAVG TEMPAVG PRESSURE GPRESSURE VOLUME PRESSAVG GPRESSAVG
ENERGY: 0 4.0903 2.4688 3.4948 0.0000 -10672.0177 1451.9616 0.0000 0.0000 1716.9665 -7493.0358 295.9975 -9210.0023 -7493.0358 295.9975 -113.5472 -42.2608 30042.2629 -113.5472 -42.2608
ENERGY: 300000 0.7554 4.6319 0.4474 0.0000 -10555.4617 1446.9183 0.0000 0.0000 1723.5145 -7379.1942 297.1264 -9102.7087 -7415.7324 296.8702 95.4845 177.8390 30346.8463 -562.7221 -523.3204
ENERGY: 600000 1.0424 5.3906 1.1673 0.0000 -10535.0374 1404.9428 0.0000 0.0000 1737.5755 -7384.9188 299.5505 -9122.4943 -7401.0956 299.0260 -280.5546 -163.2680 30176.0366 -292.6531 -225.9538
ENERGY: 900000 1.1816 5.5402 3.6545 0.0000 -10579.3335 1371.4446 0.0000 0.0000 1747.0526 -7450.4600 301.1843 -9197.5126 -7401.9945 300.7775 -785.8262 -799.1218 30226.5794 -297.5552 -235.3642
ENERGY: 1200000 1.5880 1.2797 2.8970 0.0000 -10754.9414 1508.1604 0.0000 0.0000 1758.8825 -7482.1338 303.2237 -9241.0163 -7398.3661 301.3861 622.3974 674.0544 29739.2408 -91.1793 -31.0031
ENERGY: 1500000 2.0367 3.9362 0.9504 0.0000 -10538.6572 1431.4809 0.0000 0.0000 1711.1403 -7389.1127 294.9931 -9100.2530 -7393.0210 301.5852 -157.8851 -75.4744 30248.7904 -91.4110 -28.9416
TCL: Running FEP window  11: Lambda1 0.49999999999999994 Lambda2 0.5499999999999999 [dLambda 0.04999999999999999]
TCL: Setting parameter firsttimestep to 0
TCL: Setting parameter alchLambda to 0.49999999999999994
Info: NONBONDED TABLE R-SQUARED SPACING: 0.0625
Info: NONBONDED TABLE SIZE: 705 POINTS
TCL: Setting parameter alchLambda2 to 0.5499999999999999
Info: NONBONDED TABLE R-SQUARED SPACING: 0.0625
Info: NONBONDED TABLE SIZE: 705 POINTS
TCL: Running for 1500000 steps
ETITLE: TS BOND ANGLE DIHED IMPRP ELECT VDW BOUNDARY MISC KINETIC TOTAL TEMP POTENTIAL TOTALAVG TEMPAVG PRESSURE GPRESSURE VOLUME PRESSAVG GPRESSAVG
ENERGY: 0 2.0367 3.9362 0.9504 0.0000 -10538.6576 1431.3192 0.0000 0.0000 1710.2622 -7390.1529 294.8418 -9100.4151 -7390.1529 294.8418 -166.6478 -73.2127 30248.7904 -166.6478 -73.2127
ENERGY: 300000 0.6702 3.9649 1.1462 0.0000 -10525.6517 1371.8076 0.0000 0.0000 1736.5594 -7411.5033 299.3753 -9148.0627 -7414.0708 299.5760 -309.1724 -228.0430 29845.9807 -311.2860 -239.5995
ENERGY: 600000 1.8563 6.2049 2.3423 0.0000 -10502.6127 1388.9747 0.0000 0.0000 1764.5925 -7338.6419 304.2081 -9103.2344 -7379.5783 300.4963 -305.6975 -251.8731 30108.5546 -272.3675 -200.8832
ENERGY: 900000 2.5075 3.9582 1.1889 0.0000 -10464.4703 1370.0160 0.0000 0.0000 1746.8382 -7339.9614 301.1473 -9086.7997 -7387.4718 299.9622 -735.2900 -684.6912 30770.6610 -290.0623 -227.4374
ENERGY: 1200000 4.8374 4.4606 0.6115 0.0000 -10471.3290 1343.8319 0.0000 0.0000 1770.0731 -7347.5146 305.1529 -9117.5876 -7377.7357 299.9627 -473.3016 -395.6728 29777.3741 -130.4438 -66.5996
ENERGY: 1500000 4.2006 5.9943 3.5425 0.0000 -10516.1300 1356.0233 0.0000 0.0000 1768.2861 -7378.0831 304.8448 -9146.3692 -7379.7477 300.4152 -517.8454 -445.8451 29863.9247 -187.6549 -119.8780
TCL: Running FEP window  12: Lambda1 0.5499999999999999 Lambda2 0.6    [dLambda 0.050000000000000044]
TCL: Setting parameter firsttimestep to 0
TCL: Setting parameter alchLambda to 0.5499999999999999
Info: NONBONDED TABLE R-SQUARED SPACING: 0.0625
Info: NONBONDED TABLE SIZE: 705 POINTS
TCL: Setting parameter alchLambda2 to 0.6
Info: NONBONDED TABLE R-SQUARED SPACING: 0.0625
Info: NONBONDED TABLE SIZE: 705 POINTS
TCL: Running for 1500000 steps
ETITLE: TS BOND ANGLE DIHED IMPRP ELECT VDW BOUNDARY MISC KINETIC TOTAL TEMP POTENTIAL TOTALAVG TEMPAVG PRESSURE GPRESSURE VOLUME PRESSAVG GPRESSAVG
ENERGY: 0 4.2006 5.9943 3.5425 0.0000 -10516.4557 1355.9988 0.0000 0.0000 1767.4258 -7379.2937 304.6965 -9146.7195 -7379.2937 304.6965 -530.1292 -438.3688 29863.9247 -530.1292 -438.3688
ENERGY: 300000 1.2611 2.2855 0.3339 0.0000 -10649.4082 1426.3209 0.0000 0.0000 1791.7252 -7427.4816 308.8856 -9219.2067 -7360.6566 305.3724 -61.6246 -51.8784 29769.7102 -258.4271 -204.4134
ENERGY: 600000 3.1650 4.2293 1.0617 0.0000 -10495.9042 1308.7500 0.0000 0.0000 1725.5828 -7453.1153 297.4830 -9178.6980 -7403.2547 302.5113 -980.0319 -893.2099 29945.9502 -295.7435 -243.8936
ENERGY: 900000 1.6286 4.1846 1.5808 0.0000 -10537.2423 1450.6589 0.0000 0.0000 1791.5008 -7287.6886 308.8469 -9079.1893 -7385.2654 303.3093 324.0840 395.3120 30037.0826 -173.8288 -122.9388
ENERGY: 1200000 1.2143 4.7713 1.9308 0.0000 -10647.6152 1427.8418 0.0000 0.0000 1730.8571 -7481.0000 298.3922 -9211.8571 -7395.6603 303.0988 -111.6682 -79.9009 29772.1655 -191.3947 -140.8691
ENERGY: 1500000 2.0662 3.5122 0.5180 0.0000 -10720.5012 1516.1322 0.0000 0.0000 1728.6874 -7469.5852 298.0182 -9198.2727 -7411.9482 302.2174 466.1590 551.7686 29880.1111 -147.9212 -95.0530
TCL: Running FEP window  13: Lambda1 0.6    Lambda2 0.65   [dLambda 0.050000000000000044]
TCL: Setting parameter firsttimestep to 0
TCL: Setting parameter alchLambda to 0.6
Info: NONBONDED TABLE R-SQUARED SPACING: 0.0625
Info: NONBONDED TABLE SIZE: 705 POINTS
TCL: Setting parameter alchLambda2 to 0.65
Info: NONBONDED TABLE R-SQUARED SPACING: 0.0625
Info: NONBONDED TABLE SIZE: 705 POINTS
TCL: Running for 1500000 steps
ETITLE: TS BOND ANGLE DIHED IMPRP ELECT VDW BOUNDARY MISC KINETIC TOTAL TEMP POTENTIAL TOTALAVG TEMPAVG PRESSURE GPRESSURE VOLUME PRESSAVG GPRESSAVG
ENERGY: 0 2.0662 3.5122 0.5180 0.0000 -10721.2848 1516.1978 0.0000 0.0000 1727.8174 -7471.1733 297.8682 -9198.9907 -7471.1733 297.8682 480.2002 558.3151 29880.1111 480.2002 558.3151
ENERGY: 300000 1.6545 4.0871 1.6462 0.0000 -10573.2695 1406.8521 0.0000 0.0000 1769.8483 -7389.1814 305.1141 -9159.0297 -7388.9776 303.1851 117.3882 111.1541 29760.4887 63.5245 109.3426
ENERGY: 600000 0.7056 2.7253 2.8080 0.0000 -10514.9895 1401.2525 0.0000 0.0000 1750.6792 -7356.8188 301.8095 -9107.4980 -7394.7450 302.0487 -341.6480 -229.8841 30317.4183 -93.6359 -28.3166
ENERGY: 900000 1.3323 3.9276 1.2831 0.0000 -10634.6860 1444.5262 0.0000 0.0000 1788.3905 -7395.2263 308.3107 -9183.6168 -7409.0128 302.5944 155.4192 247.8167 29829.7024 -109.7242 -47.4396
ENERGY: 1200000 3.5456 3.0518 1.8322 0.0000 -10625.6785 1474.2881 0.0000 0.0000 1790.5099 -7352.4509 308.6761 -9142.9608 -7410.9375 302.0209 717.7223 782.2636 29491.4702 71.2869 124.0616
ENERGY: 1500000 1.8939 6.1340 1.0456 0.0000 -10604.1722 1425.4934 0.0000 0.0000 1733.6859 -7435.9194 298.8799 -9169.6053 -7421.7145 301.3108 234.5415 326.2511 29363.4217 82.4374 136.0208
TCL: Running FEP window  14: Lambda1 0.65   Lambda2 0.7000000000000001 [dLambda 0.050000000000000044]
TCL: Setting parameter firsttimestep to 0
TCL: Setting parameter alchLambda to 0.65
Info: NONBONDED TABLE R-SQUARED SPACING: 0.0625
Info: NONBONDED TABLE SIZE: 705 POINTS
TCL: Setting parameter alchLambda2 to 0.7000000000000001
Info: NONBONDED TABLE R-SQUARED SPACING: 0.0625
Info: NONBONDED TABLE SIZE: 705 POINTS
TCL: Running for 1500000 steps
ETITLE: TS BOND ANGLE DIHED IMPRP ELECT VDW BOUNDARY MISC KINETIC TOTAL TEMP POTENTIAL TOTALAVG TEMPAVG PRESSURE GPRESSURE VOLUME PRESSAVG GPRESSAVG
ENERGY: 0 1.8939 6.1340 1.0456 0.0000 -10604.1813 1425.1757 0.0000 0.0000 1732.7800 -7437.1522 298.7237 -9169.9322 -7437.1522 298.7237 240.5877 332.4393 29363.4217 240.5877 332.4393
ENERGY: 300000 0.9989 3.8725 1.7865 0.0000 -10642.1390 1417.6451 0.0000 0.0000 1734.7803 -7483.0556 299.0686 -9217.8359 -7455.6789 298.8591 -170.6004 -142.9102 29526.2616 -99.7661 -33.2411
ENERGY: 600000 0.7243 4.7442 2.6892 0.0000 -10565.7468 1455.6343 0.0000 0.0000 1697.7583 -7404.1965 292.6861 -9101.9548 -7426.5209 297.6988 508.1434 558.1612 29783.0902 51.4793 110.5469
ENERGY: 900000 1.2530 6.5563 3.2309 0.0000 -10590.7374 1485.5224 0.0000 0.0000 1760.7609 -7333.4139 303.5475 -9094.1748 -7416.8582 298.5696 729.0424 812.8326 29694.1584 68.3185 131.8110
ENERGY: 1200000 0.8662 3.9925 1.9223 0.0000 -10654.8947 1527.1616 0.0000 0.0000 1783.0160 -7337.9361 307.3842 -9120.9521 -7403.2792 299.8094 1155.0939 1207.0277 29875.4403 91.1361 154.7855
ENERGY: 1500000 1.5116 3.6209 2.0615 0.0000 -10786.7537 1548.6642 0.0000 0.0000 1719.6837 -7511.2118 296.4660 -9230.8955 -7415.2873 299.1605 959.1853 1037.0907 29341.8887 129.6117 195.7321
TCL: Running FEP window  15: Lambda1 0.7000000000000001 Lambda2 0.7500000000000001 [dLambda 0.050000000000000044]
TCL: Setting parameter firsttimestep to 0
TCL: Setting parameter alchLambda to 0.7000000000000001
Info: NONBONDED TABLE R-SQUARED SPACING: 0.0625
Info: NONBONDED TABLE SIZE: 705 POINTS
TCL: Setting parameter alchLambda2 to 0.7500000000000001
Info: NONBONDED TABLE R-SQUARED SPACING: 0.0625
Info: NONBONDED TABLE SIZE: 705 POINTS
TCL: Running for 1500000 steps
ETITLE: TS BOND ANGLE DIHED IMPRP ELECT VDW BOUNDARY MISC KINETIC TOTAL TEMP POTENTIAL TOTALAVG TEMPAVG PRESSURE GPRESSURE VOLUME PRESSAVG GPRESSAVG
ENERGY: 0 1.5116 3.6209 2.0615 0.0000 -10787.4462 1548.9761 0.0000 0.0000 1718.8480 -7512.4281 296.3219 -9231.2761 -7512.4281 296.3219 984.0168 1046.2563 29341.8887 984.0168 1046.2563
ENERGY: 300000 3.3683 4.0378 2.4954 0.0000 -10660.5917 1509.7827 0.0000 0.0000 1764.5051 -7376.4024 304.1930 -9140.9075 -7428.6719 298.5346 932.0079 943.8951 29761.3861 455.1627 510.8913
ENERGY: 600000 0.8270 6.6738 0.1036 0.0000 -10611.9773 1442.2699 0.0000 0.0000 1753.3303 -7408.7727 302.2665 -9162.1030 -7433.5574 298.0588 304.7970 339.0891 29772.9958 417.4149 469.9366
ENERGY: 900000 0.6021 2.6342 0.8969 0.0000 -10564.8339 1378.4362 0.0000 0.0000 1687.7902 -7494.4744 290.9677 -9182.2646 -7436.4425 298.1848 -783.8781 -670.7587 30514.3098 187.5173 261.0871
ENERGY: 1200000 0.7216 2.6584 3.4264 0.0000 -10632.9569 1449.0134 0.0000 0.0000 1755.2819 -7421.8552 302.6030 -9177.1371 -7429.6652 298.5798 38.0649 85.5684 30009.2451 152.3203 226.9890
ENERGY: 1500000 0.7825 6.4457 1.4462 0.0000 -10623.4819 1425.9790 0.0000 0.0000 1757.5720 -7431.2566 302.9978 -9188.8286 -7418.4972 298.8634 201.4591 202.1319 29505.2252 212.3513 281.1227
TCL: Running FEP window  16: Lambda1 0.7500000000000001 Lambda2 0.8000000000000002 [dLambda 0.050000000000000044]
TCL: Setting parameter firsttimestep to 0
TCL: Setting parameter alchLambda to 0.7500000000000001
Info: NONBONDED TABLE R-SQUARED SPACING: 0.0625
Info: NONBONDED TABLE SIZE: 705 POINTS
TCL: Setting parameter alchLambda2 to 0.8000000000000002
Info: NONBONDED TABLE R-SQUARED SPACING: 0.0625
Info: NONBONDED TABLE SIZE: 705 POINTS
TCL: Running for 1500000 steps
ETITLE: TS BOND ANGLE DIHED IMPRP ELECT VDW BOUNDARY MISC KINETIC TOTAL TEMP POTENTIAL TOTALAVG TEMPAVG PRESSURE GPRESSURE VOLUME PRESSAVG GPRESSAVG
ENERGY: 0 0.7825 6.4457 1.4462 0.0000 -10624.1686 1426.1234 0.0000 0.0000 1756.7295 -7432.6413 302.8525 -9189.3708 -7432.6413 302.8525 129.3679 209.9195 29505.2252 129.3679 209.9195
ENERGY: 300000 2.1801 6.6594 1.4674 0.0000 -10430.3143 1340.1048 0.0000 0.0000 1733.3157 -7346.5870 298.8161 -9079.9026 -7399.0167 300.1921 -574.0994 -485.7277 30364.5607 96.0132 159.9795
ENERGY: 600000 1.9562 3.3738 2.4471 0.0000 -10649.9733 1513.2586 0.0000 0.0000 1739.3498 -7389.5878 299.8563 -9128.9376 -7403.8737 299.4574 886.4103 933.7052 29540.2340 245.6043 309.1465
ENERGY: 900000 2.7240 3.7706 0.5734 0.0000 -10513.4530 1446.3032 0.0000 0.0000 1759.7560 -7300.3259 303.3743 -9060.0819 -7386.9688 300.3539 274.2422 267.7533 30237.8631 204.4542 263.0906
ENERGY: 1200000 0.8241 8.3288 1.1429 0.0000 -10583.3670 1412.6986 0.0000 0.0000 1753.7278 -7406.6448 302.3350 -9160.3726 -7388.8493 300.4832 -15.5096 -17.3529 29874.5623 116.2217 164.7459
ENERGY: 1500000 1.2166 4.1633 3.0823 0.0000 -10599.1246 1483.4280 0.0000 0.0000 1693.2989 -7413.9355 291.9174 -9107.2344 -7398.4194 299.2889 739.0413 754.1997 29831.1204 164.8416 213.3317
TCL: Running FEP window  17: Lambda1 0.8000000000000002 Lambda2 0.8500000000000002 [dLambda 0.050000000000000044]
TCL: Setting parameter firsttimestep to 0
TCL: Setting parameter alchLambda to 0.8000000000000002
Info: NONBONDED TABLE R-SQUARED SPACING: 0.0625
Info: NONBONDED TABLE SIZE: 705 POINTS
TCL: Setting parameter alchLambda2 to 0.8500000000000002
Info: NONBONDED TABLE R-SQUARED SPACING: 0.0625
Info: NONBONDED TABLE SIZE: 705 POINTS
TCL: Running for 1500000 steps
ETITLE: TS BOND ANGLE DIHED IMPRP ELECT VDW BOUNDARY MISC KINETIC TOTAL TEMP POTENTIAL TOTALAVG TEMPAVG PRESSURE GPRESSURE VOLUME PRESSAVG GPRESSAVG
ENERGY: 0 1.2166 4.1633 3.0823 0.0000 -10601.3413 1483.6760 0.0000 0.0000 1692.4957 -7416.7074 291.7789 -9109.2031 -7416.7074 291.7789 666.9005 760.8354 29831.1204 666.9005 760.8354
ENERGY: 300000 1.3390 3.5455 1.4048 0.0000 -10630.9877 1404.9023 0.0000 0.0000 1749.6474 -7470.1487 301.6316 -9219.7961 -7432.4759 295.2948 -398.5950 -311.1079 29931.2846 195.7789 300.1034
ENERGY: 600000 2.8939 4.6319 2.3533 0.0000 -10512.4164 1375.7333 0.0000 0.0000 1738.8620 -7387.9419 299.7722 -9126.8039 -7382.5562 298.3401 -312.8137 -202.5462 29770.4168 -33.6394 69.2556
ENERGY: 900000 4.6484 4.2662 2.1690 0.0000 -10489.0387 1381.2386 0.0000 0.0000 1781.7104 -7315.0063 307.1591 -9096.7166 -7378.8297 298.5624 -214.1426 -147.2729 30348.3016 -107.2698 -15.9451
ENERGY: 1200000 1.2079 3.1642 2.3072 0.0000 -10446.6633 1362.9768 0.0000 0.0000 1770.1386 -7306.8687 305.1642 -9077.0072 -7373.6914 300.1466 -420.2608 -278.3413 30440.4491 -174.4109 -79.7868
ENERGY: 1500000 2.8102 4.4591 0.5817 0.0000 -10637.3867 1380.6081 0.0000 0.0000 1762.6985 -7486.2291 303.8816 -9248.9276 -7386.3108 300.7234 -620.0732 -591.8451 30074.9526 -189.9486 -102.7013
TCL: Running FEP window  18: Lambda1 0.8500000000000002 Lambda2 0.9000000000000002 [dLambda 0.050000000000000044]
TCL: Setting parameter firsttimestep to 0
TCL: Setting parameter alchLambda to 0.8500000000000002
Info: NONBONDED TABLE R-SQUARED SPACING: 0.0625
Info: NONBONDED TABLE SIZE: 705 POINTS
TCL: Setting parameter alchLambda2 to 0.9000000000000002
Info: NONBONDED TABLE R-SQUARED SPACING: 0.0625
Info: NONBONDED TABLE SIZE: 705 POINTS
TCL: Running for 1500000 steps
ETITLE: TS BOND ANGLE DIHED IMPRP ELECT VDW BOUNDARY MISC KINETIC TOTAL TEMP POTENTIAL TOTALAVG TEMPAVG PRESSURE GPRESSURE VOLUME PRESSAVG GPRESSAVG
ENERGY: 0 2.8102 4.4591 0.5817 0.0000 -10637.6595 1381.3690 0.0000 0.0000 1761.8475 -7486.5920 303.7348 -9248.4395 -7486.5920 303.7348 -639.2364 -573.3249 30074.9526 -639.2364 -573.3249
ENERGY: 300000 1.9164 5.5080 1.8767 0.0000 -10550.7891 1438.0929 0.0000 0.0000 1708.6926 -7394.7025 294.5712 -9103.3951 -7422.2122 299.3488 252.3299 264.1099 30206.2892 -83.6217 -36.5621
ENERGY: 600000 1.6536 3.1082 0.7636 0.0000 -10604.5205 1390.1448 0.0000 0.0000 1743.3367 -7465.5137 300.5437 -9208.8503 -7416.2725 300.0997 -284.3910 -235.9681 29786.4430 -291.1828 -233.3074
ENERGY: 900000 0.5696 3.3698 0.7602 0.0000 -10585.1704 1462.1644 0.0000 0.0000 1760.9743 -7357.3321 303.5843 -9118.3063 -7436.4691 299.0546 327.4744 373.6281 30227.9421 -404.2178 -342.6222
ENERGY: 1200000 4.3944 3.6750 2.8180 0.0000 -10591.7913 1401.3609 0.0000 0.0000 1728.1648 -7451.3782 297.9281 -9179.5430 -7446.8443 297.6169 -325.8168 -217.0159 30158.4134 -359.3444 -293.0451
ENERGY: 1500000 3.8591 4.2357 2.5363 0.0000 -10549.9753 1395.9218 0.0000 0.0000 1699.0749 -7444.3475 292.9131 -9143.4224 -7445.8177 297.5199 -196.0209 -123.5025 30074.4325 -373.5960 -304.9942
TCL: Running FEP window  19: Lambda1 0.9000000000000002 Lambda2 0.9500000000000003 [dLambda 0.050000000000000044]
TCL: Setting parameter firsttimestep to 0
TCL: Setting parameter alchLambda to 0.9000000000000002
Info: NONBONDED TABLE R-SQUARED SPACING: 0.0625
Info: NONBONDED TABLE SIZE: 705 POINTS
TCL: Setting parameter alchLambda2 to 0.9500000000000003
Info: NONBONDED TABLE R-SQUARED SPACING: 0.0625
Info: NONBONDED TABLE SIZE: 705 POINTS
TCL: Running for 1500000 steps
ETITLE: TS BOND ANGLE DIHED IMPRP ELECT VDW BOUNDARY MISC KINETIC TOTAL TEMP POTENTIAL TOTALAVG TEMPAVG PRESSURE GPRESSURE VOLUME PRESSAVG GPRESSAVG
ENERGY: 0 3.8591 4.2357 2.5363 0.0000 -10551.3015 1397.0406 0.0000 0.0000 1698.2086 -7445.4212 292.7638 -9143.6298 -7445.4212 292.7638 -166.4948 -101.8282 30074.4325 -166.4948 -101.8282
ENERGY: 300000 1.4047 2.8400 3.5862 0.0000 -10574.2423 1440.3421 0.0000 0.0000 1739.6172 -7386.4521 299.9024 -9126.0694 -7422.5650 299.4812 189.5474 278.2498 30263.9672 63.6532 136.1558
ENERGY: 600000 3.2644 6.7410 2.2530 0.0000 -10495.6921 1403.6045 0.0000 0.0000 1780.0372 -7299.7920 306.8707 -9079.8292 -7405.2469 299.5403 -317.0746 -280.5282 30325.5631 -104.5311 -35.6227
ENERGY: 900000 1.3701 4.8366 1.6910 0.0000 -10448.8269 1361.6387 0.0000 0.0000 1750.8876 -7328.4028 301.8454 -9079.2904 -7395.6577 300.0572 -283.3494 -259.6215 30190.0930 -127.5297 -67.6778
ENERGY: 1200000 1.3734 3.6208 1.3170 0.0000 -10597.2718 1408.1316 0.0000 0.0000 1741.4797 -7441.3494 300.2235 -9182.8291 -7399.6709 300.2470 -73.1399 -69.6319 29806.8796 -110.3204 -52.4688
ENERGY: 1500000 3.6308 3.9500 0.8012 0.0000 -10443.9194 1388.8916 0.0000 0.0000 1724.1168 -7322.5290 297.2302 -9046.6458 -7389.6678 300.3155 31.5647 83.3992 30098.9258 -170.3428 -117.6591
TCL: Running FEP window  20: Lambda1 0.9500000000000003 Lambda2 1.0    [dLambda 0.04999999999999971]
TCL: Setting parameter firsttimestep to 0
TCL: Setting parameter alchLambda to 0.9500000000000003
Info: NONBONDED TABLE R-SQUARED SPACING: 0.0625
Info: NONBONDED TABLE SIZE: 705 POINTS
TCL: Setting parameter alchLambda2 to 1.0
Info: NONBONDED TABLE R-SQUARED SPACING: 0.0625
Info: NONBONDED TABLE SIZE: 705 POINTS
TCL: Running for 1500000 steps
ETITLE: TS BOND ANGLE DIHED IMPRP ELECT VDW BOUNDARY MISC KINETIC TOTAL TEMP POTENTIAL TOTALAVG TEMPAVG PRESSURE GPRESSURE VOLUME PRESSAVG GPRESSAVG
ENERGY: 0 3.6308 3.9500 0.8012 0.0000 -10445.1639 1389.3893 0.0000 0.0000 1723.2216 -7324.1710 297.0759 -9047.3926 -7324.1710 297.0759 6.0745 98.4274 30098.9258 6.0745 98.4274
ENERGY: 300000 0.9271 1.8096 0.5809 0.0000 -10526.4276 1365.7890 0.0000 0.0000 1734.9910 -7422.3301 299.1049 -9157.3211 -7364.1067 301.3564 -558.2414 -511.4890 30228.8338 -165.5998 -98.7859
ENERGY: 600000 2.0726 2.5065 0.5702 0.0000 -10554.6984 1383.4479 0.0000 0.0000 1757.9660 -7408.1352 303.0657 -9166.1012 -7380.7887 300.4672 -415.0405 -428.6440 30485.5760 -38.6993 21.5087
ENERGY: 900000 3.3700 3.2271 1.8360 0.0000 -10700.4848 1490.1241 0.0000 0.0000 1834.8692 -7367.0584 316.3235 -9201.9276 -7386.2679 301.2625 678.7990 740.5567 29663.1592 145.3000 211.4104
ENERGY: 1200000 2.3409 4.9373 0.9187 0.0000 -10596.1812 1387.5139 0.0000 0.0000 1674.6167 -7525.8537 288.6966 -9200.4704 -7395.7717 300.2330 -668.4924 -564.9322 30264.5752 -48.8687 25.0361
ENERGY: 1500000 0.9489 3.4934 3.3349 0.0000 -10466.3325 1328.1834 0.0000 0.0000 1775.1845 -7355.1875 306.0341 -9130.3720 -7395.7786 300.4199 -396.6917 -283.7788 29775.5224 -125.6962 -57.1768
TCL: Exiting due to exit command.
