Info: SIMULATION PARAMETERS:
Info: TIMESTEP               2
Info: NUMBER OF STEPS        0
Info: STEPS PER CYCLE        10
Info: PERIODIC CELL BASIS 1  31.0857 0 0
Info: PERIODIC CELL BASIS 2  0 31.4633 0
Info: PERIODIC CELL BASIS 3  0 0 31.7406
Info: PERIODIC CELL CENTER   0 0 0
Info: WRAPPING WATERS AROUND PERIODIC BOUNDARIES ON OUTPUT.
Info: WRAPPING ALL CLUSTERS AROUND PERIODIC BOUNDARIES ON OUTPUT.
Info: FIRST LDB TIMESTEP     50
Info: LAST LDB TIMESTEP     -1
Info: HOM BACKGROUND SCALING 1
Info: PME BACKGROUND SCALING 1
Info: MIN ATOMS PER PATCH    40
Info: EMPTY PATCH LOAD       40 ATOMS
Info: VELOCITY FILE          mobley_7364468_equil.vel
Info: CENTER OF MASS MOVING INITIALLY? NO
Info: DIELECTRIC             1
Info: EXCLUDE                SCALED ONE-FOUR
Info: 1-4 ELECTROSTATICS SCALED BY 0.833333
Info: MODIFIED 1-4 VDW PARAMETERS WILL BE USED
Info: DCD FILENAME           mobley_7364468_prod.dcd
Info: DCD FREQUENCY          100000
Info: DCD FIRST STEP         100000
Info: DCD FILE WILL CONTAIN UNIT CELL DATA
Info: XST FILENAME           mobley_7364468_prod.xst
Info: XST FREQUENCY          100000
Info: NO VELOCITY DCD OUTPUT
Info: NO FORCE DCD OUTPUT
Info: OUTPUT FILENAME        mobley_7364468_prod
Info: BINARY OUTPUT FILES WILL BE USED
Info: RESTART FILENAME       mobley_7364468_prod.restart
Info: RESTART FREQUENCY      100000
Info: BINARY RESTART FILES WILL BE USED
Info: CUTOFF                 9
Info: PAIRLIST DISTANCE      11
Info: PAIRLIST SHRINK RATE   0.01
Info: PAIRLIST GROW RATE     0.01
Info: PAIRLIST TRIGGER       0.3
Info: PAIRLISTS PER CYCLE    2
Info: PAIRLISTS ENABLED
Info: MARGIN                 2
Info: HYDROGEN GROUP CUTOFF  2.5
Info: PATCH DIMENSION        15.5
Info: ENERGY OUTPUT STEPS    100000
Info: ENERGY EVALUATION STEPS    100000
Info: OUTPUT ENERGY PRECISION 4
Info: CROSSTERM ENERGY INCLUDED IN DIHEDRAL
Info: TIMING OUTPUT STEPS    1000000
Info: PRESSURE OUTPUT STEPS  100000
Info: ALCHEMICAL FEP ON
Info: FEP CURRENT LAMBDA VALUE     1
Info: FEP COMPARISON LAMBDA VALUE  0.95
Info: FEP INTRA-ALCHEMICAL NON-BONDED INTERACTIONS WILL BE RETAINED
Info: FEP INTRA-ALCHEMICAL BONDED INTERACTIONS WILL BE RETAINED
Info: FEP VDW SHIFTING COEFFICIENT 5
Info: FEP ELEC. ACTIVE FOR ANNIHILATED PARTICLES BETWEEN LAMBDA = 0 AND LAMBDA = 0.5
Info: FEP ELEC. ACTIVE FOR EXNIHILATED PARTICLES BETWEEN LAMBDA = 0.5 AND LAMBDA = 1
Info: FEP VDW ACTIVE FOR ANNIHILATED PARTICLES BETWEEN LAMBDA = 0 AND LAMBDA = 1
Info: FEP VDW ACTIVE FOR EXNIHILATED PARTICLES BETWEEN LAMBDA = 0 AND LAMBDA = 1
Info: FEP BOND ACTIVE FOR ANNIHILATED PARTICLES BETWEEN LAMBDA = 1 AND LAMBDA = 1
Info: FEP BOND ACTIVE FOR EXNIHILATED PARTICLES BETWEEN LAMBDA = 0 AND LAMBDA = 0
Info: LANGEVIN DYNAMICS ACTIVE
Info: LANGEVIN TEMPERATURE   300
Info: LANGEVIN USING BBK INTEGRATOR
Info: LANGEVIN DAMPING COEFFICIENT IS 1 INVERSE PS
Info: LANGEVIN DYNAMICS APPLIED TO HYDROGENS
Info: LANGEVIN PISTON PRESSURE CONTROL ACTIVE
Info:        TARGET PRESSURE IS 1.01325 BAR
Info:     OSCILLATION PERIOD IS 50 FS
Info:             DECAY TIME IS 25 FS
Info:     PISTON TEMPERATURE IS 300 K
Info:       PRESSURE CONTROL IS GROUP-BASED
Info:    INITIAL STRAIN RATE IS 0.000435805 0.000435805 0.000435805
Info:       CELL FLUCTUATION IS ISOTROPIC
Info: PARTICLE MESH EWALD (PME) ACTIVE
Info: PME TOLERANCE               1e-06
Info: PME EWALD COEFFICIENT       0.348832
Info: PME INTERPOLATION ORDER     4
Info: PME GRID DIMENSIONS         32 32 32
Info: PME MAXIMUM GRID SPACING    1
Info: PME CALCULATION WILL BE PERFORMED ON GPU
Info: FULL ELECTROSTATIC EVALUATION FREQUENCY      2
Info: USING VERLET I (r-RESPA) MTS SCHEME.
Info: C1 SPLITTING OF LONG RANGE ELECTROSTATICS
Info: PLACING ATOMS IN PATCHES BY HYDROGEN GROUPS
Info: RIGID BONDS TO HYDROGEN : ALL
Info:         ERROR TOLERANCE : 1e-08
Info:          MAX ITERATIONS : 100
Info: RIGID WATER USING SETTLE ALGORITHM
Info: RANDOM NUMBER SEED     1743654639
Info: USE HYDROGEN BONDS?    NO
Info: Using AMBER format force field!
Info: AMBER PARM FILE        mobley_7364468.prmtop
Info: COORDINATE PDB         mobley_7364468.pdb
Info: Exclusions will be read from PARM file!
Info: SCNB (VDW SCALING)     2
Info: USING ARITHMETIC MEAN TO COMBINE L-J SIGMA PARAMETERS
Info: BINARY COORDINATES     mobley_7364468_equil.coor
Info: SUMMARY OF PARAMETERS:
Info: 10 BONDS
Info: 15 ANGLES
Info:   15 HARMONIC
Info:   0 COSINE-BASED
Info: 10 DIHEDRAL
Info: 0 IMPROPER
Info: 0 CROSSTERM
Info: 0 VDW
Info: 28 VDW_PAIRS
Info: 0 NBTHOLE_PAIRS
Info: To read alchdata from file: mobley_7364468.pdb
Info: To read alchflag data from column: 5
Info: STRUCTURE SUMMARY:
Info: 2940 ATOMS
Info: 2940 BONDS
Info: 45 ANGLES
Info: 69 DIHEDRALS
Info: 0 IMPROPERS
Info: 0 CROSSTERMS
Info: 3044 EXCLUSIONS
Info: 2930 RIGID BONDS
Info: ALCH: 0 ATOMS TO DISAPPEAR IN FINAL STATE
Info: ALCH: 24 ATOMS TO APPEAR IN FINAL STATE
Info: 5890 DEGREES OF FREEDOM
Info: 982 HYDROGEN GROUPS
Info: 4 ATOMS IN LARGEST HYDROGEN GROUP
Info: 982 MIGRATION GROUPS
Info: 4 ATOMS IN LARGEST MIGRATION GROUP
Info: TOTAL MASS = 17649.8 amu
Info: TOTAL CHARGE = -3.72529e-08 e
Info: MASS DENSITY = 0.9441 g/cm^3
Info: ATOM DENSITY = 0.0947038 atoms/A^3
Info: ADDED 0 IMPLICIT EXCLUSIONS
Info: NONBONDED TABLE R-SQUARED SPACING: 0.0625
Info: NONBONDED TABLE SIZE: 705 POINTS
Info: REDUCING NUMBER OF PATCHES TO IMPROVE LOAD BALANCE
Info: REMOVING COM VELOCITY -0.00737954 0.0353076 -0.0331761
Info: Use 3D box decompostion in PME FFT.
Info: Updated CUDA force table with 4096 elements.
Info: Updated CUDA LJ table with 7 x 7 elements.
Info: Found 27 unique exclusion lists needing 84 bytes
TCL: Running for 1500000 steps
ETITLE: TS BOND ANGLE DIHED IMPRP ELECT VDW BOUNDARY MISC KINETIC TOTAL TEMP POTENTIAL TOTALAVG TEMPAVG PRESSURE GPRESSURE VOLUME PRESSAVG GPRESSAVG
ENERGY: 0 3.7061 10.5055 4.8593 0.0000 -10419.6850 1293.1514 0.0000 0.0000 1780.1684 -7327.2943 304.1839 -9107.4627 -7327.2943 304.1839 -985.4944 -906.8547 31044.1737 -985.4944 -906.8547
ENERGY: 300000 3.3408 11.4265 4.6426 0.0000 -10798.6303 1474.3569 0.0000 0.0000 1722.3965 -7582.4671 294.3122 -9304.8636 -7418.6805 297.9168 242.8805 406.3591 29863.2559 -362.8550 -249.6431
ENERGY: 600000 1.1018 10.8213 5.2297 0.0000 -10653.7258 1423.1182 0.0000 0.0000 1774.1283 -7439.3265 303.1518 -9213.4548 -7436.1258 298.4532 60.5379 127.4744 30192.5320 -459.2666 -366.8732
ENERGY: 900000 1.8619 14.9389 5.5573 0.0000 -10617.6425 1427.3698 0.0000 0.0000 1795.3270 -7372.5876 306.7741 -9167.9147 -7437.2578 299.1224 126.0975 245.7278 30081.0248 -252.2118 -167.6954
ENERGY: 1200000 2.9543 9.2255 4.8061 0.0000 -10748.0982 1475.7665 0.0000 0.0000 1736.1138 -7519.2319 296.6561 -9255.3457 -7450.4988 298.4074 447.6330 489.0738 29879.5650 -155.6265 -86.5020
ENERGY: 1500000 5.1057 10.8835 5.0836 0.0000 -10611.4810 1377.1958 0.0000 0.0000 1798.0090 -7415.2034 307.2323 -9213.2124 -7448.9112 298.5223 -89.3757 -34.9753 29817.6346 -195.9550 -127.1663
TCL: Running FEP window   2: Lambda1 0.95   Lambda2 0.8999999999999999 [dLambda -0.050000000000000044]
TCL: Setting parameter firsttimestep to 0
TCL: Setting parameter alchLambda to 0.95
Info: NONBONDED TABLE R-SQUARED SPACING: 0.0625
Info: NONBONDED TABLE SIZE: 705 POINTS
TCL: Setting parameter alchLambda2 to 0.8999999999999999
Info: NONBONDED TABLE R-SQUARED SPACING: 0.0625
Info: NONBONDED TABLE SIZE: 705 POINTS
TCL: Running for 1500000 steps
ETITLE: TS BOND ANGLE DIHED IMPRP ELECT VDW BOUNDARY MISC KINETIC TOTAL TEMP POTENTIAL TOTALAVG TEMPAVG PRESSURE GPRESSURE VOLUME PRESSAVG GPRESSAVG
ENERGY: 0 5.1057 10.8835 5.0836 0.0000 -10610.0654 1377.1156 0.0000 0.0000 1797.1566 -7414.7204 307.0867 -9211.8770 -7414.7204 307.0867 -118.1746 -48.1964 29817.6346 -118.1746 -48.1964
ENERGY: 300000 2.2359 13.1637 4.3175 0.0000 -10619.6550 1410.2183 0.0000 0.0000 1689.9031 -7499.8165 288.7599 -9189.7197 -7433.6924 297.5805 -293.9629 -279.4966 30675.8069 36.1829 74.5248
ENERGY: 600000 4.1998 14.2019 3.6435 0.0000 -10695.4916 1481.5122 0.0000 0.0000 1775.7740 -7416.1601 303.4330 -9191.9341 -7445.8066 297.2600 366.4455 394.6114 30558.2690 96.5746 132.6227
ENERGY: 900000 3.5819 9.4520 4.9028 0.0000 -10630.3647 1459.8255 0.0000 0.0000 1725.0101 -7427.5924 294.7588 -9152.6025 -7426.4393 298.9311 168.2411 250.3189 30648.6410 109.1482 160.1561
ENERGY: 1200000 2.6552 10.9504 4.6015 0.0000 -10731.1466 1505.7231 0.0000 0.0000 1740.9752 -7466.2412 297.4868 -9207.2164 -7431.8098 298.9292 792.0752 809.9693 30166.5319 91.2221 138.6310
ENERGY: 1500000 2.4354 7.3043 3.4272 0.0000 -10659.2464 1422.3719 0.0000 0.0000 1700.9372 -7522.7705 290.6453 -9223.7077 -7433.2350 298.2246 172.5483 190.4271 29962.0089 25.4470 76.5507
TCL: Running FEP window   3: Lambda1 0.8999999999999999 Lambda2 0.8499999999999999 [dLambda -0.050000000000000044]
TCL: Setting parameter firsttimestep to 0
TCL: Setting parameter alchLambda to 0.8999999999999999
Info: NONBONDED TABLE R-SQUARED SPACING: 0.0625
Info: NONBONDED TABLE SIZE: 705 POINTS
TCL: Setting parameter alchLambda2 to 0.8499999999999999
Info: NONBONDED TABLE R-SQUARED SPACING: 0.0625
Info: NONBONDED TABLE SIZE: 705 POINTS
TCL: Running for 1500000 steps
ETITLE: TS BOND ANGLE DIHED IMPRP ELECT VDW BOUNDARY MISC KINETIC TOTAL TEMP POTENTIAL TOTALAVG TEMPAVG PRESSURE GPRESSURE VOLUME PRESSAVG GPRESSAVG
ENERGY: 0 2.4354 7.3043 3.4272 0.0000 -10658.5669 1422.9281 0.0000 0.0000 1700.0272 -7522.4447 290.4899 -9222.4719 -7522.4447 290.4899 115.6177 182.6539 29962.0089 115.6177 182.6539
ENERGY: 300000 3.3795 13.9244 6.2874 0.0000 -10578.5322 1382.1805 0.0000 0.0000 1794.3885 -7378.3720 306.6137 -9172.7604 -7457.7054 298.4267 -193.9677 -96.4391 30081.3139 233.7188 300.3099
ENERGY: 600000 6.5930 8.2475 5.6377 0.0000 -10597.1697 1440.7424 0.0000 0.0000 1736.3822 -7399.5668 296.7020 -9135.9491 -7415.6120 299.6050 61.7583 123.3391 30692.0150 116.1447 184.1307
ENERGY: 900000 5.7274 10.2936 7.5661 0.0000 -10505.7077 1359.3515 0.0000 0.0000 1737.5359 -7385.2332 296.8991 -9122.7691 -7412.7988 298.6246 -317.9122 -256.7017 30473.5863 82.5463 152.5904
ENERGY: 1200000 3.4783 11.1777 3.0510 0.0000 -10602.9350 1414.2122 0.0000 0.0000 1767.5217 -7403.4942 302.0229 -9171.0158 -7414.2735 299.0047 -111.2364 -1.9874 30410.9938 94.0749 161.8941
ENERGY: 1500000 5.4789 11.4725 8.5085 0.0000 -10610.6188 1431.6275 0.0000 0.0000 1806.6853 -7346.8460 308.7149 -9153.5314 -7413.8953 298.8275 262.3198 312.3387 30118.9205 82.1183 148.9351
TCL: Running FEP window   4: Lambda1 0.8499999999999999 Lambda2 0.7999999999999998 [dLambda -0.050000000000000044]
TCL: Setting parameter firsttimestep to 0
TCL: Setting parameter alchLambda to 0.8499999999999999
Info: NONBONDED TABLE R-SQUARED SPACING: 0.0625
Info: NONBONDED TABLE SIZE: 705 POINTS
TCL: Setting parameter alchLambda2 to 0.7999999999999998
Info: NONBONDED TABLE R-SQUARED SPACING: 0.0625
Info: NONBONDED TABLE SIZE: 705 POINTS
TCL: Running for 1500000 steps
ETITLE: TS BOND ANGLE DIHED IMPRP ELECT VDW BOUNDARY MISC KINETIC TOTAL TEMP POTENTIAL TOTALAVG TEMPAVG PRESSURE GPRESSURE VOLUME PRESSAVG GPRESSAVG
ENERGY: 0 5.4789 11.4725 8.5085 0.0000 -10609.8655 1432.2615 0.0000 0.0000 1805.8335 -7346.3106 308.5694 -9152.1442 -7346.3106 308.5694 236.0754 309.6067 30118.9205 236.0754 309.6067
ENERGY: 300000 5.5604 8.7715 4.3049 0.0000 -10582.6908 1356.2473 0.0000 0.0000 1747.0704 -7460.7363 298.5283 -9207.8067 -7422.7552 301.9021 -493.3774 -442.7540 30189.8020 175.9877 250.8151
ENERGY: 600000 4.4254 10.9409 7.6079 0.0000 -10721.0371 1466.9124 0.0000 0.0000 1758.7129 -7472.4376 300.5177 -9231.1505 -7429.1631 301.1274 74.6728 150.9740 30335.4117 140.6469 210.4173
ENERGY: 900000 3.2509 7.4947 3.6814 0.0000 -10676.6610 1437.9256 0.0000 0.0000 1728.1465 -7496.1619 295.2947 -9224.3084 -7448.1582 299.1177 -80.5789 -18.3357 30273.5623 114.8175 178.1812
ENERGY: 1200000 3.2477 16.6061 6.5182 0.0000 -10688.3472 1473.7214 0.0000 0.0000 1695.3781 -7492.8757 289.6954 -9188.2538 -7448.0094 298.3026 161.6939 237.2343 30385.4151 96.3140 158.7608
ENERGY: 1500000 2.1671 8.9370 6.0103 0.0000 -10647.0169 1433.5592 0.0000 0.0000 1786.2037 -7410.1396 305.2151 -9196.3433 -7453.6167 297.9364 -41.2223 -10.8761 30497.5981 63.2526 118.7081
TCL: Running FEP window   5: Lambda1 0.7999999999999998 Lambda2 0.7499999999999998 [dLambda -0.050000000000000044]
TCL: Setting parameter firsttimestep to 0
TCL: Setting parameter alchLambda to 0.7999999999999998
Info: NONBONDED TABLE R-SQUARED SPACING: 0.0625
Info: NONBONDED TABLE SIZE: 705 POINTS
TCL: Setting parameter alchLambda2 to 0.7499999999999998
Info: NONBONDED TABLE R-SQUARED SPACING: 0.0625
Info: NONBONDED TABLE SIZE: 705 POINTS
TCL: Running for 1500000 steps
ETITLE: TS BOND ANGLE DIHED IMPRP ELECT VDW BOUNDARY MISC KINETIC TOTAL TEMP POTENTIAL TOTALAVG TEMPAVG PRESSURE GPRESSURE VOLUME PRESSAVG GPRESSAVG
ENERGY: 0 2.1671 8.9370 6.0103 0.0000 -10645.5836 1434.1528 0.0000 0.0000 1785.3468 -7408.9696 305.0687 -9194.3164 -7408.9696 305.0687 -100.8988 -9.9546 30497.5981 -100.8988 -9.9546
ENERGY: 300000 3.8586 11.8398 4.7890 0.0000 -10614.9639 1418.6171 0.0000 0.0000 1769.4007 -7406.4587 302.3440 -9175.8594 -7400.5765 302.8324 -0.1029 62.2279 30071.4255 -85.3736 -15.2599
ENERGY: 600000 3.2395 8.6732 5.6080 0.0000 -10762.9321 1458.8437 0.0000 0.0000 1786.6538 -7499.9139 305.2920 -9286.5677 -7424.1873 301.1455 -170.9366 -67.0363 30176.8540 -44.9170 27.0753
ENERGY: 900000 4.4654 10.7519 6.3479 0.0000 -10722.4872 1525.7917 0.0000 0.0000 1760.9319 -7414.1982 300.8969 -9175.1302 -7425.1931 301.0028 611.3793 662.3460 30637.2627 -0.2942 75.9596
ENERGY: 1200000 2.9711 10.4228 3.3166 0.0000 -10565.4175 1387.5358 0.0000 0.0000 1768.8434 -7392.3278 302.2487 -9161.1713 -7412.9150 301.5491 -337.1871 -270.6887 30487.2680 -45.8192 19.2829
ENERGY: 1500000 2.2509 8.2220 3.4346 0.0000 -10599.8516 1461.5505 0.0000 0.0000 1751.6635 -7372.7302 299.3131 -9124.3937 -7412.6379 300.9214 717.7706 767.3903 30034.4289 -10.1269 53.2179
TCL: Running FEP window   6: Lambda1 0.7499999999999998 Lambda2 0.6999999999999997 [dLambda -0.050000000000000044]
TCL: Setting parameter firsttimestep to 0
TCL: Setting parameter alchLambda to 0.7499999999999998
Info: NONBONDED TABLE R-SQUARED SPACING: 0.0625
Info: NONBONDED TABLE SIZE: 705 POINTS
TCL: Setting parameter alchLambda2 to 0.6999999999999997
Info: NONBONDED TABLE R-SQUARED SPACING: 0.0625
Info: NONBONDED TABLE SIZE: 705 POINTS
TCL: Running for 1500000 steps
ETITLE: TS BOND ANGLE DIHED IMPRP ELECT VDW BOUNDARY MISC KINETIC TOTAL TEMP POTENTIAL TOTALAVG TEMPAVG PRESSURE GPRESSURE VOLUME PRESSAVG GPRESSAVG
ENERGY: 0 2.2509 8.2219 3.4346 0.0000 -10599.2449 1461.5055 0.0000 0.0000 1750.8130 -7373.0190 299.1678 -9123.8321 -7373.0190 299.1678 677.2537 758.1858 30034.4289 677.2537 758.1858
ENERGY: 300000 3.3694 7.8479 5.1389 0.0000 -10731.2240 1459.6765 0.0000 0.0000 1771.2555 -7483.9357 302.6609 -9255.1912 -7436.0480 302.6883 27.2717 86.3444 30483.4120 105.3995 182.7745
ENERGY: 600000 1.9768 12.1748 4.5636 0.0000 -10668.5680 1439.4384 0.0000 0.0000 1837.2091 -7373.2053 313.9306 -9210.4144 -7422.8419 303.1798 169.2375 218.9093 30278.0282 5.2074 84.8667
ENERGY: 900000 4.3216 10.4218 5.7577 0.0000 -10660.8756 1419.2178 0.0000 0.0000 1805.2596 -7415.8972 308.4713 -9221.1568 -7418.8797 303.3971 -209.7295 -110.1168 30134.0163 -116.4598 -39.4889
ENERGY: 1200000 3.7189 18.4235 3.9051 0.0000 -10620.9434 1430.6414 0.0000 0.0000 1826.9730 -7337.2814 312.1815 -9164.2544 -7415.0228 303.5530 64.3258 98.2931 30312.5397 -108.4362 -43.7866
ENERGY: 1500000 5.6384 12.1367 4.0187 0.0000 -10597.5554 1469.9514 0.0000 0.0000 1782.3223 -7323.4880 304.5519 -9105.8103 -7416.5897 303.1928 789.0810 813.6709 30167.2412 -109.4805 -46.1305
TCL: Running FEP window   7: Lambda1 0.6999999999999997 Lambda2 0.6499999999999997 [dLambda -0.050000000000000044]
TCL: Setting parameter firsttimestep to 0
TCL: Setting parameter alchLambda to 0.6999999999999997
Info: NONBONDED TABLE R-SQUARED SPACING: 0.0625
Info: NONBONDED TABLE SIZE: 705 POINTS
TCL: Setting parameter alchLambda2 to 0.6499999999999997
Info: NONBONDED TABLE R-SQUARED SPACING: 0.0625
Info: NONBONDED TABLE SIZE: 705 POINTS
TCL: Running for 1500000 steps
ETITLE: TS BOND ANGLE DIHED IMPRP ELECT VDW BOUNDARY MISC KINETIC TOTAL TEMP POTENTIAL TOTALAVG TEMPAVG PRESSURE GPRESSURE VOLUME PRESSAVG GPRESSAVG
ENERGY: 0 5.6384 12.1367 4.0187 0.0000 -10596.1771 1470.3671 0.0000 0.0000 1781.4352 -7322.5810 304.4003 -9104.0162 -7322.5810 304.4003 734.9753 808.7001 30167.2412 734.9753 808.7001
ENERGY: 300000 1.4193 9.9441 4.7165 0.0000 -10688.5019 1466.7157 0.0000 0.0000 1786.2217 -7419.4846 305.2182 -9205.7063 -7411.5778 301.5984 365.0251 444.4538 30073.8914 401.1047 447.9727
ENERGY: 600000 5.2654 10.0163 4.8401 0.0000 -10548.7408 1403.6370 0.0000 0.0000 1729.3760 -7395.6061 295.5048 -9124.9820 -7411.3574 300.1836 -30.5732 49.9603 30020.8841 138.8531 202.5736
ENERGY: 900000 2.3635 12.2293 3.8558 0.0000 -10610.4083 1401.2896 0.0000 0.0000 1727.3258 -7463.3443 295.1545 -9190.6701 -7411.5929 301.2557 -393.1266 -281.8400 30466.8187 -116.7089 -43.1150
ENERGY: 1200000 5.1612 12.1249 5.7023 0.0000 -10649.6549 1512.8787 0.0000 0.0000 1723.1164 -7390.6713 294.4352 -9113.7877 -7403.2618 301.1115 696.3498 751.4916 30203.3321 -43.7877 27.9878
ENERGY: 1500000 4.2719 9.6502 5.1749 0.0000 -10664.1078 1389.6288 0.0000 0.0000 1726.3502 -7529.0319 294.9878 -9255.3821 -7409.6597 301.1308 -528.1601 -464.2488 30097.4849 -47.4510 22.5433
TCL: Running FEP window   8: Lambda1 0.6499999999999997 Lambda2 0.5999999999999996 [dLambda -0.050000000000000044]
TCL: Setting parameter firsttimestep to 0
TCL: Setting parameter alchLambda to 0.6499999999999997
Info: NONBONDED TABLE R-SQUARED SPACING: 0.0625
Info: NONBONDED TABLE SIZE: 705 POINTS
TCL: Setting parameter alchLambda2 to 0.5999999999999996
Info: NONBONDED TABLE R-SQUARED SPACING: 0.0625
Info: NONBONDED TABLE SIZE: 705 POINTS
TCL: Running for 1500000 steps
ETITLE: TS BOND ANGLE DIHED IMPRP ELECT VDW BOUNDARY MISC KINETIC TOTAL TEMP POTENTIAL TOTALAVG TEMPAVG PRESSURE GPRESSURE VOLUME PRESSAVG GPRESSAVG
ENERGY: 0 4.2719 9.6502 5.1749 0.0000 -10663.0653 1389.4356 0.0000 0.0000 1725.4699 -7529.0629 294.8373 -9254.5328 -7529.0629 294.8373 -563.9932 -475.1250 30097.4849 -563.9932 -475.1250
ENERGY: 300000 3.6980 12.5884 3.9022 0.0000 -10578.0850 1430.1527 0.0000 0.0000 1761.2859 -7366.4578 300.9574 -9127.7438 -7397.2491 301.6485 339.7823 324.6412 29982.9615 147.6646 184.2128
ENERGY: 600000 6.5194 12.7488 6.4232 0.0000 -10611.0870 1374.8498 0.0000 0.0000 1808.6824 -7401.8634 309.0562 -9210.5458 -7404.8324 301.6903 -699.1124 -522.2264 30520.0384 -133.4335 -73.4438
ENERGY: 900000 2.1415 11.0782 3.8115 0.0000 -10659.2664 1507.7421 0.0000 0.0000 1792.4537 -7342.0395 306.2831 -9134.4932 -7397.7692 302.9554 761.7653 923.7627 29972.8188 -4.8492 66.6091
ENERGY: 1200000 3.0509 9.4759 4.7694 0.0000 -10864.8998 1539.8365 0.0000 0.0000 1788.7961 -7518.9710 305.6581 -9307.7671 -7411.5856 302.2906 779.1878 875.2999 29352.8001 66.3455 140.4781
ENERGY: 1500000 1.6864 10.5949 5.1482 0.0000 -10518.8487 1322.5112 0.0000 0.0000 1696.5131 -7482.3950 289.8894 -9178.9081 -7418.9089 301.3830 -1082.2244 -1083.1849 30616.2097 -15.7078 54.8953
TCL: Running FEP window   9: Lambda1 0.5999999999999996 Lambda2 0.5499999999999996 [dLambda -0.050000000000000044]
TCL: Setting parameter firsttimestep to 0
TCL: Setting parameter alchLambda to 0.5999999999999996
Info: NONBONDED TABLE R-SQUARED SPACING: 0.0625
Info: NONBONDED TABLE SIZE: 705 POINTS
TCL: Setting parameter alchLambda2 to 0.5499999999999996
Info: NONBONDED TABLE R-SQUARED SPACING: 0.0625
Info: NONBONDED TABLE SIZE: 705 POINTS
TCL: Running for 1500000 steps
ETITLE: TS BOND ANGLE DIHED IMPRP ELECT VDW BOUNDARY MISC KINETIC TOTAL TEMP POTENTIAL TOTALAVG TEMPAVG PRESSURE GPRESSURE VOLUME PRESSAVG GPRESSAVG
ENERGY: 0 1.6864 10.5949 5.1482 0.0000 -10518.5864 1323.1690 0.0000 0.0000 1695.6679 -7482.3200 289.7450 -9177.9879 -7482.3200 289.7450 -1164.4227 -1082.9774 30616.2097 -1164.4227 -1082.9774
ENERGY: 300000 4.8875 12.9372 3.3377 0.0000 -10693.6176 1460.7151 0.0000 0.0000 1763.8210 -7447.9191 301.3905 -9211.7401 -7460.3185 297.8108 505.9118 528.7065 29568.7363 21.0228 80.9626
ENERGY: 600000 3.3977 9.0150 4.7191 0.0000 -10631.6919 1421.4653 0.0000 0.0000 1776.1639 -7416.9309 303.4996 -9193.0948 -7443.9697 298.8287 16.9643 45.4065 30092.4086 6.3581 66.1542
ENERGY: 900000 2.1016 12.7918 4.3767 0.0000 -10644.8467 1401.1936 0.0000 0.0000 1752.4186 -7471.9644 299.4422 -9224.3829 -7454.0863 299.1777 -296.2311 -238.9550 30307.2391 108.7276 175.0765
ENERGY: 1200000 3.0711 9.3087 5.9158 0.0000 -10673.7377 1402.6918 0.0000 0.0000 1735.9933 -7516.7570 296.6355 -9252.7503 -7452.1017 298.4783 -379.4973 -358.3758 30323.4671 -20.7258 38.3250
ENERGY: 1500000 5.9591 10.9824 5.7010 0.0000 -10783.4027 1454.6475 0.0000 0.0000 1742.6198 -7563.4930 297.7678 -9306.1127 -7461.6543 298.1008 55.0617 108.4561 29456.5644 -4.6518 56.0023
TCL: Running FEP window  10: Lambda1 0.5499999999999996 Lambda2 0.4999999999999996 [dLambda -0.04999999999999999]
TCL: Setting parameter firsttimestep to 0
TCL: Setting parameter alchLambda to 0.5499999999999996
Info: NONBONDED TABLE R-SQUARED SPACING: 0.0625
Info: NONBONDED TABLE SIZE: 705 POINTS
TCL: Setting parameter alchLambda2 to 0.4999999999999996
Info: NONBONDED TABLE R-SQUARED SPACING: 0.0625
Info: NONBONDED TABLE SIZE: 705 POINTS
TCL: Running for 1500000 steps
ETITLE: TS BOND ANGLE DIHED IMPRP ELECT VDW BOUNDARY MISC KINETIC TOTAL TEMP POTENTIAL TOTALAVG TEMPAVG PRESSURE GPRESSURE VOLUME PRESSAVG GPRESSAVG
ENERGY: 0 5.9591 10.9824 5.7010 0.0000 -10783.3533 1454.9118 0.0000 0.0000 1741.7655 -7564.0335 297.6218 -9305.7990 -7564.0335 297.6218 8.9779 99.1665 29456.5644 8.9779 99.1665
ENERGY: 300000 3.7928 16.4700 4.7110 0.0000 -10710.9621 1461.1252 0.0000 0.0000 1765.6655 -7459.1976 301.7057 -9224.8631 -7411.6185 301.9787 54.7881 62.8725 30252.3576 194.5517 258.8505
ENERGY: 600000 5.2541 6.5052 3.8157 0.0000 -10712.6270 1464.4221 0.0000 0.0000 1682.9004 -7549.7295 287.5633 -9232.6298 -7453.4638 298.5971 73.5620 129.9115 29817.8058 161.1976 231.9621
ENERGY: 900000 2.6406 11.5087 4.5567 0.0000 -10687.0196 1443.6066 0.0000 0.0000 1763.8785 -7460.8285 301.4004 -9224.7070 -7443.9280 300.9107 138.6918 124.9092 30041.5044 175.7320 230.2613
ENERGY: 1200000 6.2344 7.9588 6.4915 0.0000 -10813.3792 1507.4015 0.0000 0.0000 1820.2042 -7465.0887 311.0249 -9285.2929 -7444.6631 301.0777 310.1935 375.2729 30157.2884 190.7667 252.3480
ENERGY: 1500000 2.8124 11.5882 4.5694 0.0000 -10526.2047 1305.7675 0.0000 0.0000 1747.7336 -7453.7337 298.6416 -9201.4672 -7447.0417 301.2316 -950.5163 -883.7075 30128.5373 117.5436 178.9729
TCL: Running FEP window  11: Lambda1 0.4999999999999996 Lambda2 0.4499999999999996 [dLambda -0.04999999999999999]
TCL: Setting parameter firsttimestep to 0
TCL: Setting parameter alchLambda to 0.4999999999999996
Info: NONBONDED TABLE R-SQUARED SPACING: 0.0625
Info: NONBONDED TABLE SIZE: 705 POINTS
TCL: Setting parameter alchLambda2 to 0.4499999999999996
Info: NONBONDED TABLE R-SQUARED SPACING: 0.0625
Info: NONBONDED TABLE SIZE: 705 POINTS
TCL: Running for 1500000 steps
ETITLE: TS BOND ANGLE DIHED IMPRP ELECT VDW BOUNDARY MISC KINETIC TOTAL TEMP POTENTIAL TOTALAVG TEMPAVG PRESSURE GPRESSURE VOLUME PRESSAVG GPRESSAVG
ENERGY: 0 2.8124 11.5882 4.5694 0.0000 -10526.0863 1306.1650 0.0000 0.0000 1746.8306 -7454.1207 298.4873 -9200.9513 -7454.1207 298.4873 -958.2683 -887.1877 30128.5373 -958.2683 -887.1877
ENERGY: 300000 2.4563 13.4949 6.5932 0.0000 -10522.1576 1340.8433 0.0000 0.0000 1757.4689 -7401.3009 300.3051 -9158.7698 -7396.4810 300.3159 -550.2139 -503.9383 30083.1139 -448.2317 -387.5563
ENERGY: 600000 4.2596 12.8686 4.7480 0.0000 -10646.8153 1453.6627 0.0000 0.0000 1799.8493 -7371.4271 307.5468 -9171.2764 -7422.9518 300.6796 402.6854 490.8666 29979.0353 -322.7755 -256.5703
ENERGY: 900000 3.8615 6.3562 7.3770 0.0000 -10631.9183 1435.8704 0.0000 0.0000 1714.1114 -7464.3417 292.8965 -9178.4532 -7429.5110 300.1767 -56.3316 -26.3366 30030.1431 -273.2841 -209.3259
ENERGY: 1200000 1.2789 14.5262 4.7788 0.0000 -10744.8415 1522.7755 0.0000 0.0000 1816.1886 -7385.2935 310.3388 -9201.4821 -7421.9978 300.9677 1019.1050 1101.1007 29849.9526 -132.6242 -65.3300
ENERGY: 1500000 1.8609 12.4944 3.2519 0.0000 -10713.2669 1450.6982 0.0000 0.0000 1722.0084 -7522.9532 294.2459 -9244.9616 -7430.0509 300.5209 24.9157 14.7888 30129.8619 -135.9201 -72.6520
TCL: Running FEP window  12: Lambda1 0.4499999999999996 Lambda2 0.39999999999999963 [dLambda -0.04999999999999999]
TCL: Setting parameter firsttimestep to 0
TCL: Setting parameter alchLambda to 0.4499999999999996
Info: NONBONDED TABLE R-SQUARED SPACING: 0.0625
Info: NONBONDED TABLE SIZE: 705 POINTS
TCL: Setting parameter alchLambda2 to 0.39999999999999963
Info: NONBONDED TABLE R-SQUARED SPACING: 0.0625
Info: NONBONDED TABLE SIZE: 705 POINTS
TCL: Running for 1500000 steps
ETITLE: TS BOND ANGLE DIHED IMPRP ELECT VDW BOUNDARY MISC KINETIC TOTAL TEMP POTENTIAL TOTALAVG TEMPAVG PRESSURE GPRESSURE VOLUME PRESSAVG GPRESSAVG
ENERGY: 0 1.8609 12.4944 3.2519 0.0000 -10713.2665 1450.5925 0.0000 0.0000 1721.1067 -7523.9602 294.0918 -9245.0669 -7523.9602 294.0918 -88.2671 4.1273 30129.8619 -88.2671 4.1273
ENERGY: 300000 2.0998 15.2106 3.8978 0.0000 -10529.7423 1410.9315 0.0000 0.0000 1743.3538 -7354.2488 297.8932 -9097.6026 -7421.3093 298.0645 -153.4838 -31.8544 30576.9415 -314.4083 -225.9919
ENERGY: 600000 3.1973 8.8755 6.5257 0.0000 -10575.7294 1425.1230 0.0000 0.0000 1777.5983 -7354.4096 303.7447 -9132.0079 -7413.4822 299.3462 323.4797 329.0475 30117.1795 -74.1339 -12.3144
ENERGY: 900000 2.0930 14.0261 4.7107 0.0000 -10860.6940 1500.0854 0.0000 0.0000 1761.7811 -7577.9978 301.0420 -9339.7789 -7446.5969 298.1062 -16.7887 123.2902 29983.3120 -37.7244 24.6299
ENERGY: 1200000 3.4294 9.8745 5.9050 0.0000 -10485.2574 1286.8955 0.0000 0.0000 1739.2824 -7439.8705 297.1975 -9179.1529 -7452.5766 297.2799 -1015.8619 -947.2640 30394.9120 -225.6860 -163.8797
ENERGY: 1500000 3.9608 6.8443 5.8180 0.0000 -10498.5387 1353.1503 0.0000 0.0000 1857.8935 -7270.8719 317.4650 -9128.7654 -7435.9893 298.9291 -642.3635 -596.8539 30709.6095 -266.9330 -209.5993
TCL: Running FEP window  13: Lambda1 0.39999999999999963 Lambda2 0.34999999999999964 [dLambda -0.04999999999999999]
TCL: Setting parameter firsttimestep to 0
TCL: Setting parameter alchLambda to 0.39999999999999963
Info: NONBONDED TABLE R-SQUARED SPACING: 0.0625
Info: NONBONDED TABLE SIZE: 705 POINTS
TCL: Setting parameter alchLambda2 to 0.34999999999999964
Info: NONBONDED TABLE R-SQUARED SPACING: 0.0625
Info: NONBONDED TABLE SIZE: 705 POINTS
TCL: Running for 1500000 steps
ETITLE: TS BOND ANGLE DIHED IMPRP ELECT VDW BOUNDARY MISC KINETIC TOTAL TEMP POTENTIAL TOTALAVG TEMPAVG PRESSURE GPRESSURE VOLUME PRESSAVG GPRESSAVG
ENERGY: 0 3.9608 6.8443 5.8180 0.0000 -10498.5393 1353.7019 0.0000 0.0000 1857.0323 -7271.1820 317.3179 -9128.2143 -7271.1820 317.3179 -686.0748 -598.8811 30709.6095 -686.0748 -598.8811
ENERGY: 300000 3.4661 14.7586 5.0282 0.0000 -10487.9730 1273.8213 0.0000 0.0000 1701.8237 -7489.0752 290.7968 -9190.8989 -7428.1535 301.7207 -1314.9354 -1279.2521 30451.3022 -478.2409 -390.9712
ENERGY: 600000 7.4593 8.8934 3.3781 0.0000 -10448.4750 1316.0366 0.0000 0.0000 1779.5858 -7333.1218 304.0843 -9112.7076 -7427.9562 300.7182 -951.9771 -841.1127 30452.4540 -405.5604 -324.8760
ENERGY: 900000 2.7282 11.3946 4.5103 0.0000 -10787.7562 1509.5394 0.0000 0.0000 1717.8498 -7541.7338 293.5353 -9259.5836 -7424.3274 300.9665 140.2278 216.8804 30411.0608 -289.0501 -217.2815
ENERGY: 1200000 4.9850 10.1079 3.7795 0.0000 -10636.7718 1393.8601 0.0000 0.0000 1764.2190 -7459.8204 301.4585 -9224.0394 -7419.6231 301.8307 -356.6999 -322.8511 30131.5335 -267.4245 -198.5632
ENERGY: 1500000 4.0848 18.0826 5.2033 0.0000 -10636.9577 1470.2000 0.0000 0.0000 1733.8936 -7405.4935 296.2767 -9139.3871 -7420.3991 300.8468 -65.4033 -21.7468 30682.1997 -286.7579 -216.6659
TCL: Running FEP window  14: Lambda1 0.34999999999999964 Lambda2 0.29999999999999966 [dLambda -0.04999999999999999]
TCL: Setting parameter firsttimestep to 0
TCL: Setting parameter alchLambda to 0.34999999999999964
Info: NONBONDED TABLE R-SQUARED SPACING: 0.0625
Info: NONBONDED TABLE SIZE: 705 POINTS
TCL: Setting parameter alchLambda2 to 0.29999999999999966
Info: NONBONDED TABLE R-SQUARED SPACING: 0.0625
Info: NONBONDED TABLE SIZE: 705 POINTS
TCL: Running for 1500000 steps
ETITLE: TS BOND ANGLE DIHED IMPRP ELECT VDW BOUNDARY MISC KINETIC TOTAL TEMP POTENTIAL TOTALAVG TEMPAVG PRESSURE GPRESSURE VOLUME PRESSAVG GPRESSAVG
ENERGY: 0 4.0848 18.0826 5.2033 0.0000 -10636.9591 1470.6525 0.0000 0.0000 1733.0752 -7405.8607 296.1369 -9138.9359 -7405.8607 296.1369 -96.2649 -25.1074 30682.1997 -96.2649 -25.1074
ENERGY: 300000 2.2503 14.7767 4.1491 0.0000 -10584.1929 1333.7109 0.0000 0.0000 1764.7713 -7464.5346 301.5529 -9229.3058 -7414.5553 299.8751 -948.7892 -829.5515 30071.4782 -430.2242 -339.9120
ENERGY: 600000 4.0709 13.9755 3.7580 0.0000 -10577.3276 1327.7429 0.0000 0.0000 1789.3524 -7438.4279 305.7532 -9227.7803 -7394.9275 301.1597 -709.9375 -648.0682 30007.0316 -422.4859 -350.1348
ENERGY: 900000 6.0258 8.8964 4.0381 0.0000 -10636.3204 1414.7611 0.0000 0.0000 1783.5631 -7419.0357 304.7639 -9202.5988 -7397.4672 301.0262 -272.8550 -208.6570 30402.7099 -396.9704 -337.0144
ENERGY: 1200000 4.0502 10.3498 4.7791 0.0000 -10609.3019 1369.7306 0.0000 0.0000 1828.7668 -7391.6255 312.4880 -9220.3922 -7398.4677 301.9509 -688.8288 -617.5948 30233.0563 -328.8083 -271.8042
ENERGY: 1500000 2.8278 13.2504 6.4536 0.0000 -10507.8009 1358.3601 0.0000 0.0000 1775.9573 -7350.9517 303.4643 -9126.9090 -7396.6080 302.1053 -336.0564 -317.2278 30180.7158 -360.0008 -305.6844
TCL: Running FEP window  15: Lambda1 0.29999999999999966 Lambda2 0.24999999999999967 [dLambda -0.04999999999999999]
TCL: Setting parameter firsttimestep to 0
TCL: Setting parameter alchLambda to 0.29999999999999966
Info: NONBONDED TABLE R-SQUARED SPACING: 0.0625
Info: NONBONDED TABLE SIZE: 705 POINTS
TCL: Setting parameter alchLambda2 to 0.24999999999999967
Info: NONBONDED TABLE R-SQUARED SPACING: 0.0625
Info: NONBONDED TABLE SIZE: 705 POINTS
TCL: Running for 1500000 steps
ETITLE: TS BOND ANGLE DIHED IMPRP ELECT VDW BOUNDARY MISC KINETIC TOTAL TEMP POTENTIAL TOTALAVG TEMPAVG PRESSURE GPRESSURE VOLUME PRESSAVG GPRESSAVG
ENERGY: 0 2.8278 13.2504 6.4536 0.0000 -10507.8015 1358.4266 0.0000 0.0000 1775.0779 -7351.7654 303.3140 -9126.8432 -7351.7654 303.3140 -404.2159 -322.4193 30180.7158 -404.2159 -322.4193
ENERGY: 300000 3.4047 9.1202 6.0534 0.0000 -10649.0904 1472.6669 0.0000 0.0000 1763.9570 -7393.8881 301.4138 -9157.8451 -7411.7928 302.0794 244.7934 413.1839 30300.9146 -3.5494 64.7785
ENERGY: 600000 7.6128 7.3353 4.2014 0.0000 -10574.5422 1410.5567 0.0000 0.0000 1783.6269 -7361.2091 304.7748 -9144.8361 -7420.4879 300.7226 -359.8281 -324.9882 30410.9601 -97.6881 -28.1855
ENERGY: 900000 3.4817 9.2571 4.5250 0.0000 -10636.0896 1390.5718 0.0000 0.0000 1762.0204 -7466.2336 301.0828 -9228.2539 -7412.5723 301.2973 -112.8088 -46.0846 29580.3090 -247.5848 -184.3464
ENERGY: 1200000 3.1392 10.9717 7.7463 0.0000 -10516.3548 1421.2519 0.0000 0.0000 1752.4475 -7320.7981 299.4471 -9073.2456 -7402.0189 300.2014 190.4661 248.3723 30361.2873 -190.0135 -133.8340
ENERGY: 1500000 3.4276 10.1141 6.4332 0.0000 -10699.7801 1500.3368 0.0000 0.0000 1751.2778 -7428.1906 299.2472 -9179.4685 -7409.2300 300.5063 533.5111 605.9989 30132.6177 -160.5725 -102.2164
TCL: Running FEP window  16: Lambda1 0.24999999999999967 Lambda2 0.19999999999999968 [dLambda -0.04999999999999999]
TCL: Setting parameter firsttimestep to 0
TCL: Setting parameter alchLambda to 0.24999999999999967
Info: NONBONDED TABLE R-SQUARED SPACING: 0.0625
Info: NONBONDED TABLE SIZE: 705 POINTS
TCL: Setting parameter alchLambda2 to 0.19999999999999968
Info: NONBONDED TABLE R-SQUARED SPACING: 0.0625
Info: NONBONDED TABLE SIZE: 705 POINTS
TCL: Running for 1500000 steps
ETITLE: TS BOND ANGLE DIHED IMPRP ELECT VDW BOUNDARY MISC KINETIC TOTAL TEMP POTENTIAL TOTALAVG TEMPAVG PRESSURE GPRESSURE VOLUME PRESSAVG GPRESSAVG
ENERGY: 0 3.4276 10.1140 6.4332 0.0000 -10699.7795 1501.0060 0.0000 0.0000 1750.4192 -7428.3794 299.1005 -9178.7986 -7428.3794 299.1005 522.3148 604.8703 30132.6177 522.3148 604.8703
ENERGY: 300000 5.3164 9.6852 4.2350 0.0000 -10554.9515 1398.5759 0.0000 0.0000 1769.1415 -7367.9974 302.2997 -9137.1389 -7418.2796 298.6702 -504.3639 -459.8782 30484.9405 162.8663 234.2773
ENERGY: 600000 4.8308 15.6749 4.6363 0.0000 -10588.3154 1329.2622 0.0000 0.0000 1686.3952 -7547.5160 288.1605 -9233.9112 -7424.0101 298.9018 -1141.6639 -1096.3185 30238.5353 -98.8349 -26.5752
ENERGY: 900000 1.8420 10.1408 6.3084 0.0000 -10612.0474 1449.3524 0.0000 0.0000 1798.3884 -7346.0155 307.2972 -9144.4038 -7419.2748 299.9232 272.9971 305.0783 30355.4204 -79.0662 -16.7384
ENERGY: 1200000 4.1932 10.1981 3.7682 0.0000 -10544.9059 1416.2473 0.0000 0.0000 1717.2584 -7393.2407 293.4342 -9110.4991 -7411.5632 298.8381 34.8789 107.4586 29991.1943 -106.2460 -42.1861
ENERGY: 1500000 3.0599 12.3516 5.6790 0.0000 -10634.4632 1440.3664 0.0000 0.0000 1739.5938 -7433.4126 297.2507 -9173.0064 -7413.7660 298.1652 -76.3032 -24.4433 30330.6273 -35.2742 20.2385
TCL: Running FEP window  17: Lambda1 0.19999999999999968 Lambda2 0.1499999999999997 [dLambda -0.04999999999999999]
TCL: Setting parameter firsttimestep to 0
TCL: Setting parameter alchLambda to 0.19999999999999968
Info: NONBONDED TABLE R-SQUARED SPACING: 0.0625
Info: NONBONDED TABLE SIZE: 705 POINTS
TCL: Setting parameter alchLambda2 to 0.1499999999999997
Info: NONBONDED TABLE R-SQUARED SPACING: 0.0625
Info: NONBONDED TABLE SIZE: 705 POINTS
TCL: Running for 1500000 steps
ETITLE: TS BOND ANGLE DIHED IMPRP ELECT VDW BOUNDARY MISC KINETIC TOTAL TEMP POTENTIAL TOTALAVG TEMPAVG PRESSURE GPRESSURE VOLUME PRESSAVG GPRESSAVG
ENERGY: 0 3.0599 12.3516 5.6790 0.0000 -10634.4626 1439.5541 0.0000 0.0000 1738.7332 -7435.0850 297.1037 -9173.8181 -7435.0850 297.1037 -117.4206 -35.2416 30330.6273 -117.4206 -35.2416
ENERGY: 300000 2.7859 7.4561 3.7386 0.0000 -10649.5307 1456.1778 0.0000 0.0000 1733.8372 -7445.5351 296.2671 -9179.3723 -7450.6384 298.6258 39.9506 91.6754 30529.6278 -399.3044 -349.5186
ENERGY: 600000 0.9631 9.3388 4.9178 0.0000 -10715.0534 1460.3201 0.0000 0.0000 1728.2201 -7511.2935 295.3073 -9239.5136 -7456.7628 298.6640 171.5748 248.2997 30114.7684 -149.9053 -87.6461
ENERGY: 900000 4.8730 12.9890 4.0502 0.0000 -10625.7447 1422.1639 0.0000 0.0000 1684.1637 -7497.5049 287.7792 -9181.6686 -7450.2272 298.4074 -141.9719 -82.0247 30448.9030 -221.1296 -167.1784
ENERGY: 1200000 6.4125 14.6929 4.0277 0.0000 -10654.5545 1452.4327 0.0000 0.0000 1786.1608 -7390.8279 305.2078 -9176.9887 -7431.7959 300.0115 127.1423 139.2623 30373.6908 -183.4070 -133.7598
ENERGY: 1500000 2.4766 11.1429 3.9377 0.0000 -10659.4855 1402.9872 0.0000 0.0000 1791.2261 -7447.7150 306.0733 -9238.9411 -7436.7508 299.7861 -269.8470 -175.6800 29916.7541 -196.5285 -137.1417
TCL: Running FEP window  18: Lambda1 0.1499999999999997 Lambda2 0.09999999999999969 [dLambda -0.05 ]
TCL: Setting parameter firsttimestep to 0
TCL: Setting parameter alchLambda to 0.1499999999999997
Info: NONBONDED TABLE R-SQUARED SPACING: 0.0625
Info: NONBONDED TABLE SIZE: 705 POINTS
TCL: Setting parameter alchLambda2 to 0.09999999999999969
Info: NONBONDED TABLE R-SQUARED SPACING: 0.0625
Info: NONBONDED TABLE SIZE: 705 POINTS
TCL: Running for 1500000 steps
ETITLE: TS BOND ANGLE DIHED IMPRP ELECT VDW BOUNDARY MISC KINETIC TOTAL TEMP POTENTIAL TOTALAVG TEMPAVG PRESSURE GPRESSURE VOLUME PRESSAVG GPRESSAVG
ENERGY: 0 2.4766 11.1429 3.9377 0.0000 -10659.4855 1402.9921 0.0000 0.0000 1790.3488 -7448.5873 305.9234 -9238.9362 -7448.5873 305.9234 -269.3180 -180.7877 29916.7541 -269.3180 -180.7877
ENERGY: 300000 4.1595 11.8439 5.8989 0.0000 -10510.8743 1303.7961 0.0000 0.0000 1793.4165 -7391.7594 306.4476 -9185.1759 -7428.9959 300.2257 -1256.9282 -1231.2550 30380.9049 -210.0371 -165.4477
ENERGY: 600000 4.8504 16.7624 5.8646 0.0000 -10525.0754 1342.6959 0.0000 0.0000 1716.4584 -7438.4436 293.2975 -9154.9019 -7432.0669 299.0995 -803.0211 -774.4755 30370.1421 -126.7878 -87.7355
ENERGY: 900000 2.0223 11.8249 4.9424 0.0000 -10689.1010 1472.5013 0.0000 0.0000 1667.1180 -7530.6920 284.8665 -9197.8101 -7442.3966 296.9166 402.0408 500.2167 29805.1669 23.5390 77.7325
ENERGY: 1200000 4.0341 12.6691 4.3818 0.0000 -10525.2617 1414.9023 0.0000 0.0000 1761.7217 -7327.5526 301.0318 -9089.2743 -7411.3275 298.3805 308.5654 359.1353 30052.6325 -58.9152 -10.0645
ENERGY: 1500000 1.5078 7.8811 6.3325 0.0000 -10734.6607 1463.0251 0.0000 0.0000 1692.2687 -7563.6456 289.1641 -9255.9142 -7421.0521 298.6555 94.3915 194.8940 29944.5522 58.9679 110.4099
TCL: Running FEP window  19: Lambda1 0.09999999999999969 Lambda2 0.049999999999999684 [dLambda -0.05 ]
TCL: Setting parameter firsttimestep to 0
TCL: Setting parameter alchLambda to 0.09999999999999969
Info: NONBONDED TABLE R-SQUARED SPACING: 0.0625
Info: NONBONDED TABLE SIZE: 705 POINTS
TCL: Setting parameter alchLambda2 to 0.049999999999999684
Info: NONBONDED TABLE R-SQUARED SPACING: 0.0625
Info: NONBONDED TABLE SIZE: 705 POINTS
TCL: Running for 1500000 steps
ETITLE: TS BOND ANGLE DIHED IMPRP ELECT VDW BOUNDARY MISC KINETIC TOTAL TEMP POTENTIAL TOTALAVG TEMPAVG PRESSURE GPRESSURE VOLUME PRESSAVG GPRESSAVG
ENERGY: 0 1.5078 7.8811 6.3325 0.0000 -10734.6598 1462.7169 0.0000 0.0000 1691.3891 -7564.8324 289.0138 -9256.2215 -7564.8324 289.0138 97.8780 188.9780 29944.5522 97.8780 188.9780
ENERGY: 300000 1.6614 8.0958 6.4964 0.0000 -10570.7386 1385.7242 0.0000 0.0000 1792.6732 -7376.0877 306.3206 -9168.7609 -7483.5280 295.0737 -70.1021 6.9086 29705.4183 -101.1998 -27.3797
ENERGY: 600000 3.1315 12.2327 3.8590 0.0000 -10692.3608 1475.8633 0.0000 0.0000 1796.5619 -7400.7124 306.9851 -9197.2743 -7444.4610 297.5849 345.5461 411.0791 29945.3832 -126.0459 -60.2828
ENERGY: 900000 9.1114 10.7645 7.0663 0.0000 -10605.9773 1388.9951 0.0000 0.0000 1776.2465 -7413.7935 303.5137 -9190.0400 -7440.1082 298.4061 -637.3698 -652.5895 30407.6414 -185.8696 -119.1413
ENERGY: 1200000 1.6146 13.1341 4.3392 0.0000 -10698.3364 1468.0612 0.0000 0.0000 1764.2075 -7446.9799 301.4566 -9211.1874 -7450.9658 298.8977 352.1851 394.4413 30216.6086 -70.1139 -10.7233
ENERGY: 1500000 5.8382 12.5785 9.3627 0.0000 -10537.6214 1407.8532 0.0000 0.0000 1756.6973 -7345.2915 300.1733 -9101.9888 -7445.3825 299.0511 -208.8390 -136.4151 30387.0059 -91.6445 -25.5748
TCL: Running FEP window  20: Lambda1 0.049999999999999684 Lambda2 0.0    [dLambda -0.049999999999999684]
TCL: Setting parameter firsttimestep to 0
TCL: Setting parameter alchLambda to 0.049999999999999684
Info: NONBONDED TABLE R-SQUARED SPACING: 0.0625
Info: NONBONDED TABLE SIZE: 705 POINTS
TCL: Setting parameter alchLambda2 to 0.0
Info: NONBONDED TABLE R-SQUARED SPACING: 0.0625
Info: NONBONDED TABLE SIZE: 705 POINTS
TCL: Running for 1500000 steps
ETITLE: TS BOND ANGLE DIHED IMPRP ELECT VDW BOUNDARY MISC KINETIC TOTAL TEMP POTENTIAL TOTALAVG TEMPAVG PRESSURE GPRESSURE VOLUME PRESSAVG GPRESSAVG
ENERGY: 0 5.8382 12.5785 9.3627 0.0000 -10537.6210 1408.1130 0.0000 0.0000 1755.8000 -7345.9287 300.0199 -9101.7287 -7345.9287 300.0199 -220.4817 -139.7810 30387.0059 -220.4817 -139.7810
ENERGY: 300000 3.5865 17.8251 3.6813 0.0000 -10690.8873 1499.1572 0.0000 0.0000 1727.4853 -7439.1520 295.1817 -9166.6373 -7407.2642 298.6826 469.1766 465.6151 29991.5073 70.7348 122.6806
ENERGY: 600000 3.3188 10.9516 4.1876 0.0000 -10676.5552 1453.2277 0.0000 0.0000 1713.9046 -7490.9648 292.8611 -9204.8695 -7438.8741 296.6937 245.7344 266.8679 30025.0565 -54.3122 2.7493
ENERGY: 900000 2.1818 8.9419 3.5605 0.0000 -10652.9097 1457.3131 0.0000 0.0000 1695.2115 -7485.7010 289.6670 -9180.9125 -7435.5304 296.6795 48.8342 84.0414 30051.7332 -46.1595 6.2537
ENERGY: 1200000 2.7359 10.8197 5.3381 0.0000 -10704.8833 1488.1376 0.0000 0.0000 1792.4210 -7405.4309 306.2775 -9197.8519 -7438.1712 296.9607 126.1369 221.0066 30435.5121 37.8252 88.8103
ENERGY: 1500000 2.9593 7.5885 4.5171 0.0000 -10569.9301 1445.2593 0.0000 0.0000 1753.2043 -7356.4016 299.5764 -9109.6059 -7433.9056 298.0009 487.0105 558.1229 29835.3716 16.8717 66.7124
TCL: Exiting due to exit command.
