Info: SIMULATION PARAMETERS:
Info: TIMESTEP               2
Info: NUMBER OF STEPS        0
Info: STEPS PER CYCLE        10
Info: PERIODIC CELL BASIS 1  31.5127 0 0
Info: PERIODIC CELL BASIS 2  0 31.4152 0
Info: PERIODIC CELL BASIS 3  0 0 31.2282
Info: PERIODIC CELL CENTER   0 0 0
Info: WRAPPING WATERS AROUND PERIODIC BOUNDARIES ON OUTPUT.
Info: WRAPPING ALL CLUSTERS AROUND PERIODIC BOUNDARIES ON OUTPUT.
Info: FIRST LDB TIMESTEP     50
Info: LAST LDB TIMESTEP     -1
Info: HOM BACKGROUND SCALING 1
Info: PME BACKGROUND SCALING 1
Info: MIN ATOMS PER PATCH    40
Info: EMPTY PATCH LOAD       40 ATOMS
Info: VELOCITY FILE          mobley_1244778_equil.vel
Info: CENTER OF MASS MOVING INITIALLY? NO
Info: DIELECTRIC             1
Info: EXCLUDE                SCALED ONE-FOUR
Info: 1-4 ELECTROSTATICS SCALED BY 0.833333
Info: MODIFIED 1-4 VDW PARAMETERS WILL BE USED
Info: DCD FILENAME           mobley_1244778_prod.dcd
Info: DCD FREQUENCY          100000
Info: DCD FIRST STEP         100000
Info: DCD FILE WILL CONTAIN UNIT CELL DATA
Info: XST FILENAME           mobley_1244778_prod.xst
Info: XST FREQUENCY          100000
Info: NO VELOCITY DCD OUTPUT
Info: NO FORCE DCD OUTPUT
Info: OUTPUT FILENAME        mobley_1244778_prod
Info: BINARY OUTPUT FILES WILL BE USED
Info: RESTART FILENAME       mobley_1244778_prod.restart
Info: RESTART FREQUENCY      100000
Info: BINARY RESTART FILES WILL BE USED
Info: CUTOFF                 9
Info: PAIRLIST DISTANCE      11
Info: PAIRLIST SHRINK RATE   0.01
Info: PAIRLIST GROW RATE     0.01
Info: PAIRLIST TRIGGER       0.3
Info: PAIRLISTS PER CYCLE    2
Info: PAIRLISTS ENABLED
Info: MARGIN                 2
Info: HYDROGEN GROUP CUTOFF  2.5
Info: PATCH DIMENSION        15.5
Info: ENERGY OUTPUT STEPS    100000
Info: ENERGY EVALUATION STEPS    100000
Info: OUTPUT ENERGY PRECISION 4
Info: CROSSTERM ENERGY INCLUDED IN DIHEDRAL
Info: TIMING OUTPUT STEPS    1000000
Info: PRESSURE OUTPUT STEPS  100000
Info: ALCHEMICAL FEP ON
Info: FEP CURRENT LAMBDA VALUE     1
Info: FEP COMPARISON LAMBDA VALUE  0.95
Info: FEP INTRA-ALCHEMICAL NON-BONDED INTERACTIONS WILL BE RETAINED
Info: FEP INTRA-ALCHEMICAL BONDED INTERACTIONS WILL BE RETAINED
Info: FEP VDW SHIFTING COEFFICIENT 5
Info: FEP ELEC. ACTIVE FOR ANNIHILATED PARTICLES BETWEEN LAMBDA = 0 AND LAMBDA = 0.5
Info: FEP ELEC. ACTIVE FOR EXNIHILATED PARTICLES BETWEEN LAMBDA = 0.5 AND LAMBDA = 1
Info: FEP VDW ACTIVE FOR ANNIHILATED PARTICLES BETWEEN LAMBDA = 0 AND LAMBDA = 1
Info: FEP VDW ACTIVE FOR EXNIHILATED PARTICLES BETWEEN LAMBDA = 0 AND LAMBDA = 1
Info: FEP BOND ACTIVE FOR ANNIHILATED PARTICLES BETWEEN LAMBDA = 1 AND LAMBDA = 1
Info: FEP BOND ACTIVE FOR EXNIHILATED PARTICLES BETWEEN LAMBDA = 0 AND LAMBDA = 0
Info: LANGEVIN DYNAMICS ACTIVE
Info: LANGEVIN TEMPERATURE   300
Info: LANGEVIN USING BBK INTEGRATOR
Info: LANGEVIN DAMPING COEFFICIENT IS 1 INVERSE PS
Info: LANGEVIN DYNAMICS APPLIED TO HYDROGENS
Info: LANGEVIN PISTON PRESSURE CONTROL ACTIVE
Info:        TARGET PRESSURE IS 1.01325 BAR
Info:     OSCILLATION PERIOD IS 50 FS
Info:             DECAY TIME IS 25 FS
Info:     PISTON TEMPERATURE IS 300 K
Info:       PRESSURE CONTROL IS GROUP-BASED
Info:    INITIAL STRAIN RATE IS 0.000249813 0.000249813 0.000249813
Info:       CELL FLUCTUATION IS ISOTROPIC
Info: PARTICLE MESH EWALD (PME) ACTIVE
Info: PME TOLERANCE               1e-06
Info: PME EWALD COEFFICIENT       0.348832
Info: PME INTERPOLATION ORDER     4
Info: PME GRID DIMENSIONS         32 32 32
Info: PME MAXIMUM GRID SPACING    1
Info: PME CALCULATION WILL BE PERFORMED ON GPU
Info: FULL ELECTROSTATIC EVALUATION FREQUENCY      2
Info: USING VERLET I (r-RESPA) MTS SCHEME.
Info: C1 SPLITTING OF LONG RANGE ELECTROSTATICS
Info: PLACING ATOMS IN PATCHES BY HYDROGEN GROUPS
Info: RIGID BONDS TO HYDROGEN : ALL
Info:         ERROR TOLERANCE : 1e-08
Info:          MAX ITERATIONS : 100
Info: RIGID WATER USING SETTLE ALGORITHM
Info: RANDOM NUMBER SEED     1743641781
Info: USE HYDROGEN BONDS?    NO
Info: Using AMBER format force field!
Info: AMBER PARM FILE        mobley_1244778.prmtop
Info: COORDINATE PDB         mobley_1244778.pdb
Info: Exclusions will be read from PARM file!
Info: SCNB (VDW SCALING)     2
Info: USING ARITHMETIC MEAN TO COMBINE L-J SIGMA PARAMETERS
Info: BINARY COORDINATES     mobley_1244778_equil.coor
Info: SUMMARY OF PARAMETERS:
Info: 7 BONDS
Info: 7 ANGLES
Info:   7 HARMONIC
Info:   0 COSINE-BASED
Info: 9 DIHEDRAL
Info: 0 IMPROPER
Info: 0 CROSSTERM
Info: 0 VDW
Info: 21 VDW_PAIRS
Info: 0 NBTHOLE_PAIRS
Info: To read alchdata from file: mobley_1244778.pdb
Info: To read alchflag data from column: 5
Info: STRUCTURE SUMMARY:
Info: 2962 ATOMS
Info: 2962 BONDS
Info: 43 ANGLES
Info: 86 DIHEDRALS
Info: 0 IMPROPERS
Info: 0 CROSSTERMS
Info: 3071 EXCLUSIONS
Info: 2954 RIGID BONDS
Info: ALCH: 0 ATOMS TO DISAPPEAR IN FINAL STATE
Info: ALCH: 22 ATOMS TO APPEAR IN FINAL STATE
Info: 5932 DEGREES OF FREEDOM
Info: 988 HYDROGEN GROUPS
Info: 3 ATOMS IN LARGEST HYDROGEN GROUP
Info: 988 MIGRATION GROUPS
Info: 3 ATOMS IN LARGEST MIGRATION GROUP
Info: TOTAL MASS = 17769.9 amu
Info: TOTAL CHARGE = -0.000199964 e
Info: MASS DENSITY = 0.954486 g/cm^3
Info: ATOM DENSITY = 0.0958101 atoms/A^3
Info: ADDED 0 IMPLICIT EXCLUSIONS
Info: NONBONDED TABLE R-SQUARED SPACING: 0.0625
Info: NONBONDED TABLE SIZE: 705 POINTS
Info: REDUCING NUMBER OF PATCHES TO IMPROVE LOAD BALANCE
Info: REMOVING COM VELOCITY 0.0340161 0.0195377 -0.00865353
Info: Use 3D box decompostion in PME FFT.
Info: Updated CUDA force table with 4096 elements.
Info: Updated CUDA LJ table with 6 x 6 elements.
Info: Found 25 unique exclusion lists needing 80 bytes
TCL: Running for 1500000 steps
ETITLE: TS BOND ANGLE DIHED IMPRP ELECT VDW BOUNDARY MISC KINETIC TOTAL TEMP POTENTIAL TOTALAVG TEMPAVG PRESSURE GPRESSURE VOLUME PRESSAVG GPRESSAVG
ENERGY: 0 2.0504 11.8737 8.6598 0.0000 -10711.6235 1492.5685 0.0000 0.0000 1802.6771 -7393.7941 305.8491 -9196.4711 -7393.7941 305.8491 382.0001 455.3758 30915.3112 382.0001 455.3758
ENERGY: 300000 3.7330 18.2139 8.6966 0.0000 -10623.1892 1345.4686 0.0000 0.0000 1736.4538 -7510.6234 294.6134 -9247.0772 -7464.7380 300.0731 -875.1126 -842.4055 30954.0128 -380.3238 -328.6026
ENERGY: 600000 3.3986 14.0454 10.0376 0.0000 -10776.8827 1470.9597 0.0000 0.0000 1723.7155 -7554.7258 292.4522 -9278.4413 -7497.5958 299.6188 390.7450 422.8288 29991.9577 -263.3915 -209.7679
ENERGY: 900000 1.7844 13.6999 10.2848 0.0000 -10838.3708 1563.4141 0.0000 0.0000 1761.2060 -7487.9816 298.8129 -9249.1876 -7502.8361 298.1362 1099.8831 1173.4286 30191.9363 -193.9835 -135.0916
ENERGY: 1200000 3.8511 14.2595 9.4792 0.0000 -10735.2917 1398.2212 0.0000 0.0000 1831.0651 -7478.4156 310.6655 -9309.4807 -7500.5190 299.4394 -560.5055 -499.6106 30338.8911 -203.6917 -145.2120
ENERGY: 1500000 0.6411 9.7810 9.5265 0.0000 -10656.5193 1448.9670 0.0000 0.0000 1778.2850 -7409.3187 301.7106 -9187.6037 -7502.6180 299.3606 112.3719 134.5264 31026.2447 -182.5929 -124.5668
TCL: Running FEP window   2: Lambda1 0.95   Lambda2 0.8999999999999999 [dLambda -0.050000000000000044]
TCL: Setting parameter firsttimestep to 0
TCL: Setting parameter alchLambda to 0.95
Info: NONBONDED TABLE R-SQUARED SPACING: 0.0625
Info: NONBONDED TABLE SIZE: 705 POINTS
TCL: Setting parameter alchLambda2 to 0.8999999999999999
Info: NONBONDED TABLE R-SQUARED SPACING: 0.0625
Info: NONBONDED TABLE SIZE: 705 POINTS
TCL: Running for 1500000 steps
ETITLE: TS BOND ANGLE DIHED IMPRP ELECT VDW BOUNDARY MISC KINETIC TOTAL TEMP POTENTIAL TOTALAVG TEMPAVG PRESSURE GPRESSURE VOLUME PRESSAVG GPRESSAVG
ENERGY: 0 0.6411 9.7810 9.5265 0.0000 -10654.8334 1448.4070 0.0000 0.0000 1777.3875 -7409.0903 301.5584 -9186.4778 -7409.0903 301.5584 22.7439 118.4099 31026.2447 22.7439 118.4099
ENERGY: 300000 1.0941 14.8544 9.6141 0.0000 -10583.0522 1331.9525 0.0000 0.0000 1802.3241 -7423.2129 305.7892 -9225.5370 -7420.1846 303.5893 -866.6139 -765.0386 30785.7553 112.8468 197.4710
ENERGY: 600000 0.8437 14.5656 10.3927 0.0000 -10817.6025 1483.9302 0.0000 0.0000 1728.5449 -7579.3254 293.2715 -9307.8704 -7449.7647 302.1159 201.6652 249.8875 30438.2389 67.9193 137.0792
ENERGY: 900000 1.0809 17.3909 8.5399 0.0000 -10628.2847 1369.4894 0.0000 0.0000 1789.8688 -7441.9148 303.6760 -9231.7836 -7455.3083 303.1944 -493.3735 -447.0696 30590.1462 -15.4134 56.5506
ENERGY: 1200000 2.5169 11.3824 9.0074 0.0000 -10646.8227 1445.7914 0.0000 0.0000 1784.9632 -7393.1615 302.8437 -9178.1247 -7450.9170 303.2861 -39.8039 67.9340 30845.2796 56.3145 128.3258
ENERGY: 1500000 1.9704 12.2469 10.3490 0.0000 -10666.6191 1427.0035 0.0000 0.0000 1762.1249 -7452.9244 298.9688 -9215.0493 -7452.8876 303.0922 -63.7723 -74.1123 31006.0645 88.6553 152.4984
TCL: Running FEP window   3: Lambda1 0.8999999999999999 Lambda2 0.8499999999999999 [dLambda -0.050000000000000044]
TCL: Setting parameter firsttimestep to 0
TCL: Setting parameter alchLambda to 0.8999999999999999
Info: NONBONDED TABLE R-SQUARED SPACING: 0.0625
Info: NONBONDED TABLE SIZE: 705 POINTS
TCL: Setting parameter alchLambda2 to 0.8499999999999999
Info: NONBONDED TABLE R-SQUARED SPACING: 0.0625
Info: NONBONDED TABLE SIZE: 705 POINTS
TCL: Running for 1500000 steps
ETITLE: TS BOND ANGLE DIHED IMPRP ELECT VDW BOUNDARY MISC KINETIC TOTAL TEMP POTENTIAL TOTALAVG TEMPAVG PRESSURE GPRESSURE VOLUME PRESSAVG GPRESSAVG
ENERGY: 0 1.9705 12.2469 10.3490 0.0000 -10665.0662 1426.1759 0.0000 0.0000 1761.2495 -7453.0745 298.8203 -9214.3240 -7453.0745 298.8203 -182.1535 -95.8681 31006.0645 -182.1535 -95.8681
ENERGY: 300000 1.9078 15.1167 9.3496 0.0000 -10725.0342 1473.3729 0.0000 0.0000 1715.9739 -7509.3134 291.1387 -9225.2873 -7513.9541 295.5351 411.8862 453.9095 30077.5160 -1.6809 68.0170
ENERGY: 600000 2.0519 20.0409 10.1256 0.0000 -10728.0986 1415.0918 0.0000 0.0000 1779.9422 -7500.8461 301.9918 -9280.7883 -7484.3002 297.0288 -447.3953 -331.7509 30486.9985 15.8787 84.3408
ENERGY: 900000 0.4369 14.0457 11.0020 0.0000 -10855.1226 1526.1341 0.0000 0.0000 1751.2384 -7552.2655 297.1218 -9303.5039 -7494.1072 295.9891 883.8365 883.2650 29767.1074 173.8184 242.1211
ENERGY: 1200000 3.0955 16.2415 8.5971 0.0000 -10945.3120 1580.2212 0.0000 0.0000 1788.2743 -7548.8823 303.4055 -9337.1567 -7507.5518 295.5145 613.2094 767.2120 30400.0005 212.8156 288.8755
ENERGY: 1500000 1.4026 13.3643 8.1603 0.0000 -10756.2217 1466.6949 0.0000 0.0000 1790.1533 -7476.4462 303.7242 -9266.5995 -7498.7719 297.5440 450.1025 448.7914 30150.1580 130.3788 204.3308
TCL: Running FEP window   4: Lambda1 0.8499999999999999 Lambda2 0.7999999999999998 [dLambda -0.050000000000000044]
TCL: Setting parameter firsttimestep to 0
TCL: Setting parameter alchLambda to 0.8499999999999999
Info: NONBONDED TABLE R-SQUARED SPACING: 0.0625
Info: NONBONDED TABLE SIZE: 705 POINTS
TCL: Setting parameter alchLambda2 to 0.7999999999999998
Info: NONBONDED TABLE R-SQUARED SPACING: 0.0625
Info: NONBONDED TABLE SIZE: 705 POINTS
TCL: Running for 1500000 steps
ETITLE: TS BOND ANGLE DIHED IMPRP ELECT VDW BOUNDARY MISC KINETIC TOTAL TEMP POTENTIAL TOTALAVG TEMPAVG PRESSURE GPRESSURE VOLUME PRESSAVG GPRESSAVG
ENERGY: 0 1.4026 13.3643 8.1603 0.0000 -10754.5427 1466.0990 0.0000 0.0000 1789.2698 -7476.2466 303.5743 -9265.5164 -7476.2466 303.5743 354.2559 433.1382 30150.1580 354.2559 433.1382
ENERGY: 300000 0.2412 12.8358 9.9602 0.0000 -10803.2627 1469.2536 0.0000 0.0000 1795.8830 -7515.0889 304.6964 -9310.9719 -7463.7125 304.6943 201.6436 325.8055 30188.6897 325.3552 384.0376
ENERGY: 600000 3.2517 9.1014 9.6743 0.0000 -10869.9766 1530.4346 0.0000 0.0000 1724.3203 -7593.1942 292.5548 -9317.5146 -7479.8926 301.0982 499.6919 592.9547 30222.8167 150.4906 207.6133
ENERGY: 900000 2.8898 16.6689 9.1365 0.0000 -10653.4014 1411.6224 0.0000 0.0000 1815.7426 -7397.3412 308.0658 -9213.0839 -7472.0357 301.9219 -49.9048 12.3204 30368.6636 59.8422 127.6134
ENERGY: 1200000 2.7000 13.2743 9.3750 0.0000 -10746.5608 1438.7486 0.0000 0.0000 1746.6777 -7535.7851 296.3480 -9282.4628 -7485.8192 300.4894 -120.1159 -140.1586 30534.0031 -23.0147 30.6729
ENERGY: 1500000 3.4578 10.2453 9.2284 0.0000 -10590.9942 1344.9231 0.0000 0.0000 1747.3711 -7475.7684 296.4657 -9223.1395 -7482.0782 301.0261 -758.7320 -731.0881 30978.4252 -62.7376 -7.4392
TCL: Running FEP window   5: Lambda1 0.7999999999999998 Lambda2 0.7499999999999998 [dLambda -0.050000000000000044]
TCL: Setting parameter firsttimestep to 0
TCL: Setting parameter alchLambda to 0.7999999999999998
Info: NONBONDED TABLE R-SQUARED SPACING: 0.0625
Info: NONBONDED TABLE SIZE: 705 POINTS
TCL: Setting parameter alchLambda2 to 0.7499999999999998
Info: NONBONDED TABLE R-SQUARED SPACING: 0.0625
Info: NONBONDED TABLE SIZE: 705 POINTS
TCL: Running for 1500000 steps
ETITLE: TS BOND ANGLE DIHED IMPRP ELECT VDW BOUNDARY MISC KINETIC TOTAL TEMP POTENTIAL TOTALAVG TEMPAVG PRESSURE GPRESSURE VOLUME PRESSAVG GPRESSAVG
ENERGY: 0 3.4578 10.2453 9.2284 0.0000 -10589.3359 1344.8287 0.0000 0.0000 1746.4808 -7475.0949 296.3146 -9221.5756 -7475.0949 296.3146 -806.2494 -738.6883 30978.4252 -806.2494 -738.6883
ENERGY: 300000 2.7565 14.3686 10.1294 0.0000 -10777.4328 1483.1377 0.0000 0.0000 1707.1274 -7559.9133 289.6378 -9267.0407 -7500.4591 296.9547 347.7696 410.5627 30105.6208 21.8142 95.5638
ENERGY: 600000 2.2423 13.4973 9.4193 0.0000 -10865.7484 1512.1561 0.0000 0.0000 1744.6233 -7583.8101 295.9994 -9328.4333 -7500.2576 298.3804 293.7264 363.9423 30483.9119 81.3008 151.0073
ENERGY: 900000 1.0762 13.3277 8.6398 0.0000 -10755.8512 1459.0420 0.0000 0.0000 1746.3260 -7527.4395 296.2883 -9273.7655 -7502.5085 298.0265 361.9132 382.0683 30041.2535 202.7000 267.9326
ENERGY: 1200000 3.0619 13.3361 9.2066 0.0000 -10694.8247 1461.8561 0.0000 0.0000 1733.2007 -7474.1633 294.0615 -9207.3640 -7503.8163 296.8804 186.9086 237.1976 30684.9800 114.6392 172.2404
ENERGY: 1500000 2.5620 10.3628 9.2704 0.0000 -10716.5446 1426.5243 0.0000 0.0000 1766.6747 -7501.1504 299.7408 -9267.8251 -7493.4542 297.7744 -466.9051 -341.5425 30743.0220 30.9710 93.5174
TCL: Running FEP window   6: Lambda1 0.7499999999999998 Lambda2 0.6999999999999997 [dLambda -0.050000000000000044]
TCL: Setting parameter firsttimestep to 0
TCL: Setting parameter alchLambda to 0.7499999999999998
Info: NONBONDED TABLE R-SQUARED SPACING: 0.0625
Info: NONBONDED TABLE SIZE: 705 POINTS
TCL: Setting parameter alchLambda2 to 0.6999999999999997
Info: NONBONDED TABLE R-SQUARED SPACING: 0.0625
Info: NONBONDED TABLE SIZE: 705 POINTS
TCL: Running for 1500000 steps
ETITLE: TS BOND ANGLE DIHED IMPRP ELECT VDW BOUNDARY MISC KINETIC TOTAL TEMP POTENTIAL TOTALAVG TEMPAVG PRESSURE GPRESSURE VOLUME PRESSAVG GPRESSAVG
ENERGY: 0 2.5620 10.3628 9.2704 0.0000 -10715.6879 1426.6035 0.0000 0.0000 1765.7461 -7501.1430 299.5832 -9266.8892 -7501.1430 299.5832 -439.6844 -348.9643 30743.0220 -439.6844 -348.9643
ENERGY: 300000 0.7764 15.5640 9.8773 0.0000 -10710.4298 1417.0059 0.0000 0.0000 1809.8167 -7457.3897 307.0604 -9267.2063 -7478.6056 303.5094 -230.5061 -129.3855 30478.2482 -10.9156 64.2056
ENERGY: 600000 3.3517 16.2213 8.4824 0.0000 -10699.5207 1444.0748 0.0000 0.0000 1780.7406 -7446.6499 302.1273 -9227.3905 -7465.0383 303.7993 98.9710 230.2111 30432.6783 -70.8327 17.3667
ENERGY: 900000 1.7977 14.7435 8.7801 0.0000 -10630.0015 1428.1772 0.0000 0.0000 1801.4528 -7375.0503 305.6414 -9176.5030 -7443.2103 303.1236 15.2650 90.1457 30814.1242 -146.7186 -62.4868
ENERGY: 1200000 1.8871 16.7257 10.0495 0.0000 -10759.7392 1493.1454 0.0000 0.0000 1744.3212 -7493.6103 295.9482 -9237.9315 -7455.7217 302.7060 650.8577 578.4241 30386.5160 -54.9206 13.9033
ENERGY: 1500000 1.3848 11.0868 9.9973 0.0000 -10787.1523 1512.7590 0.0000 0.0000 1765.3426 -7486.5818 299.5148 -9251.9244 -7462.3785 301.9195 257.8378 332.1115 30610.7966 -84.3140 -14.7712
TCL: Running FEP window   7: Lambda1 0.6999999999999997 Lambda2 0.6499999999999997 [dLambda -0.050000000000000044]
TCL: Setting parameter firsttimestep to 0
TCL: Setting parameter alchLambda to 0.6999999999999997
Info: NONBONDED TABLE R-SQUARED SPACING: 0.0625
Info: NONBONDED TABLE SIZE: 705 POINTS
TCL: Setting parameter alchLambda2 to 0.6499999999999997
Info: NONBONDED TABLE R-SQUARED SPACING: 0.0625
Info: NONBONDED TABLE SIZE: 705 POINTS
TCL: Running for 1500000 steps
ETITLE: TS BOND ANGLE DIHED IMPRP ELECT VDW BOUNDARY MISC KINETIC TOTAL TEMP POTENTIAL TOTALAVG TEMPAVG PRESSURE GPRESSURE VOLUME PRESSAVG GPRESSAVG
ENERGY: 0 1.3848 11.0868 9.9973 0.0000 -10785.2089 1512.3546 0.0000 0.0000 1764.4642 -7485.9211 299.3657 -9250.3854 -7485.9211 299.3657 255.2626 323.6757 30610.7966 255.2626 323.6757
ENERGY: 300000 2.8076 12.9006 9.0808 0.0000 -10676.8483 1456.0772 0.0000 0.0000 1765.4972 -7430.4849 299.5410 -9195.9821 -7460.4748 300.3177 178.2148 223.7891 30614.5278 -152.6907 -86.5099
ENERGY: 600000 1.8369 9.3119 9.8696 0.0000 -10730.0968 1452.7380 0.0000 0.0000 1774.7959 -7481.5444 301.1187 -9256.3403 -7465.1156 300.0048 -110.6915 3.4579 30626.9548 -179.9567 -95.2660
ENERGY: 900000 0.9564 10.2214 9.3965 0.0000 -10721.2100 1432.5182 0.0000 0.0000 1732.9071 -7535.2105 294.0116 -9268.1176 -7476.3432 299.4346 -144.2920 -32.8490 30224.0560 -218.3432 -133.0812
ENERGY: 1200000 1.5030 17.4449 8.7202 0.0000 -10712.8569 1387.0089 0.0000 0.0000 1766.2539 -7531.9260 299.6694 -9298.1799 -7481.7878 300.4504 -448.2255 -336.2550 30207.4322 -222.0003 -140.1200
ENERGY: 1500000 1.6903 14.9491 9.7980 0.0000 -10721.4487 1407.6819 0.0000 0.0000 1769.2151 -7518.1143 300.1718 -9287.3294 -7482.6547 300.6036 -356.7256 -340.7007 30393.9224 -166.2599 -95.7472
TCL: Running FEP window   8: Lambda1 0.6499999999999997 Lambda2 0.5999999999999996 [dLambda -0.050000000000000044]
TCL: Setting parameter firsttimestep to 0
TCL: Setting parameter alchLambda to 0.6499999999999997
Info: NONBONDED TABLE R-SQUARED SPACING: 0.0625
Info: NONBONDED TABLE SIZE: 705 POINTS
TCL: Setting parameter alchLambda2 to 0.5999999999999996
Info: NONBONDED TABLE R-SQUARED SPACING: 0.0625
Info: NONBONDED TABLE SIZE: 705 POINTS
TCL: Running for 1500000 steps
ETITLE: TS BOND ANGLE DIHED IMPRP ELECT VDW BOUNDARY MISC KINETIC TOTAL TEMP POTENTIAL TOTALAVG TEMPAVG PRESSURE GPRESSURE VOLUME PRESSAVG GPRESSAVG
ENERGY: 0 1.6903 14.9491 9.7980 0.0000 -10718.7564 1405.6600 0.0000 0.0000 1768.3198 -7518.3393 300.0199 -9286.6591 -7518.3393 300.0199 -443.6140 -361.0779 30393.9224 -443.6140 -361.0779
ENERGY: 300000 3.8517 9.0610 10.7036 0.0000 -10593.4605 1374.9239 0.0000 0.0000 1779.0787 -7415.8416 301.8453 -9194.9204 -7484.3240 298.6237 -553.0750 -444.9901 30687.5620 -146.7446 -69.2386
ENERGY: 600000 1.6991 10.5768 9.6453 0.0000 -10625.4381 1395.3278 0.0000 0.0000 1743.2187 -7464.9704 295.7611 -9208.1892 -7460.6704 301.6040 -281.0236 -268.9339 30661.1426 -232.5053 -167.8540
ENERGY: 900000 2.0929 10.6661 10.6023 0.0000 -10892.6579 1575.4429 0.0000 0.0000 1766.1672 -7527.6865 299.6547 -9293.8536 -7465.8041 301.1579 727.0904 831.7366 30335.7778 -132.4543 -67.9523
ENERGY: 1200000 2.3487 14.2628 11.3215 0.0000 -10696.8937 1445.7235 0.0000 0.0000 1797.2822 -7425.9551 304.9338 -9223.2373 -7461.4216 301.1504 172.5296 271.7171 30068.4159 -166.4076 -100.0066
ENERGY: 1500000 2.7027 12.3624 9.7624 0.0000 -10711.7864 1439.5507 0.0000 0.0000 1802.3657 -7445.0426 305.7962 -9247.4083 -7470.6204 301.0828 -266.6101 -214.6208 30912.8776 -176.7686 -111.7956
TCL: Running FEP window   9: Lambda1 0.5999999999999996 Lambda2 0.5499999999999996 [dLambda -0.050000000000000044]
TCL: Setting parameter firsttimestep to 0
TCL: Setting parameter alchLambda to 0.5999999999999996
Info: NONBONDED TABLE R-SQUARED SPACING: 0.0625
Info: NONBONDED TABLE SIZE: 705 POINTS
TCL: Setting parameter alchLambda2 to 0.5499999999999996
Info: NONBONDED TABLE R-SQUARED SPACING: 0.0625
Info: NONBONDED TABLE SIZE: 705 POINTS
TCL: Running for 1500000 steps
ETITLE: TS BOND ANGLE DIHED IMPRP ELECT VDW BOUNDARY MISC KINETIC TOTAL TEMP POTENTIAL TOTALAVG TEMPAVG PRESSURE GPRESSURE VOLUME PRESSAVG GPRESSAVG
ENERGY: 0 2.7027 12.3624 9.7624 0.0000 -10711.3897 1439.7607 0.0000 0.0000 1801.4499 -7445.3517 305.6409 -9246.8015 -7445.3517 305.6409 -312.5511 -220.9947 30912.8776 -312.5511 -220.9947
ENERGY: 300000 1.2235 13.1936 10.6154 0.0000 -10698.2320 1466.8048 0.0000 0.0000 1781.1396 -7425.2552 302.1949 -9206.3948 -7412.2904 303.1792 421.0484 429.4091 30480.6240 205.0834 243.0347
ENERGY: 600000 2.5167 13.0945 9.3430 0.0000 -10681.2077 1378.4420 0.0000 0.0000 1751.4856 -7526.3261 297.1637 -9277.8116 -7458.7959 301.2085 -400.0375 -396.1519 30364.1829 54.6676 91.3542
ENERGY: 900000 1.5182 12.9596 9.3734 0.0000 -10605.1420 1344.9477 0.0000 0.0000 1734.4633 -7501.8798 294.2757 -9236.3431 -7473.7366 299.5458 -793.4189 -699.5962 30364.3270 -152.5220 -109.6775
ENERGY: 1200000 5.0955 13.4199 10.7299 0.0000 -10517.9208 1300.9462 0.0000 0.0000 1738.9504 -7448.7788 295.0370 -9187.7292 -7464.8519 298.7349 -927.7386 -859.4375 30274.2652 -239.0331 -194.8616
ENERGY: 1500000 1.6644 15.8375 10.6205 0.0000 -10948.6128 1612.7079 0.0000 0.0000 1776.3156 -7531.4669 301.3765 -9307.7825 -7472.3935 299.6172 903.8250 973.3441 30849.7008 -161.2859 -115.7707
TCL: Running FEP window  10: Lambda1 0.5499999999999996 Lambda2 0.4999999999999996 [dLambda -0.04999999999999999]
TCL: Setting parameter firsttimestep to 0
TCL: Setting parameter alchLambda to 0.5499999999999996
Info: NONBONDED TABLE R-SQUARED SPACING: 0.0625
Info: NONBONDED TABLE SIZE: 705 POINTS
TCL: Setting parameter alchLambda2 to 0.4999999999999996
Info: NONBONDED TABLE R-SQUARED SPACING: 0.0625
Info: NONBONDED TABLE SIZE: 705 POINTS
TCL: Running for 1500000 steps
ETITLE: TS BOND ANGLE DIHED IMPRP ELECT VDW BOUNDARY MISC KINETIC TOTAL TEMP POTENTIAL TOTALAVG TEMPAVG PRESSURE GPRESSURE VOLUME PRESSAVG GPRESSAVG
ENERGY: 0 1.6644 15.8375 10.6205 0.0000 -10947.6598 1612.3799 0.0000 0.0000 1775.4282 -7531.7293 301.2259 -9307.1575 -7531.7293 301.2259 878.4553 968.7057 30849.7008 878.4553 968.7057
ENERGY: 300000 2.1680 9.8550 9.2652 0.0000 -10586.6000 1370.4218 0.0000 0.0000 1778.8048 -7416.0852 301.7988 -9194.8900 -7478.6310 301.5210 -533.7206 -411.2928 30728.8024 -72.4682 30.1074
ENERGY: 600000 2.3021 7.7977 9.6968 0.0000 -10672.5228 1390.7600 0.0000 0.0000 1772.4197 -7489.5465 300.7155 -9261.9662 -7472.8372 300.8664 -703.3571 -705.7379 30855.9103 -100.5600 -21.2493
ENERGY: 900000 3.6366 10.3997 10.4317 0.0000 -10866.3558 1467.7386 0.0000 0.0000 1777.2213 -7596.9278 301.5302 -9374.1491 -7475.6965 301.6523 17.5091 78.1548 30113.1881 -41.5430 37.3546
ENERGY: 1200000 3.3301 10.1021 9.2513 0.0000 -10656.4149 1420.5987 0.0000 0.0000 1761.6631 -7451.4697 298.8905 -9213.1328 -7460.3582 301.5944 -8.9345 67.1809 30282.1367 -194.5827 -120.3301
ENERGY: 1500000 4.2707 10.5964 9.6821 0.0000 -10673.4104 1395.9785 0.0000 0.0000 1753.8706 -7499.0121 297.5684 -9252.8827 -7458.7597 301.1215 -366.8549 -265.1770 30296.8812 -208.8053 -139.8991
TCL: Running FEP window  11: Lambda1 0.4999999999999996 Lambda2 0.4499999999999996 [dLambda -0.04999999999999999]
TCL: Setting parameter firsttimestep to 0
TCL: Setting parameter alchLambda to 0.4999999999999996
Info: NONBONDED TABLE R-SQUARED SPACING: 0.0625
Info: NONBONDED TABLE SIZE: 705 POINTS
TCL: Setting parameter alchLambda2 to 0.4499999999999996
Info: NONBONDED TABLE R-SQUARED SPACING: 0.0625
Info: NONBONDED TABLE SIZE: 705 POINTS
TCL: Running for 1500000 steps
ETITLE: TS BOND ANGLE DIHED IMPRP ELECT VDW BOUNDARY MISC KINETIC TOTAL TEMP POTENTIAL TOTALAVG TEMPAVG PRESSURE GPRESSURE VOLUME PRESSAVG GPRESSAVG
ENERGY: 0 4.2707 10.5964 9.6821 0.0000 -10673.0075 1396.5750 0.0000 0.0000 1753.0182 -7498.8650 297.4238 -9251.8832 -7498.8650 297.4238 -361.5671 -266.4857 30296.8812 -361.5671 -266.4857
ENERGY: 300000 1.2881 17.1349 9.1938 0.0000 -10852.1939 1515.5434 0.0000 0.0000 1689.0852 -7619.9485 286.5766 -9309.0337 -7517.1939 293.6466 554.5778 624.7799 29932.4876 -70.4061 21.7140
ENERGY: 600000 1.9092 10.1364 11.3869 0.0000 -10747.3775 1450.2585 0.0000 0.0000 1781.9683 -7491.7182 302.3356 -9273.6866 -7511.3986 296.2925 8.8949 51.5234 30215.8219 60.3244 134.9138
ENERGY: 900000 2.5190 16.1284 9.3457 0.0000 -10842.5818 1541.5791 0.0000 0.0000 1798.1408 -7474.8688 305.0794 -9273.0096 -7512.6389 298.1223 567.7444 675.1180 30609.2561 16.8264 89.4162
ENERGY: 1200000 2.8020 19.5360 9.6216 0.0000 -10816.8924 1459.5671 0.0000 0.0000 1845.5086 -7479.8570 313.1160 -9325.3656 -7494.7158 300.1761 13.0286 103.0484 30068.2094 35.9565 116.0563
ENERGY: 1500000 1.6554 10.9946 9.4108 0.0000 -10585.4410 1366.4047 0.0000 0.0000 1763.9152 -7433.0603 299.2726 -9196.9755 -7485.5992 300.0410 -488.8285 -422.2269 30352.5647 77.3995 153.6752
TCL: Running FEP window  12: Lambda1 0.4499999999999996 Lambda2 0.39999999999999963 [dLambda -0.04999999999999999]
TCL: Setting parameter firsttimestep to 0
TCL: Setting parameter alchLambda to 0.4499999999999996
Info: NONBONDED TABLE R-SQUARED SPACING: 0.0625
Info: NONBONDED TABLE SIZE: 705 POINTS
TCL: Setting parameter alchLambda2 to 0.39999999999999963
Info: NONBONDED TABLE R-SQUARED SPACING: 0.0625
Info: NONBONDED TABLE SIZE: 705 POINTS
TCL: Running for 1500000 steps
ETITLE: TS BOND ANGLE DIHED IMPRP ELECT VDW BOUNDARY MISC KINETIC TOTAL TEMP POTENTIAL TOTALAVG TEMPAVG PRESSURE GPRESSURE VOLUME PRESSAVG GPRESSAVG
ENERGY: 0 1.6554 10.9946 9.4108 0.0000 -10585.4397 1366.6935 0.0000 0.0000 1763.0260 -7433.6595 299.1217 -9196.6855 -7433.6595 299.1217 -522.9084 -426.9860 30352.5647 -522.9084 -426.9860
ENERGY: 300000 5.1806 11.0495 11.5649 0.0000 -10707.4862 1446.5773 0.0000 0.0000 1764.4332 -7468.6807 299.3605 -9233.1139 -7452.9945 300.4260 215.5637 179.1451 30318.3942 -343.1444 -300.5341
ENERGY: 600000 4.3526 12.7599 8.7561 0.0000 -10795.7055 1497.3327 0.0000 0.0000 1693.1582 -7579.3461 287.2677 -9272.5042 -7482.1724 297.6459 203.7803 251.2713 30328.6416 -136.6893 -93.2452
ENERGY: 900000 2.1827 12.9314 9.7966 0.0000 -10629.5831 1450.8393 0.0000 0.0000 1724.0867 -7429.7465 292.5151 -9153.8332 -7465.5183 297.0518 259.0066 314.0668 30206.0590 -167.2420 -121.8471
ENERGY: 1200000 2.4147 11.7686 10.2438 0.0000 -10697.7510 1453.9054 0.0000 0.0000 1784.5478 -7434.8708 302.7732 -9219.4186 -7465.9788 296.8455 198.3569 237.1090 30170.9065 -267.0227 -220.8761
ENERGY: 1500000 2.8218 11.1613 8.7355 0.0000 -10737.0726 1441.5148 0.0000 0.0000 1792.9004 -7479.9388 304.1903 -9272.8392 -7472.0831 297.5565 39.1214 125.8278 30312.8383 -239.9135 -187.4482
TCL: Running FEP window  13: Lambda1 0.39999999999999963 Lambda2 0.34999999999999964 [dLambda -0.04999999999999999]
TCL: Setting parameter firsttimestep to 0
TCL: Setting parameter alchLambda to 0.39999999999999963
Info: NONBONDED TABLE R-SQUARED SPACING: 0.0625
Info: NONBONDED TABLE SIZE: 705 POINTS
TCL: Setting parameter alchLambda2 to 0.34999999999999964
Info: NONBONDED TABLE R-SQUARED SPACING: 0.0625
Info: NONBONDED TABLE SIZE: 705 POINTS
TCL: Running for 1500000 steps
ETITLE: TS BOND ANGLE DIHED IMPRP ELECT VDW BOUNDARY MISC KINETIC TOTAL TEMP POTENTIAL TOTALAVG TEMPAVG PRESSURE GPRESSURE VOLUME PRESSAVG GPRESSAVG
ENERGY: 0 2.8218 11.1613 8.7355 0.0000 -10737.0721 1440.7500 0.0000 0.0000 1792.0388 -7481.5648 304.0441 -9273.6036 -7481.5648 304.0441 27.4599 112.6978 30312.8383 27.4599 112.6978
ENERGY: 300000 2.7888 15.5208 8.7148 0.0000 -10771.8520 1456.5453 0.0000 0.0000 1772.3949 -7515.8874 300.7113 -9288.2823 -7498.8179 303.0509 238.9159 309.1513 30093.1405 27.3321 60.5081
ENERGY: 600000 2.4113 11.8834 9.8990 0.0000 -10609.5407 1381.6931 0.0000 0.0000 1830.8313 -7372.8225 310.6258 -9203.6538 -7463.5193 302.5158 -365.2502 -325.0792 30495.9125 -88.1390 -60.4617
ENERGY: 900000 2.4391 11.7352 8.9185 0.0000 -10559.8283 1409.5382 0.0000 0.0000 1805.8201 -7321.3771 306.3823 -9127.1973 -7453.2603 302.5452 6.7828 90.4680 30792.2741 -70.7154 -32.1830
ENERGY: 1200000 5.7880 10.8432 9.7253 0.0000 -10594.4061 1340.7185 0.0000 0.0000 1822.7444 -7404.5868 309.2538 -9227.3311 -7454.8114 302.9665 -676.3331 -600.9619 30478.9972 -86.5619 -41.1812
ENERGY: 1500000 1.8469 13.4100 9.9571 0.0000 -10655.9556 1378.3693 0.0000 0.0000 1809.9314 -7442.4410 307.0799 -9252.3724 -7457.1362 302.6139 -329.0208 -322.5535 30357.8073 -49.9106 -1.6314
TCL: Running FEP window  14: Lambda1 0.34999999999999964 Lambda2 0.29999999999999966 [dLambda -0.04999999999999999]
TCL: Setting parameter firsttimestep to 0
TCL: Setting parameter alchLambda to 0.34999999999999964
Info: NONBONDED TABLE R-SQUARED SPACING: 0.0625
Info: NONBONDED TABLE SIZE: 705 POINTS
TCL: Setting parameter alchLambda2 to 0.29999999999999966
Info: NONBONDED TABLE R-SQUARED SPACING: 0.0625
Info: NONBONDED TABLE SIZE: 705 POINTS
TCL: Running for 1500000 steps
ETITLE: TS BOND ANGLE DIHED IMPRP ELECT VDW BOUNDARY MISC KINETIC TOTAL TEMP POTENTIAL TOTALAVG TEMPAVG PRESSURE GPRESSURE VOLUME PRESSAVG GPRESSAVG
ENERGY: 0 1.8468 13.4100 9.9571 0.0000 -10655.9554 1377.5273 0.0000 0.0000 1809.0665 -7444.1477 306.9331 -9253.2142 -7444.1477 306.9331 -415.9093 -333.5578 30357.8073 -415.9093 -333.5578
ENERGY: 300000 2.9975 11.1466 10.1800 0.0000 -10699.3093 1411.0128 0.0000 0.0000 1825.9357 -7438.0366 309.7952 -9263.9723 -7467.2289 304.8314 -471.5470 -428.2847 30770.8559 -80.6813 -7.0748
ENERGY: 600000 1.8641 10.2123 8.7717 0.0000 -10605.1137 1401.8592 0.0000 0.0000 1689.7189 -7492.6875 286.6842 -9182.4064 -7487.1284 300.5884 -250.4772 -182.1554 30645.0497 -113.9283 -57.4452
ENERGY: 900000 1.8952 5.5693 10.5610 0.0000 -10562.4263 1335.2837 0.0000 0.0000 1761.5211 -7447.5960 298.8664 -9209.1170 -7462.6478 300.0537 -512.3137 -505.1042 29943.4916 -175.2323 -113.0337
ENERGY: 1200000 2.3984 10.2894 10.6126 0.0000 -10505.2443 1322.8314 0.0000 0.0000 1791.1308 -7367.9816 303.8901 -9159.1124 -7453.6186 300.8269 -893.3615 -808.3425 30503.3097 -190.6999 -128.0833
ENERGY: 1500000 4.0665 13.0542 10.4811 0.0000 -10745.5177 1436.1670 0.0000 0.0000 1770.3718 -7511.3771 300.3680 -9281.7489 -7460.8467 299.9830 -142.9747 -133.3875 30303.0984 -199.4771 -143.7086
TCL: Running FEP window  15: Lambda1 0.29999999999999966 Lambda2 0.24999999999999967 [dLambda -0.04999999999999999]
TCL: Setting parameter firsttimestep to 0
TCL: Setting parameter alchLambda to 0.29999999999999966
Info: NONBONDED TABLE R-SQUARED SPACING: 0.0625
Info: NONBONDED TABLE SIZE: 705 POINTS
TCL: Setting parameter alchLambda2 to 0.24999999999999967
Info: NONBONDED TABLE R-SQUARED SPACING: 0.0625
Info: NONBONDED TABLE SIZE: 705 POINTS
TCL: Running for 1500000 steps
ETITLE: TS BOND ANGLE DIHED IMPRP ELECT VDW BOUNDARY MISC KINETIC TOTAL TEMP POTENTIAL TOTALAVG TEMPAVG PRESSURE GPRESSURE VOLUME PRESSAVG GPRESSAVG
ENERGY: 0 4.0665 13.0542 10.4811 0.0000 -10745.5186 1436.1981 0.0000 0.0000 1769.4765 -7512.2422 300.2161 -9281.7187 -7512.2422 300.2161 -228.4706 -141.0773 30303.0984 -228.4706 -141.0773
ENERGY: 300000 2.2418 14.4011 8.7234 0.0000 -10738.0288 1410.3239 0.0000 0.0000 1752.0946 -7550.2440 297.2671 -9302.3386 -7507.9473 300.3452 -355.1842 -337.0401 30247.9671 -43.7324 -9.4389
ENERGY: 600000 2.8304 20.2675 8.2744 0.0000 -10821.9018 1579.9744 0.0000 0.0000 1732.0474 -7478.5078 293.8658 -9210.5552 -7474.0757 300.0438 1182.9695 1229.9493 30351.3247 92.6054 125.8440
ENERGY: 900000 4.3944 13.3384 11.5951 0.0000 -10734.3834 1464.1599 0.0000 0.0000 1789.1872 -7451.7084 303.5603 -9240.8956 -7465.9291 301.6468 328.6582 400.3911 29829.0530 -69.3602 -25.3992
ENERGY: 1200000 2.0048 16.6098 9.2161 0.0000 -10641.0619 1385.9237 0.0000 0.0000 1795.4411 -7431.8665 304.6214 -9227.3076 -7469.8916 301.4766 -465.9842 -359.8559 30305.9734 -107.9916 -60.2127
ENERGY: 1500000 1.5085 11.9528 8.6218 0.0000 -10613.8360 1388.2624 0.0000 0.0000 1725.8633 -7477.6271 292.8166 -9203.4904 -7471.8444 300.9794 -324.6377 -243.1349 30330.3688 -110.9859 -62.7604
TCL: Running FEP window  16: Lambda1 0.24999999999999967 Lambda2 0.19999999999999968 [dLambda -0.04999999999999999]
TCL: Setting parameter firsttimestep to 0
TCL: Setting parameter alchLambda to 0.24999999999999967
Info: NONBONDED TABLE R-SQUARED SPACING: 0.0625
Info: NONBONDED TABLE SIZE: 705 POINTS
TCL: Setting parameter alchLambda2 to 0.19999999999999968
Info: NONBONDED TABLE R-SQUARED SPACING: 0.0625
Info: NONBONDED TABLE SIZE: 705 POINTS
TCL: Running for 1500000 steps
ETITLE: TS BOND ANGLE DIHED IMPRP ELECT VDW BOUNDARY MISC KINETIC TOTAL TEMP POTENTIAL TOTALAVG TEMPAVG PRESSURE GPRESSURE VOLUME PRESSAVG GPRESSAVG
ENERGY: 0 1.5085 11.9528 8.6218 0.0000 -10613.8355 1388.2243 0.0000 0.0000 1724.9772 -7478.5508 292.6662 -9203.5280 -7478.5508 292.6662 -340.1215 -250.0741 30330.3688 -340.1215 -250.0741
ENERGY: 300000 1.4835 13.0031 10.8472 0.0000 -10843.1860 1518.1286 0.0000 0.0000 1786.5542 -7513.1694 303.1136 -9299.7236 -7476.8392 300.4379 555.8796 545.9691 30029.4391 283.3837 339.5014
ENERGY: 600000 0.9120 13.6172 9.4680 0.0000 -10610.5395 1397.1180 0.0000 0.0000 1784.5052 -7404.9191 302.7660 -9189.4244 -7484.8821 300.2960 -255.7722 -151.3947 30334.6022 259.0862 319.7865
ENERGY: 900000 3.1555 11.0405 10.0898 0.0000 -10729.8746 1438.3712 0.0000 0.0000 1809.9385 -7457.2790 307.0811 -9267.2175 -7481.5223 300.4859 -4.6223 -14.8053 30315.0579 229.9339 277.9572
ENERGY: 1200000 1.2267 12.6674 9.5612 0.0000 -10568.3684 1306.8754 0.0000 0.0000 1776.8449 -7461.1929 301.4663 -9238.0378 -7475.7025 300.4591 -1112.9067 -1079.9254 30690.2909 0.6755 43.9388
ENERGY: 1500000 2.1012 14.7898 9.0872 0.0000 -10771.4736 1467.5155 0.0000 0.0000 1776.6650 -7501.3149 301.4358 -9277.9799 -7474.3085 300.8083 170.6898 208.1611 30072.4059 50.3705 92.7925
TCL: Running FEP window  17: Lambda1 0.19999999999999968 Lambda2 0.1499999999999997 [dLambda -0.04999999999999999]
TCL: Setting parameter firsttimestep to 0
TCL: Setting parameter alchLambda to 0.19999999999999968
Info: NONBONDED TABLE R-SQUARED SPACING: 0.0625
Info: NONBONDED TABLE SIZE: 705 POINTS
TCL: Setting parameter alchLambda2 to 0.1499999999999997
Info: NONBONDED TABLE R-SQUARED SPACING: 0.0625
Info: NONBONDED TABLE SIZE: 705 POINTS
TCL: Running for 1500000 steps
ETITLE: TS BOND ANGLE DIHED IMPRP ELECT VDW BOUNDARY MISC KINETIC TOTAL TEMP POTENTIAL TOTALAVG TEMPAVG PRESSURE GPRESSURE VOLUME PRESSAVG GPRESSAVG
ENERGY: 0 2.1012 14.7898 9.0872 0.0000 -10771.4733 1467.7728 0.0000 0.0000 1775.7599 -7501.9623 301.2822 -9277.7222 -7501.9623 301.2822 136.8450 205.7695 30072.4059 136.8450 205.7695
ENERGY: 300000 2.6825 7.8068 9.9985 0.0000 -10724.7928 1440.3004 0.0000 0.0000 1741.2066 -7522.7980 295.4198 -9264.0046 -7471.0941 301.7787 192.1038 209.6138 29826.7821 27.6551 48.1847
ENERGY: 600000 1.5678 9.1518 9.8852 0.0000 -10716.0651 1452.3564 0.0000 0.0000 1780.8667 -7462.2372 302.1487 -9243.1040 -7474.5106 301.4906 69.8078 172.7698 30259.5831 83.4922 109.7762
ENERGY: 900000 2.9540 12.6618 9.3895 0.0000 -10871.0147 1613.9517 0.0000 0.0000 1732.2422 -7499.8154 293.8988 -9232.0577 -7470.7825 300.5296 1572.3687 1576.0449 29787.0820 225.6926 261.3261
ENERGY: 1200000 2.8549 14.0531 10.2873 0.0000 -10647.3383 1439.8232 0.0000 0.0000 1702.6896 -7477.6301 288.8848 -9180.3198 -7464.5672 300.2697 -1.5322 83.0042 30332.3983 243.1384 282.6931
ENERGY: 1500000 2.1602 16.3849 8.9669 0.0000 -10807.4267 1532.1089 0.0000 0.0000 1764.7879 -7483.0179 299.4207 -9247.8058 -7467.9676 299.8947 530.5510 656.9834 30261.1113 211.3343 259.8864
TCL: Running FEP window  18: Lambda1 0.1499999999999997 Lambda2 0.09999999999999969 [dLambda -0.05 ]
TCL: Setting parameter firsttimestep to 0
TCL: Setting parameter alchLambda to 0.1499999999999997
Info: NONBONDED TABLE R-SQUARED SPACING: 0.0625
Info: NONBONDED TABLE SIZE: 705 POINTS
TCL: Setting parameter alchLambda2 to 0.09999999999999969
Info: NONBONDED TABLE R-SQUARED SPACING: 0.0625
Info: NONBONDED TABLE SIZE: 705 POINTS
TCL: Running for 1500000 steps
ETITLE: TS BOND ANGLE DIHED IMPRP ELECT VDW BOUNDARY MISC KINETIC TOTAL TEMP POTENTIAL TOTALAVG TEMPAVG PRESSURE GPRESSURE VOLUME PRESSAVG GPRESSAVG
ENERGY: 0 2.1602 16.3849 8.9669 0.0000 -10807.4253 1532.5994 0.0000 0.0000 1763.8954 -7483.4185 299.2692 -9247.3139 -7483.4185 299.2692 575.2927 658.1722 30261.1113 575.2927 658.1722
ENERGY: 300000 1.6723 18.0448 8.4403 0.0000 -10736.3370 1441.7819 0.0000 0.0000 1781.3849 -7485.0127 302.2366 -9266.3976 -7452.0907 301.5964 136.3058 246.1531 29944.7779 170.8557 249.7737
ENERGY: 600000 4.2865 15.0163 9.5077 0.0000 -10692.4224 1387.6239 0.0000 0.0000 1729.2154 -7546.7726 293.3853 -9275.9880 -7470.9931 300.7262 -513.9613 -437.9305 29994.2297 79.8775 161.8294
ENERGY: 900000 2.4876 14.0671 9.6276 0.0000 -10654.0622 1404.9375 0.0000 0.0000 1789.0215 -7433.9208 303.5322 -9222.9423 -7473.5246 299.9549 -250.2361 -125.6392 30121.8083 114.5387 189.4275
ENERGY: 1200000 5.2623 8.4652 9.9006 0.0000 -10844.1075 1541.2455 0.0000 0.0000 1738.3539 -7540.8800 294.9358 -9279.2340 -7478.6498 299.4569 739.2982 827.8252 29804.5988 121.5284 195.2408
ENERGY: 1500000 5.0461 15.6375 9.8855 0.0000 -10633.1711 1432.5813 0.0000 0.0000 1699.6930 -7470.3277 288.3764 -9170.0207 -7481.0992 298.9117 -209.6694 -155.2577 30856.4862 17.4955 93.2857
TCL: Running FEP window  19: Lambda1 0.09999999999999969 Lambda2 0.049999999999999684 [dLambda -0.05 ]
TCL: Setting parameter firsttimestep to 0
TCL: Setting parameter alchLambda to 0.09999999999999969
Info: NONBONDED TABLE R-SQUARED SPACING: 0.0625
Info: NONBONDED TABLE SIZE: 705 POINTS
TCL: Setting parameter alchLambda2 to 0.049999999999999684
Info: NONBONDED TABLE R-SQUARED SPACING: 0.0625
Info: NONBONDED TABLE SIZE: 705 POINTS
TCL: Running for 1500000 steps
ETITLE: TS BOND ANGLE DIHED IMPRP ELECT VDW BOUNDARY MISC KINETIC TOTAL TEMP POTENTIAL TOTALAVG TEMPAVG PRESSURE GPRESSURE VOLUME PRESSAVG GPRESSAVG
ENERGY: 0 5.0461 15.6375 9.8855 0.0000 -10633.1701 1432.0178 0.0000 0.0000 1698.8232 -7471.7599 288.2288 -9170.5831 -7471.7599 288.2288 -252.7685 -160.2054 30856.4862 -252.7685 -160.2054
ENERGY: 300000 2.4146 12.1521 10.6573 0.0000 -10765.0255 1542.4600 0.0000 0.0000 1780.0570 -7417.2844 302.0113 -9197.3414 -7458.0938 296.8683 986.6208 981.1393 30296.6890 -201.9323 -139.6830
ENERGY: 600000 3.3212 13.7725 9.8376 0.0000 -10579.9790 1333.2118 0.0000 0.0000 1861.0060 -7358.8299 315.7454 -9219.8359 -7446.3353 301.3418 -818.3064 -807.1775 30620.4636 -234.5960 -167.1111
ENERGY: 900000 2.2742 9.7591 10.8501 0.0000 -10804.7499 1511.4931 0.0000 0.0000 1788.1050 -7482.2683 303.3767 -9270.3734 -7446.3710 301.9872 597.2104 646.4909 29964.6119 -43.2478 23.7945
ENERGY: 1200000 1.7173 10.8717 10.5517 0.0000 -10731.0192 1437.7722 0.0000 0.0000 1749.1366 -7520.9697 296.7652 -9270.1063 -7435.2103 303.1136 -213.9918 -179.3200 30305.3645 -168.7189 -101.8830
ENERGY: 1500000 0.6785 16.8536 9.0046 0.0000 -10844.4639 1550.2894 0.0000 0.0000 1784.5257 -7483.1122 302.7694 -9267.6379 -7453.6293 302.3996 1022.1223 1032.1448 30008.5766 -107.2669 -40.0943
TCL: Running FEP window  20: Lambda1 0.049999999999999684 Lambda2 0.0    [dLambda -0.049999999999999684]
TCL: Setting parameter firsttimestep to 0
TCL: Setting parameter alchLambda to 0.049999999999999684
Info: NONBONDED TABLE R-SQUARED SPACING: 0.0625
Info: NONBONDED TABLE SIZE: 705 POINTS
TCL: Setting parameter alchLambda2 to 0.0
Info: NONBONDED TABLE R-SQUARED SPACING: 0.0625
Info: NONBONDED TABLE SIZE: 705 POINTS
TCL: Running for 1500000 steps
ETITLE: TS BOND ANGLE DIHED IMPRP ELECT VDW BOUNDARY MISC KINETIC TOTAL TEMP POTENTIAL TOTALAVG TEMPAVG PRESSURE GPRESSURE VOLUME PRESSAVG GPRESSAVG
ENERGY: 0 0.6785 16.8536 9.0046 0.0000 -10844.4651 1550.4581 0.0000 0.0000 1783.6491 -7483.8213 302.6207 -9267.4704 -7483.8213 302.6207 949.6732 1031.0915 30008.5766 949.6732 1031.0915
ENERGY: 300000 4.1555 13.1159 9.7653 0.0000 -10608.2137 1356.8452 0.0000 0.0000 1771.0682 -7453.2637 300.4862 -9224.3319 -7470.6197 300.7898 -1086.6685 -995.0898 30805.8569 -164.3129 -75.5369
ENERGY: 600000 5.2384 12.9213 10.0671 0.0000 -10630.4090 1363.0220 0.0000 0.0000 1729.8742 -7509.2859 293.4971 -9239.1601 -7474.5245 301.1436 -701.6920 -649.3581 30275.4554 -331.4005 -263.4901
ENERGY: 900000 4.2774 11.6020 9.3625 0.0000 -10684.0319 1462.3958 0.0000 0.0000 1740.4713 -7455.9229 295.2950 -9196.3942 -7482.9551 300.1178 385.8797 498.6176 30314.4179 -252.5443 -180.0892
ENERGY: 1200000 4.5333 9.2477 10.0040 0.0000 -10707.8928 1460.9833 0.0000 0.0000 1774.8874 -7448.2371 301.1342 -9223.1245 -7478.5410 300.2089 132.2166 189.5631 30436.5953 -185.9902 -111.0520
ENERGY: 1500000 0.7550 14.8722 10.0984 0.0000 -10754.0200 1508.5633 0.0000 0.0000 1782.9815 -7436.7497 302.5074 -9219.7311 -7480.2047 300.0605 675.9219 714.1209 30238.6883 -29.2766 41.6448
TCL: Exiting due to exit command.
