Info: SIMULATION PARAMETERS:
Info: TIMESTEP               2
Info: NUMBER OF STEPS        0
Info: STEPS PER CYCLE        10
Info: PERIODIC CELL BASIS 1  31.6577 0 0
Info: PERIODIC CELL BASIS 2  0 29.4648 0
Info: PERIODIC CELL BASIS 3  0 0 32.8088
Info: PERIODIC CELL CENTER   0 0 0
Info: WRAPPING WATERS AROUND PERIODIC BOUNDARIES ON OUTPUT.
Info: WRAPPING ALL CLUSTERS AROUND PERIODIC BOUNDARIES ON OUTPUT.
Info: FIRST LDB TIMESTEP     50
Info: LAST LDB TIMESTEP     -1
Info: HOM BACKGROUND SCALING 1
Info: PME BACKGROUND SCALING 1
Info: MIN ATOMS PER PATCH    40
Info: EMPTY PATCH LOAD       40 ATOMS
Info: VELOCITY FILE          mobley_2489709_equil.vel
Info: CENTER OF MASS MOVING INITIALLY? NO
Info: DIELECTRIC             1
Info: EXCLUDE                SCALED ONE-FOUR
Info: 1-4 ELECTROSTATICS SCALED BY 0.833333
Info: MODIFIED 1-4 VDW PARAMETERS WILL BE USED
Info: DCD FILENAME           mobley_2489709_prod.dcd
Info: DCD FREQUENCY          100000
Info: DCD FIRST STEP         100000
Info: DCD FILE WILL CONTAIN UNIT CELL DATA
Info: XST FILENAME           mobley_2489709_prod.xst
Info: XST FREQUENCY          100000
Info: NO VELOCITY DCD OUTPUT
Info: NO FORCE DCD OUTPUT
Info: OUTPUT FILENAME        mobley_2489709_prod
Info: BINARY OUTPUT FILES WILL BE USED
Info: RESTART FILENAME       mobley_2489709_prod.restart
Info: RESTART FREQUENCY      100000
Info: BINARY RESTART FILES WILL BE USED
Info: CUTOFF                 9
Info: PAIRLIST DISTANCE      11
Info: PAIRLIST SHRINK RATE   0.01
Info: PAIRLIST GROW RATE     0.01
Info: PAIRLIST TRIGGER       0.3
Info: PAIRLISTS PER CYCLE    2
Info: PAIRLISTS ENABLED
Info: MARGIN                 2
Info: HYDROGEN GROUP CUTOFF  2.5
Info: PATCH DIMENSION        15.5
Info: ENERGY OUTPUT STEPS    100000
Info: ENERGY EVALUATION STEPS    100000
Info: OUTPUT ENERGY PRECISION 4
Info: CROSSTERM ENERGY INCLUDED IN DIHEDRAL
Info: TIMING OUTPUT STEPS    1000000
Info: PRESSURE OUTPUT STEPS  100000
Info: ALCHEMICAL FEP ON
Info: FEP CURRENT LAMBDA VALUE     1
Info: FEP COMPARISON LAMBDA VALUE  0.95
Info: FEP INTRA-ALCHEMICAL NON-BONDED INTERACTIONS WILL BE RETAINED
Info: FEP INTRA-ALCHEMICAL BONDED INTERACTIONS WILL BE RETAINED
Info: FEP VDW SHIFTING COEFFICIENT 5
Info: FEP ELEC. ACTIVE FOR ANNIHILATED PARTICLES BETWEEN LAMBDA = 0 AND LAMBDA = 0.5
Info: FEP ELEC. ACTIVE FOR EXNIHILATED PARTICLES BETWEEN LAMBDA = 0.5 AND LAMBDA = 1
Info: FEP VDW ACTIVE FOR ANNIHILATED PARTICLES BETWEEN LAMBDA = 0 AND LAMBDA = 1
Info: FEP VDW ACTIVE FOR EXNIHILATED PARTICLES BETWEEN LAMBDA = 0 AND LAMBDA = 1
Info: FEP BOND ACTIVE FOR ANNIHILATED PARTICLES BETWEEN LAMBDA = 1 AND LAMBDA = 1
Info: FEP BOND ACTIVE FOR EXNIHILATED PARTICLES BETWEEN LAMBDA = 0 AND LAMBDA = 0
Info: LANGEVIN DYNAMICS ACTIVE
Info: LANGEVIN TEMPERATURE   300
Info: LANGEVIN USING BBK INTEGRATOR
Info: LANGEVIN DAMPING COEFFICIENT IS 1 INVERSE PS
Info: LANGEVIN DYNAMICS APPLIED TO HYDROGENS
Info: LANGEVIN PISTON PRESSURE CONTROL ACTIVE
Info:        TARGET PRESSURE IS 1.01325 BAR
Info:     OSCILLATION PERIOD IS 50 FS
Info:             DECAY TIME IS 25 FS
Info:     PISTON TEMPERATURE IS 300 K
Info:       PRESSURE CONTROL IS GROUP-BASED
Info:    INITIAL STRAIN RATE IS -0.000738758 -0.000738758 -0.000738758
Info:       CELL FLUCTUATION IS ISOTROPIC
Info: PARTICLE MESH EWALD (PME) ACTIVE
Info: PME TOLERANCE               1e-06
Info: PME EWALD COEFFICIENT       0.348832
Info: PME INTERPOLATION ORDER     4
Info: PME GRID DIMENSIONS         32 32 36
Info: PME MAXIMUM GRID SPACING    1
Info: PME CALCULATION WILL BE PERFORMED ON GPU
Info: FULL ELECTROSTATIC EVALUATION FREQUENCY      2
Info: USING VERLET I (r-RESPA) MTS SCHEME.
Info: C1 SPLITTING OF LONG RANGE ELECTROSTATICS
Info: PLACING ATOMS IN PATCHES BY HYDROGEN GROUPS
Info: RIGID BONDS TO HYDROGEN : ALL
Info:         ERROR TOLERANCE : 1e-08
Info:          MAX ITERATIONS : 100
Info: RIGID WATER USING SETTLE ALGORITHM
Info: RANDOM NUMBER SEED     1743535699
Info: USE HYDROGEN BONDS?    NO
Info: Using AMBER format force field!
Info: AMBER PARM FILE        mobley_2489709.prmtop
Info: COORDINATE PDB         mobley_2489709.pdb
Info: Exclusions will be read from PARM file!
Info: SCNB (VDW SCALING)     2
Info: USING ARITHMETIC MEAN TO COMBINE L-J SIGMA PARAMETERS
Info: BINARY COORDINATES     mobley_2489709_equil.coor
Info: SUMMARY OF PARAMETERS:
Info: 5 BONDS
Info: 3 ANGLES
Info:   3 HARMONIC
Info:   0 COSINE-BASED
Info: 2 DIHEDRAL
Info: 0 IMPROPER
Info: 0 CROSSTERM
Info: 0 VDW
Info: 15 VDW_PAIRS
Info: 0 NBTHOLE_PAIRS
Info: To read alchdata from file: mobley_2489709.pdb
Info: To read alchflag data from column: 5
Info: STRUCTURE SUMMARY:
Info: 2952 ATOMS
Info: 2952 BONDS
Info: 18 ANGLES
Info: 30 DIHEDRALS
Info: 0 IMPROPERS
Info: 0 CROSSTERMS
Info: 2991 EXCLUSIONS
Info: 2944 RIGID BONDS
Info: ALCH: 0 ATOMS TO DISAPPEAR IN FINAL STATE
Info: ALCH: 12 ATOMS TO APPEAR IN FINAL STATE
Info: 5912 DEGREES OF FREEDOM
Info: 988 HYDROGEN GROUPS
Info: 3 ATOMS IN LARGEST HYDROGEN GROUP
Info: 988 MIGRATION GROUPS
Info: 3 ATOMS IN LARGEST MIGRATION GROUP
Info: TOTAL MASS = 17802.7 amu
Info: TOTAL CHARGE = 0.00010002 e
Info: MASS DENSITY = 0.965989 g/cm^3
Info: ATOM DENSITY = 0.0964593 atoms/A^3
Info: ADDED 0 IMPLICIT EXCLUSIONS
Info: NONBONDED TABLE R-SQUARED SPACING: 0.0625
Info: NONBONDED TABLE SIZE: 705 POINTS
Info: REMOVING COM VELOCITY -0.242246 0.102053 -0.00257769
Info: Use 3D box decompostion in PME FFT.
Info: Updated CUDA force table with 4096 elements.
Info: Updated CUDA LJ table with 5 x 5 elements.
Info: Found 14 unique exclusion lists needing 24 bytes
TCL: Running for 1500000 steps
ETITLE: TS BOND ANGLE DIHED IMPRP ELECT VDW BOUNDARY MISC KINETIC TOTAL TEMP POTENTIAL TOTALAVG TEMPAVG PRESSURE GPRESSURE VOLUME PRESSAVG GPRESSAVG
ENERGY: 0 1.2272 5.1150 4.4855 0.0000 -10589.1169 1459.1513 0.0000 0.0000 1832.8549 -7286.2830 312.0212 -9119.1380 -7286.2830 312.0212 548.5247 608.2786 30603.5862 548.5247 608.2786
ENERGY: 300000 2.2825 2.3030 4.3497 0.0000 -10666.9958 1386.9793 0.0000 0.0000 1800.6705 -7470.4108 306.5422 -9271.0813 -7460.2056 305.1688 -427.6519 -365.1721 30242.9797 -98.4084 -15.0967
ENERGY: 600000 1.6150 1.8832 1.5515 0.0000 -10605.7746 1371.1821 0.0000 0.0000 1757.9140 -7471.6288 299.2634 -9229.5427 -7483.0083 303.3119 -381.9232 -398.8214 30619.9565 -209.7262 -135.5391
ENERGY: 900000 1.9678 2.3788 4.1228 0.0000 -10688.8806 1432.3342 0.0000 0.0000 1761.7242 -7486.3527 299.9120 -9248.0770 -7470.5830 302.6973 -318.0983 -212.7451 30831.6124 -81.5851 -4.4654
ENERGY: 1200000 3.5683 3.1883 3.1914 0.0000 -10753.6272 1495.4652 0.0000 0.0000 1756.6212 -7491.5928 299.0433 -9248.2140 -7468.1402 302.9223 476.8180 580.7568 30522.8228 20.9207 100.4529
ENERGY: 1500000 1.3968 2.3412 2.0383 0.0000 -10737.2493 1461.4680 0.0000 0.0000 1800.3033 -7469.7016 306.4796 -9270.0049 -7469.8226 302.7487 205.2076 241.8753 30417.2336 11.0422 88.1927
TCL: Running FEP window   2: Lambda1 0.95   Lambda2 0.8999999999999999 [dLambda -0.050000000000000044]
TCL: Setting parameter firsttimestep to 0
TCL: Setting parameter alchLambda to 0.95
Info: NONBONDED TABLE R-SQUARED SPACING: 0.0625
Info: NONBONDED TABLE SIZE: 705 POINTS
TCL: Setting parameter alchLambda2 to 0.8999999999999999
Info: NONBONDED TABLE R-SQUARED SPACING: 0.0625
Info: NONBONDED TABLE SIZE: 705 POINTS
TCL: Running for 1500000 steps
ETITLE: TS BOND ANGLE DIHED IMPRP ELECT VDW BOUNDARY MISC KINETIC TOTAL TEMP POTENTIAL TOTALAVG TEMPAVG PRESSURE GPRESSURE VOLUME PRESSAVG GPRESSAVG
ENERGY: 0 1.3968 2.3412 2.0383 0.0000 -10737.1633 1461.3509 0.0000 0.0000 1799.3933 -7470.6428 306.3247 -9270.0361 -7470.6428 306.3247 143.8858 226.4809 30417.2336 143.8858 226.4809
ENERGY: 300000 3.3158 2.2665 1.5588 0.0000 -10779.5546 1497.1948 0.0000 0.0000 1783.1565 -7492.0622 303.5606 -9275.2187 -7520.0426 302.0319 215.5677 293.1894 30723.8373 362.1174 424.1913
ENERGY: 600000 1.1824 5.7952 2.3288 0.0000 -10592.5068 1414.8512 0.0000 0.0000 1801.2598 -7367.0895 306.6425 -9168.3493 -7487.6400 303.2510 -400.4392 -350.5922 31624.7427 225.4591 288.3572
ENERGY: 900000 1.7454 2.0290 1.6967 0.0000 -10599.8202 1405.2594 0.0000 0.0000 1775.9076 -7413.1821 302.3266 -9189.0897 -7491.7517 302.9573 -108.1133 -86.5260 30751.3387 155.4457 218.2472
ENERGY: 1200000 1.2994 2.3155 1.2226 0.0000 -10798.3769 1501.0628 0.0000 0.0000 1751.5301 -7540.9466 298.1766 -9292.4767 -7486.9463 302.1515 171.5110 252.1033 30732.6354 138.8085 202.3436
ENERGY: 1500000 4.7241 1.9533 1.9732 0.0000 -10636.5138 1405.7413 0.0000 0.0000 1806.6174 -7415.5045 307.5546 -9222.1220 -7487.4777 301.8805 -180.2959 -155.2203 30550.1694 159.9919 224.6966
TCL: Running FEP window   3: Lambda1 0.8999999999999999 Lambda2 0.8499999999999999 [dLambda -0.050000000000000044]
TCL: Setting parameter firsttimestep to 0
TCL: Setting parameter alchLambda to 0.8999999999999999
Info: NONBONDED TABLE R-SQUARED SPACING: 0.0625
Info: NONBONDED TABLE SIZE: 705 POINTS
TCL: Setting parameter alchLambda2 to 0.8499999999999999
Info: NONBONDED TABLE R-SQUARED SPACING: 0.0625
Info: NONBONDED TABLE SIZE: 705 POINTS
TCL: Running for 1500000 steps
ETITLE: TS BOND ANGLE DIHED IMPRP ELECT VDW BOUNDARY MISC KINETIC TOTAL TEMP POTENTIAL TOTALAVG TEMPAVG PRESSURE GPRESSURE VOLUME PRESSAVG GPRESSAVG
ENERGY: 0 4.7241 1.9533 1.9732 0.0000 -10636.2064 1405.8505 0.0000 0.0000 1805.7078 -7415.9976 307.3997 -9221.7054 -7415.9976 307.3997 -256.6207 -162.7002 30550.1694 -256.6207 -162.7002
ENERGY: 300000 0.6429 4.9444 3.0945 0.0000 -10733.5588 1430.6012 0.0000 0.0000 1748.7117 -7545.5641 297.6968 -9294.2758 -7430.8776 304.0039 5.2877 27.6639 30165.4229 -191.0893 -140.9419
ENERGY: 600000 1.0209 2.4293 3.0133 0.0000 -10631.9781 1373.2911 0.0000 0.0000 1789.7764 -7462.4471 304.6876 -9252.2235 -7466.7057 301.6563 -344.5514 -318.9138 30287.5884 -199.8574 -146.8645
ENERGY: 900000 1.9003 2.0916 2.2813 0.0000 -10820.2294 1506.8097 0.0000 0.0000 1743.2890 -7563.8575 296.7737 -9307.1465 -7497.8381 299.8984 484.2902 521.3148 30471.0763 -152.4615 -86.7029
ENERGY: 1200000 2.2951 2.9230 2.0211 0.0000 -10765.9141 1528.8427 0.0000 0.0000 1729.7326 -7500.0995 294.4658 -9229.8321 -7503.8612 299.6900 749.9202 848.6269 29959.1383 -88.7155 -29.1620
ENERGY: 1500000 0.1046 3.8150 4.2266 0.0000 -10554.9973 1342.8325 0.0000 0.0000 1768.0536 -7435.9649 300.9895 -9204.0185 -7503.1547 299.4759 -690.4155 -602.7059 30849.9721 -125.2066 -64.7490
TCL: Running FEP window   4: Lambda1 0.8499999999999999 Lambda2 0.7999999999999998 [dLambda -0.050000000000000044]
TCL: Setting parameter firsttimestep to 0
TCL: Setting parameter alchLambda to 0.8499999999999999
Info: NONBONDED TABLE R-SQUARED SPACING: 0.0625
Info: NONBONDED TABLE SIZE: 705 POINTS
TCL: Setting parameter alchLambda2 to 0.7999999999999998
Info: NONBONDED TABLE R-SQUARED SPACING: 0.0625
Info: NONBONDED TABLE SIZE: 705 POINTS
TCL: Running for 1500000 steps
ETITLE: TS BOND ANGLE DIHED IMPRP ELECT VDW BOUNDARY MISC KINETIC TOTAL TEMP POTENTIAL TOTALAVG TEMPAVG PRESSURE GPRESSURE VOLUME PRESSAVG GPRESSAVG
ENERGY: 0 0.1046 3.8150 4.2266 0.0000 -10554.9775 1343.2694 0.0000 0.0000 1767.1597 -7436.4022 300.8374 -9203.5619 -7436.4022 300.8374 -695.4193 -608.1166 30849.9721 -695.4193 -608.1166
ENERGY: 300000 3.0149 2.3739 1.7637 0.0000 -10767.3090 1471.6427 0.0000 0.0000 1786.3231 -7502.1909 304.0997 -9288.5139 -7459.1317 298.7930 -77.7336 15.0690 30374.6060 -523.1566 -435.7904
ENERGY: 600000 1.1480 2.9516 3.8060 0.0000 -10750.6283 1435.5156 0.0000 0.0000 1802.2351 -7504.9720 306.8085 -9307.2071 -7473.5585 300.0283 -432.7389 -424.2064 31125.8373 -566.7368 -483.2348
ENERGY: 900000 3.2280 2.8016 1.6752 0.0000 -10598.1965 1397.1001 0.0000 0.0000 1721.9513 -7471.4403 293.1412 -9193.3916 -7470.3450 300.2178 -310.4096 -286.7781 30946.5264 -251.0390 -181.7491
ENERGY: 1200000 3.2414 2.2997 3.6778 0.0000 -10706.5353 1397.0495 0.0000 0.0000 1769.8439 -7530.4231 301.2943 -9300.2669 -7472.9078 300.7390 -568.1086 -481.8937 30764.3701 -111.4143 -31.5046
ENERGY: 1500000 3.1466 1.6883 2.8387 0.0000 -10717.1715 1412.3374 0.0000 0.0000 1839.4389 -7457.7216 313.1420 -9297.1605 -7477.8485 301.8402 -222.1751 -120.6245 30102.2672 -98.1127 -20.3085
TCL: Running FEP window   5: Lambda1 0.7999999999999998 Lambda2 0.7499999999999998 [dLambda -0.050000000000000044]
TCL: Setting parameter firsttimestep to 0
TCL: Setting parameter alchLambda to 0.7999999999999998
Info: NONBONDED TABLE R-SQUARED SPACING: 0.0625
Info: NONBONDED TABLE SIZE: 705 POINTS
TCL: Setting parameter alchLambda2 to 0.7499999999999998
Info: NONBONDED TABLE R-SQUARED SPACING: 0.0625
Info: NONBONDED TABLE SIZE: 705 POINTS
TCL: Running for 1500000 steps
ETITLE: TS BOND ANGLE DIHED IMPRP ELECT VDW BOUNDARY MISC KINETIC TOTAL TEMP POTENTIAL TOTALAVG TEMPAVG PRESSURE GPRESSURE VOLUME PRESSAVG GPRESSAVG
ENERGY: 0 3.1466 1.6883 2.8387 0.0000 -10716.8238 1412.0937 0.0000 0.0000 1838.5605 -7458.4960 312.9925 -9297.0566 -7458.4960 312.9925 -232.8708 -134.1947 30102.2672 -232.8708 -134.1947
ENERGY: 300000 1.9550 1.6373 2.1608 0.0000 -10678.5573 1455.9619 0.0000 0.0000 1750.1027 -7466.7396 297.9336 -9216.8424 -7430.4835 303.5172 169.8142 232.9954 30485.6052 -373.7751 -317.7375
ENERGY: 600000 1.9901 3.1741 2.2169 0.0000 -10598.2118 1414.9660 0.0000 0.0000 1742.8002 -7433.0644 296.6904 -9175.8646 -7452.0122 300.8024 92.3117 87.2036 30532.5755 -107.6800 -57.7893
ENERGY: 900000 1.7564 1.9557 2.7094 0.0000 -10763.5032 1422.1036 0.0000 0.0000 1759.6318 -7575.3463 299.5558 -9334.9782 -7467.1129 300.5714 -523.4654 -450.3165 30674.3924 -287.3102 -226.6327
ENERGY: 1200000 1.6350 2.3851 2.5391 0.0000 -10587.7180 1372.0406 0.0000 0.0000 1788.8366 -7420.2817 304.5276 -9209.1182 -7478.8725 300.5640 -612.1403 -529.9474 30834.8394 -282.1644 -215.7546
ENERGY: 1500000 2.3014 0.9371 3.8510 0.0000 -10769.8812 1468.6639 0.0000 0.0000 1759.0714 -7535.0564 299.4604 -9294.1278 -7485.8669 299.9795 -14.9882 -22.7549 30594.5957 -213.0469 -157.3396
TCL: Running FEP window   6: Lambda1 0.7499999999999998 Lambda2 0.6999999999999997 [dLambda -0.050000000000000044]
TCL: Setting parameter firsttimestep to 0
TCL: Setting parameter alchLambda to 0.7499999999999998
Info: NONBONDED TABLE R-SQUARED SPACING: 0.0625
Info: NONBONDED TABLE SIZE: 705 POINTS
TCL: Setting parameter alchLambda2 to 0.6999999999999997
Info: NONBONDED TABLE R-SQUARED SPACING: 0.0625
Info: NONBONDED TABLE SIZE: 705 POINTS
TCL: Running for 1500000 steps
ETITLE: TS BOND ANGLE DIHED IMPRP ELECT VDW BOUNDARY MISC KINETIC TOTAL TEMP POTENTIAL TOTALAVG TEMPAVG PRESSURE GPRESSURE VOLUME PRESSAVG GPRESSAVG
ENERGY: 0 2.3014 0.9371 3.8510 0.0000 -10769.4706 1469.1193 0.0000 0.0000 1758.1728 -7535.0890 299.3074 -9293.2618 -7535.0890 299.3074 -113.9801 -24.9236 30594.5957 -113.9801 -24.9236
ENERGY: 300000 0.8598 2.9679 2.2147 0.0000 -10703.7516 1472.7470 0.0000 0.0000 1748.9614 -7476.0008 297.7393 -9224.9622 -7474.5731 301.8548 441.8169 519.5616 30528.0011 234.2737 301.5614
ENERGY: 600000 1.0172 3.9219 0.9676 0.0000 -10716.1487 1455.1828 0.0000 0.0000 1799.9769 -7455.0821 306.4241 -9255.0591 -7486.8648 302.4058 217.2931 293.0925 30463.4163 136.7794 206.2726
ENERGY: 900000 0.7487 2.4527 2.6340 0.0000 -10598.3735 1380.0850 0.0000 0.0000 1800.1920 -7412.2611 306.4607 -9212.4531 -7483.4373 302.3577 -487.8719 -482.0903 30651.3663 84.6936 149.3944
ENERGY: 1200000 2.2284 3.5348 3.2909 0.0000 -10736.2205 1500.5897 0.0000 0.0000 1754.7905 -7471.7863 298.7316 -9226.5768 -7480.5406 302.6484 479.5612 583.0679 29942.5823 83.0295 147.5987
ENERGY: 1500000 2.9048 0.9445 2.2822 0.0000 -10784.5323 1500.2148 0.0000 0.0000 1758.0298 -7520.1562 299.2831 -9278.1860 -7479.3002 302.6567 335.0046 449.6103 30415.4748 88.2749 150.5028
TCL: Running FEP window   7: Lambda1 0.6999999999999997 Lambda2 0.6499999999999997 [dLambda -0.050000000000000044]
TCL: Setting parameter firsttimestep to 0
TCL: Setting parameter alchLambda to 0.6999999999999997
Info: NONBONDED TABLE R-SQUARED SPACING: 0.0625
Info: NONBONDED TABLE SIZE: 705 POINTS
TCL: Setting parameter alchLambda2 to 0.6499999999999997
Info: NONBONDED TABLE R-SQUARED SPACING: 0.0625
Info: NONBONDED TABLE SIZE: 705 POINTS
TCL: Running for 1500000 steps
ETITLE: TS BOND ANGLE DIHED IMPRP ELECT VDW BOUNDARY MISC KINETIC TOTAL TEMP POTENTIAL TOTALAVG TEMPAVG PRESSURE GPRESSURE VOLUME PRESSAVG GPRESSAVG
ENERGY: 0 2.9048 0.9445 2.2822 0.0000 -10784.2087 1500.8488 0.0000 0.0000 1757.1261 -7520.1023 299.1293 -9277.2284 -7520.1023 299.1293 364.5861 448.8255 30415.4748 364.5861 448.8255
ENERGY: 300000 2.0316 3.4754 4.5788 0.0000 -10558.9318 1328.8520 0.0000 0.0000 1738.5926 -7481.4014 295.9741 -9219.9940 -7475.9163 300.4165 -807.0640 -753.0652 30621.3270 -99.0543 -44.2486
ENERGY: 600000 1.8722 1.4840 0.5693 0.0000 -10835.3677 1520.2184 0.0000 0.0000 1782.5502 -7528.6737 303.4574 -9311.2238 -7464.0961 302.5242 427.1582 538.1447 30087.1385 -53.9529 0.8109
ENERGY: 900000 1.3043 1.1547 2.8416 0.0000 -10665.7997 1438.1593 0.0000 0.0000 1770.8956 -7451.4442 301.4733 -9222.3398 -7464.2371 302.8838 82.9774 132.0672 30838.6599 -72.6239 -23.0288
ENERGY: 1200000 4.9532 3.5723 1.9640 0.0000 -10772.8541 1480.8417 0.0000 0.0000 1784.1696 -7497.3533 303.7331 -9281.5229 -7472.2678 303.0924 162.6989 219.8024 30464.5112 -18.3577 28.2982
ENERGY: 1500000 3.4807 2.2443 2.7341 0.0000 -10720.7441 1460.0465 0.0000 0.0000 1762.9170 -7489.3217 300.1151 -9252.2386 -7471.1785 302.8855 -6.3384 -0.9307 30809.3716 -13.8674 31.2942
TCL: Running FEP window   8: Lambda1 0.6499999999999997 Lambda2 0.5999999999999996 [dLambda -0.050000000000000044]
TCL: Setting parameter firsttimestep to 0
TCL: Setting parameter alchLambda to 0.6499999999999997
Info: NONBONDED TABLE R-SQUARED SPACING: 0.0625
Info: NONBONDED TABLE SIZE: 705 POINTS
TCL: Setting parameter alchLambda2 to 0.5999999999999996
Info: NONBONDED TABLE R-SQUARED SPACING: 0.0625
Info: NONBONDED TABLE SIZE: 705 POINTS
TCL: Running for 1500000 steps
ETITLE: TS BOND ANGLE DIHED IMPRP ELECT VDW BOUNDARY MISC KINETIC TOTAL TEMP POTENTIAL TOTALAVG TEMPAVG PRESSURE GPRESSURE VOLUME PRESSAVG GPRESSAVG
ENERGY: 0 3.4807 2.2443 2.7341 0.0000 -10720.6040 1460.3927 0.0000 0.0000 1762.0263 -7489.7259 299.9635 -9251.7523 -7489.7259 299.9635 -80.0218 -1.0694 30809.3716 -80.0218 -1.0694
ENERGY: 300000 2.1367 3.7124 3.0596 0.0000 -10761.3923 1478.1032 0.0000 0.0000 1753.3400 -7521.0404 298.4847 -9274.3804 -7463.9667 302.4713 131.9735 175.2668 30439.9203 388.3629 464.0057
ENERGY: 600000 4.2449 1.7972 4.8320 0.0000 -10767.8490 1446.7330 0.0000 0.0000 1796.0068 -7514.2350 305.7482 -9310.2418 -7491.6515 302.3609 114.1155 128.3815 30316.1322 484.0358 537.2727
ENERGY: 900000 5.5446 3.2050 1.9091 0.0000 -10701.5438 1411.5191 0.0000 0.0000 1800.5229 -7478.8431 306.5170 -9279.3660 -7495.2107 301.5490 -450.4070 -394.1685 30365.4619 303.3247 362.2269
ENERGY: 1200000 1.3197 3.9165 4.4020 0.0000 -10513.0611 1293.9912 0.0000 0.0000 1746.5406 -7462.8912 297.3272 -9209.4317 -7487.3709 301.1538 -1167.8050 -1186.5723 30821.8726 84.6886 127.0301
ENERGY: 1500000 1.8178 2.4579 1.0896 0.0000 -10755.2645 1463.1985 0.0000 0.0000 1757.2887 -7529.4119 299.1569 -9286.7006 -7490.0299 301.4194 52.9246 63.0458 30381.9414 107.1898 151.3776
TCL: Running FEP window   9: Lambda1 0.5999999999999996 Lambda2 0.5499999999999996 [dLambda -0.050000000000000044]
TCL: Setting parameter firsttimestep to 0
TCL: Setting parameter alchLambda to 0.5999999999999996
Info: NONBONDED TABLE R-SQUARED SPACING: 0.0625
Info: NONBONDED TABLE SIZE: 705 POINTS
TCL: Setting parameter alchLambda2 to 0.5499999999999996
Info: NONBONDED TABLE R-SQUARED SPACING: 0.0625
Info: NONBONDED TABLE SIZE: 705 POINTS
TCL: Running for 1500000 steps
ETITLE: TS BOND ANGLE DIHED IMPRP ELECT VDW BOUNDARY MISC KINETIC TOTAL TEMP POTENTIAL TOTALAVG TEMPAVG PRESSURE GPRESSURE VOLUME PRESSAVG GPRESSAVG
ENERGY: 0 1.8178 2.4579 1.0896 0.0000 -10754.9699 1463.0572 0.0000 0.0000 1756.4047 -7530.1427 299.0064 -9286.5474 -7530.1427 299.0064 -34.7055 52.7399 30381.9414 -34.7055 52.7399
ENERGY: 300000 3.3604 2.2727 1.6141 0.0000 -10589.2965 1450.6173 0.0000 0.0000 1757.8706 -7373.5615 299.2560 -9131.4321 -7445.1536 302.3062 148.2655 259.4289 30575.7007 -164.1276 -76.7378
ENERGY: 600000 3.1877 2.8044 4.0827 0.0000 -10539.6920 1343.0827 0.0000 0.0000 1708.5578 -7477.9767 290.8611 -9186.5345 -7466.9157 301.0146 -699.7051 -682.6275 30669.9986 -171.8834 -94.5851
ENERGY: 900000 1.8879 1.8718 2.9076 0.0000 -10555.0423 1362.6776 0.0000 0.0000 1790.4022 -7395.2953 304.7941 -9185.6974 -7457.2405 302.2222 -381.5911 -308.7797 30387.3136 -258.2676 -182.0226
ENERGY: 1200000 1.7639 3.8860 2.5544 0.0000 -10794.6334 1442.1448 0.0000 0.0000 1768.8494 -7575.4350 301.1250 -9344.2843 -7466.4776 301.9118 -116.6401 -72.1814 30172.3501 -241.5365 -172.3808
ENERGY: 1500000 5.1379 2.0952 4.2117 0.0000 -10635.3544 1412.8897 0.0000 0.0000 1759.3360 -7451.6839 299.5055 -9211.0198 -7463.9330 301.9080 -309.3569 -203.4587 30553.6861 -209.7735 -139.4633
TCL: Running FEP window  10: Lambda1 0.5499999999999996 Lambda2 0.4999999999999996 [dLambda -0.04999999999999999]
TCL: Setting parameter firsttimestep to 0
TCL: Setting parameter alchLambda to 0.5499999999999996
Info: NONBONDED TABLE R-SQUARED SPACING: 0.0625
Info: NONBONDED TABLE SIZE: 705 POINTS
TCL: Setting parameter alchLambda2 to 0.4999999999999996
Info: NONBONDED TABLE R-SQUARED SPACING: 0.0625
Info: NONBONDED TABLE SIZE: 705 POINTS
TCL: Running for 1500000 steps
ETITLE: TS BOND ANGLE DIHED IMPRP ELECT VDW BOUNDARY MISC KINETIC TOTAL TEMP POTENTIAL TOTALAVG TEMPAVG PRESSURE GPRESSURE VOLUME PRESSAVG GPRESSAVG
ENERGY: 0 5.1379 2.0952 4.2117 0.0000 -10635.1534 1413.1971 0.0000 0.0000 1758.4637 -7452.0478 299.3570 -9210.5115 -7452.0478 299.3570 -287.4511 -208.4805 30553.6861 -287.4511 -208.4805
ENERGY: 300000 2.1332 3.4564 2.6320 0.0000 -10657.3510 1371.1308 0.0000 0.0000 1693.7053 -7584.2933 288.3326 -9277.9986 -7501.5233 295.8832 -625.6514 -573.8038 30344.9980 -434.2653 -374.1050
ENERGY: 600000 1.2912 3.8248 3.5263 0.0000 -10537.4606 1315.4556 0.0000 0.0000 1819.9004 -7393.4624 309.8158 -9213.3628 -7454.0004 300.6523 -697.1317 -665.4782 30363.7712 -287.2845 -239.7749
ENERGY: 900000 2.0791 2.6017 1.4293 0.0000 -10882.3455 1551.9598 0.0000 0.0000 1777.6927 -7546.5830 302.6305 -9324.2757 -7461.2036 300.6382 645.5944 673.7820 30478.0000 -116.7613 -77.0721
ENERGY: 1200000 3.3007 2.8113 5.8478 0.0000 -10531.4765 1274.0069 0.0000 0.0000 1725.5583 -7519.9514 293.7552 -9245.5098 -7457.8067 300.7330 -1851.7325 -1747.9779 30985.7532 -256.9929 -206.5197
ENERGY: 1500000 1.9596 2.8398 3.1055 0.0000 -10830.6978 1498.9459 0.0000 0.0000 1773.8324 -7550.0145 301.9733 -9323.8470 -7470.6914 300.7618 395.9778 381.6070 30255.3538 -66.5831 -25.1081
TCL: Running FEP window  11: Lambda1 0.4999999999999996 Lambda2 0.4499999999999996 [dLambda -0.04999999999999999]
TCL: Setting parameter firsttimestep to 0
TCL: Setting parameter alchLambda to 0.4999999999999996
Info: NONBONDED TABLE R-SQUARED SPACING: 0.0625
Info: NONBONDED TABLE SIZE: 705 POINTS
TCL: Setting parameter alchLambda2 to 0.4499999999999996
Info: NONBONDED TABLE R-SQUARED SPACING: 0.0625
Info: NONBONDED TABLE SIZE: 705 POINTS
TCL: Running for 1500000 steps
ETITLE: TS BOND ANGLE DIHED IMPRP ELECT VDW BOUNDARY MISC KINETIC TOTAL TEMP POTENTIAL TOTALAVG TEMPAVG PRESSURE GPRESSURE VOLUME PRESSAVG GPRESSAVG
ENERGY: 0 1.9596 2.8398 3.1055 0.0000 -10830.6293 1499.0699 0.0000 0.0000 1772.9560 -7550.6985 301.8241 -9323.6545 -7550.6985 301.8241 290.3145 377.4770 30255.3538 290.3145 377.4770
ENERGY: 300000 7.1045 1.5969 3.0006 0.0000 -10683.4288 1455.2853 0.0000 0.0000 1744.7655 -7471.6761 297.0250 -9216.4416 -7484.8152 302.4015 76.2823 157.9091 30285.5609 67.2068 153.9696
ENERGY: 600000 2.0671 2.9210 2.0394 0.0000 -10670.2237 1460.4190 0.0000 0.0000 1782.1770 -7420.6001 303.3939 -9202.7772 -7499.6844 300.6649 247.3387 263.7699 30400.7968 165.1886 253.4254
ENERGY: 900000 6.1395 1.7317 3.5288 0.0000 -10598.1096 1384.4529 0.0000 0.0000 1745.8937 -7456.3629 297.2171 -9202.2567 -7482.7019 299.5168 -431.0799 -396.1381 30594.4273 44.2484 121.6405
ENERGY: 1200000 2.1674 3.9533 1.0691 0.0000 -10724.3818 1502.6732 0.0000 0.0000 1763.7899 -7450.7290 300.2637 -9214.5188 -7474.5404 300.4797 336.6195 405.0612 30537.4320 -28.0323 44.8378
ENERGY: 1500000 1.4432 2.3033 2.7686 0.0000 -10793.1408 1484.0069 0.0000 0.0000 1754.2618 -7548.3569 298.6416 -9302.6187 -7481.6516 300.6045 141.5675 109.8253 30364.5010 -28.2787 38.6758
TCL: Running FEP window  12: Lambda1 0.4499999999999996 Lambda2 0.39999999999999963 [dLambda -0.04999999999999999]
TCL: Setting parameter firsttimestep to 0
TCL: Setting parameter alchLambda to 0.4499999999999996
Info: NONBONDED TABLE R-SQUARED SPACING: 0.0625
Info: NONBONDED TABLE SIZE: 705 POINTS
TCL: Setting parameter alchLambda2 to 0.39999999999999963
Info: NONBONDED TABLE R-SQUARED SPACING: 0.0625
Info: NONBONDED TABLE SIZE: 705 POINTS
TCL: Running for 1500000 steps
ETITLE: TS BOND ANGLE DIHED IMPRP ELECT VDW BOUNDARY MISC KINETIC TOTAL TEMP POTENTIAL TOTALAVG TEMPAVG PRESSURE GPRESSURE VOLUME PRESSAVG GPRESSAVG
ENERGY: 0 1.4432 2.3033 2.7686 0.0000 -10793.1412 1484.5209 0.0000 0.0000 1753.4187 -7548.6864 298.4981 -9302.1051 -7548.6864 298.4981 32.8707 106.9164 30364.5010 32.8707 106.9164
ENERGY: 300000 5.1650 2.5898 4.9626 0.0000 -10714.5965 1409.1984 0.0000 0.0000 1760.0830 -7532.5976 299.6326 -9292.6807 -7531.5124 297.1817 -652.8061 -585.5277 30531.0423 -6.3782 72.2985
ENERGY: 600000 2.0659 3.6430 2.6993 0.0000 -10786.9847 1451.0984 0.0000 0.0000 1802.1268 -7525.3513 306.7901 -9327.4781 -7540.4226 298.6850 -42.9032 8.8578 30240.7784 -102.6952 -17.3832
ENERGY: 900000 0.6980 1.6006 4.4797 0.0000 -10684.5266 1413.8049 0.0000 0.0000 1784.0701 -7479.8733 303.7161 -9263.9434 -7523.6672 299.0178 -245.6250 -162.2684 30496.1168 -199.0219 -118.1315
ENERGY: 1200000 2.1532 5.1992 4.9566 0.0000 -10770.1322 1553.7414 0.0000 0.0000 1650.3551 -7553.7267 280.9528 -9204.0818 -7518.7453 297.8516 765.2330 795.7601 30690.1089 -216.2506 -144.2658
ENERGY: 1500000 1.6743 2.8835 1.3191 0.0000 -10570.6432 1414.0688 0.0000 0.0000 1761.6558 -7389.0418 299.9004 -9150.6975 -7519.3114 297.5968 4.9380 135.4452 30396.5186 -207.3788 -127.0831
TCL: Running FEP window  13: Lambda1 0.39999999999999963 Lambda2 0.34999999999999964 [dLambda -0.04999999999999999]
TCL: Setting parameter firsttimestep to 0
TCL: Setting parameter alchLambda to 0.39999999999999963
Info: NONBONDED TABLE R-SQUARED SPACING: 0.0625
Info: NONBONDED TABLE SIZE: 705 POINTS
TCL: Setting parameter alchLambda2 to 0.34999999999999964
Info: NONBONDED TABLE R-SQUARED SPACING: 0.0625
Info: NONBONDED TABLE SIZE: 705 POINTS
TCL: Running for 1500000 steps
ETITLE: TS BOND ANGLE DIHED IMPRP ELECT VDW BOUNDARY MISC KINETIC TOTAL TEMP POTENTIAL TOTALAVG TEMPAVG PRESSURE GPRESSURE VOLUME PRESSAVG GPRESSAVG
ENERGY: 0 1.6743 2.8835 1.3191 0.0000 -10570.6444 1414.3209 0.0000 0.0000 1760.7645 -7389.6821 299.7486 -9150.4466 -7389.6821 299.7486 64.3379 132.3900 30396.5186 64.3379 132.3900
ENERGY: 300000 2.3063 0.9696 1.1004 0.0000 -10674.1666 1423.6396 0.0000 0.0000 1785.6139 -7460.5369 303.9790 -9246.1507 -7469.1141 300.3669 -28.4221 4.8996 30016.9682 254.4590 296.2762
ENERGY: 600000 0.9444 3.8482 3.1882 0.0000 -10743.4550 1471.5836 0.0000 0.0000 1754.9529 -7508.9377 298.7593 -9263.8907 -7494.6737 300.6243 415.1816 437.0185 30181.0413 104.9512 157.3727
ENERGY: 900000 5.9947 2.5683 5.0687 0.0000 -10566.0152 1354.1626 0.0000 0.0000 1731.7300 -7466.4909 294.8059 -9198.2210 -7484.6474 299.8659 -809.5219 -726.2129 30587.4562 -106.6700 -48.5727
ENERGY: 1200000 0.6423 1.4389 1.5484 0.0000 -10627.4998 1426.9544 0.0000 0.0000 1824.0000 -7372.9156 310.5137 -9196.9157 -7466.1412 300.6154 55.9287 90.0801 30417.3535 -152.2967 -97.6617
ENERGY: 1500000 1.2923 2.8633 1.3434 0.0000 -10723.5692 1436.1177 0.0000 0.0000 1716.7075 -7565.2451 292.2485 -9281.9526 -7480.9524 299.3545 -130.0513 -62.0845 30390.4395 -166.6697 -107.9826
TCL: Running FEP window  14: Lambda1 0.34999999999999964 Lambda2 0.29999999999999966 [dLambda -0.04999999999999999]
TCL: Setting parameter firsttimestep to 0
TCL: Setting parameter alchLambda to 0.34999999999999964
Info: NONBONDED TABLE R-SQUARED SPACING: 0.0625
Info: NONBONDED TABLE SIZE: 705 POINTS
TCL: Setting parameter alchLambda2 to 0.29999999999999966
Info: NONBONDED TABLE R-SQUARED SPACING: 0.0625
Info: NONBONDED TABLE SIZE: 705 POINTS
TCL: Running for 1500000 steps
ETITLE: TS BOND ANGLE DIHED IMPRP ELECT VDW BOUNDARY MISC KINETIC TOTAL TEMP POTENTIAL TOTALAVG TEMPAVG PRESSURE GPRESSURE VOLUME PRESSAVG GPRESSAVG
ENERGY: 0 1.2923 2.8633 1.3434 0.0000 -10723.5704 1436.5004 0.0000 0.0000 1715.8175 -7565.7535 292.0970 -9281.5709 -7565.7535 292.0970 -134.0223 -64.3616 30390.4395 -134.0223 -64.3616
ENERGY: 300000 1.9284 1.2769 3.6681 0.0000 -10827.6662 1518.3341 0.0000 0.0000 1739.9188 -7562.5399 296.1999 -9302.4587 -7526.0537 299.3396 566.8517 588.6995 30333.8807 443.2792 473.1573
ENERGY: 600000 3.7693 3.6338 6.3323 0.0000 -10737.4489 1500.3272 0.0000 0.0000 1801.6763 -7421.7099 306.7134 -9223.3863 -7488.9802 299.4186 519.1382 583.9766 30311.2719 329.4106 376.1629
ENERGY: 900000 4.6280 2.1237 3.4215 0.0000 -10714.4766 1452.0531 0.0000 0.0000 1791.0931 -7461.1572 304.9117 -9252.2504 -7484.0657 299.4211 58.2295 162.3296 30186.5461 276.9015 332.0205
ENERGY: 1200000 2.6391 3.9592 2.9604 0.0000 -10811.1344 1537.4504 0.0000 0.0000 1753.1427 -7510.9826 298.4511 -9264.1253 -7486.8059 299.1871 943.6398 1013.9109 29697.7695 323.9787 384.7908
ENERGY: 1500000 1.2221 3.6405 3.0070 0.0000 -10659.2384 1432.6311 0.0000 0.0000 1713.0805 -7505.6572 291.6310 -9218.7377 -7487.3918 297.9734 54.6994 122.0420 30350.1504 239.6218 300.6401
TCL: Running FEP window  15: Lambda1 0.29999999999999966 Lambda2 0.24999999999999967 [dLambda -0.04999999999999999]
TCL: Setting parameter firsttimestep to 0
TCL: Setting parameter alchLambda to 0.29999999999999966
Info: NONBONDED TABLE R-SQUARED SPACING: 0.0625
Info: NONBONDED TABLE SIZE: 705 POINTS
TCL: Setting parameter alchLambda2 to 0.24999999999999967
Info: NONBONDED TABLE R-SQUARED SPACING: 0.0625
Info: NONBONDED TABLE SIZE: 705 POINTS
TCL: Running for 1500000 steps
ETITLE: TS BOND ANGLE DIHED IMPRP ELECT VDW BOUNDARY MISC KINETIC TOTAL TEMP POTENTIAL TOTALAVG TEMPAVG PRESSURE GPRESSURE VOLUME PRESSAVG GPRESSAVG
ENERGY: 0 1.2221 3.6405 3.0070 0.0000 -10659.2376 1432.3687 0.0000 0.0000 1712.2052 -7506.7942 291.4820 -9218.9994 -7506.7942 291.4820 31.8606 116.4045 30350.1504 31.8606 116.4045
ENERGY: 300000 3.0223 2.7593 1.6001 0.0000 -10714.5569 1430.1445 0.0000 0.0000 1775.3595 -7501.6712 302.2333 -9277.0307 -7498.6782 299.3004 -212.8891 -97.6706 30478.7362 -282.3576 -206.3562
ENERGY: 600000 2.7627 2.9603 1.5123 0.0000 -10691.2443 1457.2117 0.0000 0.0000 1763.8651 -7462.9321 300.2765 -9226.7972 -7485.9066 299.9266 89.4223 96.5096 30385.7723 -206.3878 -148.3410
ENERGY: 900000 4.4206 5.4880 3.3638 0.0000 -10739.1121 1523.2760 0.0000 0.0000 1749.6487 -7452.9149 297.8563 -9202.5637 -7488.9211 299.3262 672.7669 708.3152 30461.9176 -16.8042 39.3676
ENERGY: 1200000 2.2215 2.3868 2.6735 0.0000 -10804.8377 1511.0214 0.0000 0.0000 1762.2738 -7524.2605 300.0056 -9286.5344 -7499.1697 299.0173 523.0168 614.7020 30198.5610 -22.0049 35.8377
ENERGY: 1500000 3.6442 4.3025 1.8203 0.0000 -10707.1135 1412.8456 0.0000 0.0000 1808.1026 -7476.3982 307.8074 -9284.5008 -7508.1634 298.1882 -165.6497 -84.0958 30296.9149 -55.3030 3.9751
TCL: Running FEP window  16: Lambda1 0.24999999999999967 Lambda2 0.19999999999999968 [dLambda -0.04999999999999999]
TCL: Setting parameter firsttimestep to 0
TCL: Setting parameter alchLambda to 0.24999999999999967
Info: NONBONDED TABLE R-SQUARED SPACING: 0.0625
Info: NONBONDED TABLE SIZE: 705 POINTS
TCL: Setting parameter alchLambda2 to 0.19999999999999968
Info: NONBONDED TABLE R-SQUARED SPACING: 0.0625
Info: NONBONDED TABLE SIZE: 705 POINTS
TCL: Running for 1500000 steps
ETITLE: TS BOND ANGLE DIHED IMPRP ELECT VDW BOUNDARY MISC KINETIC TOTAL TEMP POTENTIAL TOTALAVG TEMPAVG PRESSURE GPRESSURE VOLUME PRESSAVG GPRESSAVG
ENERGY: 0 3.6442 4.3025 1.8203 0.0000 -10707.1155 1412.6794 0.0000 0.0000 1807.2092 -7477.4598 307.6553 -9284.6691 -7477.4598 307.6553 -174.1675 -91.3606 30296.9149 -174.1675 -91.3606
ENERGY: 300000 2.7318 3.9764 2.6719 0.0000 -10711.9330 1440.0400 0.0000 0.0000 1810.0939 -7452.4190 308.1464 -9262.5129 -7453.0120 304.4860 53.5857 51.7790 30166.0298 -253.4283 -191.9564
ENERGY: 600000 3.3083 0.9765 2.9689 0.0000 -10633.4958 1426.0493 0.0000 0.0000 1751.3388 -7448.8540 298.1440 -9200.1928 -7455.1839 302.2280 -280.7014 -213.9378 30760.0065 -202.5851 -128.6891
ENERGY: 900000 3.7130 4.6948 2.0143 0.0000 -10773.3801 1511.1083 0.0000 0.0000 1719.1353 -7532.7144 292.6618 -9251.8497 -7454.7224 300.4135 593.8201 638.7566 29973.7001 -118.6937 -53.5803
ENERGY: 1200000 2.9852 2.5609 2.0983 0.0000 -10737.6433 1447.7752 0.0000 0.0000 1756.4528 -7525.7708 299.0146 -9282.2236 -7453.2560 301.2190 -351.3764 -242.7833 30541.7913 -223.3596 -152.5805
ENERGY: 1500000 0.8742 2.1967 1.7717 0.0000 -10736.0650 1469.0302 0.0000 0.0000 1759.0239 -7503.1682 299.4523 -9262.1921 -7452.7047 301.4018 240.5426 325.8497 30037.2194 -230.7747 -160.2329
TCL: Running FEP window  17: Lambda1 0.19999999999999968 Lambda2 0.1499999999999997 [dLambda -0.04999999999999999]
TCL: Setting parameter firsttimestep to 0
TCL: Setting parameter alchLambda to 0.19999999999999968
Info: NONBONDED TABLE R-SQUARED SPACING: 0.0625
Info: NONBONDED TABLE SIZE: 705 POINTS
TCL: Setting parameter alchLambda2 to 0.1499999999999997
Info: NONBONDED TABLE R-SQUARED SPACING: 0.0625
Info: NONBONDED TABLE SIZE: 705 POINTS
TCL: Running for 1500000 steps
ETITLE: TS BOND ANGLE DIHED IMPRP ELECT VDW BOUNDARY MISC KINETIC TOTAL TEMP POTENTIAL TOTALAVG TEMPAVG PRESSURE GPRESSURE VOLUME PRESSAVG GPRESSAVG
ENERGY: 0 0.8742 2.1967 1.7717 0.0000 -10736.0653 1468.5123 0.0000 0.0000 1758.1059 -7504.6045 299.2960 -9262.7104 -7504.6045 299.2960 236.5917 319.5208 30037.2194 236.5917 319.5208
ENERGY: 300000 2.5716 7.0488 4.6252 0.0000 -10744.5390 1503.7676 0.0000 0.0000 1728.2357 -7498.2901 294.2110 -9226.5258 -7524.2237 299.0657 626.1956 709.1743 30030.6446 59.1989 140.2566
ENERGY: 600000 2.8195 2.4929 5.1245 0.0000 -10815.6537 1470.1174 0.0000 0.0000 1757.1079 -7577.9915 299.1262 -9335.0994 -7510.5843 300.5814 205.8025 282.0976 30176.6423 -201.5964 -131.9362
ENERGY: 900000 1.3838 2.2090 4.1563 0.0000 -10730.7252 1409.6010 0.0000 0.0000 1787.6393 -7525.7358 304.3238 -9313.3750 -7494.0675 300.9718 -301.0134 -335.3309 30178.6248 -250.0981 -205.6235
ENERGY: 1200000 2.4837 5.0075 2.7791 0.0000 -10720.2640 1453.5141 0.0000 0.0000 1749.9128 -7506.5668 297.9013 -9256.4796 -7491.4282 300.9256 -148.7655 -27.5516 30545.8233 -131.4965 -77.1252
ENERGY: 1500000 2.5495 2.7559 2.3258 0.0000 -10536.5986 1361.6194 0.0000 0.0000 1735.5881 -7431.7599 295.4627 -9167.3480 -7487.5044 300.6273 -595.7202 -526.4816 30695.4888 -103.9521 -47.3714
TCL: Running FEP window  18: Lambda1 0.1499999999999997 Lambda2 0.09999999999999969 [dLambda -0.05 ]
TCL: Setting parameter firsttimestep to 0
TCL: Setting parameter alchLambda to 0.1499999999999997
Info: NONBONDED TABLE R-SQUARED SPACING: 0.0625
Info: NONBONDED TABLE SIZE: 705 POINTS
TCL: Setting parameter alchLambda2 to 0.09999999999999969
Info: NONBONDED TABLE R-SQUARED SPACING: 0.0625
Info: NONBONDED TABLE SIZE: 705 POINTS
TCL: Running for 1500000 steps
ETITLE: TS BOND ANGLE DIHED IMPRP ELECT VDW BOUNDARY MISC KINETIC TOTAL TEMP POTENTIAL TOTALAVG TEMPAVG PRESSURE GPRESSURE VOLUME PRESSAVG GPRESSAVG
ENERGY: 0 2.5495 2.7559 2.3258 0.0000 -10536.5972 1361.2092 0.0000 0.0000 1734.7397 -7433.0172 295.3182 -9167.7569 -7433.0172 295.3182 -616.9447 -532.4661 30695.4888 -616.9447 -532.4661
ENERGY: 300000 1.1896 2.7094 3.6812 0.0000 -10699.8130 1434.3419 0.0000 0.0000 1751.0669 -7506.8240 298.0977 -9257.8909 -7487.1231 297.1217 -31.4737 49.2714 30070.1065 -49.9905 25.9297
ENERGY: 600000 2.0607 1.8272 2.5584 0.0000 -10583.4799 1356.0761 0.0000 0.0000 1743.9122 -7477.0453 296.8798 -9220.9575 -7490.5061 298.1067 -729.6670 -649.6136 30663.2999 -225.4420 -150.0643
ENERGY: 900000 3.7978 1.3749 3.4717 0.0000 -10788.3905 1456.5595 0.0000 0.0000 1751.3004 -7571.8861 298.1375 -9323.1865 -7499.8144 298.7621 31.9702 99.3257 29855.6237 -143.2524 -71.0916
ENERGY: 1200000 2.1243 5.2398 1.8469 0.0000 -10751.4208 1365.1767 0.0000 0.0000 1746.2441 -7630.7891 297.2767 -9377.0332 -7503.6004 299.0653 -1111.4997 -1058.2075 30316.0901 -252.4692 -180.1132
ENERGY: 1500000 1.4787 3.0025 0.7609 0.0000 -10836.2925 1476.2860 0.0000 0.0000 1786.7180 -7568.0464 304.1669 -9354.7644 -7507.6116 299.4298 30.7052 134.4973 29919.9619 -235.4489 -167.1427
TCL: Running FEP window  19: Lambda1 0.09999999999999969 Lambda2 0.049999999999999684 [dLambda -0.05 ]
TCL: Setting parameter firsttimestep to 0
TCL: Setting parameter alchLambda to 0.09999999999999969
Info: NONBONDED TABLE R-SQUARED SPACING: 0.0625
Info: NONBONDED TABLE SIZE: 705 POINTS
TCL: Setting parameter alchLambda2 to 0.049999999999999684
Info: NONBONDED TABLE R-SQUARED SPACING: 0.0625
Info: NONBONDED TABLE SIZE: 705 POINTS
TCL: Running for 1500000 steps
ETITLE: TS BOND ANGLE DIHED IMPRP ELECT VDW BOUNDARY MISC KINETIC TOTAL TEMP POTENTIAL TOTALAVG TEMPAVG PRESSURE GPRESSURE VOLUME PRESSAVG GPRESSAVG
ENERGY: 0 1.4787 3.0025 0.7609 0.0000 -10836.2942 1476.4942 0.0000 0.0000 1785.8766 -7568.6814 304.0237 -9354.5579 -7568.6814 304.0237 47.5975 131.7353 29919.9619 47.5975 131.7353
ENERGY: 300000 4.4068 3.6715 2.5708 0.0000 -10629.4207 1371.5413 0.0000 0.0000 1758.5651 -7488.6653 299.3742 -9247.2304 -7482.1044 301.6635 -927.8566 -817.7355 30605.9901 -276.7653 -191.5334
ENERGY: 600000 1.5502 2.3283 1.3207 0.0000 -10692.2686 1389.2395 0.0000 0.0000 1773.0859 -7524.7441 301.8462 -9297.8300 -7482.8124 302.5966 -656.1538 -598.8850 30578.3251 -430.4418 -345.8265
ENERGY: 900000 3.2036 2.5326 3.8138 0.0000 -10809.2652 1512.8634 0.0000 0.0000 1766.5118 -7520.3400 300.7271 -9286.8518 -7476.6611 302.1806 538.7223 633.8809 29921.1444 -373.2082 -292.1803
ENERGY: 1200000 3.1857 1.1748 1.5253 0.0000 -10718.2705 1416.0434 0.0000 0.0000 1731.0458 -7565.2954 294.6894 -9296.3412 -7485.2602 300.9460 -368.5328 -290.3045 30642.1568 -258.1968 -180.6712
ENERGY: 1500000 2.5232 3.3248 4.9821 0.0000 -10737.2482 1508.6669 0.0000 0.0000 1709.7135 -7508.0377 291.0578 -9217.7512 -7497.7601 299.5067 453.2097 507.8852 30130.3444 -225.0514 -152.1743
TCL: Running FEP window  20: Lambda1 0.049999999999999684 Lambda2 0.0    [dLambda -0.049999999999999684]
TCL: Setting parameter firsttimestep to 0
TCL: Setting parameter alchLambda to 0.049999999999999684
Info: NONBONDED TABLE R-SQUARED SPACING: 0.0625
Info: NONBONDED TABLE SIZE: 705 POINTS
TCL: Setting parameter alchLambda2 to 0.0
Info: NONBONDED TABLE R-SQUARED SPACING: 0.0625
Info: NONBONDED TABLE SIZE: 705 POINTS
TCL: Running for 1500000 steps
ETITLE: TS BOND ANGLE DIHED IMPRP ELECT VDW BOUNDARY MISC KINETIC TOTAL TEMP POTENTIAL TOTALAVG TEMPAVG PRESSURE GPRESSURE VOLUME PRESSAVG GPRESSAVG
ENERGY: 0 2.5232 3.3249 4.9821 0.0000 -10737.2480 1508.5263 0.0000 0.0000 1708.8055 -7509.0860 290.9033 -9217.8915 -7509.0860 290.9033 418.0920 502.4989 30130.3444 418.0920 502.4989
ENERGY: 300000 1.4024 1.7181 2.0869 0.0000 -10713.2428 1477.7593 0.0000 0.0000 1702.5552 -7527.7211 289.8392 -9230.2763 -7498.8653 297.0297 -84.9414 24.9302 30957.7573 306.1384 359.6874
ENERGY: 600000 1.8306 0.5909 3.0375 0.0000 -10859.2451 1549.8285 0.0000 0.0000 1731.9582 -7571.9993 294.8447 -9303.9576 -7496.7942 296.3266 771.3056 864.7293 30133.7457 218.9923 277.6356
ENERGY: 900000 2.6166 4.0805 3.7447 0.0000 -10740.5917 1433.3152 0.0000 0.0000 1769.4972 -7527.3375 301.2353 -9296.8347 -7486.5631 297.9476 -268.3091 -219.5991 30168.8410 280.6904 340.7010
ENERGY: 1200000 5.1328 3.0070 4.3796 0.0000 -10763.8633 1482.5604 0.0000 0.0000 1684.0010 -7584.7826 286.6806 -9268.7836 -7503.8304 296.7522 -114.1215 -6.9041 30532.6928 222.9535 290.2198
ENERGY: 1500000 1.9067 1.2983 2.1355 0.0000 -10611.5415 1396.5811 0.0000 0.0000 1773.6303 -7435.9896 301.9389 -9209.6198 -7489.7656 297.0423 -345.6698 -282.2217 30167.1238 70.3685 139.1461
TCL: Exiting due to exit command.
