Info: SIMULATION PARAMETERS:
Info: TIMESTEP               2
Info: NUMBER OF STEPS        0
Info: STEPS PER CYCLE        10
Info: PERIODIC CELL BASIS 1  32.0904 0 0
Info: PERIODIC CELL BASIS 2  0 30.3028 0
Info: PERIODIC CELL BASIS 3  0 0 31.5968
Info: PERIODIC CELL CENTER   0 0 0
Info: WRAPPING WATERS AROUND PERIODIC BOUNDARIES ON OUTPUT.
Info: WRAPPING ALL CLUSTERS AROUND PERIODIC BOUNDARIES ON OUTPUT.
Info: FIRST LDB TIMESTEP     50
Info: LAST LDB TIMESTEP     -1
Info: HOM BACKGROUND SCALING 1
Info: PME BACKGROUND SCALING 1
Info: MIN ATOMS PER PATCH    40
Info: EMPTY PATCH LOAD       40 ATOMS
Info: VELOCITY FILE          mobley_7794077_equil.vel
Info: CENTER OF MASS MOVING INITIALLY? NO
Info: DIELECTRIC             1
Info: EXCLUDE                SCALED ONE-FOUR
Info: 1-4 ELECTROSTATICS SCALED BY 0.833333
Info: MODIFIED 1-4 VDW PARAMETERS WILL BE USED
Info: DCD FILENAME           mobley_7794077_prod.dcd
Info: DCD FREQUENCY          100000
Info: DCD FIRST STEP         100000
Info: DCD FILE WILL CONTAIN UNIT CELL DATA
Info: XST FILENAME           mobley_7794077_prod.xst
Info: XST FREQUENCY          100000
Info: NO VELOCITY DCD OUTPUT
Info: NO FORCE DCD OUTPUT
Info: OUTPUT FILENAME        mobley_7794077_prod
Info: BINARY OUTPUT FILES WILL BE USED
Info: RESTART FILENAME       mobley_7794077_prod.restart
Info: RESTART FREQUENCY      100000
Info: BINARY RESTART FILES WILL BE USED
Info: CUTOFF                 9
Info: PAIRLIST DISTANCE      11
Info: PAIRLIST SHRINK RATE   0.01
Info: PAIRLIST GROW RATE     0.01
Info: PAIRLIST TRIGGER       0.3
Info: PAIRLISTS PER CYCLE    2
Info: PAIRLISTS ENABLED
Info: MARGIN                 2
Info: HYDROGEN GROUP CUTOFF  2.5
Info: PATCH DIMENSION        15.5
Info: ENERGY OUTPUT STEPS    100000
Info: ENERGY EVALUATION STEPS    100000
Info: OUTPUT ENERGY PRECISION 4
Info: CROSSTERM ENERGY INCLUDED IN DIHEDRAL
Info: TIMING OUTPUT STEPS    1000000
Info: PRESSURE OUTPUT STEPS  100000
Info: ALCHEMICAL FEP ON
Info: FEP CURRENT LAMBDA VALUE     1
Info: FEP COMPARISON LAMBDA VALUE  0.95
Info: FEP INTRA-ALCHEMICAL NON-BONDED INTERACTIONS WILL BE RETAINED
Info: FEP INTRA-ALCHEMICAL BONDED INTERACTIONS WILL BE RETAINED
Info: FEP VDW SHIFTING COEFFICIENT 5
Info: FEP ELEC. ACTIVE FOR ANNIHILATED PARTICLES BETWEEN LAMBDA = 0 AND LAMBDA = 0.5
Info: FEP ELEC. ACTIVE FOR EXNIHILATED PARTICLES BETWEEN LAMBDA = 0.5 AND LAMBDA = 1
Info: FEP VDW ACTIVE FOR ANNIHILATED PARTICLES BETWEEN LAMBDA = 0 AND LAMBDA = 1
Info: FEP VDW ACTIVE FOR EXNIHILATED PARTICLES BETWEEN LAMBDA = 0 AND LAMBDA = 1
Info: FEP BOND ACTIVE FOR ANNIHILATED PARTICLES BETWEEN LAMBDA = 1 AND LAMBDA = 1
Info: FEP BOND ACTIVE FOR EXNIHILATED PARTICLES BETWEEN LAMBDA = 0 AND LAMBDA = 0
Info: LANGEVIN DYNAMICS ACTIVE
Info: LANGEVIN TEMPERATURE   300
Info: LANGEVIN USING BBK INTEGRATOR
Info: LANGEVIN DAMPING COEFFICIENT IS 1 INVERSE PS
Info: LANGEVIN DYNAMICS APPLIED TO HYDROGENS
Info: LANGEVIN PISTON PRESSURE CONTROL ACTIVE
Info:        TARGET PRESSURE IS 1.01325 BAR
Info:     OSCILLATION PERIOD IS 50 FS
Info:             DECAY TIME IS 25 FS
Info:     PISTON TEMPERATURE IS 300 K
Info:       PRESSURE CONTROL IS GROUP-BASED
Info:    INITIAL STRAIN RATE IS -2.61061e-05 -2.61061e-05 -2.61061e-05
Info:       CELL FLUCTUATION IS ISOTROPIC
Info: PARTICLE MESH EWALD (PME) ACTIVE
Info: PME TOLERANCE               1e-06
Info: PME EWALD COEFFICIENT       0.348832
Info: PME INTERPOLATION ORDER     4
Info: PME GRID DIMENSIONS         36 32 32
Info: PME MAXIMUM GRID SPACING    1
Info: PME CALCULATION WILL BE PERFORMED ON GPU
Info: FULL ELECTROSTATIC EVALUATION FREQUENCY      2
Info: USING VERLET I (r-RESPA) MTS SCHEME.
Info: C1 SPLITTING OF LONG RANGE ELECTROSTATICS
Info: PLACING ATOMS IN PATCHES BY HYDROGEN GROUPS
Info: RIGID BONDS TO HYDROGEN : ALL
Info:         ERROR TOLERANCE : 1e-08
Info:          MAX ITERATIONS : 100
Info: RIGID WATER USING SETTLE ALGORITHM
Info: RANDOM NUMBER SEED     1743589374
Info: USE HYDROGEN BONDS?    NO
Info: Using AMBER format force field!
Info: AMBER PARM FILE        mobley_7794077.prmtop
Info: COORDINATE PDB         mobley_7794077.pdb
Info: Exclusions will be read from PARM file!
Info: SCNB (VDW SCALING)     2
Info: USING ARITHMETIC MEAN TO COMBINE L-J SIGMA PARAMETERS
Info: BINARY COORDINATES     mobley_7794077_equil.coor
Info: SUMMARY OF PARAMETERS:
Info: 11 BONDS
Info: 16 ANGLES
Info:   16 HARMONIC
Info:   0 COSINE-BASED
Info: 8 DIHEDRAL
Info: 0 IMPROPER
Info: 0 CROSSTERM
Info: 0 VDW
Info: 45 VDW_PAIRS
Info: 0 NBTHOLE_PAIRS
Info: To read alchdata from file: mobley_7794077.pdb
Info: To read alchflag data from column: 5
Info: STRUCTURE SUMMARY:
Info: 2964 ATOMS
Info: 2964 BONDS
Info: 24 ANGLES
Info: 39 DIHEDRALS
Info: 0 IMPROPERS
Info: 0 CROSSTERMS
Info: 3015 EXCLUSIONS
Info: 2952 RIGID BONDS
Info: ALCH: 0 ATOMS TO DISAPPEAR IN FINAL STATE
Info: ALCH: 15 ATOMS TO APPEAR IN FINAL STATE
Info: 5940 DEGREES OF FREEDOM
Info: 995 HYDROGEN GROUPS
Info: 3 ATOMS IN LARGEST HYDROGEN GROUP
Info: 995 MIGRATION GROUPS
Info: 3 ATOMS IN LARGEST MIGRATION GROUP
Info: TOTAL MASS = 17889.8 amu
Info: TOTAL CHARGE = 9.98527e-05 e
Info: MASS DENSITY = 0.96686 g/cm^3
Info: ATOM DENSITY = 0.0964665 atoms/A^3
Info: ADDED 0 IMPLICIT EXCLUSIONS
Info: NONBONDED TABLE R-SQUARED SPACING: 0.0625
Info: NONBONDED TABLE SIZE: 705 POINTS
Info: REMOVING COM VELOCITY -0.163311 0.198465 0.0351742
Info: Use 3D box decompostion in PME FFT.
Info: Updated CUDA force table with 4096 elements.
Info: Updated CUDA LJ table with 9 x 9 elements.
Info: Found 17 unique exclusion lists needing 40 bytes
TCL: Running for 1500000 steps
ETITLE: TS BOND ANGLE DIHED IMPRP ELECT VDW BOUNDARY MISC KINETIC TOTAL TEMP POTENTIAL TOTALAVG TEMPAVG PRESSURE GPRESSURE VOLUME PRESSAVG GPRESSAVG
ENERGY: 0 2.1884 8.2852 14.1126 0.0000 -10994.4023 1422.8179 0.0000 0.0000 1708.5667 -7838.4315 289.4915 -9546.9981 -7838.4315 289.4915 -463.5188 -379.5457 30725.7045 -463.5188 -379.5457
ENERGY: 300000 5.8938 5.5076 16.7794 0.0000 -10938.6901 1368.6082 0.0000 0.0000 1786.8005 -7755.1005 302.7471 -9541.9010 -7737.3049 299.9528 -650.9284 -624.5057 30526.2898 -222.0230 -177.1373
ENERGY: 600000 3.1168 4.3629 14.7584 0.0000 -11045.6164 1453.7194 0.0000 0.0000 1762.9627 -7806.6963 298.7081 -9569.6590 -7764.1545 299.3532 -113.9330 -120.5280 30573.9981 -83.4251 -49.2593
ENERGY: 900000 3.9940 6.6430 14.1412 0.0000 -11090.7038 1548.6204 0.0000 0.0000 1792.3074 -7724.9979 303.6802 -9517.3052 -7752.0414 299.5780 608.7850 683.1560 30796.8173 -33.7449 12.7229
ENERGY: 1200000 4.3446 4.3288 13.3945 0.0000 -11089.3585 1502.2011 0.0000 0.0000 1811.1556 -7753.9338 306.8737 -9565.0894 -7752.3527 300.2932 410.3364 450.7853 30390.6788 -15.8536 33.9924
ENERGY: 1500000 2.9040 5.7855 15.9285 0.0000 -10951.7343 1420.5010 0.0000 0.0000 1785.4983 -7721.1170 302.5265 -9506.6153 -7754.7439 300.2826 -335.2714 -327.5917 31036.8674 -53.3054 -8.6188
TCL: Running FEP window   2: Lambda1 0.95   Lambda2 0.8999999999999999 [dLambda -0.050000000000000044]
TCL: Setting parameter firsttimestep to 0
TCL: Setting parameter alchLambda to 0.95
Info: NONBONDED TABLE R-SQUARED SPACING: 0.0625
Info: NONBONDED TABLE SIZE: 705 POINTS
TCL: Setting parameter alchLambda2 to 0.8999999999999999
Info: NONBONDED TABLE R-SQUARED SPACING: 0.0625
Info: NONBONDED TABLE SIZE: 705 POINTS
TCL: Running for 1500000 steps
ETITLE: TS BOND ANGLE DIHED IMPRP ELECT VDW BOUNDARY MISC KINETIC TOTAL TEMP POTENTIAL TOTALAVG TEMPAVG PRESSURE GPRESSURE VOLUME PRESSAVG GPRESSAVG
ENERGY: 0 2.9040 5.7855 15.9285 0.0000 -10947.6162 1419.3473 0.0000 0.0000 1784.6524 -7718.9985 302.3832 -9503.6509 -7718.9985 302.3832 -441.1788 -346.4630 31036.8674 -441.1788 -346.4630
ENERGY: 300000 2.8603 6.3807 13.7638 0.0000 -10983.4984 1419.9678 0.0000 0.0000 1749.4676 -7791.0583 296.4216 -9540.5259 -7757.6742 298.6835 -596.0339 -464.7773 30749.0453 -201.2323 -101.5602
ENERGY: 600000 5.7129 4.6234 15.1798 0.0000 -10886.8032 1422.0901 0.0000 0.0000 1809.0699 -7630.1271 306.5203 -9439.1970 -7742.0078 300.0799 29.7755 67.4817 30572.8206 -236.6252 -161.5044
ENERGY: 900000 4.8400 6.0508 14.8451 0.0000 -11029.5083 1452.2097 0.0000 0.0000 1729.6566 -7821.9060 293.0649 -9551.5626 -7743.5032 299.0807 -47.4977 16.2405 30247.2682 -198.1056 -123.5102
ENERGY: 1200000 5.4031 7.7322 15.5524 0.0000 -11090.2407 1488.9039 0.0000 0.0000 1816.0931 -7756.5561 307.7103 -9572.6492 -7731.4165 300.3617 214.6468 205.5966 30704.8638 -165.1745 -99.4144
ENERGY: 1500000 4.7379 4.2586 15.0401 0.0000 -11006.3123 1491.4235 0.0000 0.0000 1777.5383 -7713.3139 301.1778 -9490.8522 -7728.7743 300.3394 603.0194 685.4236 30299.1746 -164.9689 -93.5000
TCL: Running FEP window   3: Lambda1 0.8999999999999999 Lambda2 0.8499999999999999 [dLambda -0.050000000000000044]
TCL: Setting parameter firsttimestep to 0
TCL: Setting parameter alchLambda to 0.8999999999999999
Info: NONBONDED TABLE R-SQUARED SPACING: 0.0625
Info: NONBONDED TABLE SIZE: 705 POINTS
TCL: Setting parameter alchLambda2 to 0.8499999999999999
Info: NONBONDED TABLE R-SQUARED SPACING: 0.0625
Info: NONBONDED TABLE SIZE: 705 POINTS
TCL: Running for 1500000 steps
ETITLE: TS BOND ANGLE DIHED IMPRP ELECT VDW BOUNDARY MISC KINETIC TOTAL TEMP POTENTIAL TOTALAVG TEMPAVG PRESSURE GPRESSURE VOLUME PRESSAVG GPRESSAVG
ENERGY: 0 4.7379 4.2586 15.0401 0.0000 -11001.9164 1490.5476 0.0000 0.0000 1776.7105 -7710.6217 301.0375 -9487.3322 -7710.6217 301.0375 594.3676 672.1269 30299.1746 594.3676 672.1269
ENERGY: 300000 4.6448 3.7309 14.2409 0.0000 -11074.8302 1512.5445 0.0000 0.0000 1693.6771 -7845.9920 286.9687 -9539.6691 -7743.9063 296.7194 382.0286 415.2282 30494.9647 310.5231 336.6439
ENERGY: 600000 4.4573 3.5045 13.2016 0.0000 -10809.1031 1335.4895 0.0000 0.0000 1803.2922 -7649.1580 305.5414 -9452.4502 -7716.5183 297.8769 -611.0766 -519.3491 30984.0622 7.5542 57.7398
ENERGY: 900000 3.6201 5.2257 14.6920 0.0000 -10998.1926 1442.9593 0.0000 0.0000 1743.7939 -7787.9016 295.4603 -9531.6955 -7719.2712 297.7640 -217.3895 -147.1671 30724.4151 40.4812 94.9643
ENERGY: 1200000 6.2217 3.0486 13.4471 0.0000 -10893.8177 1387.1011 0.0000 0.0000 1745.0725 -7738.9267 295.6769 -9483.9992 -7718.6248 297.7235 -669.6964 -643.1056 31095.4535 -31.2426 20.6550
ENERGY: 1500000 2.7832 3.8475 13.6871 0.0000 -11068.4325 1533.1633 0.0000 0.0000 1782.5188 -7732.4325 302.0216 -9514.9514 -7713.1717 298.4036 724.9786 831.6253 30581.4472 17.0380 66.1013
TCL: Running FEP window   4: Lambda1 0.8499999999999999 Lambda2 0.7999999999999998 [dLambda -0.050000000000000044]
TCL: Setting parameter firsttimestep to 0
TCL: Setting parameter alchLambda to 0.8499999999999999
Info: NONBONDED TABLE R-SQUARED SPACING: 0.0625
Info: NONBONDED TABLE SIZE: 705 POINTS
TCL: Setting parameter alchLambda2 to 0.7999999999999998
Info: NONBONDED TABLE R-SQUARED SPACING: 0.0625
Info: NONBONDED TABLE SIZE: 705 POINTS
TCL: Running for 1500000 steps
ETITLE: TS BOND ANGLE DIHED IMPRP ELECT VDW BOUNDARY MISC KINETIC TOTAL TEMP POTENTIAL TOTALAVG TEMPAVG PRESSURE GPRESSURE VOLUME PRESSAVG GPRESSAVG
ENERGY: 0 2.7832 3.8475 13.6871 0.0000 -11064.0992 1531.4752 0.0000 0.0000 1781.6194 -7730.6868 301.8692 -9512.3062 -7730.6868 301.8692 720.4962 805.2791 30581.4472 720.4962 805.2791
ENERGY: 300000 7.7749 6.7295 15.0257 0.0000 -10815.0071 1406.4092 0.0000 0.0000 1731.1446 -7647.9232 293.3170 -9379.0677 -7713.9544 296.3170 -8.2717 61.7494 30638.3102 294.0502 357.5684
ENERGY: 600000 4.1247 5.2615 14.1097 0.0000 -10884.0919 1447.1450 0.0000 0.0000 1743.4819 -7669.9692 295.4074 -9413.4511 -7707.8711 297.2127 208.7787 199.9040 30826.0453 227.1112 288.7588
ENERGY: 900000 9.1272 5.9761 14.6208 0.0000 -10718.4189 1313.4741 0.0000 0.0000 1760.7519 -7614.4688 298.3336 -9375.2206 -7686.2735 299.0016 -651.5878 -546.1871 30582.8068 113.0068 176.6215
ENERGY: 1200000 7.4262 5.3999 14.7907 0.0000 -11021.6982 1478.8139 0.0000 0.0000 1744.5627 -7770.7048 295.5905 -9515.2674 -7695.3552 300.1042 -9.4099 97.9915 31081.5698 75.6030 144.9568
ENERGY: 1500000 4.3792 6.1160 13.0856 0.0000 -11058.4771 1505.3358 0.0000 0.0000 1792.3604 -7737.2001 303.6892 -9529.5605 -7700.8082 300.5190 282.7697 338.1303 30462.1468 14.7413 81.1204
TCL: Running FEP window   5: Lambda1 0.7999999999999998 Lambda2 0.7499999999999998 [dLambda -0.050000000000000044]
TCL: Setting parameter firsttimestep to 0
TCL: Setting parameter alchLambda to 0.7999999999999998
Info: NONBONDED TABLE R-SQUARED SPACING: 0.0625
Info: NONBONDED TABLE SIZE: 705 POINTS
TCL: Setting parameter alchLambda2 to 0.7499999999999998
Info: NONBONDED TABLE R-SQUARED SPACING: 0.0625
Info: NONBONDED TABLE SIZE: 705 POINTS
TCL: Running for 1500000 steps
ETITLE: TS BOND ANGLE DIHED IMPRP ELECT VDW BOUNDARY MISC KINETIC TOTAL TEMP POTENTIAL TOTALAVG TEMPAVG PRESSURE GPRESSURE VOLUME PRESSAVG GPRESSAVG
ENERGY: 0 4.3792 6.1160 13.0856 0.0000 -11053.0995 1502.8115 0.0000 0.0000 1791.4774 -7735.2298 303.5395 -9526.7072 -7735.2298 303.5395 235.0111 309.2891 30462.1468 235.0111 309.2891
ENERGY: 300000 2.6856 3.4127 15.7614 0.0000 -10961.1370 1462.9149 0.0000 0.0000 1723.7810 -7752.5814 292.0694 -9476.3624 -7724.5692 301.3191 -15.0806 55.6139 31043.1573 -286.5894 -213.1464
ENERGY: 600000 3.5406 7.2910 14.2237 0.0000 -10987.2365 1441.9323 0.0000 0.0000 1788.8736 -7731.3754 303.0984 -9520.2490 -7727.1164 301.7694 -0.7382 7.2283 30703.4993 -28.3218 33.3765
ENERGY: 900000 6.5779 5.3453 15.0309 0.0000 -10958.7665 1413.6421 0.0000 0.0000 1741.2204 -7776.9499 295.0242 -9518.1702 -7733.0523 300.7590 -459.1331 -410.2393 30826.3319 -24.2484 39.0260
ENERGY: 1200000 4.6560 5.0428 14.7671 0.0000 -10867.4124 1416.0058 0.0000 0.0000 1790.0220 -7636.9187 303.2929 -9426.9407 -7722.8463 301.1430 -299.5315 -262.8156 30881.0207 -51.2549 15.3792
ENERGY: 1500000 3.2364 6.0005 13.1768 0.0000 -10914.8986 1408.8737 0.0000 0.0000 1801.3413 -7682.2699 305.2108 -9483.6112 -7713.8943 302.2413 -205.8639 -124.7937 30443.6406 -64.4097 6.7207
TCL: Running FEP window   6: Lambda1 0.7499999999999998 Lambda2 0.6999999999999997 [dLambda -0.050000000000000044]
TCL: Setting parameter firsttimestep to 0
TCL: Setting parameter alchLambda to 0.7499999999999998
Info: NONBONDED TABLE R-SQUARED SPACING: 0.0625
Info: NONBONDED TABLE SIZE: 705 POINTS
TCL: Setting parameter alchLambda2 to 0.6999999999999997
Info: NONBONDED TABLE R-SQUARED SPACING: 0.0625
Info: NONBONDED TABLE SIZE: 705 POINTS
TCL: Running for 1500000 steps
ETITLE: TS BOND ANGLE DIHED IMPRP ELECT VDW BOUNDARY MISC KINETIC TOTAL TEMP POTENTIAL TOTALAVG TEMPAVG PRESSURE GPRESSURE VOLUME PRESSAVG GPRESSAVG
ENERGY: 0 3.2363 6.0005 13.1768 0.0000 -10912.1695 1409.0668 0.0000 0.0000 1800.4560 -7680.2331 305.0608 -9480.6891 -7680.2331 305.0608 -189.7623 -122.4069 30443.6406 -189.7623 -122.4069
ENERGY: 300000 3.7173 5.2073 13.3188 0.0000 -10957.3061 1454.1631 0.0000 0.0000 1725.7940 -7755.1056 292.4105 -9480.8996 -7678.3735 301.4074 57.2653 126.2981 30387.3940 61.7880 129.1791
ENERGY: 600000 2.8417 6.3669 13.8704 0.0000 -10771.4675 1353.9716 0.0000 0.0000 1782.6677 -7611.7492 302.0469 -9394.4169 -7680.7830 301.0189 -404.2977 -362.3395 30269.2978 -98.9876 -25.3314
ENERGY: 900000 6.3108 9.9065 15.9492 0.0000 -10845.4430 1351.7741 0.0000 0.0000 1759.8181 -7701.6842 298.1753 -9461.5023 -7688.3767 300.9902 -781.3340 -724.5692 31046.4367 -73.5379 -18.0065
ENERGY: 1200000 5.1747 4.2341 13.2191 0.0000 -10963.4843 1419.2348 0.0000 0.0000 1750.3062 -7771.3154 296.5637 -9521.6217 -7694.7832 301.2627 -184.2024 -194.6785 30578.0280 -91.3648 -34.3744
ENERGY: 1500000 6.1776 8.5930 15.9135 0.0000 -10998.6733 1497.5089 0.0000 0.0000 1773.1833 -7697.2970 300.4399 -9470.4804 -7701.7317 301.1922 445.1034 480.9269 30371.9477 22.8587 77.2271
TCL: Running FEP window   7: Lambda1 0.6999999999999997 Lambda2 0.6499999999999997 [dLambda -0.050000000000000044]
TCL: Setting parameter firsttimestep to 0
TCL: Setting parameter alchLambda to 0.6999999999999997
Info: NONBONDED TABLE R-SQUARED SPACING: 0.0625
Info: NONBONDED TABLE SIZE: 705 POINTS
TCL: Setting parameter alchLambda2 to 0.6499999999999997
Info: NONBONDED TABLE R-SQUARED SPACING: 0.0625
Info: NONBONDED TABLE SIZE: 705 POINTS
TCL: Running for 1500000 steps
ETITLE: TS BOND ANGLE DIHED IMPRP ELECT VDW BOUNDARY MISC KINETIC TOTAL TEMP POTENTIAL TOTALAVG TEMPAVG PRESSURE GPRESSURE VOLUME PRESSAVG GPRESSAVG
ENERGY: 0 6.1776 8.5930 15.9135 0.0000 -10995.8058 1496.5408 0.0000 0.0000 1772.2839 -7696.2970 300.2875 -9468.5809 -7696.2970 300.2875 394.3750 467.3229 30371.9477 394.3750 467.3229
ENERGY: 300000 4.2432 7.0622 15.2764 0.0000 -10903.8694 1398.8468 0.0000 0.0000 1758.7522 -7719.6885 297.9947 -9478.4407 -7720.3039 299.7622 -421.0372 -402.4459 30745.0331 -173.3082 -125.5380
ENERGY: 600000 7.3456 7.2987 13.3638 0.0000 -11086.0740 1554.4931 0.0000 0.0000 1719.1650 -7784.4079 291.2873 -9503.5729 -7732.2709 298.5703 1015.9878 1131.2827 29938.7363 -62.4489 -7.2663
ENERGY: 900000 3.9465 4.5187 14.8775 0.0000 -11086.6889 1513.7550 0.0000 0.0000 1746.0270 -7803.5642 295.8386 -9549.5912 -7750.2529 297.8210 627.4617 659.1740 30175.2628 -13.2480 37.7338
ENERGY: 1200000 3.5913 4.7102 17.4446 0.0000 -10892.7086 1448.0320 0.0000 0.0000 1818.6934 -7600.2371 308.1509 -9418.9305 -7725.0174 298.8523 196.4596 250.8159 30726.0074 52.3025 110.8683
ENERGY: 1500000 8.3893 6.4293 13.7639 0.0000 -11002.8460 1572.0695 0.0000 0.0000 1800.5805 -7601.6135 305.0819 -9402.1940 -7726.5497 299.1227 1246.3272 1292.5278 30489.1733 2.9568 61.2414
TCL: Running FEP window   8: Lambda1 0.6499999999999997 Lambda2 0.5999999999999996 [dLambda -0.050000000000000044]
TCL: Setting parameter firsttimestep to 0
TCL: Setting parameter alchLambda to 0.6499999999999997
Info: NONBONDED TABLE R-SQUARED SPACING: 0.0625
Info: NONBONDED TABLE SIZE: 705 POINTS
TCL: Setting parameter alchLambda2 to 0.5999999999999996
Info: NONBONDED TABLE R-SQUARED SPACING: 0.0625
Info: NONBONDED TABLE SIZE: 705 POINTS
TCL: Running for 1500000 steps
ETITLE: TS BOND ANGLE DIHED IMPRP ELECT VDW BOUNDARY MISC KINETIC TOTAL TEMP POTENTIAL TOTALAVG TEMPAVG PRESSURE GPRESSURE VOLUME PRESSAVG GPRESSAVG
ENERGY: 0 8.3893 6.4293 13.7639 0.0000 -11001.3591 1572.1930 0.0000 0.0000 1799.7114 -7600.8722 304.9347 -9400.5836 -7600.8722 304.9347 1215.0078 1286.3190 30489.1733 1215.0078 1286.3190
ENERGY: 300000 3.4885 7.1276 15.3270 0.0000 -11005.4076 1452.5248 0.0000 0.0000 1803.4757 -7723.4640 305.5725 -9526.9397 -7705.8090 302.6966 -43.4362 -52.9360 30468.5344 273.9316 324.8288
ENERGY: 600000 3.7684 5.1493 16.9154 0.0000 -10897.9549 1402.5546 0.0000 0.0000 1754.7400 -7714.8273 297.3149 -9469.5673 -7719.0393 299.2629 -290.1153 -292.2676 30623.2542 99.0000 142.8321
ENERGY: 900000 5.1521 4.1828 13.5301 0.0000 -10895.3070 1394.0368 0.0000 0.0000 1782.7240 -7695.6812 302.0564 -9478.4051 -7695.9493 300.7801 -418.9983 -338.2976 30441.3679 -34.0480 20.2540
ENERGY: 1200000 7.4938 5.8477 14.8672 0.0000 -11115.8990 1498.7481 0.0000 0.0000 1736.3209 -7852.6212 294.1941 -9588.9421 -7708.4148 299.6567 -153.4061 -68.9309 30411.0565 8.2370 66.4942
ENERGY: 1500000 5.7836 7.9030 14.0096 0.0000 -10943.0160 1493.8537 0.0000 0.0000 1720.6599 -7700.8062 291.5406 -9421.4661 -7717.4701 298.4099 417.1515 503.5624 30700.0134 72.9592 131.3618
TCL: Running FEP window   9: Lambda1 0.5999999999999996 Lambda2 0.5499999999999996 [dLambda -0.050000000000000044]
TCL: Setting parameter firsttimestep to 0
TCL: Setting parameter alchLambda to 0.5999999999999996
Info: NONBONDED TABLE R-SQUARED SPACING: 0.0625
Info: NONBONDED TABLE SIZE: 705 POINTS
TCL: Setting parameter alchLambda2 to 0.5499999999999996
Info: NONBONDED TABLE R-SQUARED SPACING: 0.0625
Info: NONBONDED TABLE SIZE: 705 POINTS
TCL: Running for 1500000 steps
ETITLE: TS BOND ANGLE DIHED IMPRP ELECT VDW BOUNDARY MISC KINETIC TOTAL TEMP POTENTIAL TOTALAVG TEMPAVG PRESSURE GPRESSURE VOLUME PRESSAVG GPRESSAVG
ENERGY: 0 5.7836 7.9030 14.0096 0.0000 -10939.6926 1492.9766 0.0000 0.0000 1719.7518 -7699.2680 291.3867 -9419.0197 -7699.2680 291.3867 406.5741 494.8460 30700.0134 406.5741 494.8460
ENERGY: 300000 2.1246 5.1967 15.0763 0.0000 -11058.6126 1545.0431 0.0000 0.0000 1770.1294 -7721.0425 299.9224 -9491.1718 -7713.6664 297.2699 536.6408 670.4455 30477.5928 197.3953 280.5421
ENERGY: 600000 3.9891 5.4039 14.9007 0.0000 -11048.1152 1535.2768 0.0000 0.0000 1791.8673 -7696.6774 303.6056 -9488.5446 -7730.0159 297.6353 554.1034 636.0693 30676.3250 86.0185 164.5792
ENERGY: 900000 3.9338 5.7301 14.5629 0.0000 -10841.1968 1384.8615 0.0000 0.0000 1760.0906 -7672.0179 298.2215 -9432.1085 -7720.6245 298.9142 -557.5921 -478.0058 30782.8411 -18.7739 62.0654
ENERGY: 1200000 3.2444 5.8669 15.5377 0.0000 -10850.4528 1377.6383 0.0000 0.0000 1715.8623 -7732.3031 290.7277 -9448.1655 -7718.9318 298.3939 -757.3704 -780.8463 30890.7962 -75.4656 -3.0069
ENERGY: 1500000 3.2316 6.6061 15.5784 0.0000 -10889.8850 1383.5419 0.0000 0.0000 1811.5866 -7669.3405 306.9467 -9480.9270 -7714.6705 298.5227 -718.6769 -674.2331 30618.4735 -111.1141 -45.3393
TCL: Running FEP window  10: Lambda1 0.5499999999999996 Lambda2 0.4999999999999996 [dLambda -0.04999999999999999]
TCL: Setting parameter firsttimestep to 0
TCL: Setting parameter alchLambda to 0.5499999999999996
Info: NONBONDED TABLE R-SQUARED SPACING: 0.0625
Info: NONBONDED TABLE SIZE: 705 POINTS
TCL: Setting parameter alchLambda2 to 0.4999999999999996
Info: NONBONDED TABLE R-SQUARED SPACING: 0.0625
Info: NONBONDED TABLE SIZE: 705 POINTS
TCL: Running for 1500000 steps
ETITLE: TS BOND ANGLE DIHED IMPRP ELECT VDW BOUNDARY MISC KINETIC TOTAL TEMP POTENTIAL TOTALAVG TEMPAVG PRESSURE GPRESSURE VOLUME PRESSAVG GPRESSAVG
ENERGY: 0 3.2316 6.6061 15.5784 0.0000 -10886.8438 1383.6709 0.0000 0.0000 1810.6943 -7667.0625 306.7956 -9477.7568 -7667.0625 306.7956 -752.5567 -671.9587 30618.4735 -752.5567 -671.9587
ENERGY: 300000 6.9724 2.9671 14.7065 0.0000 -11025.9635 1498.9679 0.0000 0.0000 1734.3954 -7767.9540 293.8678 -9502.3495 -7705.4281 301.0742 543.1623 627.2840 30287.8766 338.1780 431.6682
ENERGY: 600000 4.1018 10.9807 15.4771 0.0000 -11021.9748 1469.7346 0.0000 0.0000 1761.3336 -7760.3470 298.4321 -9521.6806 -7703.5094 301.7574 79.8687 190.3775 30716.1487 104.2177 201.8269
ENERGY: 900000 2.8243 9.1974 13.1085 0.0000 -10898.4794 1394.0148 0.0000 0.0000 1808.0397 -7671.2947 306.3458 -9479.3344 -7692.3723 302.7899 -186.6409 -166.7090 30301.5532 116.3244 196.3096
ENERGY: 1200000 4.4862 6.8920 15.4669 0.0000 -10983.5866 1476.1502 0.0000 0.0000 1726.5803 -7754.0110 292.5437 -9480.5913 -7705.7829 301.3302 -76.1010 -42.1134 30866.6614 102.7796 171.1648
ENERGY: 1500000 4.3722 7.1730 12.9777 0.0000 -11056.6490 1518.5508 0.0000 0.0000 1795.0042 -7718.5710 304.1371 -9513.5752 -7701.2758 301.3172 508.0820 555.6149 30568.6834 106.4012 172.2296
TCL: Running FEP window  11: Lambda1 0.4999999999999996 Lambda2 0.4499999999999996 [dLambda -0.04999999999999999]
TCL: Setting parameter firsttimestep to 0
TCL: Setting parameter alchLambda to 0.4999999999999996
Info: NONBONDED TABLE R-SQUARED SPACING: 0.0625
Info: NONBONDED TABLE SIZE: 705 POINTS
TCL: Setting parameter alchLambda2 to 0.4499999999999996
Info: NONBONDED TABLE R-SQUARED SPACING: 0.0625
Info: NONBONDED TABLE SIZE: 705 POINTS
TCL: Running for 1500000 steps
ETITLE: TS BOND ANGLE DIHED IMPRP ELECT VDW BOUNDARY MISC KINETIC TOTAL TEMP POTENTIAL TOTALAVG TEMPAVG PRESSURE GPRESSURE VOLUME PRESSAVG GPRESSAVG
ENERGY: 0 4.3722 7.1731 12.9777 0.0000 -11055.5875 1519.0123 0.0000 0.0000 1794.1551 -7717.8970 303.9932 -9512.0521 -7717.8970 303.9932 448.4560 553.3777 30568.6834 448.4560 553.3777
ENERGY: 300000 3.5437 5.2597 14.0216 0.0000 -10926.7424 1455.6740 0.0000 0.0000 1773.8712 -7674.3724 300.5564 -9448.2435 -7705.1446 301.9489 -31.7562 52.5557 30975.2838 -20.1022 62.2518
ENERGY: 600000 2.8090 8.2325 14.1157 0.0000 -11028.0554 1519.4753 0.0000 0.0000 1793.6154 -7689.8075 303.9018 -9483.4229 -7720.0241 299.5083 726.3727 788.3259 30168.2579 20.5809 89.6454
ENERGY: 900000 2.5818 3.6495 16.1325 0.0000 -11072.7246 1498.7156 0.0000 0.0000 1775.9419 -7775.7032 300.9073 -9551.6451 -7728.9146 299.4865 259.5061 314.4586 30317.9819 76.0868 141.4023
ENERGY: 1200000 1.7836 9.8028 13.1185 0.0000 -11053.1587 1426.1715 0.0000 0.0000 1752.9285 -7849.3537 297.0080 -9602.2822 -7740.3306 299.5069 -612.6576 -501.7727 30508.5233 20.8104 87.4467
ENERGY: 1500000 4.3866 4.7126 15.6435 0.0000 -11086.4596 1511.8160 0.0000 0.0000 1728.8079 -7821.0929 292.9211 -9549.9008 -7734.9252 299.9497 421.5734 493.8475 30314.9303 69.3607 137.7403
TCL: Running FEP window  12: Lambda1 0.4499999999999996 Lambda2 0.39999999999999963 [dLambda -0.04999999999999999]
TCL: Setting parameter firsttimestep to 0
TCL: Setting parameter alchLambda to 0.4499999999999996
Info: NONBONDED TABLE R-SQUARED SPACING: 0.0625
Info: NONBONDED TABLE SIZE: 705 POINTS
TCL: Setting parameter alchLambda2 to 0.39999999999999963
Info: NONBONDED TABLE R-SQUARED SPACING: 0.0625
Info: NONBONDED TABLE SIZE: 705 POINTS
TCL: Running for 1500000 steps
ETITLE: TS BOND ANGLE DIHED IMPRP ELECT VDW BOUNDARY MISC KINETIC TOTAL TEMP POTENTIAL TOTALAVG TEMPAVG PRESSURE GPRESSURE VOLUME PRESSAVG GPRESSAVG
ENERGY: 0 4.3866 4.7126 15.6435 0.0000 -11086.4599 1511.5602 0.0000 0.0000 1727.9213 -7822.2356 292.7709 -9550.1570 -7822.2356 292.7709 394.1782 481.6368 30314.9303 394.1782 481.6368
ENERGY: 300000 4.7278 8.1809 14.6777 0.0000 -10964.2422 1458.5688 0.0000 0.0000 1769.4947 -7708.5923 299.8149 -9478.0870 -7735.1856 300.4150 -86.9440 3.9306 30792.3737 329.2995 392.4994
ENERGY: 600000 3.3654 8.2029 12.7779 0.0000 -11049.6335 1550.9577 0.0000 0.0000 1752.5265 -7721.8031 296.9399 -9474.3296 -7721.4697 298.8431 796.9483 918.6574 30466.4834 189.1992 262.8915
ENERGY: 900000 4.3372 6.0062 14.0945 0.0000 -11029.0635 1496.1172 0.0000 0.0000 1767.8852 -7740.6233 299.5422 -9508.5085 -7718.6297 299.8704 371.2558 381.4472 30428.2956 121.4295 186.2755
ENERGY: 1200000 3.5659 4.7550 14.5709 0.0000 -10974.6290 1461.8192 0.0000 0.0000 1768.8417 -7721.0762 299.7043 -9489.9180 -7714.0962 300.6908 -150.6269 -75.3901 30550.7781 228.3702 295.4017
ENERGY: 1500000 2.8589 7.3347 14.9178 0.0000 -10929.4426 1442.2411 0.0000 0.0000 1817.3302 -7644.7599 307.9199 -9462.0901 -7705.0622 301.4798 161.2865 220.4251 30219.6608 186.7385 255.3775
TCL: Running FEP window  13: Lambda1 0.39999999999999963 Lambda2 0.34999999999999964 [dLambda -0.04999999999999999]
TCL: Setting parameter firsttimestep to 0
TCL: Setting parameter alchLambda to 0.39999999999999963
Info: NONBONDED TABLE R-SQUARED SPACING: 0.0625
Info: NONBONDED TABLE SIZE: 705 POINTS
TCL: Setting parameter alchLambda2 to 0.34999999999999964
Info: NONBONDED TABLE R-SQUARED SPACING: 0.0625
Info: NONBONDED TABLE SIZE: 705 POINTS
TCL: Running for 1500000 steps
ETITLE: TS BOND ANGLE DIHED IMPRP ELECT VDW BOUNDARY MISC KINETIC TOTAL TEMP POTENTIAL TOTALAVG TEMPAVG PRESSURE GPRESSURE VOLUME PRESSAVG GPRESSAVG
ENERGY: 0 2.8589 7.3347 14.9178 0.0000 -10929.4432 1442.7027 0.0000 0.0000 1816.4906 -7645.1384 307.7777 -9461.6291 -7645.1384 307.7777 129.5987 220.6865 30219.6608 129.5987 220.6865
ENERGY: 300000 1.3132 11.0593 17.0451 0.0000 -10888.3800 1393.4484 0.0000 0.0000 1796.2840 -7669.2299 304.3540 -9465.5139 -7687.7781 302.3127 -701.7919 -622.6722 30766.3029 -144.8039 -64.5055
ENERGY: 600000 3.4110 4.7729 14.9890 0.0000 -11026.1771 1480.7539 0.0000 0.0000 1791.1823 -7731.0680 303.4895 -9522.2503 -7693.8128 302.3715 150.4745 275.1281 30295.2664 -102.6730 -17.5457
ENERGY: 900000 4.9544 9.9694 14.6824 0.0000 -11075.0362 1521.5684 0.0000 0.0000 1749.8476 -7774.0139 296.4860 -9523.8615 -7710.2278 299.8770 866.8106 933.7779 29864.5720 -37.9227 38.8475
ENERGY: 1200000 4.5207 5.6781 12.9258 0.0000 -10945.5768 1462.5289 0.0000 0.0000 1791.8072 -7668.1161 303.5954 -9459.9233 -7702.8474 299.7905 247.0022 243.1248 30424.7696 -5.5880 64.6691
ENERGY: 1500000 7.2281 5.9659 13.2541 0.0000 -10991.5779 1433.9837 0.0000 0.0000 1791.7626 -7739.3835 303.5879 -9531.1462 -7704.6431 300.8849 -543.6250 -434.4709 30592.4071 -46.1105 27.7662
TCL: Running FEP window  14: Lambda1 0.34999999999999964 Lambda2 0.29999999999999966 [dLambda -0.04999999999999999]
TCL: Setting parameter firsttimestep to 0
TCL: Setting parameter alchLambda to 0.34999999999999964
Info: NONBONDED TABLE R-SQUARED SPACING: 0.0625
Info: NONBONDED TABLE SIZE: 705 POINTS
TCL: Setting parameter alchLambda2 to 0.29999999999999966
Info: NONBONDED TABLE R-SQUARED SPACING: 0.0625
Info: NONBONDED TABLE SIZE: 705 POINTS
TCL: Running for 1500000 steps
ETITLE: TS BOND ANGLE DIHED IMPRP ELECT VDW BOUNDARY MISC KINETIC TOTAL TEMP POTENTIAL TOTALAVG TEMPAVG PRESSURE GPRESSURE VOLUME PRESSAVG GPRESSAVG
ENERGY: 0 7.2281 5.9659 13.2541 0.0000 -10991.5770 1433.9630 0.0000 0.0000 1790.8903 -7740.2756 303.4401 -9531.1659 -7740.2756 303.4401 -515.7791 -441.2097 30592.4071 -515.7791 -441.2097
ENERGY: 300000 6.2783 8.9673 16.0045 0.0000 -10930.8159 1414.9441 0.0000 0.0000 1739.5151 -7745.1066 294.7353 -9484.6217 -7728.5827 300.8796 -170.4577 -149.0694 30356.1263 -334.4748 -272.3516
ENERGY: 600000 2.3642 5.3362 13.6626 0.0000 -11067.7443 1485.2487 0.0000 0.0000 1737.9704 -7823.1622 294.4736 -9561.1326 -7742.9095 297.9153 86.4159 118.5790 30252.9249 -220.8345 -160.1810
ENERGY: 900000 1.2593 7.1125 13.4114 0.0000 -11006.4735 1453.6627 0.0000 0.0000 1762.3728 -7768.6549 298.6082 -9531.0277 -7731.1498 298.3919 -99.7007 -41.0449 30304.6465 -102.4828 -42.8476
ENERGY: 1200000 3.3535 6.0099 15.1923 0.0000 -10937.0767 1421.2286 0.0000 0.0000 1797.7182 -7693.5742 304.5970 -9491.2924 -7736.1859 298.8606 -99.3969 -100.4156 30582.5087 -57.6277 -2.2182
ENERGY: 1500000 9.2105 6.1086 15.2255 0.0000 -10924.8023 1400.9650 0.0000 0.0000 1743.4684 -7749.8243 295.4051 -9493.2927 -7729.2576 299.4525 -248.5400 -209.7462 30539.2336 -84.5345 -27.9845
TCL: Running FEP window  15: Lambda1 0.29999999999999966 Lambda2 0.24999999999999967 [dLambda -0.04999999999999999]
TCL: Setting parameter firsttimestep to 0
TCL: Setting parameter alchLambda to 0.29999999999999966
Info: NONBONDED TABLE R-SQUARED SPACING: 0.0625
Info: NONBONDED TABLE SIZE: 705 POINTS
TCL: Setting parameter alchLambda2 to 0.24999999999999967
Info: NONBONDED TABLE R-SQUARED SPACING: 0.0625
Info: NONBONDED TABLE SIZE: 705 POINTS
TCL: Running for 1500000 steps
ETITLE: TS BOND ANGLE DIHED IMPRP ELECT VDW BOUNDARY MISC KINETIC TOTAL TEMP POTENTIAL TOTALAVG TEMPAVG PRESSURE GPRESSURE VOLUME PRESSAVG GPRESSAVG
ENERGY: 0 9.2105 6.1086 15.2255 0.0000 -10924.7996 1401.2344 0.0000 0.0000 1742.5449 -7750.4758 295.2486 -9493.0207 -7750.4758 295.2486 -286.7570 -214.1200 30539.2336 -286.7570 -214.1200
ENERGY: 300000 4.1438 3.8641 14.2139 0.0000 -11056.9332 1523.4554 0.0000 0.0000 1748.5591 -7762.6969 296.2677 -9511.2560 -7738.7665 298.1303 506.8664 541.2166 30633.9743 136.3063 190.4427
ENERGY: 600000 5.4933 4.9936 13.5457 0.0000 -10969.0030 1477.7945 0.0000 0.0000 1792.7393 -7674.4365 303.7534 -9467.1758 -7717.0330 300.6068 410.9826 429.9543 30240.1092 139.5104 193.2739
ENERGY: 900000 2.9318 5.3982 14.5524 0.0000 -10992.7178 1484.0108 0.0000 0.0000 1755.3884 -7730.4362 297.4248 -9485.8246 -7716.2185 300.2672 287.8540 362.4378 30086.4803 170.7065 224.4181
ENERGY: 1200000 3.3837 7.5263 16.3833 0.0000 -11028.3766 1463.0188 0.0000 0.0000 1801.8896 -7736.1748 305.3037 -9538.0644 -7721.9075 299.7661 17.8200 20.1225 30588.5765 185.4526 229.5856
ENERGY: 1500000 5.5124 6.5501 18.4961 0.0000 -10881.1720 1444.1238 0.0000 0.0000 1810.3520 -7596.1375 306.7376 -9406.4896 -7710.6954 300.4872 122.8919 159.1300 30710.2706 180.2416 225.5274
TCL: Running FEP window  16: Lambda1 0.24999999999999967 Lambda2 0.19999999999999968 [dLambda -0.04999999999999999]
TCL: Setting parameter firsttimestep to 0
TCL: Setting parameter alchLambda to 0.24999999999999967
Info: NONBONDED TABLE R-SQUARED SPACING: 0.0625
Info: NONBONDED TABLE SIZE: 705 POINTS
TCL: Setting parameter alchLambda2 to 0.19999999999999968
Info: NONBONDED TABLE R-SQUARED SPACING: 0.0625
Info: NONBONDED TABLE SIZE: 705 POINTS
TCL: Running for 1500000 steps
ETITLE: TS BOND ANGLE DIHED IMPRP ELECT VDW BOUNDARY MISC KINETIC TOTAL TEMP POTENTIAL TOTALAVG TEMPAVG PRESSURE GPRESSURE VOLUME PRESSAVG GPRESSAVG
ENERGY: 0 5.5124 6.5501 18.4961 0.0000 -10881.1727 1444.2472 0.0000 0.0000 1809.4560 -7596.9108 306.5858 -9406.3669 -7596.9108 306.5858 74.0418 152.8032 30710.2706 74.0418 152.8032
ENERGY: 300000 3.9920 4.1036 13.9013 0.0000 -10974.9183 1428.8759 0.0000 0.0000 1738.5744 -7785.4710 294.5759 -9524.0455 -7715.1574 300.0608 -394.6581 -434.3402 31010.3813 -117.2202 -89.1170
ENERGY: 600000 3.7467 7.0813 18.5195 0.0000 -11090.6177 1472.0747 0.0000 0.0000 1747.8638 -7841.3317 296.1499 -9589.1955 -7721.3313 300.2106 16.6218 25.3130 30097.7172 -357.4203 -325.9701
ENERGY: 900000 3.5106 5.6377 15.2937 0.0000 -11055.1406 1489.7171 0.0000 0.0000 1803.2104 -7737.7711 305.5275 -9540.9815 -7729.7835 299.6136 63.8741 91.6124 30699.1027 -131.2745 -91.3285
ENERGY: 1200000 3.9335 5.3163 15.7705 0.0000 -10849.2955 1350.9876 0.0000 0.0000 1714.0009 -7759.2866 290.4123 -9473.2876 -7732.0987 298.6673 -953.8581 -848.1789 30392.1060 -222.2688 -176.1887
ENERGY: 1500000 6.9616 7.5192 13.8147 0.0000 -11129.1097 1484.2008 0.0000 0.0000 1755.5027 -7861.1107 297.4442 -9616.6134 -7734.1428 299.3786 -231.8401 -190.7520 30402.5543 -209.1579 -161.3643
TCL: Running FEP window  17: Lambda1 0.19999999999999968 Lambda2 0.1499999999999997 [dLambda -0.04999999999999999]
TCL: Setting parameter firsttimestep to 0
TCL: Setting parameter alchLambda to 0.19999999999999968
Info: NONBONDED TABLE R-SQUARED SPACING: 0.0625
Info: NONBONDED TABLE SIZE: 705 POINTS
TCL: Setting parameter alchLambda2 to 0.1499999999999997
Info: NONBONDED TABLE R-SQUARED SPACING: 0.0625
Info: NONBONDED TABLE SIZE: 705 POINTS
TCL: Running for 1500000 steps
ETITLE: TS BOND ANGLE DIHED IMPRP ELECT VDW BOUNDARY MISC KINETIC TOTAL TEMP POTENTIAL TOTALAVG TEMPAVG PRESSURE GPRESSURE VOLUME PRESSAVG GPRESSAVG
ENERGY: 0 6.9616 7.5192 13.8147 0.0000 -11129.1097 1483.9387 0.0000 0.0000 1754.6433 -7862.2321 297.2986 -9616.8755 -7862.2321 297.2986 -267.2863 -195.7008 30402.5543 -267.2863 -195.7008
ENERGY: 300000 3.4229 3.9433 13.8114 0.0000 -11070.5165 1470.1279 0.0000 0.0000 1779.2174 -7799.9936 301.4623 -9579.2110 -7739.8170 302.1115 -108.0898 -119.4988 30430.2577 -193.8384 -143.3368
ENERGY: 600000 4.8793 6.0093 15.8102 0.0000 -10958.7901 1384.1116 0.0000 0.0000 1789.3218 -7758.6579 303.1743 -9547.9797 -7718.3737 301.4799 -812.8367 -773.3418 30638.5719 -272.7765 -227.4315
ENERGY: 900000 8.4358 6.5474 16.0796 0.0000 -10884.9497 1416.0805 0.0000 0.0000 1765.5456 -7672.2608 299.1458 -9437.8064 -7709.6713 300.4435 -294.4171 -230.1725 31040.5618 -180.3377 -128.1834
ENERGY: 1200000 3.9025 6.4613 15.8153 0.0000 -10960.5528 1421.8769 0.0000 0.0000 1798.1005 -7714.3962 304.6617 -9512.4967 -7694.8412 301.6653 -292.6831 -245.1073 30335.8322 -180.8739 -124.6332
ENERGY: 1500000 3.3462 6.1957 15.5097 0.0000 -10872.2587 1428.4196 0.0000 0.0000 1777.0940 -7641.6936 301.1025 -9418.7875 -7695.7400 300.9050 79.9967 91.8735 30421.1733 -110.5088 -56.4010
TCL: Running FEP window  18: Lambda1 0.1499999999999997 Lambda2 0.09999999999999969 [dLambda -0.05 ]
TCL: Setting parameter firsttimestep to 0
TCL: Setting parameter alchLambda to 0.1499999999999997
Info: NONBONDED TABLE R-SQUARED SPACING: 0.0625
Info: NONBONDED TABLE SIZE: 705 POINTS
TCL: Setting parameter alchLambda2 to 0.09999999999999969
Info: NONBONDED TABLE R-SQUARED SPACING: 0.0625
Info: NONBONDED TABLE SIZE: 705 POINTS
TCL: Running for 1500000 steps
ETITLE: TS BOND ANGLE DIHED IMPRP ELECT VDW BOUNDARY MISC KINETIC TOTAL TEMP POTENTIAL TOTALAVG TEMPAVG PRESSURE GPRESSURE VOLUME PRESSAVG GPRESSAVG
ENERGY: 0 3.3462 6.1957 15.5097 0.0000 -10872.2600 1428.6519 0.0000 0.0000 1776.2179 -7642.3386 300.9540 -9418.5566 -7642.3386 300.9540 4.6625 88.0056 30421.1733 4.6625 88.0056
ENERGY: 300000 2.6871 8.3444 12.7602 0.0000 -10944.4213 1420.0620 0.0000 0.0000 1813.5077 -7687.0599 307.2723 -9500.5676 -7654.2834 304.6204 -116.9755 -72.8583 30146.6991 -148.4073 -79.9654
ENERGY: 600000 7.4222 7.8182 14.5479 0.0000 -11059.5451 1563.5971 0.0000 0.0000 1795.3736 -7670.7862 304.1997 -9466.1598 -7655.8019 304.8214 994.8122 1057.1293 30465.3357 87.3531 156.3807
ENERGY: 900000 7.1855 5.6939 13.0964 0.0000 -10984.8250 1504.8596 0.0000 0.0000 1690.5512 -7763.4384 286.4391 -9453.9896 -7684.6342 301.9892 312.2464 445.0126 30474.6579 34.1807 108.5307
ENERGY: 1200000 3.9383 7.1326 14.7323 0.0000 -11015.9702 1509.8372 0.0000 0.0000 1767.7180 -7712.6118 299.5139 -9480.3299 -7685.4542 302.6815 183.7516 283.0336 30488.1346 119.1448 189.5293
ENERGY: 1500000 2.0757 6.8362 14.8787 0.0000 -10933.2315 1431.3671 0.0000 0.0000 1741.8878 -7736.1859 295.1373 -9478.0737 -7691.6570 301.8573 -265.7279 -161.2151 30345.5853 90.6040 172.1042
TCL: Running FEP window  19: Lambda1 0.09999999999999969 Lambda2 0.049999999999999684 [dLambda -0.05 ]
TCL: Setting parameter firsttimestep to 0
TCL: Setting parameter alchLambda to 0.09999999999999969
Info: NONBONDED TABLE R-SQUARED SPACING: 0.0625
Info: NONBONDED TABLE SIZE: 705 POINTS
TCL: Setting parameter alchLambda2 to 0.049999999999999684
Info: NONBONDED TABLE R-SQUARED SPACING: 0.0625
Info: NONBONDED TABLE SIZE: 705 POINTS
TCL: Running for 1500000 steps
ETITLE: TS BOND ANGLE DIHED IMPRP ELECT VDW BOUNDARY MISC KINETIC TOTAL TEMP POTENTIAL TOTALAVG TEMPAVG PRESSURE GPRESSURE VOLUME PRESSAVG GPRESSAVG
ENERGY: 0 2.0757 6.8362 14.8787 0.0000 -10933.2318 1431.2401 0.0000 0.0000 1740.9801 -7737.2210 294.9835 -9478.2011 -7737.2210 294.9835 -240.4653 -161.8407 30345.5853 -240.4653 -161.8407
ENERGY: 300000 3.6892 3.9484 13.5279 0.0000 -10991.5895 1452.2899 0.0000 0.0000 1767.3165 -7750.8175 299.4458 -9518.1341 -7779.5667 293.4837 23.7696 62.8617 30108.4363 -233.7472 -166.7865
ENERGY: 600000 2.6782 5.4116 17.0177 0.0000 -10870.8275 1421.7635 0.0000 0.0000 1795.0199 -7628.9365 304.1398 -9423.9565 -7748.4158 295.7136 -262.6284 -238.8283 30746.9993 -224.2379 -184.9189
ENERGY: 900000 3.1449 6.8893 15.4345 0.0000 -11018.1685 1460.6988 0.0000 0.0000 1773.3911 -7758.6098 300.4751 -9532.0010 -7751.7205 296.3360 -236.1888 -128.4850 30488.2686 -210.8016 -152.2872
ENERGY: 1200000 2.8527 6.3453 14.9942 0.0000 -10899.2908 1456.2496 0.0000 0.0000 1780.5467 -7638.3023 301.6875 -9418.8491 -7747.6217 296.6574 293.2665 395.1688 30343.6593 -161.6107 -103.9964
ENERGY: 1500000 2.1048 4.6117 14.2713 0.0000 -10997.3902 1456.5699 0.0000 0.0000 1829.4266 -7690.4059 309.9695 -9519.8325 -7739.0744 297.5330 -114.7986 -14.6880 30358.0884 -197.2087 -136.2488
TCL: Running FEP window  20: Lambda1 0.049999999999999684 Lambda2 0.0    [dLambda -0.049999999999999684]
TCL: Setting parameter firsttimestep to 0
TCL: Setting parameter alchLambda to 0.049999999999999684
Info: NONBONDED TABLE R-SQUARED SPACING: 0.0625
Info: NONBONDED TABLE SIZE: 705 POINTS
TCL: Setting parameter alchLambda2 to 0.0
Info: NONBONDED TABLE R-SQUARED SPACING: 0.0625
Info: NONBONDED TABLE SIZE: 705 POINTS
TCL: Running for 1500000 steps
ETITLE: TS BOND ANGLE DIHED IMPRP ELECT VDW BOUNDARY MISC KINETIC TOTAL TEMP POTENTIAL TOTALAVG TEMPAVG PRESSURE GPRESSURE VOLUME PRESSAVG GPRESSAVG
ENERGY: 0 2.1048 4.6117 14.2713 0.0000 -10997.3902 1456.5150 0.0000 0.0000 1828.5354 -7691.3520 309.8185 -9519.8874 -7691.3520 309.8185 -96.9709 -16.1787 30358.0884 -96.9709 -16.1787
ENERGY: 300000 3.2140 5.7843 13.6233 0.0000 -10938.4980 1368.6256 0.0000 0.0000 1768.1063 -7779.1445 299.5796 -9547.2508 -7735.6844 301.7491 -736.9620 -684.8343 30063.9437 -252.0916 -173.8183
ENERGY: 600000 6.3356 4.2489 16.0239 0.0000 -10936.1976 1427.7082 0.0000 0.0000 1754.2837 -7727.5973 297.2376 -9481.8810 -7718.9512 302.3402 -168.4792 -123.7712 30081.2726 -272.9792 -215.1007
ENERGY: 900000 3.6398 5.4211 13.7627 0.0000 -10905.3633 1385.7074 0.0000 0.0000 1736.6187 -7760.2136 294.2445 -9496.8323 -7725.8469 300.5424 -591.3754 -560.9330 30525.4196 -206.0323 -155.9416
ENERGY: 1200000 2.2671 4.4643 15.6148 0.0000 -10936.6727 1455.1718 0.0000 0.0000 1794.4765 -7664.6781 304.0477 -9459.1546 -7722.2815 300.5940 290.7649 398.1246 30213.6804 -185.0539 -135.8010
ENERGY: 1500000 2.2923 6.1389 14.5333 0.0000 -10957.4747 1460.6918 0.0000 0.0000 1812.1998 -7661.6185 307.0506 -9473.8183 -7710.7748 301.4088 83.9675 113.7117 30665.9577 -202.3367 -152.1712
TCL: Exiting due to exit command.
