Info: SIMULATION PARAMETERS:
Info: TIMESTEP               2
Info: NUMBER OF STEPS        0
Info: STEPS PER CYCLE        10
Info: PERIODIC CELL BASIS 1  30.0498 0 0
Info: PERIODIC CELL BASIS 2  0 30.3304 0
Info: PERIODIC CELL BASIS 3  0 0 32.9288
Info: PERIODIC CELL CENTER   0 0 0
Info: WRAPPING WATERS AROUND PERIODIC BOUNDARIES ON OUTPUT.
Info: WRAPPING ALL CLUSTERS AROUND PERIODIC BOUNDARIES ON OUTPUT.
Info: FIRST LDB TIMESTEP     50
Info: LAST LDB TIMESTEP     -1
Info: HOM BACKGROUND SCALING 1
Info: PME BACKGROUND SCALING 1
Info: MIN ATOMS PER PATCH    40
Info: EMPTY PATCH LOAD       40 ATOMS
Info: VELOCITY FILE          mobley_1963873_equil.vel
Info: CENTER OF MASS MOVING INITIALLY? NO
Info: DIELECTRIC             1
Info: EXCLUDE                SCALED ONE-FOUR
Info: 1-4 ELECTROSTATICS SCALED BY 0.833333
Info: MODIFIED 1-4 VDW PARAMETERS WILL BE USED
Info: DCD FILENAME           mobley_1963873_prod.dcd
Info: DCD FREQUENCY          100000
Info: DCD FIRST STEP         100000
Info: DCD FILE WILL CONTAIN UNIT CELL DATA
Info: XST FILENAME           mobley_1963873_prod.xst
Info: XST FREQUENCY          100000
Info: NO VELOCITY DCD OUTPUT
Info: NO FORCE DCD OUTPUT
Info: OUTPUT FILENAME        mobley_1963873_prod
Info: BINARY OUTPUT FILES WILL BE USED
Info: RESTART FILENAME       mobley_1963873_prod.restart
Info: RESTART FREQUENCY      100000
Info: BINARY RESTART FILES WILL BE USED
Info: CUTOFF                 9
Info: PAIRLIST DISTANCE      11
Info: PAIRLIST SHRINK RATE   0.01
Info: PAIRLIST GROW RATE     0.01
Info: PAIRLIST TRIGGER       0.3
Info: PAIRLISTS PER CYCLE    2
Info: PAIRLISTS ENABLED
Info: MARGIN                 2
Info: HYDROGEN GROUP CUTOFF  2.5
Info: PATCH DIMENSION        15.5
Info: ENERGY OUTPUT STEPS    100000
Info: ENERGY EVALUATION STEPS    100000
Info: OUTPUT ENERGY PRECISION 4
Info: CROSSTERM ENERGY INCLUDED IN DIHEDRAL
Info: TIMING OUTPUT STEPS    1000000
Info: PRESSURE OUTPUT STEPS  100000
Info: ALCHEMICAL FEP ON
Info: FEP CURRENT LAMBDA VALUE     1
Info: FEP COMPARISON LAMBDA VALUE  0.95
Info: FEP INTRA-ALCHEMICAL NON-BONDED INTERACTIONS WILL BE RETAINED
Info: FEP INTRA-ALCHEMICAL BONDED INTERACTIONS WILL BE RETAINED
Info: FEP VDW SHIFTING COEFFICIENT 5
Info: FEP ELEC. ACTIVE FOR ANNIHILATED PARTICLES BETWEEN LAMBDA = 0 AND LAMBDA = 0.5
Info: FEP ELEC. ACTIVE FOR EXNIHILATED PARTICLES BETWEEN LAMBDA = 0.5 AND LAMBDA = 1
Info: FEP VDW ACTIVE FOR ANNIHILATED PARTICLES BETWEEN LAMBDA = 0 AND LAMBDA = 1
Info: FEP VDW ACTIVE FOR EXNIHILATED PARTICLES BETWEEN LAMBDA = 0 AND LAMBDA = 1
Info: FEP BOND ACTIVE FOR ANNIHILATED PARTICLES BETWEEN LAMBDA = 1 AND LAMBDA = 1
Info: FEP BOND ACTIVE FOR EXNIHILATED PARTICLES BETWEEN LAMBDA = 0 AND LAMBDA = 0
Info: LANGEVIN DYNAMICS ACTIVE
Info: LANGEVIN TEMPERATURE   300
Info: LANGEVIN USING BBK INTEGRATOR
Info: LANGEVIN DAMPING COEFFICIENT IS 1 INVERSE PS
Info: LANGEVIN DYNAMICS APPLIED TO HYDROGENS
Info: LANGEVIN PISTON PRESSURE CONTROL ACTIVE
Info:        TARGET PRESSURE IS 1.01325 BAR
Info:     OSCILLATION PERIOD IS 50 FS
Info:             DECAY TIME IS 25 FS
Info:     PISTON TEMPERATURE IS 300 K
Info:       PRESSURE CONTROL IS GROUP-BASED
Info:    INITIAL STRAIN RATE IS -0.000189435 -0.000189435 -0.000189435
Info:       CELL FLUCTUATION IS ISOTROPIC
Info: PARTICLE MESH EWALD (PME) ACTIVE
Info: PME TOLERANCE               1e-06
Info: PME EWALD COEFFICIENT       0.348832
Info: PME INTERPOLATION ORDER     4
Info: PME GRID DIMENSIONS         32 32 36
Info: PME MAXIMUM GRID SPACING    1
Info: PME CALCULATION WILL BE PERFORMED ON GPU
Info: FULL ELECTROSTATIC EVALUATION FREQUENCY      2
Info: USING VERLET I (r-RESPA) MTS SCHEME.
Info: C1 SPLITTING OF LONG RANGE ELECTROSTATICS
Info: PLACING ATOMS IN PATCHES BY HYDROGEN GROUPS
Info: RIGID BONDS TO HYDROGEN : ALL
Info:         ERROR TOLERANCE : 1e-08
Info:          MAX ITERATIONS : 100
Info: RIGID WATER USING SETTLE ALGORITHM
Info: RANDOM NUMBER SEED     1743534936
Info: USE HYDROGEN BONDS?    NO
Info: Using AMBER format force field!
Info: AMBER PARM FILE        mobley_1963873.prmtop
Info: COORDINATE PDB         mobley_1963873.pdb
Info: Exclusions will be read from PARM file!
Info: SCNB (VDW SCALING)     2
Info: USING ARITHMETIC MEAN TO COMBINE L-J SIGMA PARAMETERS
Info: BINARY COORDINATES     mobley_1963873_equil.coor
Info: SUMMARY OF PARAMETERS:
Info: 9 BONDS
Info: 10 ANGLES
Info:   10 HARMONIC
Info:   0 COSINE-BASED
Info: 9 DIHEDRAL
Info: 0 IMPROPER
Info: 0 CROSSTERM
Info: 0 VDW
Info: 45 VDW_PAIRS
Info: 0 NBTHOLE_PAIRS
Info: To read alchdata from file: mobley_1963873.pdb
Info: To read alchflag data from column: 5
Info: STRUCTURE SUMMARY:
Info: 2910 ATOMS
Info: 2909 BONDS
Info: 18 ANGLES
Info: 26 DIHEDRALS
Info: 0 IMPROPERS
Info: 0 CROSSTERMS
Info: 2943 EXCLUSIONS
Info: 2905 RIGID BONDS
Info: ALCH: 0 ATOMS TO DISAPPEAR IN FINAL STATE
Info: ALCH: 12 ATOMS TO APPEAR IN FINAL STATE
Info: 5825 DEGREES OF FREEDOM
Info: 971 HYDROGEN GROUPS
Info: 4 ATOMS IN LARGEST HYDROGEN GROUP
Info: 971 MIGRATION GROUPS
Info: 4 ATOMS IN LARGEST MIGRATION GROUP
Info: TOTAL MASS = 17476.6 amu
Info: TOTAL CHARGE = -0.000199951 e
Info: MASS DENSITY = 0.966985 g/cm^3
Info: ATOM DENSITY = 0.0969612 atoms/A^3
Info: ADDED 0 IMPLICIT EXCLUSIONS
Info: NONBONDED TABLE R-SQUARED SPACING: 0.0625
Info: NONBONDED TABLE SIZE: 705 POINTS
Info: REMOVING COM VELOCITY 0.0265631 0.0845863 0.0569791
Info: Use 3D box decompostion in PME FFT.
Info: Updated CUDA force table with 4096 elements.
Info: Updated CUDA LJ table with 9 x 9 elements.
Info: Found 15 unique exclusion lists needing 24 bytes
TCL: Running for 1500000 steps
ETITLE: TS BOND ANGLE DIHED IMPRP ELECT VDW BOUNDARY MISC KINETIC TOTAL TEMP POTENTIAL TOTALAVG TEMPAVG PRESSURE GPRESSURE VOLUME PRESSAVG GPRESSAVG
ENERGY: 0 3.3410 3.3494 5.3737 0.0000 -10676.9829 1464.0534 0.0000 0.0000 1731.1544 -7469.7110 299.1095 -9200.8654 -7469.7110 299.1095 69.1964 155.5720 30012.0136 69.1964 155.5720
ENERGY: 300000 0.2769 4.4972 6.4998 0.0000 -10509.8300 1383.7309 0.0000 0.0000 1740.9039 -7373.9214 300.7941 -9114.8253 -7403.6881 303.6103 -244.2889 -164.1296 30238.2532 -311.5084 -244.8361
ENERGY: 600000 4.9073 5.9957 6.1518 0.0000 -10488.0270 1380.2563 0.0000 0.0000 1749.5249 -7341.1910 302.2836 -9090.7159 -7424.0953 301.2283 -263.8166 -167.0133 30317.6537 -205.9722 -146.6448
ENERGY: 900000 0.3972 3.5795 7.7325 0.0000 -10667.7778 1436.5430 0.0000 0.0000 1803.3583 -7416.1673 311.5849 -9219.5256 -7428.5959 302.4776 10.5669 37.5307 30007.3178 -282.6307 -226.8831
ENERGY: 1200000 1.3127 4.9391 5.7662 0.0000 -10605.4764 1474.8013 0.0000 0.0000 1724.9775 -7393.6795 298.0423 -9118.6571 -7431.8670 302.4326 440.9917 493.7052 30331.9558 -171.2224 -115.5522
ENERGY: 1500000 0.9660 4.2343 6.8643 0.0000 -10657.3058 1462.4268 0.0000 0.0000 1738.9350 -7443.8793 300.4539 -9182.8144 -7431.2929 301.8158 203.4201 253.2173 30128.0647 -112.1529 -59.0917
TCL: Running FEP window   2: Lambda1 0.95   Lambda2 0.8999999999999999 [dLambda -0.050000000000000044]
TCL: Setting parameter firsttimestep to 0
TCL: Setting parameter alchLambda to 0.95
Info: NONBONDED TABLE R-SQUARED SPACING: 0.0625
Info: NONBONDED TABLE SIZE: 705 POINTS
TCL: Setting parameter alchLambda2 to 0.8999999999999999
Info: NONBONDED TABLE R-SQUARED SPACING: 0.0625
Info: NONBONDED TABLE SIZE: 705 POINTS
TCL: Running for 1500000 steps
ETITLE: TS BOND ANGLE DIHED IMPRP ELECT VDW BOUNDARY MISC KINETIC TOTAL TEMP POTENTIAL TOTALAVG TEMPAVG PRESSURE GPRESSURE VOLUME PRESSAVG GPRESSAVG
ENERGY: 0 0.9660 4.2343 6.8643 0.0000 -10653.9620 1461.3998 0.0000 0.0000 1738.0764 -7442.4212 300.3055 -9180.4976 -7442.4212 300.3055 147.5813 237.6749 30128.0647 147.5813 237.6749
ENERGY: 300000 0.1374 2.4358 7.3576 0.0000 -10605.3711 1381.5891 0.0000 0.0000 1679.6915 -7534.1597 290.2178 -9213.8512 -7442.9574 298.9327 -293.2334 -186.7070 29475.5056 -168.5931 -99.8170
ENERGY: 600000 3.0053 5.0024 7.1936 0.0000 -10463.7561 1344.6652 0.0000 0.0000 1737.7137 -7366.1760 300.2429 -9103.8897 -7428.2544 298.9483 -470.5070 -416.7095 29941.6906 -246.8101 -183.3881
ENERGY: 900000 1.7196 6.0008 6.5200 0.0000 -10483.0985 1364.5556 0.0000 0.0000 1741.9185 -7362.3840 300.9694 -9104.3025 -7438.0124 297.2266 -136.8798 -101.5017 30012.8983 -151.7009 -94.4588
ENERGY: 1200000 0.5673 2.2756 5.5188 0.0000 -10522.7530 1382.9228 0.0000 0.0000 1753.6055 -7377.8629 302.9886 -9131.4685 -7434.2092 298.4176 3.5320 3.2036 30114.0181 -138.2697 -89.6652
ENERGY: 1500000 0.1456 5.5064 5.4903 0.0000 -10518.0484 1340.5718 0.0000 0.0000 1727.6789 -7438.6554 298.5090 -9166.3343 -7428.1632 299.0180 -595.5879 -498.1615 30144.7352 -119.1946 -65.2764
TCL: Running FEP window   3: Lambda1 0.8999999999999999 Lambda2 0.8499999999999999 [dLambda -0.050000000000000044]
TCL: Setting parameter firsttimestep to 0
TCL: Setting parameter alchLambda to 0.8999999999999999
Info: NONBONDED TABLE R-SQUARED SPACING: 0.0625
Info: NONBONDED TABLE SIZE: 705 POINTS
TCL: Setting parameter alchLambda2 to 0.8499999999999999
Info: NONBONDED TABLE R-SQUARED SPACING: 0.0625
Info: NONBONDED TABLE SIZE: 705 POINTS
TCL: Running for 1500000 steps
ETITLE: TS BOND ANGLE DIHED IMPRP ELECT VDW BOUNDARY MISC KINETIC TOTAL TEMP POTENTIAL TOTALAVG TEMPAVG PRESSURE GPRESSURE VOLUME PRESSAVG GPRESSAVG
ENERGY: 0 0.1456 5.5064 5.4903 0.0000 -10515.9237 1338.7955 0.0000 0.0000 1726.8263 -7439.1595 298.3617 -9165.9858 -7439.1595 298.3617 -619.0157 -526.4789 30144.7352 -619.0157 -526.4789
ENERGY: 300000 1.7662 4.5642 6.7707 0.0000 -10579.3866 1402.6909 0.0000 0.0000 1701.4327 -7462.1620 293.9742 -9163.5947 -7413.5460 298.5902 -17.5153 30.2242 29791.9921 -390.0429 -322.0579
ENERGY: 600000 0.5453 3.4353 5.7837 0.0000 -10537.2208 1400.4975 0.0000 0.0000 1707.4881 -7419.4708 295.0205 -9126.9589 -7438.0463 298.3090 -44.4350 45.7791 29784.3385 -430.8444 -373.0554
ENERGY: 900000 1.9298 3.9240 7.0848 0.0000 -10625.2629 1445.4562 0.0000 0.0000 1731.1657 -7435.7024 299.1115 -9166.8681 -7426.6831 298.8544 211.0175 294.0169 29974.5697 -393.3593 -330.9675
ENERGY: 1200000 1.5921 4.1989 6.1643 0.0000 -10515.4541 1406.3111 0.0000 0.0000 1729.3727 -7367.8151 298.8017 -9097.1878 -7422.0335 298.2057 -15.1656 47.6418 30359.7588 -270.8019 -210.3127
ENERGY: 1500000 0.2174 1.7554 6.7424 0.0000 -10556.3298 1422.3152 0.0000 0.0000 1773.6438 -7351.6556 306.4509 -9125.2995 -7426.7903 298.9388 67.0017 107.3402 30112.2495 -215.6029 -150.6394
TCL: Running FEP window   4: Lambda1 0.8499999999999999 Lambda2 0.7999999999999998 [dLambda -0.050000000000000044]
TCL: Setting parameter firsttimestep to 0
TCL: Setting parameter alchLambda to 0.8499999999999999
Info: NONBONDED TABLE R-SQUARED SPACING: 0.0625
Info: NONBONDED TABLE SIZE: 705 POINTS
TCL: Setting parameter alchLambda2 to 0.7999999999999998
Info: NONBONDED TABLE R-SQUARED SPACING: 0.0625
Info: NONBONDED TABLE SIZE: 705 POINTS
TCL: Running for 1500000 steps
ETITLE: TS BOND ANGLE DIHED IMPRP ELECT VDW BOUNDARY MISC KINETIC TOTAL TEMP POTENTIAL TOTALAVG TEMPAVG PRESSURE GPRESSURE VOLUME PRESSAVG GPRESSAVG
ENERGY: 0 0.2174 1.7554 6.7424 0.0000 -10554.1233 1421.8004 0.0000 0.0000 1772.7895 -7350.8182 306.3033 -9123.6077 -7350.8182 306.3033 20.7999 96.5334 30112.2495 20.7999 96.5334
ENERGY: 300000 0.4369 4.0412 6.4184 0.0000 -10363.0286 1271.3781 0.0000 0.0000 1762.9029 -7317.8511 304.5951 -9080.7540 -7373.3182 300.4972 -857.3478 -759.1837 29902.1650 -115.6416 -43.6199
ENERGY: 600000 0.9853 3.4278 8.2496 0.0000 -10645.9661 1457.0761 0.0000 0.0000 1747.1042 -7429.1231 301.8653 -9176.2273 -7407.8409 297.2874 462.9356 448.3095 29799.3106 63.4714 119.3700
ENERGY: 900000 1.7109 2.7596 6.5476 0.0000 -10638.0370 1434.4190 0.0000 0.0000 1735.0433 -7457.5567 299.7815 -9192.6000 -7412.5570 298.4848 220.1474 166.7764 30052.2661 -90.5110 -51.7186
ENERGY: 1200000 2.0519 2.5534 6.3439 0.0000 -10535.0445 1374.0560 0.0000 0.0000 1699.1058 -7450.9336 293.5722 -9150.0393 -7415.2544 298.6486 -293.7222 -211.7991 29616.1492 -127.6146 -71.5624
ENERGY: 1500000 0.7648 7.0757 5.4866 0.0000 -10508.3984 1340.3969 0.0000 0.0000 1745.3042 -7409.3703 301.5543 -9154.6745 -7427.5628 299.1309 -648.6839 -547.0011 29909.0337 -164.0599 -101.0451
TCL: Running FEP window   5: Lambda1 0.7999999999999998 Lambda2 0.7499999999999998 [dLambda -0.050000000000000044]
TCL: Setting parameter firsttimestep to 0
TCL: Setting parameter alchLambda to 0.7999999999999998
Info: NONBONDED TABLE R-SQUARED SPACING: 0.0625
Info: NONBONDED TABLE SIZE: 705 POINTS
TCL: Setting parameter alchLambda2 to 0.7499999999999998
Info: NONBONDED TABLE R-SQUARED SPACING: 0.0625
Info: NONBONDED TABLE SIZE: 705 POINTS
TCL: Running for 1500000 steps
ETITLE: TS BOND ANGLE DIHED IMPRP ELECT VDW BOUNDARY MISC KINETIC TOTAL TEMP POTENTIAL TOTALAVG TEMPAVG PRESSURE GPRESSURE VOLUME PRESSAVG GPRESSAVG
ENERGY: 0 0.7648 7.0757 5.4866 0.0000 -10506.1571 1340.1624 0.0000 0.0000 1744.4459 -7408.2218 301.4061 -9152.6677 -7408.2218 301.4061 -619.5594 -551.2191 29909.0337 -619.5594 -551.2191
ENERGY: 300000 0.9019 8.5593 6.8170 0.0000 -10621.1592 1397.3168 0.0000 0.0000 1732.9805 -7474.5836 299.4250 -9207.5641 -7431.1606 297.1863 -323.7514 -267.7168 29888.2586 -290.2356 -223.9605
ENERGY: 600000 2.3505 5.2167 6.3581 0.0000 -10485.8733 1336.8688 0.0000 0.0000 1735.4397 -7399.6393 299.8500 -9135.0791 -7442.8931 297.2618 -661.9679 -585.9962 30318.9593 -351.3002 -283.4004
ENERGY: 900000 1.7223 5.3331 6.1066 0.0000 -10529.0614 1426.4443 0.0000 0.0000 1741.3574 -7348.0976 300.8724 -9089.4551 -7425.2309 299.0553 187.0497 234.5437 30113.3305 -86.2789 -30.3440
ENERGY: 1200000 1.1828 5.7450 6.6884 0.0000 -10501.5657 1396.1634 0.0000 0.0000 1737.8867 -7353.8995 300.2727 -9091.7861 -7432.8414 298.9788 -57.6090 40.3967 30257.7987 -63.6655 -1.5929
ENERGY: 1500000 0.9973 2.6351 6.8585 0.0000 -10526.6998 1397.6663 0.0000 0.0000 1734.5822 -7383.9603 299.7018 -9118.5426 -7430.9600 299.5377 -128.7755 -66.9251 29880.5529 -98.3731 -36.6013
TCL: Running FEP window   6: Lambda1 0.7499999999999998 Lambda2 0.6999999999999997 [dLambda -0.050000000000000044]
TCL: Setting parameter firsttimestep to 0
TCL: Setting parameter alchLambda to 0.7499999999999998
Info: NONBONDED TABLE R-SQUARED SPACING: 0.0625
Info: NONBONDED TABLE SIZE: 705 POINTS
TCL: Setting parameter alchLambda2 to 0.6999999999999997
Info: NONBONDED TABLE R-SQUARED SPACING: 0.0625
Info: NONBONDED TABLE SIZE: 705 POINTS
TCL: Running for 1500000 steps
ETITLE: TS BOND ANGLE DIHED IMPRP ELECT VDW BOUNDARY MISC KINETIC TOTAL TEMP POTENTIAL TOTALAVG TEMPAVG PRESSURE GPRESSURE VOLUME PRESSAVG GPRESSAVG
ENERGY: 0 0.9973 2.6351 6.8585 0.0000 -10525.5854 1397.1302 0.0000 0.0000 1733.7311 -7384.2332 299.5547 -9117.9643 -7384.2332 299.5547 -160.0383 -77.6367 29880.5529 -160.0383 -77.6367
ENERGY: 300000 1.8229 5.4013 6.0651 0.0000 -10474.8651 1399.0880 0.0000 0.0000 1737.0136 -7325.4742 300.1219 -9062.4878 -7394.4145 300.5735 140.8533 158.3705 30094.3929 29.4681 60.0810
ENERGY: 600000 1.3039 7.3411 7.4308 0.0000 -10649.5495 1390.6174 0.0000 0.0000 1730.7513 -7512.1050 299.0399 -9242.8562 -7439.9505 298.6013 -490.7908 -390.3803 29599.5932 -146.1874 -93.7392
ENERGY: 900000 1.3290 5.7227 5.7321 0.0000 -10663.4986 1468.6970 0.0000 0.0000 1700.6210 -7481.3968 293.8340 -9182.0178 -7451.1781 297.4095 93.5941 186.4308 29999.6177 -71.4164 -23.1335
ENERGY: 1200000 0.9660 2.0607 6.0179 0.0000 -10538.3541 1469.1393 0.0000 0.0000 1707.8926 -7352.2775 295.0903 -9060.1701 -7451.0538 297.0119 442.3172 514.7405 30463.5211 -68.0969 -18.4812
ENERGY: 1500000 1.5323 3.0523 6.7612 0.0000 -10468.1523 1343.6794 0.0000 0.0000 1720.1234 -7393.0036 297.2036 -9113.1271 -7446.0239 296.7858 -589.7311 -505.0219 30321.9298 -73.1275 -18.3869
TCL: Running FEP window   7: Lambda1 0.6999999999999997 Lambda2 0.6499999999999997 [dLambda -0.050000000000000044]
TCL: Setting parameter firsttimestep to 0
TCL: Setting parameter alchLambda to 0.6999999999999997
Info: NONBONDED TABLE R-SQUARED SPACING: 0.0625
Info: NONBONDED TABLE SIZE: 705 POINTS
TCL: Setting parameter alchLambda2 to 0.6499999999999997
Info: NONBONDED TABLE R-SQUARED SPACING: 0.0625
Info: NONBONDED TABLE SIZE: 705 POINTS
TCL: Running for 1500000 steps
ETITLE: TS BOND ANGLE DIHED IMPRP ELECT VDW BOUNDARY MISC KINETIC TOTAL TEMP POTENTIAL TOTALAVG TEMPAVG PRESSURE GPRESSURE VOLUME PRESSAVG GPRESSAVG
ENERGY: 0 1.5323 3.0523 6.7612 0.0000 -10467.0344 1343.8696 0.0000 0.0000 1719.2572 -7392.5618 297.0539 -9111.8190 -7392.5618 297.0539 -580.2984 -509.8344 30321.9298 -580.2984 -509.8344
ENERGY: 300000 1.4487 3.1091 6.5389 0.0000 -10504.2489 1383.5320 0.0000 0.0000 1727.6630 -7381.9571 298.5063 -9109.6201 -7402.7414 301.1731 -112.3612 -109.5590 30302.9533 44.7674 96.2132
ENERGY: 600000 1.7345 3.8457 6.4418 0.0000 -10504.7599 1390.4058 0.0000 0.0000 1764.2278 -7338.1043 304.8240 -9102.3321 -7390.2260 301.4389 -80.1204 -4.4445 30169.8573 39.7635 98.4738
ENERGY: 900000 0.3292 8.5353 5.9709 0.0000 -10571.3719 1426.1406 0.0000 0.0000 1717.9192 -7412.4769 296.8228 -9130.3961 -7403.5820 301.9067 -27.5414 25.4814 30241.5620 -12.9563 42.7146
ENERGY: 1200000 1.2394 3.0378 6.0892 0.0000 -10739.2988 1510.8503 0.0000 0.0000 1815.7557 -7402.3264 313.7270 -9218.0820 -7403.8048 301.6892 557.2986 573.6534 29924.1332 71.0383 121.7550
ENERGY: 1500000 1.8072 4.9517 7.2335 0.0000 -10561.3997 1405.2186 0.0000 0.0000 1745.0290 -7397.1596 301.5068 -9142.1887 -7415.9988 300.8146 47.4515 157.2859 29802.3540 17.0277 70.7095
TCL: Running FEP window   8: Lambda1 0.6499999999999997 Lambda2 0.5999999999999996 [dLambda -0.050000000000000044]
TCL: Setting parameter firsttimestep to 0
TCL: Setting parameter alchLambda to 0.6499999999999997
Info: NONBONDED TABLE R-SQUARED SPACING: 0.0625
Info: NONBONDED TABLE SIZE: 705 POINTS
TCL: Setting parameter alchLambda2 to 0.5999999999999996
Info: NONBONDED TABLE R-SQUARED SPACING: 0.0625
Info: NONBONDED TABLE SIZE: 705 POINTS
TCL: Running for 1500000 steps
ETITLE: TS BOND ANGLE DIHED IMPRP ELECT VDW BOUNDARY MISC KINETIC TOTAL TEMP POTENTIAL TOTALAVG TEMPAVG PRESSURE GPRESSURE VOLUME PRESSAVG GPRESSAVG
ENERGY: 0 1.8072 4.9517 7.2335 0.0000 -10559.6247 1403.7022 0.0000 0.0000 1744.1958 -7397.7343 301.3628 -9141.9300 -7397.7343 301.3628 77.9812 147.0343 29802.3540 77.9812 147.0343
ENERGY: 300000 1.3166 4.7263 6.1261 0.0000 -10588.5791 1402.3034 0.0000 0.0000 1743.7865 -7430.3202 301.2921 -9174.1067 -7455.0911 298.3286 -68.4398 -30.5874 29794.8812 -200.8839 -121.5355
ENERGY: 600000 1.0804 9.0309 5.7726 0.0000 -10663.2140 1504.8384 0.0000 0.0000 1746.9179 -7395.5738 301.8332 -9142.4917 -7424.9958 300.4741 943.1947 1064.1568 29434.2706 -70.0152 25.0037
ENERGY: 900000 0.9329 4.2789 5.9909 0.0000 -10723.9485 1528.2228 0.0000 0.0000 1730.5927 -7453.9303 299.0125 -9184.5230 -7428.4088 300.1501 488.4230 550.0599 30006.2352 -32.4168 47.6970
ENERGY: 1200000 0.7739 6.1308 6.6975 0.0000 -10659.3753 1449.1973 0.0000 0.0000 1656.4256 -7540.1501 286.1979 -9196.5757 -7442.8106 299.0908 -134.0742 11.6528 30125.0267 14.0668 101.1331
ENERGY: 1500000 0.2078 6.5649 6.2958 0.0000 -10425.9535 1371.0836 0.0000 0.0000 1754.7035 -7287.0978 303.1784 -9041.8013 -7425.8834 300.1263 7.4531 47.3674 30229.7734 68.1742 152.2300
TCL: Running FEP window   9: Lambda1 0.5999999999999996 Lambda2 0.5499999999999996 [dLambda -0.050000000000000044]
TCL: Setting parameter firsttimestep to 0
TCL: Setting parameter alchLambda to 0.5999999999999996
Info: NONBONDED TABLE R-SQUARED SPACING: 0.0625
Info: NONBONDED TABLE SIZE: 705 POINTS
TCL: Setting parameter alchLambda2 to 0.5499999999999996
Info: NONBONDED TABLE R-SQUARED SPACING: 0.0625
Info: NONBONDED TABLE SIZE: 705 POINTS
TCL: Running for 1500000 steps
ETITLE: TS BOND ANGLE DIHED IMPRP ELECT VDW BOUNDARY MISC KINETIC TOTAL TEMP POTENTIAL TOTALAVG TEMPAVG PRESSURE GPRESSURE VOLUME PRESSAVG GPRESSAVG
ENERGY: 0 0.2078 6.5649 6.2958 0.0000 -10424.8218 1371.5477 0.0000 0.0000 1753.8228 -7286.3828 303.0262 -9040.2055 -7286.3828 303.0262 -30.5797 47.1353 30229.7734 -30.5797 47.1353
ENERGY: 300000 0.6099 2.9335 6.9018 0.0000 -10738.4069 1483.9129 0.0000 0.0000 1724.4607 -7519.5881 297.9530 -9244.0488 -7395.7045 299.4488 357.0821 533.4847 29376.8966 130.7624 248.4933
ENERGY: 600000 2.7935 5.4454 6.3506 0.0000 -10601.0881 1423.2097 0.0000 0.0000 1778.6375 -7384.6513 307.3137 -9163.2888 -7379.2382 301.8067 -215.4315 -149.6326 30280.9357 -3.6153 83.4680
ENERGY: 900000 1.1051 6.1276 5.9164 0.0000 -10554.5092 1385.6930 0.0000 0.0000 1786.7287 -7368.9385 308.7117 -9155.6671 -7395.9723 300.9478 -161.4547 -66.1566 29764.3788 -19.6492 53.8265
ENERGY: 1200000 1.3048 5.7489 6.4161 0.0000 -10735.5652 1547.5313 0.0000 0.0000 1716.6939 -7457.8702 296.6110 -9174.5641 -7403.7677 300.2636 902.9618 921.6201 29864.3021 14.5687 86.5100
ENERGY: 1500000 0.6152 3.0475 6.7593 0.0000 -10579.9456 1408.0973 0.0000 0.0000 1690.3207 -7471.1057 292.0543 -9161.4263 -7412.4367 300.1682 109.4308 89.8393 29680.1453 -1.7631 58.9717
TCL: Running FEP window  10: Lambda1 0.5499999999999996 Lambda2 0.4999999999999996 [dLambda -0.04999999999999999]
TCL: Setting parameter firsttimestep to 0
TCL: Setting parameter alchLambda to 0.5499999999999996
Info: NONBONDED TABLE R-SQUARED SPACING: 0.0625
Info: NONBONDED TABLE SIZE: 705 POINTS
TCL: Setting parameter alchLambda2 to 0.4999999999999996
Info: NONBONDED TABLE R-SQUARED SPACING: 0.0625
Info: NONBONDED TABLE SIZE: 705 POINTS
TCL: Running for 1500000 steps
ETITLE: TS BOND ANGLE DIHED IMPRP ELECT VDW BOUNDARY MISC KINETIC TOTAL TEMP POTENTIAL TOTALAVG TEMPAVG PRESSURE GPRESSURE VOLUME PRESSAVG GPRESSAVG
ENERGY: 0 0.6152 3.0475 6.7593 0.0000 -10579.0905 1408.4079 0.0000 0.0000 1689.4292 -7470.8315 291.9002 -9160.2607 -7470.8315 291.9002 4.9979 88.6244 29680.1453 4.9979 88.6244
ENERGY: 300000 0.1888 5.0407 6.5120 0.0000 -10559.5431 1338.9296 0.0000 0.0000 1748.3451 -7460.5270 302.0797 -9208.8721 -7455.2201 298.8870 -1009.6585 -963.4911 30368.3862 -406.6537 -328.1053
ENERGY: 600000 0.2782 3.4105 8.2782 0.0000 -10639.7206 1472.4387 0.0000 0.0000 1749.6444 -7405.6706 302.3042 -9155.3150 -7435.4760 300.2641 404.4542 412.0508 29930.1405 -155.5325 -82.1001
ENERGY: 900000 0.7224 3.5236 6.0152 0.0000 -10566.1317 1365.8002 0.0000 0.0000 1788.8299 -7401.2404 309.0747 -9190.0704 -7439.3515 301.0916 -585.6786 -534.3358 30345.3140 -264.0817 -186.3270
ENERGY: 1200000 1.8323 5.4376 5.8246 0.0000 -10680.1043 1396.0916 0.0000 0.0000 1802.9693 -7467.9489 311.5177 -9270.9182 -7440.1485 300.8885 -512.4382 -383.2192 29864.8217 -275.0096 -195.2870
ENERGY: 1500000 1.1213 4.4547 6.3607 0.0000 -10672.6315 1432.8658 0.0000 0.0000 1738.0015 -7489.8275 300.2926 -9227.8291 -7444.0940 300.5295 61.7851 84.9938 29512.7076 -253.3631 -181.6666
TCL: Running FEP window  11: Lambda1 0.4999999999999996 Lambda2 0.4499999999999996 [dLambda -0.04999999999999999]
TCL: Setting parameter firsttimestep to 0
TCL: Setting parameter alchLambda to 0.4999999999999996
Info: NONBONDED TABLE R-SQUARED SPACING: 0.0625
Info: NONBONDED TABLE SIZE: 705 POINTS
TCL: Setting parameter alchLambda2 to 0.4499999999999996
Info: NONBONDED TABLE R-SQUARED SPACING: 0.0625
Info: NONBONDED TABLE SIZE: 705 POINTS
TCL: Running for 1500000 steps
ETITLE: TS BOND ANGLE DIHED IMPRP ELECT VDW BOUNDARY MISC KINETIC TOTAL TEMP POTENTIAL TOTALAVG TEMPAVG PRESSURE GPRESSURE VOLUME PRESSAVG GPRESSAVG
ENERGY: 0 1.1213 4.4547 6.3607 0.0000 -10672.4231 1432.4344 0.0000 0.0000 1737.1492 -7490.9028 300.1453 -9228.0520 -7490.9028 300.1453 -14.3777 77.5524 29512.7076 -14.3777 77.5524
ENERGY: 300000 1.5051 4.0825 5.8090 0.0000 -10406.5162 1311.1219 0.0000 0.0000 1726.6652 -7357.3324 298.3339 -9083.9976 -7372.2153 302.1052 -854.6052 -813.1795 30214.9444 -410.9475 -364.3807
ENERGY: 600000 1.7291 4.4412 8.2777 0.0000 -10712.7375 1516.4667 0.0000 0.0000 1772.9923 -7408.8304 306.3383 -9181.8227 -7380.7508 304.0804 936.5392 1053.3386 29482.3448 -179.7476 -130.1438
ENERGY: 900000 1.8512 3.1126 5.6215 0.0000 -10580.5976 1404.3889 0.0000 0.0000 1702.8269 -7462.7966 294.2151 -9165.6235 -7395.2953 302.2267 -136.3980 -42.7356 30140.2897 -112.3906 -58.7830
ENERGY: 1200000 0.5893 6.5288 6.4369 0.0000 -10585.6802 1411.6308 0.0000 0.0000 1745.0406 -7415.4539 301.5088 -9160.4945 -7412.6863 300.8501 -106.4960 -70.7661 29963.7708 -247.0478 -193.4822
ENERGY: 1500000 0.2561 3.0962 6.1989 0.0000 -10475.5869 1362.1873 0.0000 0.0000 1731.5480 -7372.3004 299.1775 -9103.8485 -7408.2972 300.9175 -188.3710 -218.8334 29900.4870 -255.0888 -204.9004
TCL: Running FEP window  12: Lambda1 0.4499999999999996 Lambda2 0.39999999999999963 [dLambda -0.04999999999999999]
TCL: Setting parameter firsttimestep to 0
TCL: Setting parameter alchLambda to 0.4499999999999996
Info: NONBONDED TABLE R-SQUARED SPACING: 0.0625
Info: NONBONDED TABLE SIZE: 705 POINTS
TCL: Setting parameter alchLambda2 to 0.39999999999999963
Info: NONBONDED TABLE R-SQUARED SPACING: 0.0625
Info: NONBONDED TABLE SIZE: 705 POINTS
TCL: Running for 1500000 steps
ETITLE: TS BOND ANGLE DIHED IMPRP ELECT VDW BOUNDARY MISC KINETIC TOTAL TEMP POTENTIAL TOTALAVG TEMPAVG PRESSURE GPRESSURE VOLUME PRESSAVG GPRESSAVG
ENERGY: 0 0.2561 3.0962 6.1989 0.0000 -10475.5876 1362.0442 0.0000 0.0000 1730.6715 -7373.3207 299.0261 -9103.9922 -7373.3207 299.0261 -288.7345 -224.1452 29900.4870 -288.7345 -224.1452
ENERGY: 300000 0.7198 5.2429 6.1723 0.0000 -10541.5522 1433.8086 0.0000 0.0000 1730.0076 -7365.6010 298.9114 -9095.6087 -7389.4812 301.7723 8.9093 93.3574 30132.0701 -215.9955 -169.3819
ENERGY: 600000 1.4867 3.9921 6.0314 0.0000 -10648.6975 1418.2831 0.0000 0.0000 1708.4028 -7510.5015 295.1785 -9218.9042 -7426.3312 299.3161 -225.8166 -169.9199 29777.8016 -231.8949 -185.3360
ENERGY: 900000 0.8994 2.8738 9.3056 0.0000 -10515.6107 1345.8795 0.0000 0.0000 1749.0792 -7407.5732 302.2066 -9156.6524 -7416.3290 300.5133 -993.1782 -893.3214 30859.8245 -243.5141 -187.7739
ENERGY: 1200000 1.5149 3.2197 5.6447 0.0000 -10535.2587 1408.8431 0.0000 0.0000 1753.0978 -7362.9387 302.9009 -9116.0364 -7419.0828 301.2391 275.8724 310.1232 29750.8634 -133.3938 -81.7388
ENERGY: 1500000 1.5149 7.3659 8.3287 0.0000 -10485.9734 1341.0966 0.0000 0.0000 1704.6417 -7423.0256 294.5287 -9127.6673 -7416.5334 300.9578 -663.0784 -524.5847 29994.4837 -161.2308 -107.5670
TCL: Running FEP window  13: Lambda1 0.39999999999999963 Lambda2 0.34999999999999964 [dLambda -0.04999999999999999]
TCL: Setting parameter firsttimestep to 0
TCL: Setting parameter alchLambda to 0.39999999999999963
Info: NONBONDED TABLE R-SQUARED SPACING: 0.0625
Info: NONBONDED TABLE SIZE: 705 POINTS
TCL: Setting parameter alchLambda2 to 0.34999999999999964
Info: NONBONDED TABLE R-SQUARED SPACING: 0.0625
Info: NONBONDED TABLE SIZE: 705 POINTS
TCL: Running for 1500000 steps
ETITLE: TS BOND ANGLE DIHED IMPRP ELECT VDW BOUNDARY MISC KINETIC TOTAL TEMP POTENTIAL TOTALAVG TEMPAVG PRESSURE GPRESSURE VOLUME PRESSAVG GPRESSAVG
ENERGY: 0 1.5149 7.3659 8.3287 0.0000 -10485.9729 1341.5304 0.0000 0.0000 1703.7721 -7423.4609 294.3784 -9127.2330 -7423.4609 294.3784 -625.7796 -526.2262 29994.4837 -625.7796 -526.2262
ENERGY: 300000 0.0814 4.7102 6.0222 0.0000 -10559.6914 1414.1884 0.0000 0.0000 1717.7916 -7416.8977 296.8007 -9134.6893 -7428.9930 296.4729 -288.7831 -190.4579 30325.1925 -295.5228 -233.2884
ENERGY: 600000 1.5951 7.9586 6.4307 0.0000 -10742.8825 1492.8652 0.0000 0.0000 1749.9473 -7484.0854 302.3566 -9234.0328 -7437.6585 297.1346 549.2704 500.7079 29775.8415 -113.8974 -70.5658
ENERGY: 900000 2.2601 2.5191 7.7002 0.0000 -10688.2776 1524.8569 0.0000 0.0000 1684.4558 -7466.4856 291.0409 -9150.9414 -7454.0661 296.3297 919.6040 951.3626 29666.1733 44.2610 89.5315
ENERGY: 1200000 1.8466 3.8905 7.0002 0.0000 -10568.5001 1405.7639 0.0000 0.0000 1689.6714 -7460.3275 291.9421 -9149.9990 -7446.7691 296.4728 -40.7198 67.1724 29686.6408 31.5757 85.8548
ENERGY: 1500000 1.3054 5.2094 6.7644 0.0000 -10523.9972 1352.5567 0.0000 0.0000 1709.4534 -7448.7079 295.3600 -9158.1613 -7439.9159 296.2803 -790.2543 -695.9240 30241.6946 -5.5962 50.5331
TCL: Running FEP window  14: Lambda1 0.34999999999999964 Lambda2 0.29999999999999966 [dLambda -0.04999999999999999]
TCL: Setting parameter firsttimestep to 0
TCL: Setting parameter alchLambda to 0.34999999999999964
Info: NONBONDED TABLE R-SQUARED SPACING: 0.0625
Info: NONBONDED TABLE SIZE: 705 POINTS
TCL: Setting parameter alchLambda2 to 0.29999999999999966
Info: NONBONDED TABLE R-SQUARED SPACING: 0.0625
Info: NONBONDED TABLE SIZE: 705 POINTS
TCL: Running for 1500000 steps
ETITLE: TS BOND ANGLE DIHED IMPRP ELECT VDW BOUNDARY MISC KINETIC TOTAL TEMP POTENTIAL TOTALAVG TEMPAVG PRESSURE GPRESSURE VOLUME PRESSAVG GPRESSAVG
ENERGY: 0 1.3054 5.2094 6.7644 0.0000 -10523.9977 1352.7500 0.0000 0.0000 1708.5859 -7449.3826 295.2101 -9157.9685 -7449.3826 295.2101 -757.3579 -696.6546 30241.6946 -757.3579 -696.6546
ENERGY: 300000 1.2589 5.0689 7.6179 0.0000 -10524.0488 1358.6028 0.0000 0.0000 1730.3132 -7421.1870 298.9642 -9151.5002 -7415.4008 299.2395 -604.5319 -494.7922 30061.1913 -481.0523 -402.7527
ENERGY: 600000 2.4340 7.5681 6.7496 0.0000 -10583.6387 1382.4613 0.0000 0.0000 1695.8547 -7488.5710 293.0104 -9184.4258 -7421.8472 299.5436 -479.9683 -384.5743 30188.2884 -327.1907 -245.5937
ENERGY: 900000 0.8573 5.3451 8.4290 0.0000 -10613.8130 1462.0995 0.0000 0.0000 1817.8768 -7319.2053 314.0935 -9137.0821 -7420.0283 300.4634 226.8819 319.5150 30088.4093 -119.4236 -49.4278
ENERGY: 1200000 2.5207 4.9084 5.7847 0.0000 -10397.2078 1314.1102 0.0000 0.0000 1739.0448 -7330.8389 300.4728 -9069.8838 -7418.2245 301.0294 -674.4624 -611.1594 29872.5983 -185.8352 -117.5248
ENERGY: 1500000 1.6468 5.5220 7.2056 0.0000 -10577.3353 1452.8328 0.0000 0.0000 1758.1400 -7351.9881 303.7721 -9110.1281 -7407.3336 300.8854 165.1668 243.3834 30190.5604 -161.1742 -93.5452
TCL: Running FEP window  15: Lambda1 0.29999999999999966 Lambda2 0.24999999999999967 [dLambda -0.04999999999999999]
TCL: Setting parameter firsttimestep to 0
TCL: Setting parameter alchLambda to 0.29999999999999966
Info: NONBONDED TABLE R-SQUARED SPACING: 0.0625
Info: NONBONDED TABLE SIZE: 705 POINTS
TCL: Setting parameter alchLambda2 to 0.24999999999999967
Info: NONBONDED TABLE R-SQUARED SPACING: 0.0625
Info: NONBONDED TABLE SIZE: 705 POINTS
TCL: Running for 1500000 steps
ETITLE: TS BOND ANGLE DIHED IMPRP ELECT VDW BOUNDARY MISC KINETIC TOTAL TEMP POTENTIAL TOTALAVG TEMPAVG PRESSURE GPRESSURE VOLUME PRESSAVG GPRESSAVG
ENERGY: 0 1.6468 5.5220 7.2056 0.0000 -10577.3350 1453.2060 0.0000 0.0000 1757.2484 -7352.5062 303.6181 -9109.7546 -7352.5062 303.6181 164.3680 241.5474 30190.5604 164.3680 241.5474
ENERGY: 300000 1.6437 3.2696 5.8783 0.0000 -10599.0844 1475.0575 0.0000 0.0000 1736.3984 -7376.8370 300.0156 -9113.2353 -7414.7291 302.0544 675.7090 780.9635 29575.5443 125.9250 198.0776
ENERGY: 600000 1.4783 3.8675 5.9245 0.0000 -10555.5952 1421.8481 0.0000 0.0000 1707.5570 -7414.9197 295.0324 -9122.4768 -7411.3044 301.1219 -237.7857 -177.6771 30545.6677 -17.3478 49.6281
ENERGY: 900000 1.3286 5.5772 6.3292 0.0000 -10618.6853 1444.0744 0.0000 0.0000 1663.2304 -7498.1455 287.3736 -9161.3759 -7416.9783 298.9726 237.7664 303.9339 29653.7011 -23.7618 36.8607
ENERGY: 1200000 2.5228 5.0258 9.5902 0.0000 -10532.5405 1390.2633 0.0000 0.0000 1711.3554 -7413.7830 295.6887 -9125.1384 -7422.6988 297.5634 -208.5623 -81.0164 29798.9977 -42.0132 22.2230
ENERGY: 1500000 0.6035 5.3212 6.8644 0.0000 -10539.9906 1398.8476 0.0000 0.0000 1740.9025 -7387.4513 300.7938 -9128.3538 -7421.7073 298.1403 -289.9220 -218.4696 30319.4135 11.1442 77.1741
TCL: Running FEP window  16: Lambda1 0.24999999999999967 Lambda2 0.19999999999999968 [dLambda -0.04999999999999999]
TCL: Setting parameter firsttimestep to 0
TCL: Setting parameter alchLambda to 0.24999999999999967
Info: NONBONDED TABLE R-SQUARED SPACING: 0.0625
Info: NONBONDED TABLE SIZE: 705 POINTS
TCL: Setting parameter alchLambda2 to 0.19999999999999968
Info: NONBONDED TABLE R-SQUARED SPACING: 0.0625
Info: NONBONDED TABLE SIZE: 705 POINTS
TCL: Running for 1500000 steps
ETITLE: TS BOND ANGLE DIHED IMPRP ELECT VDW BOUNDARY MISC KINETIC TOTAL TEMP POTENTIAL TOTALAVG TEMPAVG PRESSURE GPRESSURE VOLUME PRESSAVG GPRESSAVG
ENERGY: 0 0.6035 5.3212 6.8644 0.0000 -10539.9896 1399.3075 0.0000 0.0000 1740.0309 -7387.8620 300.6432 -9127.8929 -7387.8620 300.6432 -295.8294 -217.6395 30319.4135 -295.8294 -217.6395
ENERGY: 300000 0.5194 2.6007 5.8815 0.0000 -10549.3616 1426.2951 0.0000 0.0000 1748.2669 -7365.7979 302.0662 -9114.0648 -7382.4502 300.9594 227.7702 265.7014 29966.3434 -542.2922 -472.9445
ENERGY: 600000 2.0082 4.2004 6.0240 0.0000 -10499.5020 1307.6816 0.0000 0.0000 1743.7608 -7435.8272 301.2877 -9179.5880 -7418.1630 299.6799 -789.6427 -773.5019 29801.2645 -397.0694 -333.5441
ENERGY: 900000 2.2112 6.0377 6.4144 0.0000 -10548.8263 1413.9678 0.0000 0.0000 1745.4182 -7374.7769 301.5740 -9120.1951 -7416.2282 298.8039 176.4420 216.5570 29971.3887 -276.0647 -217.1884
ENERGY: 1200000 0.4910 4.0486 5.5773 0.0000 -10610.8413 1421.8422 0.0000 0.0000 1764.4442 -7414.4380 304.8614 -9178.8822 -7423.0320 298.9470 -45.1412 -35.4845 30039.7528 -312.4148 -254.8896
ENERGY: 1500000 3.3439 6.7386 6.3815 0.0000 -10546.8632 1409.9290 0.0000 0.0000 1736.9392 -7383.5310 300.1090 -9120.4702 -7420.9405 299.1127 21.6380 67.0486 29725.8117 -282.2763 -225.6472
TCL: Running FEP window  17: Lambda1 0.19999999999999968 Lambda2 0.1499999999999997 [dLambda -0.04999999999999999]
TCL: Setting parameter firsttimestep to 0
TCL: Setting parameter alchLambda to 0.19999999999999968
Info: NONBONDED TABLE R-SQUARED SPACING: 0.0625
Info: NONBONDED TABLE SIZE: 705 POINTS
TCL: Setting parameter alchLambda2 to 0.1499999999999997
Info: NONBONDED TABLE R-SQUARED SPACING: 0.0625
Info: NONBONDED TABLE SIZE: 705 POINTS
TCL: Running for 1500000 steps
ETITLE: TS BOND ANGLE DIHED IMPRP ELECT VDW BOUNDARY MISC KINETIC TOTAL TEMP POTENTIAL TOTALAVG TEMPAVG PRESSURE GPRESSURE VOLUME PRESSAVG GPRESSAVG
ENERGY: 0 3.3439 6.7386 6.3815 0.0000 -10546.8624 1409.9314 0.0000 0.0000 1736.1066 -7384.3605 299.9652 -9120.4671 -7384.3605 299.9652 -20.7501 65.7392 29725.8117 -20.7501 65.7392
ENERGY: 300000 1.2369 3.9896 5.9587 0.0000 -10650.5104 1464.2103 0.0000 0.0000 1765.4252 -7409.6897 305.0309 -9175.1149 -7454.6755 302.9034 269.5526 345.5240 29796.4990 -65.7045 12.2067
ENERGY: 600000 0.5291 8.4378 5.7845 0.0000 -10686.7778 1478.9555 0.0000 0.0000 1723.6582 -7469.4126 297.8143 -9193.0708 -7441.2725 303.2918 407.3511 430.3312 29808.1021 -3.7634 70.6895
ENERGY: 900000 0.9530 4.7263 6.2120 0.0000 -10613.8891 1388.2153 0.0000 0.0000 1758.1360 -7455.6466 303.7714 -9213.7825 -7442.6597 301.6181 -415.8939 -376.0226 29916.8391 -135.2896 -68.9451
ENERGY: 1200000 1.9993 3.1614 6.6756 0.0000 -10497.4802 1419.2121 0.0000 0.0000 1689.1474 -7377.2844 291.8515 -9066.4318 -7435.8071 300.7424 30.4719 166.3431 29969.1276 -46.4060 23.8307
ENERGY: 1500000 2.5817 2.9698 6.9242 0.0000 -10519.9075 1368.9758 0.0000 0.0000 1753.0573 -7385.3988 302.8939 -9138.4560 -7421.5468 301.4300 -514.0267 -519.8652 30296.7774 13.8361 83.9957
TCL: Running FEP window  18: Lambda1 0.1499999999999997 Lambda2 0.09999999999999969 [dLambda -0.05 ]
TCL: Setting parameter firsttimestep to 0
TCL: Setting parameter alchLambda to 0.1499999999999997
Info: NONBONDED TABLE R-SQUARED SPACING: 0.0625
Info: NONBONDED TABLE SIZE: 705 POINTS
TCL: Setting parameter alchLambda2 to 0.09999999999999969
Info: NONBONDED TABLE R-SQUARED SPACING: 0.0625
Info: NONBONDED TABLE SIZE: 705 POINTS
TCL: Running for 1500000 steps
ETITLE: TS BOND ANGLE DIHED IMPRP ELECT VDW BOUNDARY MISC KINETIC TOTAL TEMP POTENTIAL TOTALAVG TEMPAVG PRESSURE GPRESSURE VOLUME PRESSAVG GPRESSAVG
ENERGY: 0 2.5817 2.9698 6.9242 0.0000 -10519.9082 1368.1407 0.0000 0.0000 1752.1653 -7387.1265 302.7398 -9139.2918 -7387.1265 302.7398 -609.9510 -525.1103 30296.7774 -609.9510 -525.1103
ENERGY: 300000 0.6912 4.2776 6.6972 0.0000 -10657.0181 1451.4584 0.0000 0.0000 1740.3500 -7453.5438 300.6983 -9193.8938 -7436.1647 298.8407 61.4572 182.5998 29823.2075 -115.1652 -27.6369
ENERGY: 600000 0.6879 3.5711 7.7967 0.0000 -10673.2146 1498.4129 0.0000 0.0000 1735.6741 -7427.0719 299.8905 -9162.7460 -7454.5551 297.2712 680.9871 805.0314 29473.2892 180.5618 254.9040
ENERGY: 900000 1.2235 3.3119 6.6543 0.0000 -10607.9131 1430.9247 0.0000 0.0000 1747.2858 -7418.5129 301.8967 -9165.7986 -7435.9970 298.9848 167.7081 218.9105 29749.8244 -66.1455 17.9983
ENERGY: 1200000 1.2017 4.0214 8.0949 0.0000 -10748.2918 1527.5392 0.0000 0.0000 1716.0749 -7491.3596 296.5041 -9207.4346 -7441.3963 298.5306 702.8538 765.5623 29563.3316 -61.4133 22.0381
ENERGY: 1500000 0.4191 2.8089 7.3257 0.0000 -10577.3363 1435.2958 0.0000 0.0000 1736.9357 -7394.5510 300.1084 -9131.4867 -7432.5790 298.8551 206.3038 258.0894 29666.6873 5.5699 85.3746
TCL: Running FEP window  19: Lambda1 0.09999999999999969 Lambda2 0.049999999999999684 [dLambda -0.05 ]
TCL: Setting parameter firsttimestep to 0
TCL: Setting parameter alchLambda to 0.09999999999999969
Info: NONBONDED TABLE R-SQUARED SPACING: 0.0625
Info: NONBONDED TABLE SIZE: 705 POINTS
TCL: Setting parameter alchLambda2 to 0.049999999999999684
Info: NONBONDED TABLE R-SQUARED SPACING: 0.0625
Info: NONBONDED TABLE SIZE: 705 POINTS
TCL: Running for 1500000 steps
ETITLE: TS BOND ANGLE DIHED IMPRP ELECT VDW BOUNDARY MISC KINETIC TOTAL TEMP POTENTIAL TOTALAVG TEMPAVG PRESSURE GPRESSURE VOLUME PRESSAVG GPRESSAVG
ENERGY: 0 0.4191 2.8089 7.3257 0.0000 -10577.3346 1434.9699 0.0000 0.0000 1736.0531 -7395.7579 299.9559 -9131.8110 -7395.7579 299.9559 164.4130 256.2236 29666.6873 164.4130 256.2236
ENERGY: 300000 1.6030 4.4703 6.3655 0.0000 -10615.4556 1405.9458 0.0000 0.0000 1786.7064 -7410.3644 308.7078 -9197.0708 -7396.6460 299.6805 -275.3970 -247.0407 30048.1786 -132.9436 -83.7844
ENERGY: 600000 1.5093 2.6198 6.0445 0.0000 -10614.0725 1463.3109 0.0000 0.0000 1749.4393 -7391.1488 302.2688 -9140.5880 -7391.1850 301.0246 213.6585 312.4353 30095.4451 -37.3082 29.8621
ENERGY: 900000 4.5196 3.6286 5.7307 0.0000 -10521.4161 1332.7911 0.0000 0.0000 1698.1518 -7476.5943 293.4073 -9174.7460 -7394.2982 300.9760 -947.1178 -899.6206 29971.1959 -128.6431 -67.0589
ENERGY: 1200000 1.3881 1.1880 5.8064 0.0000 -10644.2802 1413.9749 0.0000 0.0000 1750.0811 -7471.8417 302.3797 -9221.9228 -7406.5475 300.7113 -84.3019 -21.6421 29498.8368 -52.7236 11.0282
ENERGY: 1500000 0.0704 6.4255 6.2948 0.0000 -10633.2993 1457.3993 0.0000 0.0000 1742.8985 -7420.2108 301.1387 -9163.1093 -7410.2702 299.7754 557.5781 544.8616 29613.3537 -25.8549 34.2322
TCL: Running FEP window  20: Lambda1 0.049999999999999684 Lambda2 0.0    [dLambda -0.049999999999999684]
TCL: Setting parameter firsttimestep to 0
TCL: Setting parameter alchLambda to 0.049999999999999684
Info: NONBONDED TABLE R-SQUARED SPACING: 0.0625
Info: NONBONDED TABLE SIZE: 705 POINTS
TCL: Setting parameter alchLambda2 to 0.0
Info: NONBONDED TABLE R-SQUARED SPACING: 0.0625
Info: NONBONDED TABLE SIZE: 705 POINTS
TCL: Running for 1500000 steps
ETITLE: TS BOND ANGLE DIHED IMPRP ELECT VDW BOUNDARY MISC KINETIC TOTAL TEMP POTENTIAL TOTALAVG TEMPAVG PRESSURE GPRESSURE VOLUME PRESSAVG GPRESSAVG
ENERGY: 0 0.0704 6.4255 6.2948 0.0000 -10633.3002 1457.3671 0.0000 0.0000 1742.0491 -7421.0933 300.9919 -9163.1424 -7421.0933 300.9919 465.7643 547.4626 29613.3537 465.7643 547.4626
ENERGY: 300000 0.5700 6.8583 6.2837 0.0000 -10440.7967 1318.3457 0.0000 0.0000 1771.5186 -7337.2204 306.0837 -9108.7390 -7419.6398 300.1780 -801.8683 -696.4111 30045.2894 -163.2481 -95.2980
ENERGY: 600000 1.5481 2.1148 6.5280 0.0000 -10446.7049 1381.8027 0.0000 0.0000 1784.6245 -7270.0868 308.3481 -9054.7113 -7428.7108 300.6109 -105.9565 -77.5202 30017.6879 -89.5904 -25.0692
ENERGY: 900000 0.5672 4.5095 6.1783 0.0000 -10486.9067 1342.1934 0.0000 0.0000 1683.2044 -7450.2540 290.8247 -9133.4584 -7414.0249 299.7354 -730.4093 -669.0111 29994.1622 -200.4777 -140.4146
ENERGY: 1200000 0.8561 5.4418 7.1836 0.0000 -10598.3750 1433.3559 0.0000 0.0000 1673.7125 -7477.8251 289.1847 -9151.5376 -7422.2475 298.3578 250.8036 268.0430 29555.2669 -173.2173 -124.1195
ENERGY: 1500000 2.7078 5.4492 6.8157 0.0000 -10553.8549 1373.6955 0.0000 0.0000 1711.6222 -7453.5645 295.7348 -9165.1867 -7423.8503 297.9468 -573.6411 -543.5931 30065.3735 -182.5766 -132.8915
TCL: Exiting due to exit command.
