Info: SIMULATION PARAMETERS:
Info: TIMESTEP               2
Info: NUMBER OF STEPS        0
Info: STEPS PER CYCLE        10
Info: PERIODIC CELL BASIS 1  31.1754 0 0
Info: PERIODIC CELL BASIS 2  0 30.5285 0
Info: PERIODIC CELL BASIS 3  0 0 31.8322
Info: PERIODIC CELL CENTER   0 0 0
Info: WRAPPING WATERS AROUND PERIODIC BOUNDARIES ON OUTPUT.
Info: WRAPPING ALL CLUSTERS AROUND PERIODIC BOUNDARIES ON OUTPUT.
Info: FIRST LDB TIMESTEP     50
Info: LAST LDB TIMESTEP     -1
Info: HOM BACKGROUND SCALING 1
Info: PME BACKGROUND SCALING 1
Info: MIN ATOMS PER PATCH    40
Info: EMPTY PATCH LOAD       40 ATOMS
Info: VELOCITY FILE          mobley_1967551_equil.vel
Info: CENTER OF MASS MOVING INITIALLY? NO
Info: DIELECTRIC             1
Info: EXCLUDE                SCALED ONE-FOUR
Info: 1-4 ELECTROSTATICS SCALED BY 0.833333
Info: MODIFIED 1-4 VDW PARAMETERS WILL BE USED
Info: DCD FILENAME           mobley_1967551_prod.dcd
Info: DCD FREQUENCY          100000
Info: DCD FIRST STEP         100000
Info: DCD FILE WILL CONTAIN UNIT CELL DATA
Info: XST FILENAME           mobley_1967551_prod.xst
Info: XST FREQUENCY          100000
Info: NO VELOCITY DCD OUTPUT
Info: NO FORCE DCD OUTPUT
Info: OUTPUT FILENAME        mobley_1967551_prod
Info: BINARY OUTPUT FILES WILL BE USED
Info: RESTART FILENAME       mobley_1967551_prod.restart
Info: RESTART FREQUENCY      100000
Info: BINARY RESTART FILES WILL BE USED
Info: CUTOFF                 9
Info: PAIRLIST DISTANCE      11
Info: PAIRLIST SHRINK RATE   0.01
Info: PAIRLIST GROW RATE     0.01
Info: PAIRLIST TRIGGER       0.3
Info: PAIRLISTS PER CYCLE    2
Info: PAIRLISTS ENABLED
Info: MARGIN                 2
Info: HYDROGEN GROUP CUTOFF  2.5
Info: PATCH DIMENSION        15.5
Info: ENERGY OUTPUT STEPS    100000
Info: ENERGY EVALUATION STEPS    100000
Info: OUTPUT ENERGY PRECISION 4
Info: CROSSTERM ENERGY INCLUDED IN DIHEDRAL
Info: TIMING OUTPUT STEPS    1000000
Info: PRESSURE OUTPUT STEPS  100000
Info: ALCHEMICAL FEP ON
Info: FEP CURRENT LAMBDA VALUE     1
Info: FEP COMPARISON LAMBDA VALUE  0.95
Info: FEP INTRA-ALCHEMICAL NON-BONDED INTERACTIONS WILL BE RETAINED
Info: FEP INTRA-ALCHEMICAL BONDED INTERACTIONS WILL BE RETAINED
Info: FEP VDW SHIFTING COEFFICIENT 5
Info: FEP ELEC. ACTIVE FOR ANNIHILATED PARTICLES BETWEEN LAMBDA = 0 AND LAMBDA = 0.5
Info: FEP ELEC. ACTIVE FOR EXNIHILATED PARTICLES BETWEEN LAMBDA = 0.5 AND LAMBDA = 1
Info: FEP VDW ACTIVE FOR ANNIHILATED PARTICLES BETWEEN LAMBDA = 0 AND LAMBDA = 1
Info: FEP VDW ACTIVE FOR EXNIHILATED PARTICLES BETWEEN LAMBDA = 0 AND LAMBDA = 1
Info: FEP BOND ACTIVE FOR ANNIHILATED PARTICLES BETWEEN LAMBDA = 1 AND LAMBDA = 1
Info: FEP BOND ACTIVE FOR EXNIHILATED PARTICLES BETWEEN LAMBDA = 0 AND LAMBDA = 0
Info: LANGEVIN DYNAMICS ACTIVE
Info: LANGEVIN TEMPERATURE   300
Info: LANGEVIN USING BBK INTEGRATOR
Info: LANGEVIN DAMPING COEFFICIENT IS 1 INVERSE PS
Info: LANGEVIN DYNAMICS APPLIED TO HYDROGENS
Info: LANGEVIN PISTON PRESSURE CONTROL ACTIVE
Info:        TARGET PRESSURE IS 1.01325 BAR
Info:     OSCILLATION PERIOD IS 50 FS
Info:             DECAY TIME IS 25 FS
Info:     PISTON TEMPERATURE IS 300 K
Info:       PRESSURE CONTROL IS GROUP-BASED
Info:    INITIAL STRAIN RATE IS 0.000366622 0.000366622 0.000366622
Info:       CELL FLUCTUATION IS ISOTROPIC
Info: PARTICLE MESH EWALD (PME) ACTIVE
Info: PME TOLERANCE               1e-06
Info: PME EWALD COEFFICIENT       0.348832
Info: PME INTERPOLATION ORDER     4
Info: PME GRID DIMENSIONS         32 32 32
Info: PME MAXIMUM GRID SPACING    1
Info: PME CALCULATION WILL BE PERFORMED ON GPU
Info: FULL ELECTROSTATIC EVALUATION FREQUENCY      2
Info: USING VERLET I (r-RESPA) MTS SCHEME.
Info: C1 SPLITTING OF LONG RANGE ELECTROSTATICS
Info: PLACING ATOMS IN PATCHES BY HYDROGEN GROUPS
Info: RIGID BONDS TO HYDROGEN : ALL
Info:         ERROR TOLERANCE : 1e-08
Info:          MAX ITERATIONS : 100
Info: RIGID WATER USING SETTLE ALGORITHM
Info: RANDOM NUMBER SEED     1743494692
Info: USE HYDROGEN BONDS?    NO
Info: Using AMBER format force field!
Info: AMBER PARM FILE        mobley_1967551.prmtop
Info: COORDINATE PDB         mobley_1967551.pdb
Info: Exclusions will be read from PARM file!
Info: SCNB (VDW SCALING)     2
Info: USING ARITHMETIC MEAN TO COMBINE L-J SIGMA PARAMETERS
Info: BINARY COORDINATES     mobley_1967551_equil.coor
Info: SUMMARY OF PARAMETERS:
Info: 6 BONDS
Info: 5 ANGLES
Info:   5 HARMONIC
Info:   0 COSINE-BASED
Info: 5 DIHEDRAL
Info: 0 IMPROPER
Info: 0 CROSSTERM
Info: 0 VDW
Info: 28 VDW_PAIRS
Info: 0 NBTHOLE_PAIRS
Info: To read alchdata from file: mobley_1967551.pdb
Info: To read alchflag data from column: 5
Info: STRUCTURE SUMMARY:
Info: 2905 ATOMS
Info: 2904 BONDS
Info: 9 ANGLES
Info: 13 DIHEDRALS
Info: 0 IMPROPERS
Info: 0 CROSSTERMS
Info: 2919 EXCLUSIONS
Info: 2902 RIGID BONDS
Info: ALCH: 0 ATOMS TO DISAPPEAR IN FINAL STATE
Info: ALCH: 7 ATOMS TO APPEAR IN FINAL STATE
Info: 5813 DEGREES OF FREEDOM
Info: 969 HYDROGEN GROUPS
Info: 4 ATOMS IN LARGEST HYDROGEN GROUP
Info: 969 MIGRATION GROUPS
Info: 4 ATOMS IN LARGEST MIGRATION GROUP
Info: TOTAL MASS = 17447.5 amu
Info: TOTAL CHARGE = 1.76951e-08 e
Info: MASS DENSITY = 0.956332 g/cm^3
Info: ATOM DENSITY = 0.0958875 atoms/A^3
Info: ADDED 0 IMPLICIT EXCLUSIONS
Info: NONBONDED TABLE R-SQUARED SPACING: 0.0625
Info: NONBONDED TABLE SIZE: 705 POINTS
Info: REMOVING COM VELOCITY -0.131791 -0.0315644 -0.143127
Info: Use 3D box decompostion in PME FFT.
Info: Updated CUDA force table with 4096 elements.
Info: Updated CUDA LJ table with 7 x 7 elements.
Info: Found 10 unique exclusion lists needing 12 bytes
TCL: Running for 1500000 steps
ETITLE: TS BOND ANGLE DIHED IMPRP ELECT VDW BOUNDARY MISC KINETIC TOTAL TEMP POTENTIAL TOTALAVG TEMPAVG PRESSURE GPRESSURE VOLUME PRESSAVG GPRESSAVG
ENERGY: 0 2.4099 4.5407 2.5871 0.0000 -10588.1407 1462.8566 0.0000 0.0000 1695.9539 -7419.7925 293.6325 -9115.7464 -7419.7925 293.6325 183.4822 252.2309 30295.9136 183.4822 252.2309
ENERGY: 300000 0.6017 2.1102 3.0259 0.0000 -10436.3740 1352.3161 0.0000 0.0000 1719.4683 -7358.8518 297.7037 -9078.3201 -7380.2118 300.5462 -564.8480 -512.2069 30139.2943 -222.4506 -166.6947
ENERGY: 600000 0.4310 2.3928 2.5187 0.0000 -10578.9811 1408.8473 0.0000 0.0000 1738.1680 -7426.6233 300.9413 -9164.7913 -7403.4906 299.9582 -76.7343 -32.0374 29758.7780 -236.8711 -177.9721
ENERGY: 900000 0.3521 1.0271 2.7719 0.0000 -10647.9423 1435.0316 0.0000 0.0000 1730.3631 -7478.3964 299.5900 -9208.7595 -7407.3177 300.1088 -81.0992 54.0268 29887.3087 -160.6766 -94.9795
ENERGY: 1200000 1.4759 3.2635 2.5084 0.0000 -10508.5489 1342.4903 0.0000 0.0000 1744.8220 -7413.9888 302.0934 -9158.8108 -7402.5097 299.7652 -803.9810 -763.9596 30101.5593 -223.3060 -163.0438
ENERGY: 1500000 0.1570 3.4035 2.6878 0.0000 -10422.3242 1318.8908 0.0000 0.0000 1755.8332 -7341.3519 303.9998 -9097.1852 -7404.9704 299.4747 -621.8356 -542.5309 30187.0030 -233.4554 -175.3310
TCL: Running FEP window   2: Lambda1 0.95   Lambda2 0.8999999999999999 [dLambda -0.050000000000000044]
TCL: Setting parameter firsttimestep to 0
TCL: Setting parameter alchLambda to 0.95
Info: NONBONDED TABLE R-SQUARED SPACING: 0.0625
Info: NONBONDED TABLE SIZE: 705 POINTS
TCL: Setting parameter alchLambda2 to 0.8999999999999999
Info: NONBONDED TABLE R-SQUARED SPACING: 0.0625
Info: NONBONDED TABLE SIZE: 705 POINTS
TCL: Running for 1500000 steps
ETITLE: TS BOND ANGLE DIHED IMPRP ELECT VDW BOUNDARY MISC KINETIC TOTAL TEMP POTENTIAL TOTALAVG TEMPAVG PRESSURE GPRESSURE VOLUME PRESSAVG GPRESSAVG
ENERGY: 0 0.1570 3.4035 2.6878 0.0000 -10421.0902 1318.6113 0.0000 0.0000 1754.9980 -7341.2327 303.8552 -9096.2307 -7341.2327 303.8552 -632.2340 -548.3143 30187.0030 -632.2340 -548.3143
ENERGY: 300000 0.5252 1.5592 2.6763 0.0000 -10570.2286 1421.1188 0.0000 0.0000 1699.9212 -7444.4278 294.3194 -9144.3491 -7382.6578 298.1297 -139.5098 -49.0633 30065.7023 -82.5194 -18.1270
ENERGY: 600000 0.4275 2.7810 3.3290 0.0000 -10652.4150 1469.6580 0.0000 0.0000 1754.6319 -7421.5876 303.7918 -9176.2195 -7412.2254 298.3032 316.5731 318.8670 29802.2410 18.0588 65.2456
ENERGY: 900000 0.4483 2.2354 2.5561 0.0000 -10656.6008 1476.0970 0.0000 0.0000 1773.4019 -7401.8621 307.0416 -9175.2640 -7416.1130 299.2243 135.1489 208.9711 30266.5253 45.8244 98.1955
ENERGY: 1200000 0.3404 1.8060 2.9294 0.0000 -10670.6647 1455.5309 0.0000 0.0000 1761.3655 -7448.6924 304.9577 -9210.0579 -7410.6572 299.7429 203.4889 232.5504 29956.6733 33.9050 87.2754
ENERGY: 1500000 0.1564 1.6965 2.4811 0.0000 -10547.6695 1412.8903 0.0000 0.0000 1786.0050 -7344.4403 309.2237 -9130.4453 -7404.9972 300.6782 -44.1004 -24.3469 30126.1432 47.7767 100.3265
TCL: Running FEP window   3: Lambda1 0.8999999999999999 Lambda2 0.8499999999999999 [dLambda -0.050000000000000044]
TCL: Setting parameter firsttimestep to 0
TCL: Setting parameter alchLambda to 0.8999999999999999
Info: NONBONDED TABLE R-SQUARED SPACING: 0.0625
Info: NONBONDED TABLE SIZE: 705 POINTS
TCL: Setting parameter alchLambda2 to 0.8499999999999999
Info: NONBONDED TABLE R-SQUARED SPACING: 0.0625
Info: NONBONDED TABLE SIZE: 705 POINTS
TCL: Running for 1500000 steps
ETITLE: TS BOND ANGLE DIHED IMPRP ELECT VDW BOUNDARY MISC KINETIC TOTAL TEMP POTENTIAL TOTALAVG TEMPAVG PRESSURE GPRESSURE VOLUME PRESSAVG GPRESSAVG
ENERGY: 0 0.1564 1.6965 2.4811 0.0000 -10546.5258 1412.9257 0.0000 0.0000 1785.1250 -7344.1411 309.0713 -9129.2661 -7344.1411 309.0713 -91.4867 -26.5105 30126.1432 -91.4867 -26.5105
ENERGY: 300000 0.7106 1.8464 2.6381 0.0000 -10465.4457 1321.1975 0.0000 0.0000 1778.6434 -7360.4096 307.9491 -9139.0531 -7366.9854 305.8147 -829.9176 -748.7098 30069.6259 223.7108 287.1040
ENERGY: 600000 1.6831 1.8085 2.8385 0.0000 -10565.5529 1399.6631 0.0000 0.0000 1703.5319 -7456.0278 294.9445 -9159.5597 -7396.8707 304.0605 -366.4128 -363.8409 30057.9411 23.0787 67.5429
ENERGY: 900000 1.0531 1.5714 3.0049 0.0000 -10549.9222 1419.6292 0.0000 0.0000 1741.3290 -7383.3346 301.4886 -9124.6636 -7389.3275 303.3034 16.6955 40.1318 30078.6313 -23.5092 21.9360
ENERGY: 1200000 0.7407 2.9711 3.0586 0.0000 -10515.9563 1384.9310 0.0000 0.0000 1733.8469 -7390.4081 300.1932 -9124.2550 -7386.9723 302.9724 -302.3191 -238.5642 30013.7216 -47.8634 1.6832
ENERGY: 1500000 0.4934 2.1501 2.4538 0.0000 -10437.6080 1372.9092 0.0000 0.0000 1682.0968 -7377.5047 291.2333 -9059.6015 -7392.2838 301.6503 -563.8301 -454.2886 30383.8794 -122.1459 -67.4902
TCL: Running FEP window   4: Lambda1 0.8499999999999999 Lambda2 0.7999999999999998 [dLambda -0.050000000000000044]
TCL: Setting parameter firsttimestep to 0
TCL: Setting parameter alchLambda to 0.8499999999999999
Info: NONBONDED TABLE R-SQUARED SPACING: 0.0625
Info: NONBONDED TABLE SIZE: 705 POINTS
TCL: Setting parameter alchLambda2 to 0.7999999999999998
Info: NONBONDED TABLE R-SQUARED SPACING: 0.0625
Info: NONBONDED TABLE SIZE: 705 POINTS
TCL: Running for 1500000 steps
ETITLE: TS BOND ANGLE DIHED IMPRP ELECT VDW BOUNDARY MISC KINETIC TOTAL TEMP POTENTIAL TOTALAVG TEMPAVG PRESSURE GPRESSURE VOLUME PRESSAVG GPRESSAVG
ENERGY: 0 0.4934 2.1501 2.4538 0.0000 -10436.1817 1372.8284 0.0000 0.0000 1681.2193 -7377.0366 291.0814 -9058.2559 -7377.0366 291.0814 -525.3178 -455.0713 30383.8794 -525.3178 -455.0713
ENERGY: 300000 1.5760 3.8586 3.4985 0.0000 -10479.3627 1427.4826 0.0000 0.0000 1757.4405 -7285.5065 304.2781 -9042.9470 -7356.6979 299.5099 257.8542 336.2496 30107.0563 -76.8800 -8.5884
ENERGY: 600000 1.2404 1.4909 2.6021 0.0000 -10642.3770 1444.1352 0.0000 0.0000 1793.7374 -7399.1710 310.5624 -9192.9084 -7377.6463 300.3652 -35.5614 10.3740 30168.4996 -102.9378 -34.6676
ENERGY: 900000 1.4037 3.2193 2.4600 0.0000 -10608.0539 1450.8919 0.0000 0.0000 1735.8499 -7414.2290 300.5400 -9150.0790 -7390.4247 300.6996 234.4987 328.0365 29794.9270 -129.9393 -53.8848
ENERGY: 1200000 0.3431 0.5395 3.1221 0.0000 -10515.1961 1350.3312 0.0000 0.0000 1757.4721 -7403.3881 304.2836 -9160.8602 -7392.0309 300.6315 -161.0644 -138.6029 29421.3544 -103.9979 -32.1877
ENERGY: 1500000 0.9916 1.8631 2.6868 0.0000 -10637.9737 1457.7813 0.0000 0.0000 1731.8866 -7442.7643 299.8538 -9174.6509 -7402.2401 300.7845 82.0491 115.2629 30184.3505 -191.4632 -125.0075
TCL: Running FEP window   5: Lambda1 0.7999999999999998 Lambda2 0.7499999999999998 [dLambda -0.050000000000000044]
TCL: Setting parameter firsttimestep to 0
TCL: Setting parameter alchLambda to 0.7999999999999998
Info: NONBONDED TABLE R-SQUARED SPACING: 0.0625
Info: NONBONDED TABLE SIZE: 705 POINTS
TCL: Setting parameter alchLambda2 to 0.7499999999999998
Info: NONBONDED TABLE R-SQUARED SPACING: 0.0625
Info: NONBONDED TABLE SIZE: 705 POINTS
TCL: Running for 1500000 steps
ETITLE: TS BOND ANGLE DIHED IMPRP ELECT VDW BOUNDARY MISC KINETIC TOTAL TEMP POTENTIAL TOTALAVG TEMPAVG PRESSURE GPRESSURE VOLUME PRESSAVG GPRESSAVG
ENERGY: 0 0.9916 1.8631 2.6868 0.0000 -10636.7449 1458.0166 0.0000 0.0000 1730.9905 -7442.1963 299.6986 -9173.1868 -7442.1963 299.6986 48.9238 113.8607 30184.3505 48.9238 113.8607
ENERGY: 300000 0.5701 1.9707 2.7152 0.0000 -10546.1817 1389.5833 0.0000 0.0000 1744.8073 -7406.5351 302.0908 -9151.3423 -7421.0632 301.3131 -205.1644 -164.7444 29891.9528 78.6850 116.3401
ENERGY: 600000 0.5542 3.6726 2.5977 0.0000 -10486.0024 1402.6318 0.0000 0.0000 1734.0636 -7342.4824 300.2307 -9076.5461 -7437.8136 299.5018 101.8126 208.9396 29492.3153 -32.4095 18.2559
ENERGY: 900000 0.0528 1.4408 2.5943 0.0000 -10608.0175 1426.9151 0.0000 0.0000 1707.8026 -7469.2118 295.6839 -9177.0145 -7418.9731 300.1989 229.6703 285.1169 29275.2501 -37.3106 18.1722
ENERGY: 1200000 1.4640 1.0902 3.2079 0.0000 -10657.8001 1455.1383 0.0000 0.0000 1699.2904 -7497.6093 294.2102 -9196.8996 -7416.4247 300.6626 63.8868 124.1818 29656.0818 0.1716 56.3662
ENERGY: 1500000 1.0324 2.5047 2.7309 0.0000 -10550.1897 1406.9845 0.0000 0.0000 1737.1661 -7399.7711 300.7678 -9136.9372 -7413.1767 301.3708 -71.9719 65.3784 29735.6786 -87.7174 -22.2084
TCL: Running FEP window   6: Lambda1 0.7499999999999998 Lambda2 0.6999999999999997 [dLambda -0.050000000000000044]
TCL: Setting parameter firsttimestep to 0
TCL: Setting parameter alchLambda to 0.7499999999999998
Info: NONBONDED TABLE R-SQUARED SPACING: 0.0625
Info: NONBONDED TABLE SIZE: 705 POINTS
TCL: Setting parameter alchLambda2 to 0.6999999999999997
Info: NONBONDED TABLE R-SQUARED SPACING: 0.0625
Info: NONBONDED TABLE SIZE: 705 POINTS
TCL: Running for 1500000 steps
ETITLE: TS BOND ANGLE DIHED IMPRP ELECT VDW BOUNDARY MISC KINETIC TOTAL TEMP POTENTIAL TOTALAVG TEMPAVG PRESSURE GPRESSURE VOLUME PRESSAVG GPRESSAVG
ENERGY: 0 1.0324 2.5047 2.7309 0.0000 -10549.2951 1406.6339 0.0000 0.0000 1736.2647 -7400.1286 300.6118 -9136.3933 -7400.1286 300.6118 -30.4539 61.0540 29735.6786 -30.4539 61.0540
ENERGY: 300000 0.1097 2.6713 3.0269 0.0000 -10513.5435 1337.3945 0.0000 0.0000 1745.8308 -7424.5104 302.2680 -9170.3412 -7421.4677 302.8082 -873.6358 -771.9629 30165.5569 -205.9883 -123.4785
ENERGY: 600000 0.1936 2.5684 3.0393 0.0000 -10570.4732 1376.6119 0.0000 0.0000 1743.2585 -7444.8016 301.8227 -9188.0601 -7411.4100 302.7344 -168.9684 -146.6857 29432.3193 -159.1422 -94.6536
ENERGY: 900000 0.0745 1.1444 2.4890 0.0000 -10562.3679 1453.1791 0.0000 0.0000 1724.6053 -7380.8756 298.5931 -9105.4808 -7407.9044 303.1461 20.1226 56.2843 30567.4855 -93.6592 -40.4968
ENERGY: 1200000 1.7100 2.2842 2.9365 0.0000 -10641.9486 1471.4818 0.0000 0.0000 1771.3247 -7392.2114 306.6820 -9163.5361 -7405.9860 302.7338 316.5401 449.2871 29585.7464 -64.6999 -0.6905
ENERGY: 1500000 0.1020 2.1745 2.8720 0.0000 -10682.9594 1460.4847 0.0000 0.0000 1754.7949 -7462.5315 303.8200 -9217.3263 -7405.8396 302.9112 140.6405 161.2237 29927.4350 -50.9797 7.1596
TCL: Running FEP window   7: Lambda1 0.6999999999999997 Lambda2 0.6499999999999997 [dLambda -0.050000000000000044]
TCL: Setting parameter firsttimestep to 0
TCL: Setting parameter alchLambda to 0.6999999999999997
Info: NONBONDED TABLE R-SQUARED SPACING: 0.0625
Info: NONBONDED TABLE SIZE: 705 POINTS
TCL: Setting parameter alchLambda2 to 0.6499999999999997
Info: NONBONDED TABLE R-SQUARED SPACING: 0.0625
Info: NONBONDED TABLE SIZE: 705 POINTS
TCL: Running for 1500000 steps
ETITLE: TS BOND ANGLE DIHED IMPRP ELECT VDW BOUNDARY MISC KINETIC TOTAL TEMP POTENTIAL TOTALAVG TEMPAVG PRESSURE GPRESSURE VOLUME PRESSAVG GPRESSAVG
ENERGY: 0 0.1020 2.1745 2.8720 0.0000 -10682.4581 1460.7510 0.0000 0.0000 1753.9410 -7462.6176 303.6722 -9216.5586 -7462.6176 303.6722 78.7620 160.2999 29927.4350 78.7620 160.2999
ENERGY: 300000 0.0501 2.6508 2.9102 0.0000 -10509.3045 1395.5389 0.0000 0.0000 1741.5307 -7366.6238 301.5235 -9108.1545 -7430.7019 299.2327 -251.6818 -167.6436 30125.6964 175.8885 252.1695
ENERGY: 600000 0.4422 3.6545 3.0910 0.0000 -10625.9108 1432.2004 0.0000 0.0000 1714.5351 -7471.9877 296.8496 -9186.5228 -7432.8640 298.1377 96.1838 187.9845 29636.5331 78.9156 160.8498
ENERGY: 900000 0.8182 0.6491 2.8717 0.0000 -10676.7837 1504.7128 0.0000 0.0000 1744.0853 -7423.6466 301.9658 -9167.7318 -7428.7588 299.8202 471.2639 555.5584 29898.8771 191.7655 277.3920
ENERGY: 1200000 1.1849 1.3740 2.9819 0.0000 -10457.6065 1391.6318 0.0000 0.0000 1768.7041 -7291.7298 306.2283 -9060.4340 -7411.3269 300.1634 82.8498 178.1275 29763.4873 81.8400 168.4688
ENERGY: 1500000 0.0890 2.9124 2.5095 0.0000 -10581.2873 1418.1150 0.0000 0.0000 1780.5250 -7377.1364 308.2749 -9157.6614 -7403.7674 300.7058 -10.3013 76.2143 29862.8797 17.7704 103.0366
TCL: Running FEP window   8: Lambda1 0.6499999999999997 Lambda2 0.5999999999999996 [dLambda -0.050000000000000044]
TCL: Setting parameter firsttimestep to 0
TCL: Setting parameter alchLambda to 0.6499999999999997
Info: NONBONDED TABLE R-SQUARED SPACING: 0.0625
Info: NONBONDED TABLE SIZE: 705 POINTS
TCL: Setting parameter alchLambda2 to 0.5999999999999996
Info: NONBONDED TABLE R-SQUARED SPACING: 0.0625
Info: NONBONDED TABLE SIZE: 705 POINTS
TCL: Running for 1500000 steps
ETITLE: TS BOND ANGLE DIHED IMPRP ELECT VDW BOUNDARY MISC KINETIC TOTAL TEMP POTENTIAL TOTALAVG TEMPAVG PRESSURE GPRESSURE VOLUME PRESSAVG GPRESSAVG
ENERGY: 0 0.0890 2.9124 2.5095 0.0000 -10580.7589 1417.8836 0.0000 0.0000 1779.6619 -7377.7025 308.1254 -9157.3644 -7377.7025 308.1254 -25.4083 69.1568 29862.8797 -25.4083 69.1568
ENERGY: 300000 0.1963 1.4288 2.5588 0.0000 -10491.0473 1358.3296 0.0000 0.0000 1815.1406 -7313.3932 314.2681 -9128.5338 -7392.1582 306.9016 -504.2690 -422.9564 30091.8349 -244.6807 -167.5822
ENERGY: 600000 1.0662 2.3188 2.7487 0.0000 -10546.6535 1404.9003 0.0000 0.0000 1735.5886 -7400.0308 300.4947 -9135.6194 -7409.8043 302.8347 -342.4095 -207.9135 30267.2868 -378.1343 -294.7518
ENERGY: 900000 0.1577 1.7234 3.2528 0.0000 -10516.1782 1423.5723 0.0000 0.0000 1733.9643 -7353.5077 300.2135 -9087.4720 -7400.2906 302.1033 -19.4990 -29.9090 30299.7168 -276.7843 -193.1181
ENERGY: 1200000 0.2592 1.3974 2.6954 0.0000 -10512.4949 1379.1969 0.0000 0.0000 1739.1392 -7389.8069 301.1095 -9128.9460 -7396.7529 302.2132 -192.3484 -181.9506 29750.1648 -183.8201 -109.9911
ENERGY: 1500000 0.5981 1.7157 2.7068 0.0000 -10619.2102 1430.8059 0.0000 0.0000 1759.6770 -7423.7067 304.6653 -9183.3837 -7406.0701 301.5471 180.2578 295.4548 29506.6189 -102.2109 -27.6712
TCL: Running FEP window   9: Lambda1 0.5999999999999996 Lambda2 0.5499999999999996 [dLambda -0.050000000000000044]
TCL: Setting parameter firsttimestep to 0
TCL: Setting parameter alchLambda to 0.5999999999999996
Info: NONBONDED TABLE R-SQUARED SPACING: 0.0625
Info: NONBONDED TABLE SIZE: 705 POINTS
TCL: Setting parameter alchLambda2 to 0.5499999999999996
Info: NONBONDED TABLE R-SQUARED SPACING: 0.0625
Info: NONBONDED TABLE SIZE: 705 POINTS
TCL: Running for 1500000 steps
ETITLE: TS BOND ANGLE DIHED IMPRP ELECT VDW BOUNDARY MISC KINETIC TOTAL TEMP POTENTIAL TOTALAVG TEMPAVG PRESSURE GPRESSURE VOLUME PRESSAVG GPRESSAVG
ENERGY: 0 0.5981 1.7157 2.7068 0.0000 -10619.0027 1431.2049 0.0000 0.0000 1758.7998 -7423.9773 304.5135 -9182.7771 -7423.9773 304.5135 228.7617 295.2846 29506.6189 228.7617 295.2846
ENERGY: 300000 3.0763 2.5928 2.8571 0.0000 -10504.3736 1413.6380 0.0000 0.0000 1701.4937 -7380.7157 294.5916 -9082.2094 -7383.4768 298.5488 464.7819 463.0581 29556.9619 409.9060 440.7369
ENERGY: 600000 0.4415 2.3714 2.9024 0.0000 -10466.6006 1356.4556 0.0000 0.0000 1756.8996 -7347.5301 304.1845 -9104.4297 -7385.8272 300.3468 -655.9564 -522.4499 30471.3533 66.7514 128.4185
ENERGY: 900000 0.8667 1.7366 2.5949 0.0000 -10531.2989 1453.9402 0.0000 0.0000 1742.2582 -7329.9024 301.6495 -9072.1605 -7390.5799 300.1182 302.2004 313.8865 30332.4140 -0.2120 48.4209
ENERGY: 1200000 0.3152 3.0514 2.4845 0.0000 -10561.5406 1447.0019 0.0000 0.0000 1729.0949 -7379.5926 299.3704 -9108.6875 -7385.3497 299.3068 25.9431 109.6354 30241.6704 -61.0344 -9.0010
ENERGY: 1500000 2.0297 2.4688 2.6050 0.0000 -10532.8207 1366.3658 0.0000 0.0000 1738.3227 -7421.0288 300.9681 -9159.3515 -7383.2014 299.9211 -504.2028 -443.0309 30018.5135 -83.0344 -27.3370
TCL: Running FEP window  10: Lambda1 0.5499999999999996 Lambda2 0.4999999999999996 [dLambda -0.04999999999999999]
TCL: Setting parameter firsttimestep to 0
TCL: Setting parameter alchLambda to 0.5499999999999996
Info: NONBONDED TABLE R-SQUARED SPACING: 0.0625
Info: NONBONDED TABLE SIZE: 705 POINTS
TCL: Setting parameter alchLambda2 to 0.4999999999999996
Info: NONBONDED TABLE R-SQUARED SPACING: 0.0625
Info: NONBONDED TABLE SIZE: 705 POINTS
TCL: Running for 1500000 steps
ETITLE: TS BOND ANGLE DIHED IMPRP ELECT VDW BOUNDARY MISC KINETIC TOTAL TEMP POTENTIAL TOTALAVG TEMPAVG PRESSURE GPRESSURE VOLUME PRESSAVG GPRESSAVG
ENERGY: 0 2.0297 2.4688 2.6050 0.0000 -10531.9009 1365.9765 0.0000 0.0000 1737.4346 -7421.3863 300.8143 -9158.8209 -7421.3863 300.8143 -529.6347 -449.3283 30018.5135 -529.6347 -449.3283
ENERGY: 300000 0.1617 1.1799 2.7100 0.0000 -10654.2442 1494.2187 0.0000 0.0000 1702.9992 -7452.9748 294.8523 -9155.9740 -7447.4182 296.9572 431.1086 506.5329 30004.1966 -185.9429 -129.3619
ENERGY: 600000 0.5158 1.3750 2.6286 0.0000 -10586.2165 1472.9548 0.0000 0.0000 1700.0424 -7408.7000 294.3404 -9108.7424 -7415.7831 297.5706 116.5437 150.4373 30336.5707 6.6694 67.2484
ENERGY: 900000 1.3935 1.3593 2.5356 0.0000 -10559.5235 1423.6862 0.0000 0.0000 1775.3373 -7355.2116 307.3767 -9130.5489 -7405.8788 299.5161 -34.9640 45.3255 29979.7184 -85.4870 -29.8966
ENERGY: 1200000 2.3876 1.3754 2.5672 0.0000 -10614.1101 1431.8572 0.0000 0.0000 1743.5572 -7432.3654 301.8744 -9175.9226 -7404.4868 300.5121 323.6748 294.0548 29540.9865 -12.4787 38.1624
ENERGY: 1500000 0.1428 2.3129 2.7438 0.0000 -10497.7534 1381.8217 0.0000 0.0000 1733.0610 -7377.6713 300.0571 -9110.7322 -7404.7497 300.7248 -335.6360 -271.7189 29999.4900 -41.0265 16.4934
TCL: Running FEP window  11: Lambda1 0.4999999999999996 Lambda2 0.4499999999999996 [dLambda -0.04999999999999999]
TCL: Setting parameter firsttimestep to 0
TCL: Setting parameter alchLambda to 0.4999999999999996
Info: NONBONDED TABLE R-SQUARED SPACING: 0.0625
Info: NONBONDED TABLE SIZE: 705 POINTS
TCL: Setting parameter alchLambda2 to 0.4499999999999996
Info: NONBONDED TABLE R-SQUARED SPACING: 0.0625
Info: NONBONDED TABLE SIZE: 705 POINTS
TCL: Running for 1500000 steps
ETITLE: TS BOND ANGLE DIHED IMPRP ELECT VDW BOUNDARY MISC KINETIC TOTAL TEMP POTENTIAL TOTALAVG TEMPAVG PRESSURE GPRESSURE VOLUME PRESSAVG GPRESSAVG
ENERGY: 0 0.1428 2.3129 2.7438 0.0000 -10497.7642 1381.9740 0.0000 0.0000 1732.1864 -7378.4043 299.9057 -9110.5907 -7378.4043 299.9057 -373.9099 -274.0486 29999.4900 -373.9099 -274.0486
ENERGY: 300000 0.3714 1.7712 3.2204 0.0000 -10517.7079 1412.4872 0.0000 0.0000 1694.5898 -7405.2679 293.3963 -9099.8577 -7419.8273 295.1125 -5.9746 -25.1680 30156.9483 22.0621 85.3159
ENERGY: 600000 0.0662 1.7903 2.9154 0.0000 -10396.9748 1283.1266 0.0000 0.0000 1762.4240 -7346.6522 305.1409 -9109.0763 -7418.8880 298.4387 -880.9783 -870.5057 29909.4877 -214.1649 -152.9665
ENERGY: 900000 0.6496 1.0264 2.8518 0.0000 -10513.3323 1354.5118 0.0000 0.0000 1741.2299 -7413.0627 301.4714 -9154.2926 -7407.3796 299.5693 -592.9925 -480.8039 29728.9770 -269.5528 -204.5820
ENERGY: 1200000 0.5664 2.4189 2.5669 0.0000 -10683.7827 1519.1912 0.0000 0.0000 1803.0347 -7356.0045 312.1721 -9159.0392 -7403.4884 300.7672 793.2952 851.1794 29508.1402 -120.7704 -61.8089
ENERGY: 1500000 0.2588 3.0484 2.8211 0.0000 -10562.3062 1390.7334 0.0000 0.0000 1772.2895 -7393.1551 306.8490 -9165.4445 -7408.7104 300.2991 -144.4218 -99.3603 29671.8877 -174.9916 -122.0321
TCL: Running FEP window  12: Lambda1 0.4499999999999996 Lambda2 0.39999999999999963 [dLambda -0.04999999999999999]
TCL: Setting parameter firsttimestep to 0
TCL: Setting parameter alchLambda to 0.4499999999999996
Info: NONBONDED TABLE R-SQUARED SPACING: 0.0625
Info: NONBONDED TABLE SIZE: 705 POINTS
TCL: Setting parameter alchLambda2 to 0.39999999999999963
Info: NONBONDED TABLE R-SQUARED SPACING: 0.0625
Info: NONBONDED TABLE SIZE: 705 POINTS
TCL: Running for 1500000 steps
ETITLE: TS BOND ANGLE DIHED IMPRP ELECT VDW BOUNDARY MISC KINETIC TOTAL TEMP POTENTIAL TOTALAVG TEMPAVG PRESSURE GPRESSURE VOLUME PRESSAVG GPRESSAVG
ENERGY: 0 0.2588 3.0484 2.8211 0.0000 -10562.3068 1390.5484 0.0000 0.0000 1771.4509 -7394.1792 306.7038 -9165.6301 -7394.1792 306.7038 -194.1923 -105.1630 29671.8877 -194.1923 -105.1630
ENERGY: 300000 0.1710 1.2050 2.9071 0.0000 -10429.0987 1365.1079 0.0000 0.0000 1731.8824 -7327.8253 299.8530 -9059.7077 -7378.8062 300.6141 -273.2224 -240.9385 30086.0721 -6.8325 59.5417
ENERGY: 600000 0.0678 3.6336 3.1085 0.0000 -10636.0501 1489.4804 0.0000 0.0000 1717.3944 -7422.3654 297.3446 -9139.7598 -7399.4100 299.4639 446.7032 534.2373 29892.5142 138.1127 208.4905
ENERGY: 900000 3.2759 2.6546 2.5237 0.0000 -10600.6064 1444.5507 0.0000 0.0000 1762.5002 -7385.1013 305.1541 -9147.6015 -7410.0227 299.0648 322.2675 340.6123 29919.3492 21.4370 86.6411
ENERGY: 1200000 0.6561 4.2341 2.6618 0.0000 -10598.2426 1442.6989 0.0000 0.0000 1774.7469 -7373.2448 307.2745 -9147.9917 -7404.5519 300.5259 312.6982 311.6649 29436.6972 52.6489 115.8981
ENERGY: 1500000 0.3319 2.1598 2.8784 0.0000 -10515.3667 1328.8486 0.0000 0.0000 1715.8814 -7465.2666 297.0827 -9181.1480 -7417.4507 299.5528 -894.5672 -779.9838 30124.4961 0.0254 62.0547
TCL: Running FEP window  13: Lambda1 0.39999999999999963 Lambda2 0.34999999999999964 [dLambda -0.04999999999999999]
TCL: Setting parameter firsttimestep to 0
TCL: Setting parameter alchLambda to 0.39999999999999963
Info: NONBONDED TABLE R-SQUARED SPACING: 0.0625
Info: NONBONDED TABLE SIZE: 705 POINTS
TCL: Setting parameter alchLambda2 to 0.34999999999999964
Info: NONBONDED TABLE R-SQUARED SPACING: 0.0625
Info: NONBONDED TABLE SIZE: 705 POINTS
TCL: Running for 1500000 steps
ETITLE: TS BOND ANGLE DIHED IMPRP ELECT VDW BOUNDARY MISC KINETIC TOTAL TEMP POTENTIAL TOTALAVG TEMPAVG PRESSURE GPRESSURE VOLUME PRESSAVG GPRESSAVG
ENERGY: 0 0.3319 2.1598 2.8784 0.0000 -10515.3672 1329.1112 0.0000 0.0000 1715.0580 -7465.8279 296.9401 -9180.8860 -7465.8279 296.9401 -873.0114 -782.6817 30124.4961 -873.0114 -782.6817
ENERGY: 300000 0.2659 3.2310 3.4942 0.0000 -10505.9221 1429.9718 0.0000 0.0000 1727.9574 -7341.0018 299.1735 -9068.9593 -7415.7600 297.5455 253.2451 368.9069 30141.2554 -136.2816 -65.6668
ENERGY: 600000 0.1336 1.1400 2.8578 0.0000 -10508.8783 1434.8491 0.0000 0.0000 1705.0685 -7364.8292 295.2106 -9069.8978 -7402.9403 296.7445 418.5042 427.9213 29951.7829 -130.3596 -72.3992
ENERGY: 900000 0.1897 1.6956 2.6049 0.0000 -10566.6232 1430.6776 0.0000 0.0000 1706.3227 -7425.1327 295.4277 -9131.4554 -7421.1917 298.2543 11.6918 80.0037 29853.2666 -184.5387 -121.0872
ENERGY: 1200000 0.3884 2.2754 3.5229 0.0000 -10504.2863 1356.7634 0.0000 0.0000 1739.4231 -7401.9131 301.1586 -9141.3362 -7417.4203 298.5081 -493.3543 -426.9331 29708.2947 -204.4541 -138.8733
ENERGY: 1500000 0.3951 2.9632 2.4854 0.0000 -10462.4463 1346.5448 0.0000 0.0000 1728.9408 -7381.1171 299.3437 -9110.0579 -7407.6704 299.1343 -580.2908 -517.2019 30264.9484 -201.1192 -139.8981
TCL: Running FEP window  14: Lambda1 0.34999999999999964 Lambda2 0.29999999999999966 [dLambda -0.04999999999999999]
TCL: Setting parameter firsttimestep to 0
TCL: Setting parameter alchLambda to 0.34999999999999964
Info: NONBONDED TABLE R-SQUARED SPACING: 0.0625
Info: NONBONDED TABLE SIZE: 705 POINTS
TCL: Setting parameter alchLambda2 to 0.29999999999999966
Info: NONBONDED TABLE R-SQUARED SPACING: 0.0625
Info: NONBONDED TABLE SIZE: 705 POINTS
TCL: Running for 1500000 steps
ETITLE: TS BOND ANGLE DIHED IMPRP ELECT VDW BOUNDARY MISC KINETIC TOTAL TEMP POTENTIAL TOTALAVG TEMPAVG PRESSURE GPRESSURE VOLUME PRESSAVG GPRESSAVG
ENERGY: 0 0.3951 2.9632 2.4854 0.0000 -10462.4451 1346.7777 0.0000 0.0000 1728.0787 -7381.7450 299.1945 -9109.8238 -7381.7450 299.1945 -596.7372 -516.5394 30264.9484 -596.7372 -516.5394
ENERGY: 300000 0.0473 2.0799 2.6498 0.0000 -10556.9962 1401.1141 0.0000 0.0000 1712.8276 -7438.2774 296.5539 -9151.1050 -7402.4145 299.1026 -185.8610 -162.1605 29785.1429 -135.8164 -72.0987
ENERGY: 600000 1.0734 2.3298 2.9989 0.0000 -10483.0468 1315.3736 0.0000 0.0000 1682.4724 -7478.7987 291.2983 -9161.2711 -7407.2610 298.3389 -1010.6719 -897.6187 30293.5631 -317.2029 -251.9791
ENERGY: 900000 0.2364 1.8121 2.7397 0.0000 -10552.4028 1431.2742 0.0000 0.0000 1653.2598 -7463.0807 286.2406 -9116.3405 -7394.6064 298.5210 -203.9975 -75.1076 30127.9857 -109.4186 -34.9521
ENERGY: 1200000 0.4146 2.6334 3.1858 0.0000 -10488.7085 1341.8788 0.0000 0.0000 1724.0014 -7416.5945 298.4886 -9140.5960 -7404.7279 298.7623 -570.5032 -571.1226 29924.5064 -155.0436 -89.2347
ENERGY: 1500000 0.7596 1.7384 2.7999 0.0000 -10701.8744 1521.8518 0.0000 0.0000 1684.3202 -7490.4045 291.6183 -9174.7247 -7419.6737 297.7665 649.3984 692.5102 29621.1916 -78.8073 -17.9361
TCL: Running FEP window  15: Lambda1 0.29999999999999966 Lambda2 0.24999999999999967 [dLambda -0.04999999999999999]
TCL: Setting parameter firsttimestep to 0
TCL: Setting parameter alchLambda to 0.29999999999999966
Info: NONBONDED TABLE R-SQUARED SPACING: 0.0625
Info: NONBONDED TABLE SIZE: 705 POINTS
TCL: Setting parameter alchLambda2 to 0.24999999999999967
Info: NONBONDED TABLE R-SQUARED SPACING: 0.0625
Info: NONBONDED TABLE SIZE: 705 POINTS
TCL: Running for 1500000 steps
ETITLE: TS BOND ANGLE DIHED IMPRP ELECT VDW BOUNDARY MISC KINETIC TOTAL TEMP POTENTIAL TOTALAVG TEMPAVG PRESSURE GPRESSURE VOLUME PRESSAVG GPRESSAVG
ENERGY: 0 0.7596 1.7384 2.7999 0.0000 -10701.8742 1521.2569 0.0000 0.0000 1683.4442 -7491.8753 291.4666 -9175.3194 -7491.8753 291.4666 629.1429 687.2779 29621.1916 629.1429 687.2779
ENERGY: 300000 1.6898 1.3618 3.1244 0.0000 -10475.1288 1369.0063 0.0000 0.0000 1729.2472 -7370.6994 299.3968 -9099.9466 -7397.7346 296.4781 -221.3696 -133.5591 29806.0339 -104.0827 -5.4188
ENERGY: 600000 0.6346 3.3460 3.1650 0.0000 -10518.2321 1406.8703 0.0000 0.0000 1786.3215 -7317.8946 309.2785 -9104.2161 -7386.4182 298.6863 -48.3732 79.0714 29931.8231 -199.7642 -125.0570
ENERGY: 900000 2.6586 1.8141 2.6879 0.0000 -10558.5549 1375.4300 0.0000 0.0000 1730.5853 -7445.3790 299.6285 -9175.9643 -7399.7768 299.6358 -475.0599 -328.0602 29738.1318 -184.5601 -104.2812
ENERGY: 1200000 0.0639 4.5176 2.6026 0.0000 -10597.3922 1440.6067 0.0000 0.0000 1766.7923 -7382.8091 305.8972 -9149.6014 -7389.7953 300.6627 33.5800 86.4953 29836.8443 -148.1769 -70.6151
ENERGY: 1500000 0.4656 2.6928 2.9551 0.0000 -10659.0320 1483.3512 0.0000 0.0000 1775.0269 -7394.5405 307.3229 -9169.5673 -7400.1641 301.1555 526.9551 618.0468 29566.5413 -24.9730 46.7488
TCL: Running FEP window  16: Lambda1 0.24999999999999967 Lambda2 0.19999999999999968 [dLambda -0.04999999999999999]
TCL: Setting parameter firsttimestep to 0
TCL: Setting parameter alchLambda to 0.24999999999999967
Info: NONBONDED TABLE R-SQUARED SPACING: 0.0625
Info: NONBONDED TABLE SIZE: 705 POINTS
TCL: Setting parameter alchLambda2 to 0.19999999999999968
Info: NONBONDED TABLE R-SQUARED SPACING: 0.0625
Info: NONBONDED TABLE SIZE: 705 POINTS
TCL: Running for 1500000 steps
ETITLE: TS BOND ANGLE DIHED IMPRP ELECT VDW BOUNDARY MISC KINETIC TOTAL TEMP POTENTIAL TOTALAVG TEMPAVG PRESSURE GPRESSURE VOLUME PRESSAVG GPRESSAVG
ENERGY: 0 0.4656 2.6928 2.9551 0.0000 -10659.0319 1482.8875 0.0000 0.0000 1774.1399 -7395.8910 307.1694 -9170.0310 -7395.8910 307.1694 551.7231 616.9395 29566.5413 551.7231 616.9395
ENERGY: 300000 1.2565 2.7870 2.5925 0.0000 -10625.0317 1460.0982 0.0000 0.0000 1720.4954 -7437.8020 297.8815 -9158.2974 -7365.0248 303.6997 309.4768 328.5275 29923.7802 477.4943 526.7584
ENERGY: 600000 1.4456 2.5560 2.6582 0.0000 -10531.4214 1384.4595 0.0000 0.0000 1696.2847 -7444.0174 293.6898 -9140.3022 -7381.7913 301.7986 -214.3971 -191.1808 29750.0610 338.4833 385.9743
ENERGY: 900000 0.0879 4.6410 2.6695 0.0000 -10603.5996 1466.9430 0.0000 0.0000 1724.4375 -7404.8207 298.5641 -9129.2582 -7382.5239 301.2523 411.0927 489.7546 29762.5336 101.2294 154.8256
ENERGY: 1200000 0.2644 1.7417 2.8382 0.0000 -10509.4364 1386.3350 0.0000 0.0000 1756.3465 -7361.9106 304.0887 -9118.2571 -7386.2646 301.3658 -95.6729 -50.9075 29733.1417 125.4106 177.8436
ENERGY: 1500000 0.0326 2.6123 2.7962 0.0000 -10633.0436 1440.8389 0.0000 0.0000 1719.4161 -7467.3474 297.6947 -9186.7635 -7395.8878 301.4185 23.6769 87.3633 29813.5863 3.2017 59.6580
TCL: Running FEP window  17: Lambda1 0.19999999999999968 Lambda2 0.1499999999999997 [dLambda -0.04999999999999999]
TCL: Setting parameter firsttimestep to 0
TCL: Setting parameter alchLambda to 0.19999999999999968
Info: NONBONDED TABLE R-SQUARED SPACING: 0.0625
Info: NONBONDED TABLE SIZE: 705 POINTS
TCL: Setting parameter alchLambda2 to 0.1499999999999997
Info: NONBONDED TABLE R-SQUARED SPACING: 0.0625
Info: NONBONDED TABLE SIZE: 705 POINTS
TCL: Running for 1500000 steps
ETITLE: TS BOND ANGLE DIHED IMPRP ELECT VDW BOUNDARY MISC KINETIC TOTAL TEMP POTENTIAL TOTALAVG TEMPAVG PRESSURE GPRESSURE VOLUME PRESSAVG GPRESSAVG
ENERGY: 0 0.0326 2.6123 2.7962 0.0000 -10633.0444 1440.9105 0.0000 0.0000 1718.5381 -7468.1547 297.5426 -9186.6928 -7468.1547 297.5426 2.9383 85.8039 29813.5863 2.9383 85.8039
ENERGY: 300000 0.7299 2.8961 2.6632 0.0000 -10623.0502 1433.1257 0.0000 0.0000 1801.1784 -7382.4570 311.8507 -9183.6353 -7443.8643 299.9446 -81.1793 -83.2949 29834.5265 -50.2927 8.5772
ENERGY: 600000 0.5804 2.8443 2.9881 0.0000 -10555.5711 1395.7446 0.0000 0.0000 1746.2533 -7407.1604 302.3412 -9153.4137 -7441.1453 301.0245 -468.0211 -437.6005 30327.2773 -124.2562 -73.6261
ENERGY: 900000 0.6900 2.7029 2.5747 0.0000 -10762.6481 1514.6555 0.0000 0.0000 1741.8974 -7500.1276 301.5870 -9242.0249 -7439.6976 302.1267 466.1759 499.6573 29774.8565 -113.3110 -59.4752
ENERGY: 1200000 1.3540 4.1991 3.0437 0.0000 -10577.5392 1429.4763 0.0000 0.0000 1684.3011 -7455.1649 291.6150 -9139.4660 -7429.5833 301.4684 -1.5457 139.3242 29758.9768 -150.5513 -88.7308
ENERGY: 1500000 0.6393 1.9027 2.8175 0.0000 -10548.2679 1425.8067 0.0000 0.0000 1731.7709 -7385.3308 299.8337 -9117.1017 -7421.0495 301.4781 92.1709 157.8871 29878.6056 -160.4873 -99.7813
TCL: Running FEP window  18: Lambda1 0.1499999999999997 Lambda2 0.09999999999999969 [dLambda -0.05 ]
TCL: Setting parameter firsttimestep to 0
TCL: Setting parameter alchLambda to 0.1499999999999997
Info: NONBONDED TABLE R-SQUARED SPACING: 0.0625
Info: NONBONDED TABLE SIZE: 705 POINTS
TCL: Setting parameter alchLambda2 to 0.09999999999999969
Info: NONBONDED TABLE R-SQUARED SPACING: 0.0625
Info: NONBONDED TABLE SIZE: 705 POINTS
TCL: Running for 1500000 steps
ETITLE: TS BOND ANGLE DIHED IMPRP ELECT VDW BOUNDARY MISC KINETIC TOTAL TEMP POTENTIAL TOTALAVG TEMPAVG PRESSURE GPRESSURE VOLUME PRESSAVG GPRESSAVG
ENERGY: 0 0.6393 1.9027 2.8175 0.0000 -10548.2670 1425.9550 0.0000 0.0000 1730.9319 -7386.0205 299.6885 -9116.9524 -7386.0205 299.6885 72.1045 157.0312 29878.6056 72.1045 157.0312
ENERGY: 300000 0.1330 2.6203 2.5402 0.0000 -10741.3109 1590.4089 0.0000 0.0000 1774.3824 -7371.2261 307.2114 -9145.6084 -7406.9299 301.2297 1261.5506 1332.5061 29709.5740 119.7393 204.6166
ENERGY: 600000 1.2990 2.6237 2.7381 0.0000 -10580.5084 1430.7963 0.0000 0.0000 1764.8524 -7378.1988 305.5614 -9143.0512 -7411.1980 302.6053 -300.8072 -247.3546 30248.9190 134.1468 223.4755
ENERGY: 900000 0.0791 0.8077 2.7059 0.0000 -10510.2872 1359.1120 0.0000 0.0000 1690.0253 -7457.5572 292.6060 -9147.5825 -7407.0152 301.6972 -510.6074 -444.5986 29731.6791 106.7022 182.3213
ENERGY: 1200000 0.0012 3.1673 2.6438 0.0000 -10638.0306 1477.2339 0.0000 0.0000 1778.5344 -7376.4500 307.9302 -9154.9845 -7405.8773 302.2944 409.4244 496.9080 29620.1300 113.4015 185.1065
ENERGY: 1500000 0.5683 1.8150 3.0838 0.0000 -10631.4596 1429.9401 0.0000 0.0000 1730.3532 -7465.6990 299.5883 -9196.0523 -7404.0421 302.0125 -32.6255 -31.4467 29722.1151 18.5264 84.5949
TCL: Running FEP window  19: Lambda1 0.09999999999999969 Lambda2 0.049999999999999684 [dLambda -0.05 ]
TCL: Setting parameter firsttimestep to 0
TCL: Setting parameter alchLambda to 0.09999999999999969
Info: NONBONDED TABLE R-SQUARED SPACING: 0.0625
Info: NONBONDED TABLE SIZE: 705 POINTS
TCL: Setting parameter alchLambda2 to 0.049999999999999684
Info: NONBONDED TABLE R-SQUARED SPACING: 0.0625
Info: NONBONDED TABLE SIZE: 705 POINTS
TCL: Running for 1500000 steps
ETITLE: TS BOND ANGLE DIHED IMPRP ELECT VDW BOUNDARY MISC KINETIC TOTAL TEMP POTENTIAL TOTALAVG TEMPAVG PRESSURE GPRESSURE VOLUME PRESSAVG GPRESSAVG
ENERGY: 0 0.5683 1.8151 3.0838 0.0000 -10631.4597 1429.6878 0.0000 0.0000 1729.5098 -7466.7949 299.4423 -9196.3047 -7466.7949 299.4423 -118.1288 -33.0038 29722.1151 -118.1288 -33.0038
ENERGY: 300000 0.2166 0.7106 2.8332 0.0000 -10664.8449 1524.2399 0.0000 0.0000 1716.0429 -7420.8017 297.1106 -9136.8446 -7413.8172 296.2635 884.5556 867.9632 29684.5204 -71.7243 -36.7204
ENERGY: 600000 0.2364 3.6504 2.4748 0.0000 -10472.3567 1309.0497 0.0000 0.0000 1766.0189 -7390.9266 305.7633 -9156.9455 -7409.3319 297.5869 -819.1316 -828.7789 29666.9796 -139.3650 -106.4473
ENERGY: 900000 1.7474 2.5452 2.9666 0.0000 -10523.5325 1406.6426 0.0000 0.0000 1677.4721 -7432.1585 290.4326 -9109.6306 -7414.9333 297.3230 -72.0238 -6.0669 29894.6670 -122.5831 -78.5992
ENERGY: 1200000 0.4641 3.9764 2.4729 0.0000 -10623.9032 1437.3554 0.0000 0.0000 1726.0835 -7453.5508 298.8490 -9179.6344 -7421.6961 297.4278 173.3414 207.8400 29664.5188 -158.4218 -109.5796
ENERGY: 1500000 0.7178 1.7292 2.8804 0.0000 -10450.1272 1307.1993 0.0000 0.0000 1734.8960 -7402.7045 300.3748 -9137.6005 -7420.8515 297.7348 -1058.3457 -963.0865 30107.4992 -209.2328 -161.1854
TCL: Running FEP window  20: Lambda1 0.049999999999999684 Lambda2 0.0    [dLambda -0.049999999999999684]
TCL: Setting parameter firsttimestep to 0
TCL: Setting parameter alchLambda to 0.049999999999999684
Info: NONBONDED TABLE R-SQUARED SPACING: 0.0625
Info: NONBONDED TABLE SIZE: 705 POINTS
TCL: Setting parameter alchLambda2 to 0.0
Info: NONBONDED TABLE R-SQUARED SPACING: 0.0625
Info: NONBONDED TABLE SIZE: 705 POINTS
TCL: Running for 1500000 steps
ETITLE: TS BOND ANGLE DIHED IMPRP ELECT VDW BOUNDARY MISC KINETIC TOTAL TEMP POTENTIAL TOTALAVG TEMPAVG PRESSURE GPRESSURE VOLUME PRESSAVG GPRESSAVG
ENERGY: 0 0.7178 1.7292 2.8804 0.0000 -10450.1266 1307.4771 0.0000 0.0000 1734.0181 -7403.3040 300.2228 -9137.3222 -7403.3040 300.2228 -1042.1157 -964.1209 30107.4992 -1042.1157 -964.1209
ENERGY: 300000 4.1008 2.6927 2.3527 0.0000 -10507.7540 1402.2931 0.0000 0.0000 1768.2502 -7328.0645 306.1497 -9096.3147 -7379.5256 302.0329 -323.9816 -281.5595 30145.3415 -451.9265 -381.5670
ENERGY: 600000 1.2658 6.6092 2.8438 0.0000 -10513.9659 1393.2944 0.0000 0.0000 1710.7230 -7399.2297 296.1896 -9109.9527 -7411.2128 299.7782 -8.3950 65.7340 29765.8777 -296.5059 -227.6834
ENERGY: 900000 0.4292 1.8211 2.4594 0.0000 -10485.2186 1406.9929 0.0000 0.0000 1678.5230 -7394.9931 290.6146 -9073.5161 -7395.7012 300.0735 -288.7522 -185.2838 30104.8592 -181.8448 -117.3842
ENERGY: 1200000 0.8923 3.0601 3.1485 0.0000 -10465.0445 1351.5410 0.0000 0.0000 1752.9687 -7353.4339 303.5039 -9106.4026 -7394.2219 300.2500 -691.9641 -661.6193 30420.9829 -204.6012 -139.2728
ENERGY: 1500000 0.1865 1.9401 3.0073 0.0000 -10475.5153 1409.0128 0.0000 0.0000 1712.7819 -7348.5868 296.5460 -9061.3687 -7394.1180 299.6161 45.2343 84.7568 30003.0307 -164.4387 -97.4315
TCL: Exiting due to exit command.
