Info: SIMULATION PARAMETERS:
Info: TIMESTEP               2
Info: NUMBER OF STEPS        0
Info: STEPS PER CYCLE        10
Info: PERIODIC CELL BASIS 1  30.972 0 0
Info: PERIODIC CELL BASIS 2  0 31.3268 0
Info: PERIODIC CELL BASIS 3  0 0 31.5329
Info: PERIODIC CELL CENTER   0 0 0
Info: WRAPPING WATERS AROUND PERIODIC BOUNDARIES ON OUTPUT.
Info: WRAPPING ALL CLUSTERS AROUND PERIODIC BOUNDARIES ON OUTPUT.
Info: FIRST LDB TIMESTEP     50
Info: LAST LDB TIMESTEP     -1
Info: HOM BACKGROUND SCALING 1
Info: PME BACKGROUND SCALING 1
Info: MIN ATOMS PER PATCH    40
Info: EMPTY PATCH LOAD       40 ATOMS
Info: VELOCITY FILE          mobley_8006582_equil.vel
Info: CENTER OF MASS MOVING INITIALLY? NO
Info: DIELECTRIC             1
Info: EXCLUDE                SCALED ONE-FOUR
Info: 1-4 ELECTROSTATICS SCALED BY 0.833333
Info: MODIFIED 1-4 VDW PARAMETERS WILL BE USED
Info: DCD FILENAME           mobley_8006582_prod.dcd
Info: DCD FREQUENCY          100000
Info: DCD FIRST STEP         100000
Info: DCD FILE WILL CONTAIN UNIT CELL DATA
Info: XST FILENAME           mobley_8006582_prod.xst
Info: XST FREQUENCY          100000
Info: NO VELOCITY DCD OUTPUT
Info: NO FORCE DCD OUTPUT
Info: OUTPUT FILENAME        mobley_8006582_prod
Info: BINARY OUTPUT FILES WILL BE USED
Info: RESTART FILENAME       mobley_8006582_prod.restart
Info: RESTART FREQUENCY      100000
Info: BINARY RESTART FILES WILL BE USED
Info: CUTOFF                 9
Info: PAIRLIST DISTANCE      11
Info: PAIRLIST SHRINK RATE   0.01
Info: PAIRLIST GROW RATE     0.01
Info: PAIRLIST TRIGGER       0.3
Info: PAIRLISTS PER CYCLE    2
Info: PAIRLISTS ENABLED
Info: MARGIN                 2
Info: HYDROGEN GROUP CUTOFF  2.5
Info: PATCH DIMENSION        15.5
Info: ENERGY OUTPUT STEPS    100000
Info: ENERGY EVALUATION STEPS    100000
Info: OUTPUT ENERGY PRECISION 4
Info: CROSSTERM ENERGY INCLUDED IN DIHEDRAL
Info: TIMING OUTPUT STEPS    1000000
Info: PRESSURE OUTPUT STEPS  100000
Info: ALCHEMICAL FEP ON
Info: FEP CURRENT LAMBDA VALUE     0
Info: FEP COMPARISON LAMBDA VALUE  0.05
Info: FEP INTRA-ALCHEMICAL NON-BONDED INTERACTIONS WILL BE RETAINED
Info: FEP INTRA-ALCHEMICAL BONDED INTERACTIONS WILL BE RETAINED
Info: FEP VDW SHIFTING COEFFICIENT 5
Info: FEP ELEC. ACTIVE FOR ANNIHILATED PARTICLES BETWEEN LAMBDA = 0 AND LAMBDA = 0.5
Info: FEP ELEC. ACTIVE FOR EXNIHILATED PARTICLES BETWEEN LAMBDA = 0.5 AND LAMBDA = 1
Info: FEP VDW ACTIVE FOR ANNIHILATED PARTICLES BETWEEN LAMBDA = 0 AND LAMBDA = 1
Info: FEP VDW ACTIVE FOR EXNIHILATED PARTICLES BETWEEN LAMBDA = 0 AND LAMBDA = 1
Info: FEP BOND ACTIVE FOR ANNIHILATED PARTICLES BETWEEN LAMBDA = 1 AND LAMBDA = 1
Info: FEP BOND ACTIVE FOR EXNIHILATED PARTICLES BETWEEN LAMBDA = 0 AND LAMBDA = 0
Info: LANGEVIN DYNAMICS ACTIVE
Info: LANGEVIN TEMPERATURE   300
Info: LANGEVIN USING BBK INTEGRATOR
Info: LANGEVIN DAMPING COEFFICIENT IS 1 INVERSE PS
Info: LANGEVIN DYNAMICS APPLIED TO HYDROGENS
Info: LANGEVIN PISTON PRESSURE CONTROL ACTIVE
Info:        TARGET PRESSURE IS 1.01325 BAR
Info:     OSCILLATION PERIOD IS 50 FS
Info:             DECAY TIME IS 25 FS
Info:     PISTON TEMPERATURE IS 300 K
Info:       PRESSURE CONTROL IS GROUP-BASED
Info:    INITIAL STRAIN RATE IS 0.000208845 0.000208845 0.000208845
Info:       CELL FLUCTUATION IS ISOTROPIC
Info: PARTICLE MESH EWALD (PME) ACTIVE
Info: PME TOLERANCE               1e-06
Info: PME EWALD COEFFICIENT       0.348832
Info: PME INTERPOLATION ORDER     4
Info: PME GRID DIMENSIONS         32 32 32
Info: PME MAXIMUM GRID SPACING    1
Info: PME CALCULATION WILL BE PERFORMED ON GPU
Info: FULL ELECTROSTATIC EVALUATION FREQUENCY      2
Info: USING VERLET I (r-RESPA) MTS SCHEME.
Info: C1 SPLITTING OF LONG RANGE ELECTROSTATICS
Info: PLACING ATOMS IN PATCHES BY HYDROGEN GROUPS
Info: RIGID BONDS TO HYDROGEN : ALL
Info:         ERROR TOLERANCE : 1e-08
Info:          MAX ITERATIONS : 100
Info: RIGID WATER USING SETTLE ALGORITHM
Info: RANDOM NUMBER SEED     1743575772
Info: USE HYDROGEN BONDS?    NO
Info: Using AMBER format force field!
Info: AMBER PARM FILE        mobley_8006582.prmtop
Info: COORDINATE PDB         mobley_8006582.pdb
Info: Exclusions will be read from PARM file!
Info: SCNB (VDW SCALING)     2
Info: USING ARITHMETIC MEAN TO COMBINE L-J SIGMA PARAMETERS
Info: BINARY COORDINATES     mobley_8006582_equil.coor
Info: SUMMARY OF PARAMETERS:
Info: 4 BONDS
Info: 3 ANGLES
Info:   3 HARMONIC
Info:   0 COSINE-BASED
Info: 5 DIHEDRAL
Info: 0 IMPROPER
Info: 0 CROSSTERM
Info: 0 VDW
Info: 10 VDW_PAIRS
Info: 0 NBTHOLE_PAIRS
Info: To read alchdata from file: mobley_8006582.pdb
Info: To read alchflag data from column: 5
Info: STRUCTURE SUMMARY:
Info: 2964 ATOMS
Info: 2964 BONDS
Info: 30 ANGLES
Info: 55 DIHEDRALS
Info: 0 IMPROPERS
Info: 0 CROSSTERMS
Info: 3034 EXCLUSIONS
Info: 2959 RIGID BONDS
Info: ALCH: 0 ATOMS TO DISAPPEAR IN FINAL STATE
Info: ALCH: 15 ATOMS TO APPEAR IN FINAL STATE
Info: 5933 DEGREES OF FREEDOM
Info: 988 HYDROGEN GROUPS
Info: 3 ATOMS IN LARGEST HYDROGEN GROUP
Info: 988 MIGRATION GROUPS
Info: 3 ATOMS IN LARGEST MIGRATION GROUP
Info: TOTAL MASS = 17779.9 amu
Info: TOTAL CHARGE = -0.000499971 e
Info: MASS DENSITY = 0.965023 g/cm^3
Info: ATOM DENSITY = 0.0968787 atoms/A^3
Info: ADDED 0 IMPLICIT EXCLUSIONS
Info: NONBONDED TABLE R-SQUARED SPACING: 0.0625
Info: NONBONDED TABLE SIZE: 705 POINTS
Info: REMOVING COM VELOCITY -0.0527964 0.0644596 0.0359691
Info: Use 3D box decompostion in PME FFT.
Info: Updated CUDA force table with 4096 elements.
Info: Updated CUDA LJ table with 4 x 4 elements.
Info: Found 18 unique exclusion lists needing 40 bytes
TCL: Running for 1500000 steps
ETITLE: TS BOND ANGLE DIHED IMPRP ELECT VDW BOUNDARY MISC KINETIC TOTAL TEMP POTENTIAL TOTALAVG TEMPAVG PRESSURE GPRESSURE VOLUME PRESSAVG GPRESSAVG
ENERGY: 0 3.6880 8.9726 11.5329 0.0000 -10630.1166 1365.1349 0.0000 0.0000 1811.8110 -7428.9771 307.3470 -9240.7881 -7428.9771 307.3470 -699.4782 -619.9152 30594.9688 -699.4782 -619.9152
ENERGY: 300000 0.7928 8.7202 11.3582 0.0000 -10661.4909 1418.0427 0.0000 0.0000 1776.7361 -7445.8409 301.3970 -9222.5770 -7458.0068 305.8056 -44.4339 -8.1329 30402.6317 -368.7815 -306.9680
ENERGY: 600000 1.4626 14.2009 9.0605 0.0000 -10786.7214 1469.5466 0.0000 0.0000 1785.7257 -7506.7251 302.9220 -9292.4508 -7488.6271 303.9782 270.2167 375.3163 29981.9677 -160.9840 -94.7162
ENERGY: 900000 3.0432 12.7032 7.3815 0.0000 -10620.2430 1386.3185 0.0000 0.0000 1816.6753 -7394.1213 308.1721 -9210.7966 -7480.6765 304.3634 -445.8874 -444.0912 30658.9394 -199.6235 -142.7974
ENERGY: 1200000 2.1938 10.6275 8.5321 0.0000 -10684.7173 1460.2111 0.0000 0.0000 1739.7300 -7463.4228 295.1195 -9203.1528 -7469.6256 303.5751 135.5080 184.8662 30637.7612 -172.2040 -115.2545
ENERGY: 1500000 0.4843 7.6049 8.5006 0.0000 -10476.7154 1287.8105 0.0000 0.0000 1746.1982 -7426.1169 296.2167 -9172.3151 -7468.9214 303.2392 -1120.6436 -1093.8972 30671.4125 -226.6374 -169.9863
TCL: Running FEP window   2: Lambda1 0.05   Lambda2 0.1    [dLambda 0.05  ]
TCL: Setting parameter firsttimestep to 0
TCL: Setting parameter alchLambda to 0.05
Info: NONBONDED TABLE R-SQUARED SPACING: 0.0625
Info: NONBONDED TABLE SIZE: 705 POINTS
TCL: Setting parameter alchLambda2 to 0.1
Info: NONBONDED TABLE R-SQUARED SPACING: 0.0625
Info: NONBONDED TABLE SIZE: 705 POINTS
TCL: Running for 1500000 steps
ETITLE: TS BOND ANGLE DIHED IMPRP ELECT VDW BOUNDARY MISC KINETIC TOTAL TEMP POTENTIAL TOTALAVG TEMPAVG PRESSURE GPRESSURE VOLUME PRESSAVG GPRESSAVG
ENERGY: 0 0.4843 7.6049 8.5006 0.0000 -10476.7127 1288.9167 0.0000 0.0000 1745.3360 -7425.8702 296.0705 -9171.2062 -7425.8702 296.0705 -1160.7340 -1090.9364 30671.4125 -1160.7340 -1090.9364
ENERGY: 300000 0.7930 13.6496 6.9611 0.0000 -10795.0993 1422.6321 0.0000 0.0000 1745.7215 -7605.3419 296.1359 -9351.0634 -7464.8571 299.2000 -452.0824 -466.0976 30500.2395 -649.6281 -598.2051
ENERGY: 600000 1.0945 10.9878 8.6565 0.0000 -10694.7983 1427.1722 0.0000 0.0000 1773.5340 -7473.3534 300.8538 -9246.8874 -7473.2789 300.4997 -100.9465 -64.5313 30461.9909 -375.4408 -309.7563
ENERGY: 900000 0.9486 8.6387 10.6797 0.0000 -10621.7275 1336.7181 0.0000 0.0000 1783.9793 -7480.7632 302.6257 -9264.7425 -7481.8101 300.3179 -1023.2626 -940.2613 30520.9648 -329.5642 -270.8947
ENERGY: 1200000 1.3111 14.6495 7.6779 0.0000 -10706.5761 1429.7302 0.0000 0.0000 1793.7522 -7459.4552 304.2836 -9253.2074 -7488.0849 300.5170 -191.9294 -120.3443 30474.0737 -259.9539 -200.4718
ENERGY: 1500000 1.0018 13.7298 9.3759 0.0000 -10641.7485 1364.5706 0.0000 0.0000 1731.8336 -7521.2367 293.7800 -9253.0703 -7486.3306 300.2145 -611.2442 -571.1252 30365.3346 -263.8588 -210.3805
TCL: Running FEP window   3: Lambda1 0.1    Lambda2 0.15000000000000002 [dLambda 0.05000000000000002]
TCL: Setting parameter firsttimestep to 0
TCL: Setting parameter alchLambda to 0.1
Info: NONBONDED TABLE R-SQUARED SPACING: 0.0625
Info: NONBONDED TABLE SIZE: 705 POINTS
TCL: Setting parameter alchLambda2 to 0.15000000000000002
Info: NONBONDED TABLE R-SQUARED SPACING: 0.0625
Info: NONBONDED TABLE SIZE: 705 POINTS
TCL: Running for 1500000 steps
ETITLE: TS BOND ANGLE DIHED IMPRP ELECT VDW BOUNDARY MISC KINETIC TOTAL TEMP POTENTIAL TOTALAVG TEMPAVG PRESSURE GPRESSURE VOLUME PRESSAVG GPRESSAVG
ENERGY: 0 1.0018 13.7298 9.3759 0.0000 -10641.7493 1366.1360 0.0000 0.0000 1730.9180 -7520.5877 293.6247 -9251.5057 -7520.5877 293.6247 -640.6263 -569.6798 30365.3346 -640.6263 -569.6798
ENERGY: 300000 0.3844 9.9637 7.9774 0.0000 -10857.4881 1464.1935 0.0000 0.0000 1789.6940 -7585.2751 303.5951 -9374.9691 -7532.5795 297.7871 -92.5498 6.3793 30141.3265 -233.9384 -155.9838
ENERGY: 600000 0.2469 9.4567 12.0781 0.0000 -10827.4283 1485.1900 0.0000 0.0000 1754.5571 -7565.8995 297.6347 -9320.4565 -7507.3237 300.8612 419.9293 447.2729 29813.4791 -313.6878 -232.3936
ENERGY: 900000 1.1528 12.1015 9.7552 0.0000 -10746.5001 1432.5725 0.0000 0.0000 1792.6888 -7498.2294 304.1032 -9290.9182 -7494.9599 300.9448 -463.1304 -312.4061 30555.3855 -222.8449 -143.8860
ENERGY: 1200000 1.0623 8.8910 10.9192 0.0000 -10816.1688 1523.2184 0.0000 0.0000 1777.7059 -7494.3721 301.5615 -9272.0780 -7495.3352 300.8065 921.7512 884.8833 29785.0493 -105.0591 -44.8771
ENERGY: 1500000 0.0435 13.7935 8.4304 0.0000 -10748.0909 1452.1972 0.0000 0.0000 1690.3964 -7583.2300 286.7508 -9273.6263 -7491.7486 300.2008 -129.3225 -44.6563 30220.8150 -83.4673 -28.0765
TCL: Running FEP window   4: Lambda1 0.15000000000000002 Lambda2 0.2    [dLambda 0.04999999999999999]
TCL: Setting parameter firsttimestep to 0
TCL: Setting parameter alchLambda to 0.15000000000000002
Info: NONBONDED TABLE R-SQUARED SPACING: 0.0625
Info: NONBONDED TABLE SIZE: 705 POINTS
TCL: Setting parameter alchLambda2 to 0.2
Info: NONBONDED TABLE R-SQUARED SPACING: 0.0625
Info: NONBONDED TABLE SIZE: 705 POINTS
TCL: Running for 1500000 steps
ETITLE: TS BOND ANGLE DIHED IMPRP ELECT VDW BOUNDARY MISC KINETIC TOTAL TEMP POTENTIAL TOTALAVG TEMPAVG PRESSURE GPRESSURE VOLUME PRESSAVG GPRESSAVG
ENERGY: 0 0.0435 13.7935 8.4304 0.0000 -10748.0903 1452.0639 0.0000 0.0000 1689.4956 -7584.2635 286.5980 -9273.7590 -7584.2635 286.5980 -121.3118 -41.0277 30220.8150 -121.3118 -41.0277
ENERGY: 300000 1.2593 8.9049 9.6901 0.0000 -10737.2917 1442.5910 0.0000 0.0000 1744.8415 -7530.0049 295.9866 -9274.8465 -7532.2844 296.2642 -238.4538 -158.0645 30557.0924 53.9438 126.3838
ENERGY: 600000 1.8282 7.6231 10.6232 0.0000 -10814.9668 1444.6633 0.0000 0.0000 1809.6502 -7540.5787 306.9804 -9350.2289 -7520.6759 298.0224 -159.2276 -61.6429 30125.7333 56.7691 116.8340
ENERGY: 900000 0.3504 8.9212 10.7012 0.0000 -10712.3803 1428.9133 0.0000 0.0000 1749.6965 -7513.7977 296.8102 -9263.4941 -7518.9543 299.3660 -182.5564 -136.2158 30496.1395 -52.8115 9.6824
ENERGY: 1200000 1.4652 8.5956 7.9154 0.0000 -10778.6793 1439.2941 0.0000 0.0000 1744.6328 -7576.7762 295.9512 -9321.4089 -7524.4347 298.8745 -295.1074 -223.4655 30352.1163 -34.3911 24.0703
ENERGY: 1500000 0.7284 8.8869 9.2594 0.0000 -10793.2746 1479.1526 0.0000 0.0000 1734.6749 -7560.5725 294.2620 -9295.2474 -7518.6253 299.1771 175.7149 236.6669 30311.7706 -61.8806 -3.2934
TCL: Running FEP window   5: Lambda1 0.2    Lambda2 0.25   [dLambda 0.04999999999999999]
TCL: Setting parameter firsttimestep to 0
TCL: Setting parameter alchLambda to 0.2
Info: NONBONDED TABLE R-SQUARED SPACING: 0.0625
Info: NONBONDED TABLE SIZE: 705 POINTS
TCL: Setting parameter alchLambda2 to 0.25
Info: NONBONDED TABLE R-SQUARED SPACING: 0.0625
Info: NONBONDED TABLE SIZE: 705 POINTS
TCL: Running for 1500000 steps
ETITLE: TS BOND ANGLE DIHED IMPRP ELECT VDW BOUNDARY MISC KINETIC TOTAL TEMP POTENTIAL TOTALAVG TEMPAVG PRESSURE GPRESSURE VOLUME PRESSAVG GPRESSAVG
ENERGY: 0 0.7284 8.8869 9.2594 0.0000 -10793.2742 1479.2155 0.0000 0.0000 1733.8060 -7561.3781 294.1146 -9295.1841 -7561.3781 294.1146 154.0993 240.2289 30311.7706 154.0993 240.2289
ENERGY: 300000 1.0763 12.2542 9.1416 0.0000 -10754.0603 1454.7181 0.0000 0.0000 1769.3013 -7507.5688 300.1358 -9276.8701 -7496.1321 300.3729 25.7611 73.2003 30422.2849 -102.4699 -37.2363
ENERGY: 600000 1.9536 8.3449 11.0546 0.0000 -10819.4703 1455.2053 0.0000 0.0000 1787.3198 -7555.5922 303.1924 -9342.9120 -7489.6326 300.7364 -123.9007 -29.5102 30275.5981 -193.1524 -129.8217
ENERGY: 900000 2.0560 8.6445 11.2309 0.0000 -10750.9712 1455.7050 0.0000 0.0000 1849.9678 -7423.3670 313.8197 -9273.3348 -7466.4246 303.4367 -37.7834 -14.1371 30563.9334 -61.5383 -3.5669
ENERGY: 1200000 1.5104 6.8946 11.2727 0.0000 -10705.1617 1470.8434 0.0000 0.0000 1784.6579 -7429.9828 302.7408 -9214.6407 -7470.6935 302.6337 -19.6200 73.2595 30861.8140 -30.8960 36.1761
ENERGY: 1500000 0.4426 10.9303 10.7230 0.0000 -10789.0414 1477.5650 0.0000 0.0000 1790.5454 -7498.8350 303.7396 -9289.3805 -7475.3210 302.0296 192.4186 270.7792 30315.8006 -79.5524 -14.8731
TCL: Running FEP window   6: Lambda1 0.25   Lambda2 0.3    [dLambda 0.04999999999999999]
TCL: Setting parameter firsttimestep to 0
TCL: Setting parameter alchLambda to 0.25
Info: NONBONDED TABLE R-SQUARED SPACING: 0.0625
Info: NONBONDED TABLE SIZE: 705 POINTS
TCL: Setting parameter alchLambda2 to 0.3
Info: NONBONDED TABLE R-SQUARED SPACING: 0.0625
Info: NONBONDED TABLE SIZE: 705 POINTS
TCL: Running for 1500000 steps
ETITLE: TS BOND ANGLE DIHED IMPRP ELECT VDW BOUNDARY MISC KINETIC TOTAL TEMP POTENTIAL TOTALAVG TEMPAVG PRESSURE GPRESSURE VOLUME PRESSAVG GPRESSAVG
ENERGY: 0 0.4426 10.9303 10.7230 0.0000 -10789.0416 1478.0355 0.0000 0.0000 1789.6980 -7499.2122 303.5958 -9288.9102 -7499.2122 303.5958 182.4594 273.9085 30315.8006 182.4594 273.9085
ENERGY: 300000 1.3628 12.2411 8.2785 0.0000 -10610.0043 1331.5714 0.0000 0.0000 1777.4860 -7479.0646 301.5242 -9256.5506 -7519.2480 300.8879 -685.2923 -591.4512 30061.5426 -437.8657 -345.2011
ENERGY: 600000 0.9239 11.0983 11.3957 0.0000 -10671.2974 1416.9223 0.0000 0.0000 1743.2839 -7487.6733 295.7224 -9230.9572 -7512.9843 301.3165 -496.6710 -397.5876 30941.9737 -294.7563 -210.9343
ENERGY: 900000 1.3782 8.1967 10.9220 0.0000 -10758.9465 1446.0424 0.0000 0.0000 1756.4971 -7535.9100 297.9638 -9292.4071 -7502.4829 301.1119 -58.6285 22.7436 30201.6396 -242.1545 -172.8329
ENERGY: 1200000 1.7687 6.9600 11.0954 0.0000 -10753.8081 1413.4579 0.0000 0.0000 1751.7014 -7568.8248 297.1503 -9320.5261 -7512.8636 300.8184 -592.4196 -558.5364 30536.8008 -95.6417 -28.0716
ENERGY: 1500000 1.4765 9.6692 9.0018 0.0000 -10634.2632 1387.9755 0.0000 0.0000 1795.8834 -7430.2568 304.6451 -9226.1402 -7504.5546 301.0063 -519.9532 -428.4303 30702.8254 -130.3740 -61.1992
TCL: Running FEP window   7: Lambda1 0.3    Lambda2 0.35   [dLambda 0.04999999999999999]
TCL: Setting parameter firsttimestep to 0
TCL: Setting parameter alchLambda to 0.3
Info: NONBONDED TABLE R-SQUARED SPACING: 0.0625
Info: NONBONDED TABLE SIZE: 705 POINTS
TCL: Setting parameter alchLambda2 to 0.35
Info: NONBONDED TABLE R-SQUARED SPACING: 0.0625
Info: NONBONDED TABLE SIZE: 705 POINTS
TCL: Running for 1500000 steps
ETITLE: TS BOND ANGLE DIHED IMPRP ELECT VDW BOUNDARY MISC KINETIC TOTAL TEMP POTENTIAL TOTALAVG TEMPAVG PRESSURE GPRESSURE VOLUME PRESSAVG GPRESSAVG
ENERGY: 0 1.4765 9.6692 9.0018 0.0000 -10634.2638 1388.1886 0.0000 0.0000 1795.0115 -7430.9162 304.4972 -9225.9278 -7430.9162 304.4972 -500.4756 -422.3744 30702.8254 -500.4756 -422.3744
ENERGY: 300000 2.5065 11.5975 9.0146 0.0000 -10737.0928 1392.5991 0.0000 0.0000 1781.2048 -7540.1703 302.1551 -9321.3751 -7471.7811 300.9502 -543.2072 -483.7589 30307.5870 -300.5133 -235.3567
ENERGY: 600000 1.5397 9.2758 9.0550 0.0000 -10703.1568 1460.3566 0.0000 0.0000 1753.5438 -7469.3859 297.4628 -9222.9297 -7478.7801 299.3676 -58.4990 48.4460 30576.7101 -297.4742 -219.0260
ENERGY: 900000 3.0559 8.2706 10.2078 0.0000 -10646.9014 1415.7605 0.0000 0.0000 1744.1521 -7465.4545 295.8696 -9209.6066 -7492.4723 299.0794 -197.2666 -120.5133 30797.2577 -318.2981 -233.1115
ENERGY: 1200000 1.8104 8.7742 8.8813 0.0000 -10819.0901 1491.6272 0.0000 0.0000 1749.0689 -7558.9280 296.7037 -9307.9969 -7496.5639 299.0699 430.8033 375.1396 30491.3548 -155.4755 -79.2392
ENERGY: 1500000 1.6821 8.0547 13.3515 0.0000 -10847.9776 1505.3436 0.0000 0.0000 1751.6610 -7567.8847 297.1434 -9319.5458 -7498.0768 299.9373 358.4283 447.0681 30100.1585 -93.4367 -13.9886
TCL: Running FEP window   8: Lambda1 0.35   Lambda2 0.39999999999999997 [dLambda 0.04999999999999999]
TCL: Setting parameter firsttimestep to 0
TCL: Setting parameter alchLambda to 0.35
Info: NONBONDED TABLE R-SQUARED SPACING: 0.0625
Info: NONBONDED TABLE SIZE: 705 POINTS
TCL: Setting parameter alchLambda2 to 0.39999999999999997
Info: NONBONDED TABLE R-SQUARED SPACING: 0.0625
Info: NONBONDED TABLE SIZE: 705 POINTS
TCL: Running for 1500000 steps
ETITLE: TS BOND ANGLE DIHED IMPRP ELECT VDW BOUNDARY MISC KINETIC TOTAL TEMP POTENTIAL TOTALAVG TEMPAVG PRESSURE GPRESSURE VOLUME PRESSAVG GPRESSAVG
ENERGY: 0 1.6821 8.0547 13.3515 0.0000 -10847.9769 1504.8101 0.0000 0.0000 1750.7839 -7569.2947 296.9946 -9320.0786 -7569.2947 296.9946 348.6586 447.9887 30100.1585 348.6586 447.9887
ENERGY: 300000 0.0813 9.4579 9.2787 0.0000 -10800.0026 1529.1233 0.0000 0.0000 1801.3801 -7450.6812 305.5775 -9252.0613 -7493.7995 301.6250 853.7425 897.6786 30113.5020 265.0057 326.1753
ENERGY: 600000 3.4048 10.5218 8.5745 0.0000 -10599.4140 1333.4587 0.0000 0.0000 1748.7634 -7494.6909 296.6519 -9243.4543 -7479.5550 301.3899 -893.9201 -836.8718 30633.3542 -90.1980 -31.8408
ENERGY: 900000 2.9900 13.9228 7.7885 0.0000 -10619.8295 1348.5806 0.0000 0.0000 1788.3017 -7458.2459 303.3590 -9246.5477 -7481.2129 301.6467 -761.6975 -729.3785 30646.9396 -99.0563 -47.0163
ENERGY: 1200000 2.3982 8.4664 9.7023 0.0000 -10732.3601 1439.5566 0.0000 0.0000 1823.2193 -7449.0173 309.2822 -9272.2366 -7476.1793 301.7543 25.2095 97.8769 30043.3069 -100.4050 -38.4255
ENERGY: 1500000 1.8723 7.6649 10.1775 0.0000 -10761.9708 1441.2861 0.0000 0.0000 1783.5753 -7517.3947 302.5572 -9300.9700 -7481.6841 301.9750 -99.2483 -71.4394 30207.1924 -36.9946 18.7726
TCL: Running FEP window   9: Lambda1 0.39999999999999997 Lambda2 0.44999999999999996 [dLambda 0.04999999999999999]
TCL: Setting parameter firsttimestep to 0
TCL: Setting parameter alchLambda to 0.39999999999999997
Info: NONBONDED TABLE R-SQUARED SPACING: 0.0625
Info: NONBONDED TABLE SIZE: 705 POINTS
TCL: Setting parameter alchLambda2 to 0.44999999999999996
Info: NONBONDED TABLE R-SQUARED SPACING: 0.0625
Info: NONBONDED TABLE SIZE: 705 POINTS
TCL: Running for 1500000 steps
ETITLE: TS BOND ANGLE DIHED IMPRP ELECT VDW BOUNDARY MISC KINETIC TOTAL TEMP POTENTIAL TOTALAVG TEMPAVG PRESSURE GPRESSURE VOLUME PRESSAVG GPRESSAVG
ENERGY: 0 1.8723 7.6649 10.1775 0.0000 -10761.9703 1441.0959 0.0000 0.0000 1782.6547 -7518.5050 302.4010 -9301.1597 -7518.5050 302.4010 -157.9693 -69.6604 30207.1924 -157.9693 -69.6604
ENERGY: 300000 1.7780 10.9173 9.4128 0.0000 -10640.7885 1443.7942 0.0000 0.0000 1762.3580 -7412.5282 298.9580 -9174.8862 -7501.2987 299.1814 286.8549 345.8050 30448.2779 84.6438 150.6018
ENERGY: 600000 3.7867 9.9080 10.0559 0.0000 -10785.5053 1475.5584 0.0000 0.0000 1809.8315 -7476.3648 307.0112 -9286.1963 -7479.2609 302.3347 -122.4941 34.4422 30563.2395 29.0318 110.7817
ENERGY: 900000 1.7626 8.5733 10.1639 0.0000 -10850.3567 1471.6869 0.0000 0.0000 1724.6749 -7633.4951 292.5656 -9358.1700 -7505.9819 300.4204 182.3177 311.0788 29794.9191 122.2304 206.8480
ENERGY: 1200000 0.7269 9.6225 10.3384 0.0000 -10713.8521 1412.5506 0.0000 0.0000 1828.8182 -7451.7956 310.2320 -9280.6137 -7506.2125 300.9227 -294.5222 -215.9937 30826.9415 13.7287 94.6664
ENERGY: 1500000 0.6697 11.5936 8.6215 0.0000 -10677.5914 1381.0053 0.0000 0.0000 1667.5877 -7608.1136 282.8816 -9275.7013 -7504.3187 300.2453 -479.9038 -473.0060 30366.4738 -14.7081 58.3761
TCL: Running FEP window  10: Lambda1 0.44999999999999996 Lambda2 0.49999999999999994 [dLambda 0.04999999999999999]
TCL: Setting parameter firsttimestep to 0
TCL: Setting parameter alchLambda to 0.44999999999999996
Info: NONBONDED TABLE R-SQUARED SPACING: 0.0625
Info: NONBONDED TABLE SIZE: 705 POINTS
TCL: Setting parameter alchLambda2 to 0.49999999999999994
Info: NONBONDED TABLE R-SQUARED SPACING: 0.0625
Info: NONBONDED TABLE SIZE: 705 POINTS
TCL: Running for 1500000 steps
ETITLE: TS BOND ANGLE DIHED IMPRP ELECT VDW BOUNDARY MISC KINETIC TOTAL TEMP POTENTIAL TOTALAVG TEMPAVG PRESSURE GPRESSURE VOLUME PRESSAVG GPRESSAVG
ENERGY: 0 0.6697 11.5936 8.6215 0.0000 -10677.5914 1380.9012 0.0000 0.0000 1666.6952 -7609.1102 282.7302 -9275.8054 -7609.1102 282.7302 -566.6388 -472.3889 30366.4738 -566.6388 -472.3889
ENERGY: 300000 2.0223 11.2614 10.3669 0.0000 -10654.4636 1400.0286 0.0000 0.0000 1794.1787 -7436.6057 304.3559 -9230.7844 -7517.7586 298.5293 -173.0812 -29.1484 30153.2511 -240.0670 -157.9145
ENERGY: 600000 1.9883 15.1975 8.8769 0.0000 -10702.6139 1410.0141 0.0000 0.0000 1750.9323 -7515.6048 297.0198 -9266.5371 -7516.9540 299.1664 -465.8328 -401.7251 30979.6518 -285.9903 -212.2690
ENERGY: 900000 0.5663 9.5969 12.9312 0.0000 -10735.0711 1477.9288 0.0000 0.0000 1774.8037 -7459.2442 301.0692 -9234.0479 -7504.3889 299.5215 437.4942 498.2663 30314.0262 -327.3984 -255.3473
ENERGY: 1200000 1.5308 11.5306 8.1640 0.0000 -10634.2586 1437.2098 0.0000 0.0000 1764.9755 -7410.8480 299.4020 -9175.8235 -7496.4119 299.9441 220.5515 274.0900 30603.0621 -246.3383 -174.1636
ENERGY: 1500000 2.1226 6.5109 10.3012 0.0000 -10693.3909 1378.0676 0.0000 0.0000 1774.8755 -7521.5132 301.0814 -9296.3886 -7493.9178 299.5032 -562.8048 -471.8985 30522.1061 -369.8988 -300.6801
TCL: Running FEP window  11: Lambda1 0.49999999999999994 Lambda2 0.5499999999999999 [dLambda 0.04999999999999999]
TCL: Setting parameter firsttimestep to 0
TCL: Setting parameter alchLambda to 0.49999999999999994
Info: NONBONDED TABLE R-SQUARED SPACING: 0.0625
Info: NONBONDED TABLE SIZE: 705 POINTS
TCL: Setting parameter alchLambda2 to 0.5499999999999999
Info: NONBONDED TABLE R-SQUARED SPACING: 0.0625
Info: NONBONDED TABLE SIZE: 705 POINTS
TCL: Running for 1500000 steps
ETITLE: TS BOND ANGLE DIHED IMPRP ELECT VDW BOUNDARY MISC KINETIC TOTAL TEMP POTENTIAL TOTALAVG TEMPAVG PRESSURE GPRESSURE VOLUME PRESSAVG GPRESSAVG
ENERGY: 0 2.1226 6.5109 10.3012 0.0000 -10693.3921 1378.0043 0.0000 0.0000 1773.9792 -7522.4739 300.9294 -9296.4531 -7522.4739 300.9294 -559.7161 -466.6698 30522.1061 -559.7161 -466.6698
ENERGY: 300000 0.6975 13.4479 8.4613 0.0000 -10567.3583 1365.7104 0.0000 0.0000 1808.5646 -7370.4766 306.7963 -9179.0412 -7465.6646 301.5836 -403.0009 -331.4234 30381.9071 -344.6501 -253.5728
ENERGY: 600000 1.7530 9.2616 9.9126 0.0000 -10485.7303 1284.3620 0.0000 0.0000 1783.4119 -7397.0293 302.5295 -9180.4411 -7461.4782 300.3001 -974.9682 -888.2195 30784.8478 -323.6390 -233.6680
ENERGY: 900000 1.7311 12.7505 8.5724 0.0000 -10660.5915 1409.8371 0.0000 0.0000 1779.7402 -7447.9602 301.9066 -9227.7004 -7456.7995 301.5631 -430.5347 -353.1036 30878.5721 -295.5269 -204.5597
ENERGY: 1200000 2.2440 11.9518 7.6152 0.0000 -10712.3109 1440.5906 0.0000 0.0000 1750.9604 -7498.9490 297.0246 -9249.9093 -7478.8609 300.0649 -21.0199 122.6136 30123.6280 -156.4004 -62.2947
ENERGY: 1500000 3.2580 9.4983 8.6475 0.0000 -10714.6117 1424.1457 0.0000 0.0000 1791.1558 -7477.9063 303.8431 -9269.0622 -7484.6514 299.9498 -206.8529 -117.7185 30550.7241 -166.4007 -74.0504
TCL: Running FEP window  12: Lambda1 0.5499999999999999 Lambda2 0.6    [dLambda 0.050000000000000044]
TCL: Setting parameter firsttimestep to 0
TCL: Setting parameter alchLambda to 0.5499999999999999
Info: NONBONDED TABLE R-SQUARED SPACING: 0.0625
Info: NONBONDED TABLE SIZE: 705 POINTS
TCL: Setting parameter alchLambda2 to 0.6
Info: NONBONDED TABLE R-SQUARED SPACING: 0.0625
Info: NONBONDED TABLE SIZE: 705 POINTS
TCL: Running for 1500000 steps
ETITLE: TS BOND ANGLE DIHED IMPRP ELECT VDW BOUNDARY MISC KINETIC TOTAL TEMP POTENTIAL TOTALAVG TEMPAVG PRESSURE GPRESSURE VOLUME PRESSAVG GPRESSAVG
ENERGY: 0 3.2580 9.4983 8.6475 0.0000 -10714.6970 1423.8723 0.0000 0.0000 1790.2687 -7479.1522 303.6926 -9269.4209 -7479.1522 303.6926 -207.5592 -115.8431 30550.7241 -207.5592 -115.8431
ENERGY: 300000 3.5519 12.8815 9.6925 0.0000 -10678.0286 1362.7364 0.0000 0.0000 1744.9372 -7544.2291 296.0028 -9289.1663 -7515.4484 301.4292 -677.7149 -598.9313 30727.9984 -145.1169 -94.1016
ENERGY: 600000 1.2830 14.2036 8.5920 0.0000 -10801.8139 1537.9309 0.0000 0.0000 1781.0665 -7458.7379 302.1316 -9239.8044 -7483.6165 303.1894 696.5321 805.6121 30424.6599 -212.5006 -148.4174
ENERGY: 900000 1.6512 13.1544 8.6197 0.0000 -10892.7101 1502.4994 0.0000 0.0000 1787.8350 -7578.9504 303.2798 -9366.7855 -7491.4465 301.2022 289.5646 289.1979 30149.9181 -205.1810 -149.4843
ENERGY: 1200000 2.6741 8.5107 9.5545 0.0000 -10632.8408 1372.2188 0.0000 0.0000 1751.3821 -7488.5006 297.0961 -9239.8826 -7496.6604 300.6135 -586.5322 -512.1465 30469.9673 -156.0188 -99.2072
ENERGY: 1500000 0.9368 15.7056 7.6666 0.0000 -10516.2196 1284.8288 0.0000 0.0000 1776.6805 -7430.4013 301.3876 -9207.0818 -7482.3068 300.9586 -1199.5571 -1130.6834 30798.9419 -232.6139 -176.8368
TCL: Running FEP window  13: Lambda1 0.6    Lambda2 0.65   [dLambda 0.050000000000000044]
TCL: Setting parameter firsttimestep to 0
TCL: Setting parameter alchLambda to 0.6
Info: NONBONDED TABLE R-SQUARED SPACING: 0.0625
Info: NONBONDED TABLE SIZE: 705 POINTS
TCL: Setting parameter alchLambda2 to 0.65
Info: NONBONDED TABLE R-SQUARED SPACING: 0.0625
Info: NONBONDED TABLE SIZE: 705 POINTS
TCL: Running for 1500000 steps
ETITLE: TS BOND ANGLE DIHED IMPRP ELECT VDW BOUNDARY MISC KINETIC TOTAL TEMP POTENTIAL TOTALAVG TEMPAVG PRESSURE GPRESSURE VOLUME PRESSAVG GPRESSAVG
ENERGY: 0 0.9368 15.7056 7.6666 0.0000 -10516.2377 1285.2830 0.0000 0.0000 1775.7873 -7430.8584 301.2361 -9206.6457 -7430.8584 301.2361 -1181.3688 -1120.3016 30798.9419 -1181.3688 -1120.3016
ENERGY: 300000 2.2159 10.4748 9.8453 0.0000 -10719.1311 1443.3407 0.0000 0.0000 1784.0775 -7469.1770 302.6424 -9253.2545 -7462.4668 303.3582 -129.4527 -76.6655 30834.5059 -506.9302 -432.3844
ENERGY: 600000 0.5348 7.7205 9.5413 0.0000 -10814.5869 1501.2861 0.0000 0.0000 1772.0750 -7523.4292 300.6063 -9295.5042 -7492.2955 301.2151 217.7086 244.6723 30867.3822 -415.1182 -351.3615
ENERGY: 900000 3.6437 11.9313 8.4256 0.0000 -10786.1829 1512.6556 0.0000 0.0000 1814.8653 -7434.6613 307.8651 -9249.5266 -7489.0776 300.9215 768.4433 801.7719 30355.5926 -165.6194 -98.7274
ENERGY: 1200000 1.8445 9.2971 7.4440 0.0000 -10715.5464 1413.9265 0.0000 0.0000 1755.5338 -7527.5004 297.8004 -9283.0343 -7484.6141 300.5923 -633.3971 -624.9710 31005.6740 -163.9257 -95.9887
ENERGY: 1500000 4.2153 11.2939 7.9593 0.0000 -10729.2144 1484.8633 0.0000 0.0000 1762.2975 -7458.5851 298.9477 -9220.8826 -7492.6369 300.0540 468.8859 530.1577 30168.2806 -71.3624 -8.9293
TCL: Running FEP window  14: Lambda1 0.65   Lambda2 0.7000000000000001 [dLambda 0.050000000000000044]
TCL: Setting parameter firsttimestep to 0
TCL: Setting parameter alchLambda to 0.65
Info: NONBONDED TABLE R-SQUARED SPACING: 0.0625
Info: NONBONDED TABLE SIZE: 705 POINTS
TCL: Setting parameter alchLambda2 to 0.7000000000000001
Info: NONBONDED TABLE R-SQUARED SPACING: 0.0625
Info: NONBONDED TABLE SIZE: 705 POINTS
TCL: Running for 1500000 steps
ETITLE: TS BOND ANGLE DIHED IMPRP ELECT VDW BOUNDARY MISC KINETIC TOTAL TEMP POTENTIAL TOTALAVG TEMPAVG PRESSURE GPRESSURE VOLUME PRESSAVG GPRESSAVG
ENERGY: 0 4.2153 11.2939 7.9593 0.0000 -10729.2102 1484.9271 0.0000 0.0000 1761.4064 -7459.4081 298.7966 -9220.8145 -7459.4081 298.7966 463.9633 537.8927 30168.2806 463.9633 537.8927
ENERGY: 300000 2.2901 13.3893 8.9308 0.0000 -10755.9858 1430.6577 0.0000 0.0000 1832.4300 -7468.2880 310.8447 -9300.7179 -7510.8532 299.5368 -196.6730 -109.4888 30317.2645 354.8411 416.7632
ENERGY: 600000 4.7361 9.0421 10.8349 0.0000 -10682.7001 1475.8845 0.0000 0.0000 1717.5073 -7464.6953 291.3497 -9182.2026 -7502.7689 298.7246 561.5168 624.9313 30311.4930 423.0858 488.8224
ENERGY: 900000 2.1341 8.2879 8.9963 0.0000 -10543.4685 1385.9154 0.0000 0.0000 1711.6004 -7426.5345 290.3477 -9138.1349 -7496.7877 297.9839 -204.6885 -158.1471 30753.1468 197.5849 270.7537
ENERGY: 1200000 0.9576 8.1208 10.5032 0.0000 -10636.4051 1387.8954 0.0000 0.0000 1757.4854 -7471.4427 298.1314 -9228.9281 -7509.3018 299.1163 -688.5167 -619.3986 31112.1774 93.0390 169.3510
ENERGY: 1500000 0.6745 9.6652 10.6572 0.0000 -10663.4012 1389.0642 0.0000 0.0000 1847.5901 -7405.7499 313.4164 -9253.3400 -7500.4583 300.4692 -126.8149 -66.4981 30486.2229 118.3222 187.4572
TCL: Running FEP window  15: Lambda1 0.7000000000000001 Lambda2 0.7500000000000001 [dLambda 0.050000000000000044]
TCL: Setting parameter firsttimestep to 0
TCL: Setting parameter alchLambda to 0.7000000000000001
Info: NONBONDED TABLE R-SQUARED SPACING: 0.0625
Info: NONBONDED TABLE SIZE: 705 POINTS
TCL: Setting parameter alchLambda2 to 0.7500000000000001
Info: NONBONDED TABLE R-SQUARED SPACING: 0.0625
Info: NONBONDED TABLE SIZE: 705 POINTS
TCL: Running for 1500000 steps
ETITLE: TS BOND ANGLE DIHED IMPRP ELECT VDW BOUNDARY MISC KINETIC TOTAL TEMP POTENTIAL TOTALAVG TEMPAVG PRESSURE GPRESSURE VOLUME PRESSAVG GPRESSAVG
ENERGY: 0 0.6745 9.6652 10.6572 0.0000 -10663.3802 1389.5335 0.0000 0.0000 1846.6946 -7406.1552 313.2644 -9252.8498 -7406.1552 313.2644 -133.2304 -52.3587 30486.2229 -133.2304 -52.3587
ENERGY: 300000 0.9556 7.2971 10.2059 0.0000 -10739.9882 1474.0332 0.0000 0.0000 1757.8805 -7489.6160 298.1985 -9247.4965 -7492.4768 301.7205 165.9756 218.9723 30698.3572 -226.8049 -170.4351
ENERGY: 600000 0.4328 10.5349 9.8866 0.0000 -10848.5155 1569.8469 0.0000 0.0000 1769.1002 -7488.7141 300.1017 -9257.8143 -7493.8813 300.9379 1082.7356 1137.3993 30410.5815 39.9872 89.1116
ENERGY: 900000 0.9934 6.4865 11.9660 0.0000 -10638.2236 1410.9505 0.0000 0.0000 1749.0272 -7458.8001 296.6966 -9207.8273 -7506.0525 300.2775 -251.0293 -235.0957 31107.0194 103.7188 150.7050
ENERGY: 1200000 1.7851 9.0956 9.3835 0.0000 -10762.6183 1426.5653 0.0000 0.0000 1711.8330 -7603.9558 290.3872 -9315.7888 -7516.6044 299.3701 -131.1086 -76.8297 30175.4304 33.2332 83.5954
ENERGY: 1500000 0.4469 9.4685 9.5581 0.0000 -10831.1473 1506.8495 0.0000 0.0000 1782.5902 -7522.2341 302.3901 -9304.8244 -7510.0778 299.9925 429.7697 505.7381 30330.9071 17.8425 76.0930
TCL: Running FEP window  16: Lambda1 0.7500000000000001 Lambda2 0.8000000000000002 [dLambda 0.050000000000000044]
TCL: Setting parameter firsttimestep to 0
TCL: Setting parameter alchLambda to 0.7500000000000001
Info: NONBONDED TABLE R-SQUARED SPACING: 0.0625
Info: NONBONDED TABLE SIZE: 705 POINTS
TCL: Setting parameter alchLambda2 to 0.8000000000000002
Info: NONBONDED TABLE R-SQUARED SPACING: 0.0625
Info: NONBONDED TABLE SIZE: 705 POINTS
TCL: Running for 1500000 steps
ETITLE: TS BOND ANGLE DIHED IMPRP ELECT VDW BOUNDARY MISC KINETIC TOTAL TEMP POTENTIAL TOTALAVG TEMPAVG PRESSURE GPRESSURE VOLUME PRESSAVG GPRESSAVG
ENERGY: 0 0.4469 9.4685 9.5581 0.0000 -10831.1898 1506.5431 0.0000 0.0000 1781.7298 -7523.4434 302.2441 -9305.1732 -7523.4434 302.2441 431.0053 509.5203 30330.9071 431.0053 509.5203
ENERGY: 300000 3.0742 6.7510 12.5685 0.0000 -10717.8294 1412.2446 0.0000 0.0000 1740.8214 -7542.3698 295.3046 -9283.1911 -7522.0197 300.0101 -465.2710 -430.4245 30609.4804 96.1182 141.9552
ENERGY: 600000 2.1889 7.0399 10.9708 0.0000 -10763.9258 1501.7267 0.0000 0.0000 1782.9526 -7459.0468 302.4516 -9241.9994 -7524.2050 301.8062 500.2009 543.5357 30647.4164 113.1070 164.8012
ENERGY: 900000 2.7340 10.7360 10.2840 0.0000 -10870.6971 1549.4324 0.0000 0.0000 1722.9292 -7574.5816 292.2695 -9297.5108 -7531.1742 299.5197 643.7618 691.6670 30916.0285 177.0060 235.8021
ENERGY: 1200000 1.2924 8.9592 9.7574 0.0000 -10837.4211 1501.6327 0.0000 0.0000 1733.1919 -7582.5875 294.0104 -9315.7794 -7532.6845 298.8372 232.6650 324.6646 30366.8465 107.0532 169.7229
ENERGY: 1500000 0.2784 12.5836 8.0096 0.0000 -10874.6913 1561.5956 0.0000 0.0000 1829.0646 -7463.1595 310.2738 -9292.2241 -7517.3042 300.5018 883.0573 956.1099 30306.5211 54.5679 116.3715
TCL: Running FEP window  17: Lambda1 0.8000000000000002 Lambda2 0.8500000000000002 [dLambda 0.050000000000000044]
TCL: Setting parameter firsttimestep to 0
TCL: Setting parameter alchLambda to 0.8000000000000002
Info: NONBONDED TABLE R-SQUARED SPACING: 0.0625
Info: NONBONDED TABLE SIZE: 705 POINTS
TCL: Setting parameter alchLambda2 to 0.8500000000000002
Info: NONBONDED TABLE R-SQUARED SPACING: 0.0625
Info: NONBONDED TABLE SIZE: 705 POINTS
TCL: Running for 1500000 steps
ETITLE: TS BOND ANGLE DIHED IMPRP ELECT VDW BOUNDARY MISC KINETIC TOTAL TEMP POTENTIAL TOTALAVG TEMPAVG PRESSURE GPRESSURE VOLUME PRESSAVG GPRESSAVG
ENERGY: 0 0.2784 12.5836 8.0096 0.0000 -10874.6475 1561.7268 0.0000 0.0000 1828.1632 -7463.8859 310.1209 -9292.0491 -7463.8859 310.1209 878.5531 967.6699 30306.5211 878.5531 967.6699
ENERGY: 300000 0.4527 5.8409 11.0469 0.0000 -10979.5851 1642.6413 0.0000 0.0000 1788.3269 -7531.2764 303.3632 -9319.6033 -7483.4505 304.1928 1325.0270 1486.3424 30405.9454 347.4734 441.9521
ENERGY: 600000 1.0700 10.8712 8.7127 0.0000 -10728.7595 1390.7661 0.0000 0.0000 1788.0498 -7529.2897 303.3162 -9317.3395 -7501.4825 300.9615 -560.4322 -465.4208 30251.4299 -36.1981 43.2722
ENERGY: 900000 1.2479 9.9085 9.8584 0.0000 -10680.4194 1425.4044 0.0000 0.0000 1727.6538 -7506.3465 293.0709 -9234.0003 -7506.2808 300.0787 -152.5776 -91.9405 30394.4135 3.1997 70.9496
ENERGY: 1200000 3.5507 9.2707 10.1703 0.0000 -10812.3633 1487.1863 0.0000 0.0000 1831.9013 -7470.2841 310.7550 -9302.1853 -7495.5590 300.9618 166.2008 206.0301 30501.2769 -34.3489 26.8943
ENERGY: 1500000 1.1064 11.8270 8.6291 0.0000 -10670.9422 1369.5438 0.0000 0.0000 1774.2195 -7505.6163 300.9701 -9279.8358 -7496.8535 300.8785 -633.3641 -604.9628 30733.8108 -45.8946 14.2375
TCL: Running FEP window  18: Lambda1 0.8500000000000002 Lambda2 0.9000000000000002 [dLambda 0.050000000000000044]
TCL: Setting parameter firsttimestep to 0
TCL: Setting parameter alchLambda to 0.8500000000000002
Info: NONBONDED TABLE R-SQUARED SPACING: 0.0625
Info: NONBONDED TABLE SIZE: 705 POINTS
TCL: Setting parameter alchLambda2 to 0.9000000000000002
Info: NONBONDED TABLE R-SQUARED SPACING: 0.0625
Info: NONBONDED TABLE SIZE: 705 POINTS
TCL: Running for 1500000 steps
ETITLE: TS BOND ANGLE DIHED IMPRP ELECT VDW BOUNDARY MISC KINETIC TOTAL TEMP POTENTIAL TOTALAVG TEMPAVG PRESSURE GPRESSURE VOLUME PRESSAVG GPRESSAVG
ENERGY: 0 1.1064 11.8270 8.6291 0.0000 -10670.9814 1369.2255 0.0000 0.0000 1773.3611 -7506.8324 300.8245 -9280.1934 -7506.8324 300.8245 -672.9684 -597.9867 30733.8108 -672.9684 -597.9867
ENERGY: 300000 1.6615 14.5881 7.5733 0.0000 -10574.8256 1313.6599 0.0000 0.0000 1726.2080 -7511.1348 292.8257 -9237.3428 -7498.0484 300.5759 -990.8547 -968.5850 30568.4622 -568.7141 -516.5581
ENERGY: 600000 0.1736 8.6391 9.4265 0.0000 -10682.7077 1394.6563 0.0000 0.0000 1771.8817 -7497.9306 300.5735 -9269.8123 -7477.6813 300.6250 -397.5312 -352.6279 30784.7548 -494.8796 -432.8103
ENERGY: 900000 0.6515 18.2468 10.3783 0.0000 -10749.6052 1488.8466 0.0000 0.0000 1728.5163 -7502.9658 293.2172 -9231.4821 -7471.0814 300.3459 418.9953 541.8522 30523.2205 -379.1043 -311.4382
ENERGY: 1200000 1.1937 7.5485 10.2319 0.0000 -10699.9338 1362.3475 0.0000 0.0000 1748.2812 -7570.3311 296.5701 -9318.6123 -7479.1227 299.8349 -1035.9086 -929.0648 30833.5797 -393.5324 -324.3275
ENERGY: 1500000 1.1975 9.2098 10.1271 0.0000 -10667.1587 1450.8594 0.0000 0.0000 1771.1670 -7424.5979 300.4523 -9195.7649 -7474.7561 300.6974 605.9576 613.5770 30213.2142 -343.8421 -279.5573
TCL: Running FEP window  19: Lambda1 0.9000000000000002 Lambda2 0.9500000000000003 [dLambda 0.050000000000000044]
TCL: Setting parameter firsttimestep to 0
TCL: Setting parameter alchLambda to 0.9000000000000002
Info: NONBONDED TABLE R-SQUARED SPACING: 0.0625
Info: NONBONDED TABLE SIZE: 705 POINTS
TCL: Setting parameter alchLambda2 to 0.9500000000000003
Info: NONBONDED TABLE R-SQUARED SPACING: 0.0625
Info: NONBONDED TABLE SIZE: 705 POINTS
TCL: Running for 1500000 steps
ETITLE: TS BOND ANGLE DIHED IMPRP ELECT VDW BOUNDARY MISC KINETIC TOTAL TEMP POTENTIAL TOTALAVG TEMPAVG PRESSURE GPRESSURE VOLUME PRESSAVG GPRESSAVG
ENERGY: 0 1.1975 9.2098 10.1271 0.0000 -10667.1371 1451.6320 0.0000 0.0000 1770.2384 -7424.7322 300.2948 -9194.9707 -7424.7322 300.2948 554.5185 632.6027 30213.2142 554.5185 632.6027
ENERGY: 300000 1.1504 8.7237 11.5348 0.0000 -10705.6828 1405.4706 0.0000 0.0000 1747.6407 -7531.1624 296.4614 -9278.8031 -7525.2539 294.8920 -81.7229 13.1670 29970.2956 -85.2560 -25.7658
ENERGY: 600000 1.1359 10.1121 8.1835 0.0000 -10655.1024 1342.6147 0.0000 0.0000 1759.8348 -7533.2214 298.5300 -9293.0562 -7512.3977 297.5461 -853.2067 -802.3674 30588.2231 -210.7441 -151.8642
ENERGY: 900000 0.3147 10.0201 9.1113 0.0000 -10574.1462 1332.3552 0.0000 0.0000 1748.7911 -7473.5539 296.6566 -9222.3450 -7504.2943 298.1466 -816.5223 -713.6188 30773.4127 -252.3058 -192.2774
ENERGY: 1200000 0.4288 14.6888 10.1111 0.0000 -10722.0887 1450.8766 0.0000 0.0000 1833.7286 -7412.2549 311.0650 -9245.9835 -7503.5868 299.7522 194.2608 202.6082 30466.0848 -211.9082 -154.6475
ENERGY: 1500000 1.3265 11.1843 8.2813 0.0000 -10710.4986 1390.9661 0.0000 0.0000 1808.0000 -7490.7404 306.7005 -9298.7404 -7506.5695 299.9651 -363.9601 -343.0906 30384.6485 -177.5801 -123.5076
TCL: Running FEP window  20: Lambda1 0.9500000000000003 Lambda2 1.0    [dLambda 0.04999999999999971]
TCL: Setting parameter firsttimestep to 0
TCL: Setting parameter alchLambda to 0.9500000000000003
Info: NONBONDED TABLE R-SQUARED SPACING: 0.0625
Info: NONBONDED TABLE SIZE: 705 POINTS
TCL: Setting parameter alchLambda2 to 1.0
Info: NONBONDED TABLE R-SQUARED SPACING: 0.0625
Info: NONBONDED TABLE SIZE: 705 POINTS
TCL: Running for 1500000 steps
ETITLE: TS BOND ANGLE DIHED IMPRP ELECT VDW BOUNDARY MISC KINETIC TOTAL TEMP POTENTIAL TOTALAVG TEMPAVG PRESSURE GPRESSURE VOLUME PRESSAVG GPRESSAVG
ENERGY: 0 1.3265 11.1843 8.2813 0.0000 -10710.4927 1390.7309 0.0000 0.0000 1807.1253 -7491.8444 306.5521 -9298.9697 -7491.8444 306.5521 -410.9693 -338.8668 30384.6485 -410.9693 -338.8668
ENERGY: 300000 1.7165 16.7865 7.6782 0.0000 -10835.4417 1532.3115 0.0000 0.0000 1691.2736 -7585.6753 286.8996 -9276.9490 -7553.2818 295.5051 709.7524 738.1707 30056.1528 -35.5750 8.5711
ENERGY: 600000 0.8339 9.2001 9.7033 0.0000 -10695.1325 1371.1845 0.0000 0.0000 1785.1598 -7519.0509 302.8260 -9304.2107 -7548.0419 296.7233 -723.7447 -675.0623 30766.8501 -286.9405 -233.2701
ENERGY: 900000 1.5606 8.3187 9.1846 0.0000 -10779.8664 1410.8184 0.0000 0.0000 1765.9577 -7584.0264 299.5686 -9349.9841 -7537.5336 297.6491 -360.3809 -229.7117 30224.6894 -233.5014 -169.8639
ENERGY: 1200000 2.5414 8.4419 10.2501 0.0000 -10597.3090 1337.9513 0.0000 0.0000 1802.8835 -7435.2407 305.8326 -9238.1242 -7526.7776 298.0144 -820.9809 -739.2010 30626.2289 -277.6006 -213.3385
ENERGY: 1500000 0.7669 12.1116 9.1416 0.0000 -10751.2739 1461.6902 0.0000 0.0000 1793.9164 -7473.6471 304.3114 -9267.5636 -7526.3217 298.4898 376.5374 429.8561 29932.2835 -216.0133 -156.1379
TCL: Exiting due to exit command.
