Info: SIMULATION PARAMETERS:
Info: TIMESTEP               2
Info: NUMBER OF STEPS        0
Info: STEPS PER CYCLE        10
Info: PERIODIC CELL BASIS 1  30.7523 0 0
Info: PERIODIC CELL BASIS 2  0 31.1259 0
Info: PERIODIC CELL BASIS 3  0 0 31.4001
Info: PERIODIC CELL CENTER   0 0 0
Info: WRAPPING WATERS AROUND PERIODIC BOUNDARIES ON OUTPUT.
Info: WRAPPING ALL CLUSTERS AROUND PERIODIC BOUNDARIES ON OUTPUT.
Info: FIRST LDB TIMESTEP     50
Info: LAST LDB TIMESTEP     -1
Info: HOM BACKGROUND SCALING 1
Info: PME BACKGROUND SCALING 1
Info: MIN ATOMS PER PATCH    40
Info: EMPTY PATCH LOAD       40 ATOMS
Info: VELOCITY FILE          mobley_1231151_equil.vel
Info: CENTER OF MASS MOVING INITIALLY? NO
Info: DIELECTRIC             1
Info: EXCLUDE                SCALED ONE-FOUR
Info: 1-4 ELECTROSTATICS SCALED BY 0.833333
Info: MODIFIED 1-4 VDW PARAMETERS WILL BE USED
Info: DCD FILENAME           mobley_1231151_prod.dcd
Info: DCD FREQUENCY          100000
Info: DCD FIRST STEP         100000
Info: DCD FILE WILL CONTAIN UNIT CELL DATA
Info: XST FILENAME           mobley_1231151_prod.xst
Info: XST FREQUENCY          100000
Info: NO VELOCITY DCD OUTPUT
Info: NO FORCE DCD OUTPUT
Info: OUTPUT FILENAME        mobley_1231151_prod
Info: BINARY OUTPUT FILES WILL BE USED
Info: RESTART FILENAME       mobley_1231151_prod.restart
Info: RESTART FREQUENCY      100000
Info: BINARY RESTART FILES WILL BE USED
Info: CUTOFF                 9
Info: PAIRLIST DISTANCE      11
Info: PAIRLIST SHRINK RATE   0.01
Info: PAIRLIST GROW RATE     0.01
Info: PAIRLIST TRIGGER       0.3
Info: PAIRLISTS PER CYCLE    2
Info: PAIRLISTS ENABLED
Info: MARGIN                 2
Info: HYDROGEN GROUP CUTOFF  2.5
Info: PATCH DIMENSION        15.5
Info: ENERGY OUTPUT STEPS    100000
Info: ENERGY EVALUATION STEPS    100000
Info: OUTPUT ENERGY PRECISION 4
Info: CROSSTERM ENERGY INCLUDED IN DIHEDRAL
Info: TIMING OUTPUT STEPS    1000000
Info: PRESSURE OUTPUT STEPS  100000
Info: ALCHEMICAL FEP ON
Info: FEP CURRENT LAMBDA VALUE     1
Info: FEP COMPARISON LAMBDA VALUE  0.95
Info: FEP INTRA-ALCHEMICAL NON-BONDED INTERACTIONS WILL BE RETAINED
Info: FEP INTRA-ALCHEMICAL BONDED INTERACTIONS WILL BE RETAINED
Info: FEP VDW SHIFTING COEFFICIENT 5
Info: FEP ELEC. ACTIVE FOR ANNIHILATED PARTICLES BETWEEN LAMBDA = 0 AND LAMBDA = 0.5
Info: FEP ELEC. ACTIVE FOR EXNIHILATED PARTICLES BETWEEN LAMBDA = 0.5 AND LAMBDA = 1
Info: FEP VDW ACTIVE FOR ANNIHILATED PARTICLES BETWEEN LAMBDA = 0 AND LAMBDA = 1
Info: FEP VDW ACTIVE FOR EXNIHILATED PARTICLES BETWEEN LAMBDA = 0 AND LAMBDA = 1
Info: FEP BOND ACTIVE FOR ANNIHILATED PARTICLES BETWEEN LAMBDA = 1 AND LAMBDA = 1
Info: FEP BOND ACTIVE FOR EXNIHILATED PARTICLES BETWEEN LAMBDA = 0 AND LAMBDA = 0
Info: LANGEVIN DYNAMICS ACTIVE
Info: LANGEVIN TEMPERATURE   300
Info: LANGEVIN USING BBK INTEGRATOR
Info: LANGEVIN DAMPING COEFFICIENT IS 1 INVERSE PS
Info: LANGEVIN DYNAMICS APPLIED TO HYDROGENS
Info: LANGEVIN PISTON PRESSURE CONTROL ACTIVE
Info:        TARGET PRESSURE IS 1.01325 BAR
Info:     OSCILLATION PERIOD IS 50 FS
Info:             DECAY TIME IS 25 FS
Info:     PISTON TEMPERATURE IS 300 K
Info:       PRESSURE CONTROL IS GROUP-BASED
Info:    INITIAL STRAIN RATE IS 0.000356851 0.000356851 0.000356851
Info:       CELL FLUCTUATION IS ISOTROPIC
Info: PARTICLE MESH EWALD (PME) ACTIVE
Info: PME TOLERANCE               1e-06
Info: PME EWALD COEFFICIENT       0.348832
Info: PME INTERPOLATION ORDER     4
Info: PME GRID DIMENSIONS         32 32 32
Info: PME MAXIMUM GRID SPACING    1
Info: PME CALCULATION WILL BE PERFORMED ON GPU
Info: FULL ELECTROSTATIC EVALUATION FREQUENCY      2
Info: USING VERLET I (r-RESPA) MTS SCHEME.
Info: C1 SPLITTING OF LONG RANGE ELECTROSTATICS
Info: PLACING ATOMS IN PATCHES BY HYDROGEN GROUPS
Info: RIGID BONDS TO HYDROGEN : ALL
Info:         ERROR TOLERANCE : 1e-08
Info:          MAX ITERATIONS : 100
Info: RIGID WATER USING SETTLE ALGORITHM
Info: RANDOM NUMBER SEED     1743525083
Info: USE HYDROGEN BONDS?    NO
Info: Using AMBER format force field!
Info: AMBER PARM FILE        mobley_1231151.prmtop
Info: COORDINATE PDB         mobley_1231151.pdb
Info: Exclusions will be read from PARM file!
Info: SCNB (VDW SCALING)     2
Info: USING ARITHMETIC MEAN TO COMBINE L-J SIGMA PARAMETERS
Info: BINARY COORDINATES     mobley_1231151_equil.coor
Info: SUMMARY OF PARAMETERS:
Info: 6 BONDS
Info: 6 ANGLES
Info:   6 HARMONIC
Info:   0 COSINE-BASED
Info: 4 DIHEDRAL
Info: 0 IMPROPER
Info: 0 CROSSTERM
Info: 0 VDW
Info: 21 VDW_PAIRS
Info: 0 NBTHOLE_PAIRS
Info: To read alchdata from file: mobley_1231151.pdb
Info: To read alchflag data from column: 5
Info: STRUCTURE SUMMARY:
Info: 2945 ATOMS
Info: 2944 BONDS
Info: 18 ANGLES
Info: 24 DIHEDRALS
Info: 0 IMPROPERS
Info: 0 CROSSTERMS
Info: 2980 EXCLUSIONS
Info: 2941 RIGID BONDS
Info: ALCH: 0 ATOMS TO DISAPPEAR IN FINAL STATE
Info: ALCH: 11 ATOMS TO APPEAR IN FINAL STATE
Info: 5894 DEGREES OF FREEDOM
Info: 982 HYDROGEN GROUPS
Info: 4 ATOMS IN LARGEST HYDROGEN GROUP
Info: 982 MIGRATION GROUPS
Info: 4 ATOMS IN LARGEST MIGRATION GROUP
Info: TOTAL MASS = 17698.2 amu
Info: TOTAL CHARGE = 0.000199996 e
Info: MASS DENSITY = 0.977814 g/cm^3
Info: ATOM DENSITY = 0.0979837 atoms/A^3
Info: ADDED 0 IMPLICIT EXCLUSIONS
Info: NONBONDED TABLE R-SQUARED SPACING: 0.0625
Info: NONBONDED TABLE SIZE: 705 POINTS
Info: REMOVING COM VELOCITY -0.179581 0.0545531 0.234901
Info: Use 3D box decompostion in PME FFT.
Info: Updated CUDA force table with 4096 elements.
Info: Updated CUDA LJ table with 6 x 6 elements.
Info: Found 14 unique exclusion lists needing 24 bytes
TCL: Running for 1500000 steps
ETITLE: TS BOND ANGLE DIHED IMPRP ELECT VDW BOUNDARY MISC KINETIC TOTAL TEMP POTENTIAL TOTALAVG TEMPAVG PRESSURE GPRESSURE VOLUME PRESSAVG GPRESSAVG
ENERGY: 0 0.1584 3.7614 2.1085 0.0000 -10568.5236 1390.4103 0.0000 0.0000 1774.6056 -7397.4794 303.0275 -9172.0850 -7397.4794 303.0275 7.2393 115.4099 30056.0234 7.2393 115.4099
ENERGY: 300000 0.1127 3.0048 1.6612 0.0000 -10606.5774 1381.1222 0.0000 0.0000 1757.0568 -7463.6199 300.0309 -9220.6766 -7451.7701 301.5339 -355.6823 -263.5311 30381.3671 26.5004 107.3679
ENERGY: 600000 0.0484 4.2837 1.8853 0.0000 -10738.5152 1471.3105 0.0000 0.0000 1767.1936 -7493.7937 301.7619 -9260.9874 -7456.5064 301.9563 220.1024 254.9360 30476.5053 154.3955 217.3596
ENERGY: 900000 0.6392 4.2239 2.2826 0.0000 -10727.4490 1491.4503 0.0000 0.0000 1715.9539 -7512.8992 293.0123 -9228.8531 -7464.8807 301.2106 293.1683 339.5883 30838.6102 141.6053 208.1639
ENERGY: 1200000 1.4317 5.5350 2.2160 0.0000 -10548.2465 1347.9522 0.0000 0.0000 1769.2140 -7421.8975 302.1069 -9191.1115 -7466.9665 300.7110 -805.8644 -715.4495 30880.4298 92.0054 154.9179
ENERGY: 1500000 0.2161 2.6506 1.7324 0.0000 -10695.6814 1404.7857 0.0000 0.0000 1730.5269 -7555.7699 295.5008 -9286.2968 -7478.5501 299.9308 -393.0361 -331.1068 30542.1404 7.2564 69.3540
TCL: Running FEP window   2: Lambda1 0.95   Lambda2 0.8999999999999999 [dLambda -0.050000000000000044]
TCL: Setting parameter firsttimestep to 0
TCL: Setting parameter alchLambda to 0.95
Info: NONBONDED TABLE R-SQUARED SPACING: 0.0625
Info: NONBONDED TABLE SIZE: 705 POINTS
TCL: Setting parameter alchLambda2 to 0.8999999999999999
Info: NONBONDED TABLE R-SQUARED SPACING: 0.0625
Info: NONBONDED TABLE SIZE: 705 POINTS
TCL: Running for 1500000 steps
ETITLE: TS BOND ANGLE DIHED IMPRP ELECT VDW BOUNDARY MISC KINETIC TOTAL TEMP POTENTIAL TOTALAVG TEMPAVG PRESSURE GPRESSURE VOLUME PRESSAVG GPRESSAVG
ENERGY: 0 0.2161 2.6506 1.7324 0.0000 -10695.3101 1404.5274 0.0000 0.0000 1729.6710 -7556.5127 295.3546 -9286.1836 -7556.5127 295.3546 -414.1582 -343.7105 30542.1404 -414.1582 -343.7105
ENERGY: 300000 0.9826 4.0695 1.5996 0.0000 -10687.2594 1359.2188 0.0000 0.0000 1809.2098 -7512.1792 308.9365 -9321.3890 -7499.7394 299.4078 -836.8083 -724.4697 30247.2727 -616.5166 -563.9382
ENERGY: 600000 0.4174 5.4330 2.7359 0.0000 -10682.7286 1379.2636 0.0000 0.0000 1738.0422 -7556.8364 296.7841 -9294.8786 -7493.3478 298.9746 -689.7571 -644.7787 30793.8614 -575.9154 -532.3409
ENERGY: 900000 1.4069 4.8502 1.6423 0.0000 -10687.6599 1462.7086 0.0000 0.0000 1743.3972 -7473.6546 297.6985 -9217.0518 -7491.7868 297.5838 158.8878 300.9309 30383.4057 -411.3555 -355.2032
ENERGY: 1200000 0.2972 3.5463 1.5617 0.0000 -10830.5885 1504.4565 0.0000 0.0000 1741.8765 -7578.8503 297.4388 -9320.7268 -7490.1951 297.7374 125.5317 211.1554 30526.2312 -355.6899 -299.5483
ENERGY: 1500000 0.2817 3.5810 2.2688 0.0000 -10697.0352 1416.0764 0.0000 0.0000 1759.2272 -7515.6002 300.4016 -9274.8274 -7492.3268 297.9100 -389.8100 -326.8509 30760.1646 -297.4395 -238.8810
TCL: Running FEP window   3: Lambda1 0.8999999999999999 Lambda2 0.8499999999999999 [dLambda -0.050000000000000044]
TCL: Setting parameter firsttimestep to 0
TCL: Setting parameter alchLambda to 0.8999999999999999
Info: NONBONDED TABLE R-SQUARED SPACING: 0.0625
Info: NONBONDED TABLE SIZE: 705 POINTS
TCL: Setting parameter alchLambda2 to 0.8499999999999999
Info: NONBONDED TABLE R-SQUARED SPACING: 0.0625
Info: NONBONDED TABLE SIZE: 705 POINTS
TCL: Running for 1500000 steps
ETITLE: TS BOND ANGLE DIHED IMPRP ELECT VDW BOUNDARY MISC KINETIC TOTAL TEMP POTENTIAL TOTALAVG TEMPAVG PRESSURE GPRESSURE VOLUME PRESSAVG GPRESSAVG
ENERGY: 0 0.2817 3.5810 2.2688 0.0000 -10696.7066 1416.5966 0.0000 0.0000 1758.3505 -7515.6280 300.2519 -9273.9786 -7515.6280 300.2519 -394.1278 -324.5764 30760.1646 -394.1278 -324.5764
ENERGY: 300000 0.2400 3.8540 1.6422 0.0000 -10783.1048 1482.5386 0.0000 0.0000 1768.0501 -7526.7799 301.9081 -9294.8300 -7521.2987 298.0062 218.4402 262.2682 30374.4401 -141.1628 -76.4533
ENERGY: 600000 1.0836 4.5937 2.9516 0.0000 -10798.8192 1488.1158 0.0000 0.0000 1773.3698 -7528.7046 302.8165 -9302.0745 -7504.4143 301.1009 391.2736 539.6295 29900.5834 -134.8370 -43.5094
ENERGY: 900000 0.2870 3.8791 2.4393 0.0000 -10729.0617 1474.2386 0.0000 0.0000 1761.3045 -7486.9131 300.7563 -9248.2176 -7497.9916 300.0573 478.0955 541.5717 29958.9457 -175.8860 -89.3432
ENERGY: 1200000 1.7565 2.8599 1.8474 0.0000 -10703.5925 1417.2284 0.0000 0.0000 1835.7564 -7444.1438 313.4695 -9279.9002 -7491.7307 301.5078 -168.4355 -86.0622 30290.3646 -161.7073 -77.1452
ENERGY: 1500000 1.7582 4.9566 2.1862 0.0000 -10716.1047 1442.3993 0.0000 0.0000 1675.6232 -7589.1813 286.1255 -9264.8045 -7492.9474 300.3454 -101.4515 -49.2113 30430.4458 -188.1792 -107.9570
TCL: Running FEP window   4: Lambda1 0.8499999999999999 Lambda2 0.7999999999999998 [dLambda -0.050000000000000044]
TCL: Setting parameter firsttimestep to 0
TCL: Setting parameter alchLambda to 0.8499999999999999
Info: NONBONDED TABLE R-SQUARED SPACING: 0.0625
Info: NONBONDED TABLE SIZE: 705 POINTS
TCL: Setting parameter alchLambda2 to 0.7999999999999998
Info: NONBONDED TABLE R-SQUARED SPACING: 0.0625
Info: NONBONDED TABLE SIZE: 705 POINTS
TCL: Running for 1500000 steps
ETITLE: TS BOND ANGLE DIHED IMPRP ELECT VDW BOUNDARY MISC KINETIC TOTAL TEMP POTENTIAL TOTALAVG TEMPAVG PRESSURE GPRESSURE VOLUME PRESSAVG GPRESSAVG
ENERGY: 0 1.7582 4.9566 2.1862 0.0000 -10715.9733 1442.6059 0.0000 0.0000 1674.7591 -7589.7074 285.9780 -9264.4664 -7589.7074 285.9780 -129.2048 -54.7979 30430.4458 -129.2048 -54.7979
ENERGY: 300000 0.0565 3.7269 1.7046 0.0000 -10619.9604 1423.0844 0.0000 0.0000 1832.4209 -7358.9671 312.8999 -9191.3880 -7432.5273 300.4823 202.0930 259.3896 30127.3556 88.8435 150.9821
ENERGY: 600000 1.8177 4.3501 2.5466 0.0000 -10691.5016 1431.7768 0.0000 0.0000 1762.6433 -7488.3670 300.9849 -9251.0104 -7454.5849 301.8651 -65.4927 27.6137 30089.1647 177.1326 245.9924
ENERGY: 900000 2.3405 7.3041 2.0351 0.0000 -10771.0492 1524.7417 0.0000 0.0000 1758.4431 -7476.1845 300.2677 -9234.6277 -7451.6915 303.4454 847.4764 919.6424 29876.9584 159.9973 226.9013
ENERGY: 1200000 1.0250 4.9640 2.3453 0.0000 -10585.2734 1386.0644 0.0000 0.0000 1735.5308 -7455.3439 296.3552 -9190.8747 -7468.6838 302.1688 -483.2728 -489.0349 30708.7602 56.2635 114.1353
ENERGY: 1500000 0.2151 4.4327 1.5403 0.0000 -10570.7503 1425.6622 0.0000 0.0000 1690.7757 -7448.1242 288.7129 -9138.8999 -7473.4452 300.6419 122.2689 161.5641 30472.2004 -20.9430 33.1430
TCL: Running FEP window   5: Lambda1 0.7999999999999998 Lambda2 0.7499999999999998 [dLambda -0.050000000000000044]
TCL: Setting parameter firsttimestep to 0
TCL: Setting parameter alchLambda to 0.7999999999999998
Info: NONBONDED TABLE R-SQUARED SPACING: 0.0625
Info: NONBONDED TABLE SIZE: 705 POINTS
TCL: Setting parameter alchLambda2 to 0.7499999999999998
Info: NONBONDED TABLE R-SQUARED SPACING: 0.0625
Info: NONBONDED TABLE SIZE: 705 POINTS
TCL: Running for 1500000 steps
ETITLE: TS BOND ANGLE DIHED IMPRP ELECT VDW BOUNDARY MISC KINETIC TOTAL TEMP POTENTIAL TOTALAVG TEMPAVG PRESSURE GPRESSURE VOLUME PRESSAVG GPRESSAVG
ENERGY: 0 0.2151 4.4327 1.5403 0.0000 -10570.3106 1425.1250 0.0000 0.0000 1689.8973 -7449.1002 288.5629 -9138.9975 -7449.1002 288.5629 76.4663 150.4284 30472.2004 76.4663 150.4284
ENERGY: 300000 0.9173 4.8167 2.0005 0.0000 -10609.2358 1416.3606 0.0000 0.0000 1758.2733 -7426.8674 300.2387 -9185.1406 -7479.1211 296.6385 136.4792 233.1210 30223.0748 -110.6727 -33.5723
ENERGY: 600000 0.4505 6.4298 1.7690 0.0000 -10620.5502 1407.2951 0.0000 0.0000 1786.9080 -7417.6979 305.1283 -9204.6058 -7469.5689 300.4422 -297.7177 -281.1824 30640.0920 -67.5765 2.6555
ENERGY: 900000 0.2612 3.4104 3.0653 0.0000 -10736.3161 1484.0634 0.0000 0.0000 1749.7139 -7495.8021 298.7771 -9245.5160 -7465.9983 300.4637 299.1454 395.3723 30325.0233 -50.2660 23.7498
ENERGY: 1200000 0.7871 3.9542 1.7331 0.0000 -10760.8237 1494.6176 0.0000 0.0000 1807.3572 -7452.3746 308.6201 -9259.7318 -7470.4403 300.1112 337.5970 402.9986 30493.9758 -50.2584 25.9842
ENERGY: 1500000 0.2977 6.9109 1.6751 0.0000 -10643.9000 1471.0798 0.0000 0.0000 1695.9149 -7468.0216 289.5905 -9163.9364 -7471.1985 299.1870 316.3683 310.2084 30769.4903 -104.9565 -36.1068
TCL: Running FEP window   6: Lambda1 0.7499999999999998 Lambda2 0.6999999999999997 [dLambda -0.050000000000000044]
TCL: Setting parameter firsttimestep to 0
TCL: Setting parameter alchLambda to 0.7499999999999998
Info: NONBONDED TABLE R-SQUARED SPACING: 0.0625
Info: NONBONDED TABLE SIZE: 705 POINTS
TCL: Setting parameter alchLambda2 to 0.6999999999999997
Info: NONBONDED TABLE R-SQUARED SPACING: 0.0625
Info: NONBONDED TABLE SIZE: 705 POINTS
TCL: Running for 1500000 steps
ETITLE: TS BOND ANGLE DIHED IMPRP ELECT VDW BOUNDARY MISC KINETIC TOTAL TEMP POTENTIAL TOTALAVG TEMPAVG PRESSURE GPRESSURE VOLUME PRESSAVG GPRESSAVG
ENERGY: 0 0.2977 6.9110 1.6751 0.0000 -10643.6488 1470.8521 0.0000 0.0000 1695.0485 -7468.8644 289.4426 -9163.9129 -7468.8644 289.4426 232.7699 299.5874 30769.4903 232.7699 299.5874
ENERGY: 300000 1.8131 2.4457 1.5590 0.0000 -10799.2814 1477.5972 0.0000 0.0000 1742.8092 -7573.0572 297.5981 -9315.8664 -7518.9576 294.3252 196.9703 229.9016 30135.6304 -57.8394 -11.3950
ENERGY: 600000 0.7812 3.3388 2.2973 0.0000 -10645.2120 1388.1420 0.0000 0.0000 1762.4415 -7488.2112 300.9504 -9250.6527 -7515.7706 296.4087 -286.4729 -262.1377 30517.9446 -99.8779 -45.8361
ENERGY: 900000 1.4176 3.7906 2.1279 0.0000 -10683.3285 1439.4173 0.0000 0.0000 1793.3315 -7443.2437 306.2251 -9236.5752 -7508.0483 297.3428 -196.6041 -108.6363 30654.7983 -159.6421 -96.3549
ENERGY: 1200000 0.2185 3.9750 2.1070 0.0000 -10749.4712 1521.4105 0.0000 0.0000 1754.3663 -7467.3939 299.5715 -9221.7602 -7503.7997 298.8121 686.2581 773.7661 30227.1294 -16.3977 46.9260
ENERGY: 1500000 0.3866 7.4520 1.8478 0.0000 -10831.1235 1525.8471 0.0000 0.0000 1737.2562 -7558.3338 296.6498 -9295.5900 -7502.3835 298.2733 620.4777 614.9343 30329.4762 1.1486 60.1065
TCL: Running FEP window   7: Lambda1 0.6999999999999997 Lambda2 0.6499999999999997 [dLambda -0.050000000000000044]
TCL: Setting parameter firsttimestep to 0
TCL: Setting parameter alchLambda to 0.6999999999999997
Info: NONBONDED TABLE R-SQUARED SPACING: 0.0625
Info: NONBONDED TABLE SIZE: 705 POINTS
TCL: Setting parameter alchLambda2 to 0.6499999999999997
Info: NONBONDED TABLE R-SQUARED SPACING: 0.0625
Info: NONBONDED TABLE SIZE: 705 POINTS
TCL: Running for 1500000 steps
ETITLE: TS BOND ANGLE DIHED IMPRP ELECT VDW BOUNDARY MISC KINETIC TOTAL TEMP POTENTIAL TOTALAVG TEMPAVG PRESSURE GPRESSURE VOLUME PRESSAVG GPRESSAVG
ENERGY: 0 0.3866 7.4520 1.8478 0.0000 -10831.1901 1525.7510 0.0000 0.0000 1736.3412 -7559.4115 296.4936 -9295.7526 -7559.4115 296.4936 542.9415 607.8404 30329.4762 542.9415 607.8404
ENERGY: 300000 1.1738 5.8381 2.2283 0.0000 -10502.2439 1326.3988 0.0000 0.0000 1781.2289 -7385.3760 304.1585 -9166.6049 -7484.1763 300.6892 -891.7291 -813.1728 30936.2309 214.3225 273.2260
ENERGY: 600000 0.0453 4.9814 1.8248 0.0000 -10739.7040 1499.3188 0.0000 0.0000 1848.1300 -7385.4038 315.5824 -9233.5337 -7446.1740 303.9444 595.9670 682.4104 30136.3304 197.9252 257.9739
ENERGY: 900000 1.3092 2.9653 1.8711 0.0000 -10716.5419 1454.4972 0.0000 0.0000 1743.5813 -7512.3178 297.7299 -9255.8991 -7464.3788 302.7477 188.5244 263.5408 29986.3193 31.5747 88.1845
ENERGY: 1200000 1.2126 3.5316 3.0631 0.0000 -10740.2356 1425.5506 0.0000 0.0000 1717.3847 -7589.4929 293.2566 -9306.8777 -7472.5985 302.1529 -464.8762 -349.8563 30045.7967 2.2898 68.8528
ENERGY: 1500000 0.3355 5.1712 1.9170 0.0000 -10688.8529 1444.3535 0.0000 0.0000 1770.7694 -7466.3063 302.3725 -9237.0757 -7464.0987 302.4056 -22.6016 54.2414 30574.6000 -27.2427 36.4866
TCL: Running FEP window   8: Lambda1 0.6499999999999997 Lambda2 0.5999999999999996 [dLambda -0.050000000000000044]
TCL: Setting parameter firsttimestep to 0
TCL: Setting parameter alchLambda to 0.6499999999999997
Info: NONBONDED TABLE R-SQUARED SPACING: 0.0625
Info: NONBONDED TABLE SIZE: 705 POINTS
TCL: Setting parameter alchLambda2 to 0.5999999999999996
Info: NONBONDED TABLE R-SQUARED SPACING: 0.0625
Info: NONBONDED TABLE SIZE: 705 POINTS
TCL: Running for 1500000 steps
ETITLE: TS BOND ANGLE DIHED IMPRP ELECT VDW BOUNDARY MISC KINETIC TOTAL TEMP POTENTIAL TOTALAVG TEMPAVG PRESSURE GPRESSURE VOLUME PRESSAVG GPRESSAVG
ENERGY: 0 0.3355 5.1712 1.9170 0.0000 -10688.6444 1443.6432 0.0000 0.0000 1769.8641 -7467.7134 302.2179 -9237.5775 -7467.7134 302.2179 -29.6680 38.9201 30574.6000 -29.6680 38.9201
ENERGY: 300000 1.6432 7.0608 1.8772 0.0000 -10609.9638 1329.7599 0.0000 0.0000 1774.2838 -7495.3388 302.9726 -9269.6226 -7452.8289 302.2208 -695.7195 -649.5763 29992.9920 -259.2838 -212.2218
ENERGY: 600000 0.0963 6.4345 1.8368 0.0000 -10636.6522 1378.9308 0.0000 0.0000 1724.0361 -7525.3177 294.3924 -9249.3539 -7497.2880 299.2314 -758.3677 -660.1345 30766.7576 -289.0686 -227.3321
ENERGY: 900000 0.5335 4.0052 1.5267 0.0000 -10793.5323 1522.4271 0.0000 0.0000 1752.0088 -7513.0311 299.1690 -9265.0398 -7503.7490 300.1415 422.4677 490.9510 30903.2709 -125.4238 -55.7686
ENERGY: 1200000 0.9346 4.2971 2.1493 0.0000 -10627.2025 1379.1297 0.0000 0.0000 1761.6103 -7479.0814 300.8085 -9240.6916 -7499.5669 300.2566 -338.6461 -352.4806 30254.6839 0.2276 59.8846
ENERGY: 1500000 1.6101 3.6425 1.6461 0.0000 -10681.3841 1361.4038 0.0000 0.0000 1735.0838 -7577.9977 296.2789 -9313.0816 -7497.2146 300.2383 -766.4426 -759.2964 30249.6757 -56.3756 0.3323
TCL: Running FEP window   9: Lambda1 0.5999999999999996 Lambda2 0.5499999999999996 [dLambda -0.050000000000000044]
TCL: Setting parameter firsttimestep to 0
TCL: Setting parameter alchLambda to 0.5999999999999996
Info: NONBONDED TABLE R-SQUARED SPACING: 0.0625
Info: NONBONDED TABLE SIZE: 705 POINTS
TCL: Setting parameter alchLambda2 to 0.5499999999999996
Info: NONBONDED TABLE R-SQUARED SPACING: 0.0625
Info: NONBONDED TABLE SIZE: 705 POINTS
TCL: Running for 1500000 steps
ETITLE: TS BOND ANGLE DIHED IMPRP ELECT VDW BOUNDARY MISC KINETIC TOTAL TEMP POTENTIAL TOTALAVG TEMPAVG PRESSURE GPRESSURE VOLUME PRESSAVG GPRESSAVG
ENERGY: 0 1.6101 3.6425 1.6461 0.0000 -10681.4305 1361.3700 0.0000 0.0000 1734.2000 -7578.9618 296.1280 -9313.1618 -7578.9618 296.1280 -840.5796 -766.9961 30249.6757 -840.5796 -766.9961
ENERGY: 300000 0.4773 3.0015 3.1153 0.0000 -10655.2127 1387.2084 0.0000 0.0000 1768.8558 -7492.5545 302.0457 -9261.4103 -7482.5125 300.7186 -482.8181 -487.4792 30295.3657 -253.6521 -179.7709
ENERGY: 600000 0.3153 6.6365 2.0069 0.0000 -10647.9905 1442.3634 0.0000 0.0000 1792.3806 -7404.2878 306.0628 -9196.6684 -7474.1553 299.3764 -81.4441 21.8028 30588.9670 -182.1745 -107.8118
ENERGY: 900000 0.4016 2.1459 2.2359 0.0000 -10712.1263 1456.1689 0.0000 0.0000 1747.0710 -7504.1031 298.3258 -9251.1741 -7484.8833 299.3929 41.5447 108.5241 30442.2345 -147.9203 -80.5460
ENERGY: 1200000 2.3874 2.6752 2.5519 0.0000 -10784.4634 1482.8009 0.0000 0.0000 1703.2625 -7590.7855 290.8451 -9294.0480 -7486.0030 299.1714 184.1951 269.8376 30307.6180 -110.8596 -42.3317
ENERGY: 1500000 1.4873 6.7540 3.8443 0.0000 -10502.9822 1333.4847 0.0000 0.0000 1782.6833 -7374.7287 304.4069 -9157.4119 -7465.7333 300.8600 -552.4980 -481.2845 30167.6646 -138.3376 -73.3874
TCL: Running FEP window  10: Lambda1 0.5499999999999996 Lambda2 0.4999999999999996 [dLambda -0.04999999999999999]
TCL: Setting parameter firsttimestep to 0
TCL: Setting parameter alchLambda to 0.5499999999999996
Info: NONBONDED TABLE R-SQUARED SPACING: 0.0625
Info: NONBONDED TABLE SIZE: 705 POINTS
TCL: Setting parameter alchLambda2 to 0.4999999999999996
Info: NONBONDED TABLE R-SQUARED SPACING: 0.0625
Info: NONBONDED TABLE SIZE: 705 POINTS
TCL: Running for 1500000 steps
ETITLE: TS BOND ANGLE DIHED IMPRP ELECT VDW BOUNDARY MISC KINETIC TOTAL TEMP POTENTIAL TOTALAVG TEMPAVG PRESSURE GPRESSURE VOLUME PRESSAVG GPRESSAVG
ENERGY: 0 1.4873 6.7540 3.8443 0.0000 -10502.9931 1333.4569 0.0000 0.0000 1781.8031 -7375.6475 304.2566 -9157.4507 -7375.6475 304.2566 -567.0455 -488.6222 30167.6646 -567.0455 -488.6222
ENERGY: 300000 0.1156 3.6960 1.8242 0.0000 -10577.9537 1453.5643 0.0000 0.0000 1802.6652 -7316.0883 307.8189 -9118.7535 -7411.6756 305.4343 395.7731 494.9131 30517.6158 -88.4231 -29.4902
ENERGY: 600000 0.5197 4.8984 1.8927 0.0000 -10739.0059 1392.1697 0.0000 0.0000 1777.5151 -7562.0102 303.5244 -9339.5253 -7469.6725 302.6190 -373.3035 -346.3323 29879.2341 -226.1137 -164.4510
ENERGY: 900000 0.9847 9.1151 1.7197 0.0000 -10569.9019 1386.2424 0.0000 0.0000 1795.7605 -7376.0794 306.6399 -9171.8399 -7457.0057 302.8276 -345.8449 -241.1197 30934.8480 -68.5538 3.2036
ENERGY: 1200000 2.6860 3.7033 3.4912 0.0000 -10457.2361 1250.1293 0.0000 0.0000 1774.8426 -7422.3838 303.0680 -9197.2263 -7452.3984 302.9290 -1306.7458 -1282.8991 30167.1734 -158.1725 -88.0461
ENERGY: 1500000 0.6173 3.0849 2.6038 0.0000 -10834.8148 1474.2545 0.0000 0.0000 1760.3408 -7593.9135 300.5917 -9354.2544 -7468.4927 302.5739 62.5894 156.5032 29901.3510 12.8024 77.7676
TCL: Running FEP window  11: Lambda1 0.4999999999999996 Lambda2 0.4499999999999996 [dLambda -0.04999999999999999]
TCL: Setting parameter firsttimestep to 0
TCL: Setting parameter alchLambda to 0.4999999999999996
Info: NONBONDED TABLE R-SQUARED SPACING: 0.0625
Info: NONBONDED TABLE SIZE: 705 POINTS
TCL: Setting parameter alchLambda2 to 0.4499999999999996
Info: NONBONDED TABLE R-SQUARED SPACING: 0.0625
Info: NONBONDED TABLE SIZE: 705 POINTS
TCL: Running for 1500000 steps
ETITLE: TS BOND ANGLE DIHED IMPRP ELECT VDW BOUNDARY MISC KINETIC TOTAL TEMP POTENTIAL TOTALAVG TEMPAVG PRESSURE GPRESSURE VOLUME PRESSAVG GPRESSAVG
ENERGY: 0 0.6173 3.0849 2.6038 0.0000 -10834.7717 1474.6330 0.0000 0.0000 1759.4665 -7594.3663 300.4424 -9353.8328 -7594.3663 300.4424 65.6757 157.4583 29901.3510 65.6757 157.4583
ENERGY: 300000 0.1112 3.2313 2.8519 0.0000 -10774.3229 1478.6934 0.0000 0.0000 1746.6263 -7542.8088 298.2499 -9289.4351 -7498.7777 299.7808 299.5740 350.9062 29950.6814 230.4588 300.7681
ENERGY: 600000 0.5107 4.8138 1.5174 0.0000 -10744.3085 1480.4328 0.0000 0.0000 1771.8062 -7485.2275 302.5495 -9257.0337 -7481.1434 301.5512 232.9768 319.4864 30287.0079 83.9025 142.0743
ENERGY: 900000 0.5231 4.2825 1.8639 0.0000 -10647.5970 1412.7469 0.0000 0.0000 1761.1068 -7467.0738 300.7225 -9228.1806 -7485.2810 300.6825 -133.0739 -65.0266 30153.9287 51.3796 120.2520
ENERGY: 1200000 0.3420 7.7074 1.5793 0.0000 -10773.9938 1471.6030 0.0000 0.0000 1747.2464 -7545.5158 298.3557 -9292.7622 -7489.5882 300.1629 156.4594 220.3858 30054.9020 -42.2679 30.5950
ENERGY: 1500000 0.1762 5.5363 1.7516 0.0000 -10811.2905 1507.8407 0.0000 0.0000 1791.6912 -7504.2947 305.9450 -9295.9858 -7490.5314 300.6786 442.3470 489.5665 30264.8776 25.5734 91.5289
TCL: Running FEP window  12: Lambda1 0.4499999999999996 Lambda2 0.39999999999999963 [dLambda -0.04999999999999999]
TCL: Setting parameter firsttimestep to 0
TCL: Setting parameter alchLambda to 0.4499999999999996
Info: NONBONDED TABLE R-SQUARED SPACING: 0.0625
Info: NONBONDED TABLE SIZE: 705 POINTS
TCL: Setting parameter alchLambda2 to 0.39999999999999963
Info: NONBONDED TABLE R-SQUARED SPACING: 0.0625
Info: NONBONDED TABLE SIZE: 705 POINTS
TCL: Running for 1500000 steps
ETITLE: TS BOND ANGLE DIHED IMPRP ELECT VDW BOUNDARY MISC KINETIC TOTAL TEMP POTENTIAL TOTALAVG TEMPAVG PRESSURE GPRESSURE VOLUME PRESSAVG GPRESSAVG
ENERGY: 0 0.1762 5.5363 1.7516 0.0000 -10811.2886 1507.8411 0.0000 0.0000 1790.8051 -7505.1785 305.7937 -9295.9836 -7505.1785 305.7937 410.8754 484.7292 30264.8776 410.8754 484.7292
ENERGY: 300000 0.2353 5.8146 1.8606 0.0000 -10701.4813 1434.2459 0.0000 0.0000 1741.3223 -7518.0026 297.3442 -9259.3249 -7517.7093 301.5917 43.1660 145.3400 29830.8445 60.5607 119.8726
ENERGY: 600000 1.0702 3.6839 2.6668 0.0000 -10649.0733 1432.3875 0.0000 0.0000 1794.4634 -7414.8014 306.4184 -9209.2647 -7493.0069 303.5474 142.4521 202.9909 30152.9077 195.9195 265.3130
ENERGY: 900000 0.1998 4.4657 3.1977 0.0000 -10724.2799 1487.2361 0.0000 0.0000 1686.0947 -7543.0859 287.9136 -9229.1806 -7495.2506 301.6001 131.9904 151.5985 30651.9988 197.6674 266.0872
ENERGY: 1200000 1.3509 3.7771 2.0147 0.0000 -10663.3626 1494.0968 0.0000 0.0000 1753.9034 -7408.2197 299.4925 -9162.1231 -7482.6917 301.0274 917.6021 970.8135 29900.7644 193.8651 259.2823
ENERGY: 1500000 0.9466 5.4645 2.8781 0.0000 -10669.5303 1475.6158 0.0000 0.0000 1813.0651 -7371.5601 309.5948 -9184.6252 -7481.5713 300.9919 544.0630 565.1172 30312.0961 203.7447 272.5753
TCL: Running FEP window  13: Lambda1 0.39999999999999963 Lambda2 0.34999999999999964 [dLambda -0.04999999999999999]
TCL: Setting parameter firsttimestep to 0
TCL: Setting parameter alchLambda to 0.39999999999999963
Info: NONBONDED TABLE R-SQUARED SPACING: 0.0625
Info: NONBONDED TABLE SIZE: 705 POINTS
TCL: Setting parameter alchLambda2 to 0.34999999999999964
Info: NONBONDED TABLE R-SQUARED SPACING: 0.0625
Info: NONBONDED TABLE SIZE: 705 POINTS
TCL: Running for 1500000 steps
ETITLE: TS BOND ANGLE DIHED IMPRP ELECT VDW BOUNDARY MISC KINETIC TOTAL TEMP POTENTIAL TOTALAVG TEMPAVG PRESSURE GPRESSURE VOLUME PRESSAVG GPRESSAVG
ENERGY: 0 0.9466 5.4645 2.8781 0.0000 -10669.5297 1475.6946 0.0000 0.0000 1812.2114 -7372.3345 309.4490 -9184.5459 -7372.3345 309.4490 483.4782 562.7538 30312.0961 483.4782 562.7538
ENERGY: 300000 0.4277 3.6599 1.8433 0.0000 -10673.9109 1372.7952 0.0000 0.0000 1776.2637 -7518.9210 303.3107 -9295.1848 -7447.4863 303.3762 -635.0972 -556.4162 30262.8999 -56.0869 47.5911
ENERGY: 600000 1.9524 4.7179 1.6200 0.0000 -10720.8424 1422.8759 0.0000 0.0000 1782.6325 -7507.0435 304.3982 -9289.6761 -7468.8818 303.3869 329.0226 412.8303 29439.9806 -30.7775 54.5831
ENERGY: 900000 0.1404 4.0173 1.6521 0.0000 -10707.6738 1368.6510 0.0000 0.0000 1753.7194 -7579.4936 299.4611 -9333.2130 -7486.4026 301.3940 -467.5603 -405.2558 29588.1230 15.2518 95.0715
ENERGY: 1200000 0.4326 3.1466 1.7810 0.0000 -10651.3725 1436.5289 0.0000 0.0000 1756.5277 -7452.9557 299.9406 -9209.4834 -7481.0750 301.3845 -11.0257 85.7844 30416.2247 9.7215 91.4314
ENERGY: 1500000 1.5069 3.1242 1.7560 0.0000 -10567.2153 1372.0759 0.0000 0.0000 1736.6436 -7452.1087 296.5452 -9188.7523 -7483.4505 300.6887 -478.5739 -383.1327 30143.5160 -84.8013 -6.8988
TCL: Running FEP window  14: Lambda1 0.34999999999999964 Lambda2 0.29999999999999966 [dLambda -0.04999999999999999]
TCL: Setting parameter firsttimestep to 0
TCL: Setting parameter alchLambda to 0.34999999999999964
Info: NONBONDED TABLE R-SQUARED SPACING: 0.0625
Info: NONBONDED TABLE SIZE: 705 POINTS
TCL: Setting parameter alchLambda2 to 0.29999999999999966
Info: NONBONDED TABLE R-SQUARED SPACING: 0.0625
Info: NONBONDED TABLE SIZE: 705 POINTS
TCL: Running for 1500000 steps
ETITLE: TS BOND ANGLE DIHED IMPRP ELECT VDW BOUNDARY MISC KINETIC TOTAL TEMP POTENTIAL TOTALAVG TEMPAVG PRESSURE GPRESSURE VOLUME PRESSAVG GPRESSAVG
ENERGY: 0 1.5069 3.1242 1.7560 0.0000 -10567.2165 1371.9195 0.0000 0.0000 1735.7613 -7453.1486 296.3946 -9188.9099 -7453.1486 296.3946 -480.3439 -388.2960 30143.5160 -480.3439 -388.2960
ENERGY: 300000 0.4624 3.2850 2.2385 0.0000 -10579.8020 1385.6639 0.0000 0.0000 1819.9069 -7368.2454 310.7631 -9188.1522 -7458.2843 301.2895 -500.9440 -469.0486 31028.7329 -530.3325 -466.4143
ENERGY: 600000 2.5866 3.1087 2.3387 0.0000 -10609.0035 1406.5072 0.0000 0.0000 1755.4001 -7439.0623 299.7481 -9194.4624 -7455.0680 300.6928 63.9012 89.9993 30302.5739 -120.4376 -67.2446
ENERGY: 900000 0.1271 4.4818 2.2774 0.0000 -10674.3570 1398.5019 0.0000 0.0000 1734.5658 -7534.4031 296.1904 -9268.9689 -7461.9826 300.1427 -600.0989 -566.8962 30727.8851 -197.1426 -144.2633
ENERGY: 1200000 1.0916 4.6271 1.6362 0.0000 -10596.7852 1391.8821 0.0000 0.0000 1765.3874 -7432.1607 301.4535 -9197.5482 -7469.3061 299.9013 -491.1270 -392.8793 30540.8715 -242.3433 -185.0821
ENERGY: 1500000 0.9674 4.1533 1.6318 0.0000 -10588.8760 1367.2117 0.0000 0.0000 1760.9556 -7453.9562 300.6967 -9214.9118 -7469.3235 299.4969 -448.7270 -424.8375 30327.5185 -250.1564 -189.6787
TCL: Running FEP window  15: Lambda1 0.29999999999999966 Lambda2 0.24999999999999967 [dLambda -0.04999999999999999]
TCL: Setting parameter firsttimestep to 0
TCL: Setting parameter alchLambda to 0.29999999999999966
Info: NONBONDED TABLE R-SQUARED SPACING: 0.0625
Info: NONBONDED TABLE SIZE: 705 POINTS
TCL: Setting parameter alchLambda2 to 0.24999999999999967
Info: NONBONDED TABLE R-SQUARED SPACING: 0.0625
Info: NONBONDED TABLE SIZE: 705 POINTS
TCL: Running for 1500000 steps
ETITLE: TS BOND ANGLE DIHED IMPRP ELECT VDW BOUNDARY MISC KINETIC TOTAL TEMP POTENTIAL TOTALAVG TEMPAVG PRESSURE GPRESSURE VOLUME PRESSAVG GPRESSAVG
ENERGY: 0 0.9674 4.1533 1.6318 0.0000 -10588.8757 1367.5902 0.0000 0.0000 1760.1158 -7454.4173 300.5533 -9214.5331 -7454.4173 300.5533 -510.2007 -429.3533 30327.5185 -510.2007 -429.3533
ENERGY: 300000 0.6974 3.8965 1.6180 0.0000 -10661.5277 1440.8714 0.0000 0.0000 1746.0436 -7468.4007 298.1504 -9214.4444 -7487.7321 297.1758 97.0193 152.6283 30335.9092 -275.9247 -214.1197
ENERGY: 600000 0.4805 2.6447 2.5326 0.0000 -10723.0118 1456.0310 0.0000 0.0000 1759.4829 -7501.8401 300.4452 -9261.3229 -7486.6990 298.8810 130.9186 191.2459 30130.0653 -110.8815 -38.0412
ENERGY: 900000 0.3702 2.4850 2.5949 0.0000 -10851.3603 1589.3016 0.0000 0.0000 1765.0048 -7491.6037 301.3881 -9256.6086 -7477.0991 300.0245 1407.3114 1452.2189 29659.6803 78.1448 158.0412
ENERGY: 1200000 0.6414 3.6569 2.5903 0.0000 -10609.0939 1403.2800 0.0000 0.0000 1767.7285 -7431.1968 301.8532 -9198.9252 -7484.2492 299.9552 -297.7808 -246.9881 30440.6626 -7.3880 69.1551
ENERGY: 1500000 0.1908 3.4814 1.7967 0.0000 -10698.5291 1440.6367 0.0000 0.0000 1789.0811 -7463.3425 305.4993 -9252.4236 -7483.7277 299.9317 -166.4984 -105.1805 30622.4441 -24.3843 47.1535
TCL: Running FEP window  16: Lambda1 0.24999999999999967 Lambda2 0.19999999999999968 [dLambda -0.04999999999999999]
TCL: Setting parameter firsttimestep to 0
TCL: Setting parameter alchLambda to 0.24999999999999967
Info: NONBONDED TABLE R-SQUARED SPACING: 0.0625
Info: NONBONDED TABLE SIZE: 705 POINTS
TCL: Setting parameter alchLambda2 to 0.19999999999999968
Info: NONBONDED TABLE R-SQUARED SPACING: 0.0625
Info: NONBONDED TABLE SIZE: 705 POINTS
TCL: Running for 1500000 steps
ETITLE: TS BOND ANGLE DIHED IMPRP ELECT VDW BOUNDARY MISC KINETIC TOTAL TEMP POTENTIAL TOTALAVG TEMPAVG PRESSURE GPRESSURE VOLUME PRESSAVG GPRESSAVG
ENERGY: 0 0.1908 3.4814 1.7967 0.0000 -10698.5292 1440.7135 0.0000 0.0000 1788.2050 -7464.1418 305.3497 -9252.3468 -7464.1418 305.3497 -194.3830 -109.7312 30622.4441 -194.3830 -109.7312
ENERGY: 300000 1.2401 3.0276 1.6670 0.0000 -10614.2920 1461.2259 0.0000 0.0000 1745.1950 -7401.9364 298.0055 -9147.1315 -7453.6347 300.6767 230.4358 284.1174 30534.3697 -112.3404 -83.1355
ENERGY: 600000 1.0992 8.2617 1.7323 0.0000 -10597.8183 1402.7070 0.0000 0.0000 1774.0146 -7410.0035 302.9266 -9184.0181 -7460.4810 300.2846 -223.5484 -122.0054 30396.1388 -49.8604 -0.3974
ENERGY: 900000 1.2454 9.6866 1.7783 0.0000 -10724.1554 1483.8858 0.0000 0.0000 1730.6537 -7496.9056 295.5224 -9227.5593 -7465.1640 299.3094 558.7359 575.2558 29848.4594 -52.7080 7.0559
ENERGY: 1200000 0.7107 5.9253 2.6313 0.0000 -10688.3685 1444.0481 0.0000 0.0000 1746.5180 -7488.5353 298.2314 -9235.0532 -7467.1337 300.0797 -46.1580 26.5069 30431.9243 -38.5598 21.5220
ENERGY: 1500000 0.9953 4.2936 1.6230 0.0000 -10495.3449 1311.1247 0.0000 0.0000 1790.3715 -7386.9369 305.7197 -9177.3083 -7464.2911 300.3808 -873.7996 -816.5953 30453.9556 -122.3902 -64.6760
TCL: Running FEP window  17: Lambda1 0.19999999999999968 Lambda2 0.1499999999999997 [dLambda -0.04999999999999999]
TCL: Setting parameter firsttimestep to 0
TCL: Setting parameter alchLambda to 0.19999999999999968
Info: NONBONDED TABLE R-SQUARED SPACING: 0.0625
Info: NONBONDED TABLE SIZE: 705 POINTS
TCL: Setting parameter alchLambda2 to 0.1499999999999997
Info: NONBONDED TABLE R-SQUARED SPACING: 0.0625
Info: NONBONDED TABLE SIZE: 705 POINTS
TCL: Running for 1500000 steps
ETITLE: TS BOND ANGLE DIHED IMPRP ELECT VDW BOUNDARY MISC KINETIC TOTAL TEMP POTENTIAL TOTALAVG TEMPAVG PRESSURE GPRESSURE VOLUME PRESSAVG GPRESSAVG
ENERGY: 0 0.9953 4.2936 1.6230 0.0000 -10495.3446 1311.0272 0.0000 0.0000 1789.4879 -7387.9177 305.5688 -9177.4056 -7387.9177 305.5688 -921.4816 -821.1392 30453.9556 -921.4816 -821.1392
ENERGY: 300000 0.8505 4.2310 2.0668 0.0000 -10619.9417 1430.8418 0.0000 0.0000 1765.8413 -7416.1103 301.5310 -9181.9517 -7439.7839 301.9822 257.8449 320.1013 29797.5831 -344.1578 -252.7477
ENERGY: 600000 0.2701 4.1004 1.6217 0.0000 -10595.5935 1416.2415 0.0000 0.0000 1716.4270 -7456.9330 293.0931 -9173.3600 -7444.1000 299.6158 -159.3715 -77.6091 30582.5530 -245.3964 -180.0466
ENERGY: 900000 4.0262 5.4098 2.9054 0.0000 -10623.2679 1486.0537 0.0000 0.0000 1789.6734 -7335.1993 305.6005 -9124.8727 -7427.9237 300.6895 943.5098 946.8980 30087.9679 -99.7534 -39.3007
ENERGY: 1200000 0.7927 5.6392 2.4258 0.0000 -10758.3139 1503.6354 0.0000 0.0000 1750.9636 -7494.8572 298.9905 -9245.8208 -7446.1614 300.5583 504.6711 545.4757 30136.1651 -121.0081 -61.2405
ENERGY: 1500000 0.0744 4.1480 2.6283 0.0000 -10581.0583 1408.0769 0.0000 0.0000 1770.2252 -7395.9056 302.2796 -9166.1308 -7439.9572 300.8399 -188.4639 -200.1366 30731.6535 -207.3507 -153.2833
TCL: Running FEP window  18: Lambda1 0.1499999999999997 Lambda2 0.09999999999999969 [dLambda -0.05 ]
TCL: Setting parameter firsttimestep to 0
TCL: Setting parameter alchLambda to 0.1499999999999997
Info: NONBONDED TABLE R-SQUARED SPACING: 0.0625
Info: NONBONDED TABLE SIZE: 705 POINTS
TCL: Setting parameter alchLambda2 to 0.09999999999999969
Info: NONBONDED TABLE R-SQUARED SPACING: 0.0625
Info: NONBONDED TABLE SIZE: 705 POINTS
TCL: Running for 1500000 steps
ETITLE: TS BOND ANGLE DIHED IMPRP ELECT VDW BOUNDARY MISC KINETIC TOTAL TEMP POTENTIAL TOTALAVG TEMPAVG PRESSURE GPRESSURE VOLUME PRESSAVG GPRESSAVG
ENERGY: 0 0.0744 4.1480 2.6283 0.0000 -10581.0566 1408.0928 0.0000 0.0000 1769.3622 -7396.7509 302.1322 -9166.1132 -7396.7509 302.1322 -276.9852 -199.1869 30731.6535 -276.9852 -199.1869
ENERGY: 300000 0.9911 3.8271 2.3606 0.0000 -10595.6099 1395.6623 0.0000 0.0000 1776.4866 -7416.2822 303.3487 -9192.7688 -7471.0311 298.8784 -241.9166 -226.4438 30439.9153 -249.1365 -167.7146
ENERGY: 600000 0.6199 2.5098 2.8587 0.0000 -10765.9357 1500.8257 0.0000 0.0000 1772.3805 -7486.7411 302.6476 -9259.1216 -7487.6587 297.9934 299.0453 404.8481 30099.2559 -47.8803 20.7174
ENERGY: 900000 0.5105 5.8499 1.8002 0.0000 -10838.6028 1493.2281 0.0000 0.0000 1790.3870 -7546.8271 305.7223 -9337.2141 -7489.5184 300.6067 296.4129 361.6718 29759.6202 48.5721 121.3601
ENERGY: 1200000 1.5252 3.4086 1.6373 0.0000 -10613.0358 1324.0443 0.0000 0.0000 1775.7967 -7506.6236 303.2309 -9282.4203 -7495.3607 299.8756 -1147.6708 -1114.5903 30606.3218 -93.1377 -31.3375
ENERGY: 1500000 1.8910 3.9562 2.3312 0.0000 -10611.3324 1358.1354 0.0000 0.0000 1758.8731 -7486.1456 300.3411 -9245.0187 -7494.9295 299.4395 -601.3137 -600.8239 30121.7570 -124.8033 -68.2326
TCL: Running FEP window  19: Lambda1 0.09999999999999969 Lambda2 0.049999999999999684 [dLambda -0.05 ]
TCL: Setting parameter firsttimestep to 0
TCL: Setting parameter alchLambda to 0.09999999999999969
Info: NONBONDED TABLE R-SQUARED SPACING: 0.0625
Info: NONBONDED TABLE SIZE: 705 POINTS
TCL: Setting parameter alchLambda2 to 0.049999999999999684
Info: NONBONDED TABLE R-SQUARED SPACING: 0.0625
Info: NONBONDED TABLE SIZE: 705 POINTS
TCL: Running for 1500000 steps
ETITLE: TS BOND ANGLE DIHED IMPRP ELECT VDW BOUNDARY MISC KINETIC TOTAL TEMP POTENTIAL TOTALAVG TEMPAVG PRESSURE GPRESSURE VOLUME PRESSAVG GPRESSAVG
ENERGY: 0 1.8910 3.9562 2.3312 0.0000 -10611.3311 1357.4018 0.0000 0.0000 1758.0321 -7487.7189 300.1975 -9245.7510 -7487.7189 300.1975 -686.4456 -605.6647 30121.7570 -686.4456 -605.6647
ENERGY: 300000 0.4096 7.6850 1.9069 0.0000 -10708.7415 1490.1663 0.0000 0.0000 1741.9558 -7466.6178 297.4523 -9208.5736 -7478.9506 299.7909 556.0913 643.9996 30103.4323 -94.3086 -37.4619
ENERGY: 600000 3.4056 2.7251 3.1873 0.0000 -10802.4888 1482.7250 0.0000 0.0000 1748.9170 -7561.5287 298.6410 -9310.4458 -7489.9623 299.6011 -34.0469 52.7561 30152.7267 -225.8690 -162.6972
ENERGY: 900000 0.2200 4.7393 1.8266 0.0000 -10621.4793 1418.4056 0.0000 0.0000 1714.7942 -7481.4937 292.8143 -9196.2878 -7488.4782 300.4563 -480.2431 -369.4875 30705.9991 -242.6804 -172.1547
ENERGY: 1200000 2.3219 4.0932 2.3624 0.0000 -10745.6416 1478.6525 0.0000 0.0000 1755.7931 -7502.4184 299.8152 -9258.2116 -7486.5991 300.7828 287.2598 298.9392 30293.9743 -145.6295 -82.6955
ENERGY: 1500000 0.0388 3.0266 1.7910 0.0000 -10658.5620 1399.8059 0.0000 0.0000 1728.7157 -7525.1840 295.1915 -9253.8997 -7489.1171 300.2191 -33.8221 29.3348 29589.9111 -168.0291 -103.1317
TCL: Running FEP window  20: Lambda1 0.049999999999999684 Lambda2 0.0    [dLambda -0.049999999999999684]
TCL: Setting parameter firsttimestep to 0
TCL: Setting parameter alchLambda to 0.049999999999999684
Info: NONBONDED TABLE R-SQUARED SPACING: 0.0625
Info: NONBONDED TABLE SIZE: 705 POINTS
TCL: Setting parameter alchLambda2 to 0.0
Info: NONBONDED TABLE R-SQUARED SPACING: 0.0625
Info: NONBONDED TABLE SIZE: 705 POINTS
TCL: Running for 1500000 steps
ETITLE: TS BOND ANGLE DIHED IMPRP ELECT VDW BOUNDARY MISC KINETIC TOTAL TEMP POTENTIAL TOTALAVG TEMPAVG PRESSURE GPRESSURE VOLUME PRESSAVG GPRESSAVG
ENERGY: 0 0.0388 3.0266 1.7910 0.0000 -10658.5619 1399.9290 0.0000 0.0000 1727.8245 -7525.9519 295.0393 -9253.7764 -7525.9519 295.0393 -61.8203 27.1669 29589.9111 -61.8203 27.1669
ENERGY: 300000 1.9049 4.8284 2.6266 0.0000 -10641.0975 1424.9911 0.0000 0.0000 1743.6720 -7463.0744 297.7454 -9206.7465 -7485.9717 296.1442 -153.7918 -40.9086 30489.9992 -162.8706 -79.2443
ENERGY: 600000 1.2113 3.2308 1.9005 0.0000 -10760.9438 1508.8729 0.0000 0.0000 1790.2823 -7455.4459 305.7045 -9245.7283 -7467.8986 298.5529 654.3078 684.7507 29827.7489 -99.5899 -35.8279
ENERGY: 900000 1.3684 2.8978 1.9417 0.0000 -10701.2032 1459.5622 0.0000 0.0000 1717.2415 -7518.1917 293.2322 -9235.4332 -7473.8279 298.9350 100.4819 181.7694 30225.5118 -96.1218 -31.6032
ENERGY: 1200000 2.3517 4.8658 1.7988 0.0000 -10553.8960 1354.7529 0.0000 0.0000 1768.4817 -7421.6451 301.9818 -9190.1267 -7469.5850 299.6718 -664.9467 -625.6474 30560.1676 -40.1110 17.9243
ENERGY: 1500000 0.2790 9.2597 1.7931 0.0000 -10654.3541 1442.6808 0.0000 0.0000 1730.9488 -7469.3927 295.5728 -9200.3415 -7465.0758 299.1144 -90.6136 -48.4434 30515.9239 -80.0580 -20.5606
TCL: Exiting due to exit command.
