Info: SIMULATION PARAMETERS:
Info: TIMESTEP               2
Info: NUMBER OF STEPS        0
Info: STEPS PER CYCLE        10
Info: PERIODIC CELL BASIS 1  30.8282 0 0
Info: PERIODIC CELL BASIS 2  0 29.355 0
Info: PERIODIC CELL BASIS 3  0 0 33.0003
Info: PERIODIC CELL CENTER   0 0 0
Info: WRAPPING WATERS AROUND PERIODIC BOUNDARIES ON OUTPUT.
Info: WRAPPING ALL CLUSTERS AROUND PERIODIC BOUNDARIES ON OUTPUT.
Info: FIRST LDB TIMESTEP     50
Info: LAST LDB TIMESTEP     -1
Info: HOM BACKGROUND SCALING 1
Info: PME BACKGROUND SCALING 1
Info: MIN ATOMS PER PATCH    40
Info: EMPTY PATCH LOAD       40 ATOMS
Info: VELOCITY FILE          mobley_3144334_equil.vel
Info: CENTER OF MASS MOVING INITIALLY? NO
Info: DIELECTRIC             1
Info: EXCLUDE                SCALED ONE-FOUR
Info: 1-4 ELECTROSTATICS SCALED BY 0.833333
Info: MODIFIED 1-4 VDW PARAMETERS WILL BE USED
Info: DCD FILENAME           mobley_3144334_prod.dcd
Info: DCD FREQUENCY          100000
Info: DCD FIRST STEP         100000
Info: DCD FILE WILL CONTAIN UNIT CELL DATA
Info: XST FILENAME           mobley_3144334_prod.xst
Info: XST FREQUENCY          100000
Info: NO VELOCITY DCD OUTPUT
Info: NO FORCE DCD OUTPUT
Info: OUTPUT FILENAME        mobley_3144334_prod
Info: BINARY OUTPUT FILES WILL BE USED
Info: RESTART FILENAME       mobley_3144334_prod.restart
Info: RESTART FREQUENCY      100000
Info: BINARY RESTART FILES WILL BE USED
Info: CUTOFF                 9
Info: PAIRLIST DISTANCE      11
Info: PAIRLIST SHRINK RATE   0.01
Info: PAIRLIST GROW RATE     0.01
Info: PAIRLIST TRIGGER       0.3
Info: PAIRLISTS PER CYCLE    2
Info: PAIRLISTS ENABLED
Info: MARGIN                 2
Info: HYDROGEN GROUP CUTOFF  2.5
Info: PATCH DIMENSION        15.5
Info: ENERGY OUTPUT STEPS    100000
Info: ENERGY EVALUATION STEPS    100000
Info: OUTPUT ENERGY PRECISION 4
Info: CROSSTERM ENERGY INCLUDED IN DIHEDRAL
Info: TIMING OUTPUT STEPS    1000000
Info: PRESSURE OUTPUT STEPS  100000
Info: ALCHEMICAL FEP ON
Info: FEP CURRENT LAMBDA VALUE     0
Info: FEP COMPARISON LAMBDA VALUE  0.05
Info: FEP INTRA-ALCHEMICAL NON-BONDED INTERACTIONS WILL BE RETAINED
Info: FEP INTRA-ALCHEMICAL BONDED INTERACTIONS WILL BE RETAINED
Info: FEP VDW SHIFTING COEFFICIENT 5
Info: FEP ELEC. ACTIVE FOR ANNIHILATED PARTICLES BETWEEN LAMBDA = 0 AND LAMBDA = 0.5
Info: FEP ELEC. ACTIVE FOR EXNIHILATED PARTICLES BETWEEN LAMBDA = 0.5 AND LAMBDA = 1
Info: FEP VDW ACTIVE FOR ANNIHILATED PARTICLES BETWEEN LAMBDA = 0 AND LAMBDA = 1
Info: FEP VDW ACTIVE FOR EXNIHILATED PARTICLES BETWEEN LAMBDA = 0 AND LAMBDA = 1
Info: FEP BOND ACTIVE FOR ANNIHILATED PARTICLES BETWEEN LAMBDA = 1 AND LAMBDA = 1
Info: FEP BOND ACTIVE FOR EXNIHILATED PARTICLES BETWEEN LAMBDA = 0 AND LAMBDA = 0
Info: LANGEVIN DYNAMICS ACTIVE
Info: LANGEVIN TEMPERATURE   300
Info: LANGEVIN USING BBK INTEGRATOR
Info: LANGEVIN DAMPING COEFFICIENT IS 1 INVERSE PS
Info: LANGEVIN DYNAMICS APPLIED TO HYDROGENS
Info: LANGEVIN PISTON PRESSURE CONTROL ACTIVE
Info:        TARGET PRESSURE IS 1.01325 BAR
Info:     OSCILLATION PERIOD IS 50 FS
Info:             DECAY TIME IS 25 FS
Info:     PISTON TEMPERATURE IS 300 K
Info:       PRESSURE CONTROL IS GROUP-BASED
Info:    INITIAL STRAIN RATE IS -0.000366108 -0.000366108 -0.000366108
Info:       CELL FLUCTUATION IS ISOTROPIC
Info: PARTICLE MESH EWALD (PME) ACTIVE
Info: PME TOLERANCE               1e-06
Info: PME EWALD COEFFICIENT       0.348832
Info: PME INTERPOLATION ORDER     4
Info: PME GRID DIMENSIONS         32 32 36
Info: PME MAXIMUM GRID SPACING    1
Info: PME CALCULATION WILL BE PERFORMED ON GPU
Info: FULL ELECTROSTATIC EVALUATION FREQUENCY      2
Info: USING VERLET I (r-RESPA) MTS SCHEME.
Info: C1 SPLITTING OF LONG RANGE ELECTROSTATICS
Info: PLACING ATOMS IN PATCHES BY HYDROGEN GROUPS
Info: RIGID BONDS TO HYDROGEN : ALL
Info:         ERROR TOLERANCE : 1e-08
Info:          MAX ITERATIONS : 100
Info: RIGID WATER USING SETTLE ALGORITHM
Info: RANDOM NUMBER SEED     1743608525
Info: USE HYDROGEN BONDS?    NO
Info: Using AMBER format force field!
Info: AMBER PARM FILE        mobley_3144334.prmtop
Info: COORDINATE PDB         mobley_3144334.pdb
Info: Exclusions will be read from PARM file!
Info: SCNB (VDW SCALING)     2
Info: USING ARITHMETIC MEAN TO COMBINE L-J SIGMA PARAMETERS
Info: BINARY COORDINATES     mobley_3144334_equil.coor
Info: SUMMARY OF PARAMETERS:
Info: 8 BONDS
Info: 7 ANGLES
Info:   7 HARMONIC
Info:   0 COSINE-BASED
Info: 4 DIHEDRAL
Info: 0 IMPROPER
Info: 0 CROSSTERM
Info: 0 VDW
Info: 28 VDW_PAIRS
Info: 0 NBTHOLE_PAIRS
Info: To read alchdata from file: mobley_3144334.pdb
Info: To read alchflag data from column: 5
Info: STRUCTURE SUMMARY:
Info: 2935 ATOMS
Info: 2935 BONDS
Info: 31 ANGLES
Info: 44 DIHEDRALS
Info: 0 IMPROPERS
Info: 0 CROSSTERMS
Info: 3001 EXCLUSIONS
Info: 2926 RIGID BONDS
Info: ALCH: 0 ATOMS TO DISAPPEAR IN FINAL STATE
Info: ALCH: 19 ATOMS TO APPEAR IN FINAL STATE
Info: 5879 DEGREES OF FREEDOM
Info: 981 HYDROGEN GROUPS
Info: 4 ATOMS IN LARGEST HYDROGEN GROUP
Info: 981 MIGRATION GROUPS
Info: 4 ATOMS IN LARGEST MIGRATION GROUP
Info: TOTAL MASS = 17633.7 amu
Info: TOTAL CHARGE = 0.000200007 e
Info: MASS DENSITY = 0.980516 g/cm^3
Info: ATOM DENSITY = 0.0982788 atoms/A^3
Info: ADDED 0 IMPLICIT EXCLUSIONS
Info: NONBONDED TABLE R-SQUARED SPACING: 0.0625
Info: NONBONDED TABLE SIZE: 705 POINTS
Info: REMOVING COM VELOCITY 0.0521171 0.045941 0.0501659
Info: Use 3D box decompostion in PME FFT.
Info: Updated CUDA force table with 4096 elements.
Info: Updated CUDA LJ table with 7 x 7 elements.
Info: Found 21 unique exclusion lists needing 56 bytes
TCL: Running for 1500000 steps
ETITLE: TS BOND ANGLE DIHED IMPRP ELECT VDW BOUNDARY MISC KINETIC TOTAL TEMP POTENTIAL TOTALAVG TEMPAVG PRESSURE GPRESSURE VOLUME PRESSAVG GPRESSAVG
ENERGY: 0 1.0550 5.7697 2.3453 0.0000 -10682.8699 1444.0859 0.0000 0.0000 1730.4029 -7499.2111 296.2335 -9229.6140 -7499.2111 296.2335 164.4762 246.5031 29864.0171 164.4762 246.5031
ENERGY: 300000 2.8719 4.9331 4.1822 0.0000 -10528.0647 1405.0393 0.0000 0.0000 1779.4308 -7331.6073 304.6268 -9111.0381 -7415.1090 301.1411 -54.6030 -28.5116 30051.3475 -127.7431 -66.9045
ENERGY: 600000 2.1563 7.1338 3.5417 0.0000 -10616.8456 1415.5486 0.0000 0.0000 1801.7824 -7386.6829 308.4532 -9188.4653 -7427.1898 301.2059 -74.1205 6.7351 29966.7803 78.2421 145.3490
ENERGY: 900000 3.4870 5.9084 1.1351 0.0000 -10527.0791 1340.0873 0.0000 0.0000 1771.9070 -7404.5543 303.3387 -9176.4613 -7430.7793 301.0557 -709.8276 -653.4089 30017.3987 60.0958 123.4794
ENERGY: 1200000 3.2838 7.4364 1.3489 0.0000 -10602.6347 1394.0958 0.0000 0.0000 1765.9598 -7430.5100 302.3206 -9196.4699 -7431.0889 301.1327 -282.9668 -268.0003 29977.7815 86.3719 136.7099
ENERGY: 1500000 2.5851 5.6368 3.1063 0.0000 -10717.2264 1550.3771 0.0000 0.0000 1665.7253 -7489.7957 285.1611 -9155.5209 -7415.2500 300.3513 991.0161 1145.9449 29788.7172 112.1988 170.5802
TCL: Running FEP window   2: Lambda1 0.05   Lambda2 0.1    [dLambda 0.05  ]
TCL: Setting parameter firsttimestep to 0
TCL: Setting parameter alchLambda to 0.05
Info: NONBONDED TABLE R-SQUARED SPACING: 0.0625
Info: NONBONDED TABLE SIZE: 705 POINTS
TCL: Setting parameter alchLambda2 to 0.1
Info: NONBONDED TABLE R-SQUARED SPACING: 0.0625
Info: NONBONDED TABLE SIZE: 705 POINTS
TCL: Running for 1500000 steps
ETITLE: TS BOND ANGLE DIHED IMPRP ELECT VDW BOUNDARY MISC KINETIC TOTAL TEMP POTENTIAL TOTALAVG TEMPAVG PRESSURE GPRESSURE VOLUME PRESSAVG GPRESSAVG
ENERGY: 0 2.5851 5.6368 3.1063 0.0000 -10717.2280 1555.5086 0.0000 0.0000 1664.8849 -7485.5062 285.0172 -9150.3911 -7485.5062 285.0172 1062.9915 1155.3866 29788.7172 1062.9915 1155.3866
ENERGY: 300000 4.6379 5.7259 1.7146 0.0000 -10658.4823 1461.4140 0.0000 0.0000 1807.5532 -7377.4366 309.4411 -9184.9898 -7407.5431 300.6423 -2.9530 132.6377 29919.5247 258.0712 349.8199
ENERGY: 600000 3.6340 6.6863 3.4900 0.0000 -10535.8961 1353.5638 0.0000 0.0000 1688.3993 -7480.1226 289.0428 -9168.5219 -7418.0263 299.6801 -912.1386 -878.7094 30577.8255 -12.8834 57.3290
ENERGY: 900000 3.4535 4.8016 2.6230 0.0000 -10673.0535 1457.4991 0.0000 0.0000 1778.6387 -7426.0376 304.4911 -9204.6763 -7419.6087 300.1014 -105.3126 3.1034 30241.4451 -79.7227 -9.6654
ENERGY: 1200000 1.5077 4.6275 2.8079 0.0000 -10605.6421 1427.3867 0.0000 0.0000 1749.0778 -7420.2347 299.4305 -9169.3124 -7430.4484 298.7641 -46.4718 43.7629 30213.6940 -11.9863 57.7183
ENERGY: 1500000 6.1185 10.3689 3.1835 0.0000 -10677.0275 1508.3109 0.0000 0.0000 1721.6923 -7427.3534 294.7423 -9149.0457 -7442.4303 298.2830 639.6390 715.2759 29677.7959 10.4854 78.4656
TCL: Running FEP window   3: Lambda1 0.1    Lambda2 0.15000000000000002 [dLambda 0.05000000000000002]
TCL: Setting parameter firsttimestep to 0
TCL: Setting parameter alchLambda to 0.1
Info: NONBONDED TABLE R-SQUARED SPACING: 0.0625
Info: NONBONDED TABLE SIZE: 705 POINTS
TCL: Setting parameter alchLambda2 to 0.15000000000000002
Info: NONBONDED TABLE R-SQUARED SPACING: 0.0625
Info: NONBONDED TABLE SIZE: 705 POINTS
TCL: Running for 1500000 steps
ETITLE: TS BOND ANGLE DIHED IMPRP ELECT VDW BOUNDARY MISC KINETIC TOTAL TEMP POTENTIAL TOTALAVG TEMPAVG PRESSURE GPRESSURE VOLUME PRESSAVG GPRESSAVG
ENERGY: 0 6.1185 10.3689 3.1835 0.0000 -10677.0274 1509.7538 0.0000 0.0000 1720.8460 -7426.7567 294.5974 -9147.6027 -7426.7567 294.5974 628.3375 723.8393 29677.7959 628.3375 723.8393
ENERGY: 300000 3.0127 3.5128 3.7809 0.0000 -10447.7488 1281.0353 0.0000 0.0000 1756.2612 -7400.1459 300.6603 -9156.4071 -7416.3633 300.2970 -977.7655 -957.2980 30198.3861 -344.5909 -279.7203
ENERGY: 600000 3.6717 6.3098 2.1669 0.0000 -10709.5268 1500.2013 0.0000 0.0000 1681.0952 -7516.0820 287.7923 -9197.1772 -7448.8349 296.0147 478.2977 567.1329 30242.9547 -253.6140 -179.5940
ENERGY: 900000 1.2854 6.4106 5.7836 0.0000 -10621.5596 1394.7012 0.0000 0.0000 1779.4315 -7433.9472 304.6269 -9213.3787 -7443.5905 297.3865 -58.4232 -78.5258 29605.5998 -327.3753 -260.3268
ENERGY: 1200000 4.6932 3.2877 2.6624 0.0000 -10579.2143 1353.7640 0.0000 0.0000 1772.8091 -7441.9979 303.4932 -9214.8070 -7457.7270 296.8722 -672.1730 -649.2822 30098.8128 -296.9703 -235.6257
ENERGY: 1500000 4.3432 5.6023 2.9378 0.0000 -10580.9862 1380.0914 0.0000 0.0000 1746.6570 -7441.3544 299.0161 -9188.0114 -7457.2691 297.4312 -619.5340 -534.1102 30697.4393 -315.1196 -252.7114
TCL: Running FEP window   4: Lambda1 0.15000000000000002 Lambda2 0.2    [dLambda 0.04999999999999999]
TCL: Setting parameter firsttimestep to 0
TCL: Setting parameter alchLambda to 0.15000000000000002
Info: NONBONDED TABLE R-SQUARED SPACING: 0.0625
Info: NONBONDED TABLE SIZE: 705 POINTS
TCL: Setting parameter alchLambda2 to 0.2
Info: NONBONDED TABLE R-SQUARED SPACING: 0.0625
Info: NONBONDED TABLE SIZE: 705 POINTS
TCL: Running for 1500000 steps
ETITLE: TS BOND ANGLE DIHED IMPRP ELECT VDW BOUNDARY MISC KINETIC TOTAL TEMP POTENTIAL TOTALAVG TEMPAVG PRESSURE GPRESSURE VOLUME PRESSAVG GPRESSAVG
ENERGY: 0 4.3432 5.6023 2.9378 0.0000 -10580.9861 1381.9233 0.0000 0.0000 1745.8348 -7440.3447 298.8753 -9186.1795 -7440.3447 298.8753 -595.2461 -523.1086 30697.4393 -595.2461 -523.1086
ENERGY: 300000 0.9783 2.4418 3.4500 0.0000 -10680.7121 1504.0421 0.0000 0.0000 1745.8560 -7423.9440 298.8790 -9169.8000 -7432.7398 300.3090 610.2613 682.0302 30189.4408 -84.6814 -22.2936
ENERGY: 600000 1.8442 8.7974 1.9654 0.0000 -10695.9177 1459.8612 0.0000 0.0000 1770.8455 -7452.6040 303.1570 -9223.4495 -7415.5036 300.4589 -49.3547 -47.2338 30361.0581 -6.5998 33.4797
ENERGY: 900000 3.8446 4.9474 1.4772 0.0000 -10579.8066 1341.6218 0.0000 0.0000 1764.0249 -7463.8907 301.9894 -9227.9157 -7428.6274 298.9626 -726.5877 -626.6284 29859.5664 30.3149 85.4459
ENERGY: 1200000 4.8280 5.3395 4.4044 0.0000 -10543.9287 1323.9219 0.0000 0.0000 1725.4386 -7479.9964 295.3836 -9205.4350 -7432.4876 299.6500 -1147.3278 -1058.8015 29938.1919 -103.3925 -40.4969
ENERGY: 1500000 4.9337 4.6246 2.7123 0.0000 -10596.0172 1411.1601 0.0000 0.0000 1793.7436 -7378.8429 307.0770 -9172.5865 -7436.2461 299.8987 -303.9939 -175.0206 30197.9303 -100.2180 -30.2985
TCL: Running FEP window   5: Lambda1 0.2    Lambda2 0.25   [dLambda 0.04999999999999999]
TCL: Setting parameter firsttimestep to 0
TCL: Setting parameter alchLambda to 0.2
Info: NONBONDED TABLE R-SQUARED SPACING: 0.0625
Info: NONBONDED TABLE SIZE: 705 POINTS
TCL: Setting parameter alchLambda2 to 0.25
Info: NONBONDED TABLE R-SQUARED SPACING: 0.0625
Info: NONBONDED TABLE SIZE: 705 POINTS
TCL: Running for 1500000 steps
ETITLE: TS BOND ANGLE DIHED IMPRP ELECT VDW BOUNDARY MISC KINETIC TOTAL TEMP POTENTIAL TOTALAVG TEMPAVG PRESSURE GPRESSURE VOLUME PRESSAVG GPRESSAVG
ENERGY: 0 4.9337 4.6246 2.7123 0.0000 -10596.0176 1412.9600 0.0000 0.0000 1792.8131 -7377.9739 306.9177 -9170.7870 -7377.9739 306.9177 -250.2875 -162.8126 30197.9303 -250.2875 -162.8126
ENERGY: 300000 3.3832 4.4566 1.6665 0.0000 -10663.9758 1426.6810 0.0000 0.0000 1764.2701 -7463.5184 302.0313 -9227.7885 -7436.8659 302.7576 -440.2244 -397.5524 30407.6877 -409.2555 -316.3102
ENERGY: 600000 2.1793 2.4286 6.8801 0.0000 -10513.5235 1375.4932 0.0000 0.0000 1784.4303 -7342.1120 305.4826 -9126.5422 -7434.6824 301.2393 -304.0599 -180.4517 30200.2020 -332.5618 -252.5185
ENERGY: 900000 2.0555 8.0427 5.3841 0.0000 -10640.5916 1460.5974 0.0000 0.0000 1745.1489 -7419.3630 298.7579 -9164.5119 -7436.4125 301.7821 73.8078 131.5648 30331.5867 -331.7579 -253.5765
ENERGY: 1200000 1.6746 3.8389 5.5245 0.0000 -10744.7292 1514.3888 0.0000 0.0000 1746.4048 -7472.8975 298.9729 -9219.3023 -7441.9861 301.4020 488.4730 523.5808 30033.5798 -228.1836 -153.7414
ENERGY: 1500000 7.1535 6.2306 1.9331 0.0000 -10586.0059 1391.3419 0.0000 0.0000 1799.4896 -7379.8572 308.0607 -9179.3468 -7427.0999 301.6971 -315.9118 -280.9961 30203.5994 -240.7630 -172.9116
TCL: Running FEP window   6: Lambda1 0.25   Lambda2 0.3    [dLambda 0.04999999999999999]
TCL: Setting parameter firsttimestep to 0
TCL: Setting parameter alchLambda to 0.25
Info: NONBONDED TABLE R-SQUARED SPACING: 0.0625
Info: NONBONDED TABLE SIZE: 705 POINTS
TCL: Setting parameter alchLambda2 to 0.3
Info: NONBONDED TABLE R-SQUARED SPACING: 0.0625
Info: NONBONDED TABLE SIZE: 705 POINTS
TCL: Running for 1500000 steps
ETITLE: TS BOND ANGLE DIHED IMPRP ELECT VDW BOUNDARY MISC KINETIC TOTAL TEMP POTENTIAL TOTALAVG TEMPAVG PRESSURE GPRESSURE VOLUME PRESSAVG GPRESSAVG
ENERGY: 0 7.1535 6.2306 1.9331 0.0000 -10586.0064 1391.6584 0.0000 0.0000 1798.5750 -7380.4559 307.9041 -9179.0309 -7380.4559 307.9041 -360.7386 -273.8357 30203.5994 -360.7386 -273.8357
ENERGY: 300000 1.0507 6.7523 2.2925 0.0000 -10661.8498 1421.8205 0.0000 0.0000 1695.1958 -7534.7380 290.2063 -9229.9338 -7421.5443 302.1800 -150.1154 -99.4248 29960.7063 -415.5069 -333.6550
ENERGY: 600000 4.1898 5.7102 3.1173 0.0000 -10739.8557 1498.5509 0.0000 0.0000 1770.1072 -7458.1804 303.0306 -9228.2876 -7426.9678 302.2026 431.3367 528.8804 30012.4478 -213.1428 -121.9993
ENERGY: 900000 4.5684 9.1696 5.0777 0.0000 -10698.5685 1500.5770 0.0000 0.0000 1800.1920 -7378.9839 308.1809 -9179.1759 -7420.8890 301.7324 676.3864 717.8096 30117.5680 -85.9947 -2.3250
ENERGY: 1200000 6.2325 9.3002 5.5834 0.0000 -10636.3394 1455.9408 0.0000 0.0000 1795.7910 -7363.4916 307.4275 -9159.2826 -7408.2613 302.5419 182.6254 256.4424 30052.9573 -10.0926 64.3226
ENERGY: 1500000 4.9465 4.3235 5.1603 0.0000 -10404.5613 1317.3125 0.0000 0.0000 1745.8776 -7326.9411 298.8827 -9072.8186 -7405.7945 302.2897 -1046.5390 -986.7298 30898.8320 -100.0013 -28.7422
TCL: Running FEP window   7: Lambda1 0.3    Lambda2 0.35   [dLambda 0.04999999999999999]
TCL: Setting parameter firsttimestep to 0
TCL: Setting parameter alchLambda to 0.3
Info: NONBONDED TABLE R-SQUARED SPACING: 0.0625
Info: NONBONDED TABLE SIZE: 705 POINTS
TCL: Setting parameter alchLambda2 to 0.35
Info: NONBONDED TABLE R-SQUARED SPACING: 0.0625
Info: NONBONDED TABLE SIZE: 705 POINTS
TCL: Running for 1500000 steps
ETITLE: TS BOND ANGLE DIHED IMPRP ELECT VDW BOUNDARY MISC KINETIC TOTAL TEMP POTENTIAL TOTALAVG TEMPAVG PRESSURE GPRESSURE VOLUME PRESSAVG GPRESSAVG
ENERGY: 0 4.9465 4.3234 5.1603 0.0000 -10404.5607 1317.2731 0.0000 0.0000 1745.0343 -7327.8230 298.7383 -9072.8574 -7327.8230 298.7383 -1045.5909 -983.1843 30898.8320 -1045.5909 -983.1843
ENERGY: 300000 2.8595 8.7141 2.9601 0.0000 -10664.4843 1494.5384 0.0000 0.0000 1773.6016 -7381.8106 303.6288 -9155.4122 -7403.9259 298.4293 896.6560 954.7540 29611.4207 -71.8513 -3.4922
ENERGY: 600000 2.0498 8.9507 3.4310 0.0000 -10449.4140 1278.9112 0.0000 0.0000 1799.3318 -7356.7395 308.0337 -9156.0713 -7411.5813 299.2684 -1129.2855 -1076.3335 30383.1098 -350.6019 -290.6783
ENERGY: 900000 1.9489 10.5989 2.5626 0.0000 -10633.0909 1397.2072 0.0000 0.0000 1787.9982 -7432.7752 306.0934 -9220.7733 -7416.8967 299.9354 -194.8952 -153.5280 30154.3498 -268.0274 -213.3207
ENERGY: 1200000 2.0116 4.6244 3.5877 0.0000 -10612.0860 1474.4284 0.0000 0.0000 1808.7475 -7318.6865 309.6456 -9127.4339 -7413.1169 300.9341 657.0392 703.1536 30096.8414 -135.4311 -82.4565
ENERGY: 1500000 2.4974 5.9837 1.5229 0.0000 -10744.3401 1459.8377 0.0000 0.0000 1741.7389 -7532.7596 298.1741 -9274.4985 -7421.2664 300.8359 -155.3042 -42.4950 30123.4578 -152.1929 -94.7030
TCL: Running FEP window   8: Lambda1 0.35   Lambda2 0.39999999999999997 [dLambda 0.04999999999999999]
TCL: Setting parameter firsttimestep to 0
TCL: Setting parameter alchLambda to 0.35
Info: NONBONDED TABLE R-SQUARED SPACING: 0.0625
Info: NONBONDED TABLE SIZE: 705 POINTS
TCL: Setting parameter alchLambda2 to 0.39999999999999997
Info: NONBONDED TABLE R-SQUARED SPACING: 0.0625
Info: NONBONDED TABLE SIZE: 705 POINTS
TCL: Running for 1500000 steps
ETITLE: TS BOND ANGLE DIHED IMPRP ELECT VDW BOUNDARY MISC KINETIC TOTAL TEMP POTENTIAL TOTALAVG TEMPAVG PRESSURE GPRESSURE VOLUME PRESSAVG GPRESSAVG
ENERGY: 0 2.4974 5.9837 1.5229 0.0000 -10744.3391 1460.1200 0.0000 0.0000 1740.8603 -7533.3549 298.0237 -9274.2152 -7533.3549 298.0237 -120.4523 -36.0756 30123.4578 -120.4523 -36.0756
ENERGY: 300000 2.4318 5.6706 1.3520 0.0000 -10621.5219 1383.1451 0.0000 0.0000 1720.8686 -7508.0539 294.6013 -9228.9225 -7482.3522 297.1687 -665.3914 -616.9084 30396.2135 -413.3505 -345.4761
ENERGY: 600000 1.0320 7.1181 3.8903 0.0000 -10654.7212 1441.3952 0.0000 0.0000 1792.0097 -7409.2759 306.7802 -9201.2856 -7457.1685 299.0147 86.9701 126.5402 30317.1081 -193.7304 -128.7431
ENERGY: 900000 4.6929 9.1701 2.0471 0.0000 -10590.7929 1424.4557 0.0000 0.0000 1721.0145 -7429.4127 294.6263 -9150.4272 -7441.9261 299.8124 -30.7045 -44.3537 30313.4338 -176.4400 -108.4963
ENERGY: 1200000 3.8246 10.8053 1.9993 0.0000 -10514.2416 1421.4836 0.0000 0.0000 1751.6040 -7324.5249 299.8630 -9076.1288 -7432.6709 301.1856 297.6507 364.0403 29996.0058 -110.7115 -43.9742
ENERGY: 1500000 2.2503 7.6924 3.9592 0.0000 -10703.2408 1492.1094 0.0000 0.0000 1721.6123 -7475.6172 294.7286 -9197.2295 -7431.1143 300.6231 462.3064 564.2083 30029.1199 -78.5078 -8.6777
TCL: Running FEP window   9: Lambda1 0.39999999999999997 Lambda2 0.44999999999999996 [dLambda 0.04999999999999999]
TCL: Setting parameter firsttimestep to 0
TCL: Setting parameter alchLambda to 0.39999999999999997
Info: NONBONDED TABLE R-SQUARED SPACING: 0.0625
Info: NONBONDED TABLE SIZE: 705 POINTS
TCL: Setting parameter alchLambda2 to 0.44999999999999996
Info: NONBONDED TABLE R-SQUARED SPACING: 0.0625
Info: NONBONDED TABLE SIZE: 705 POINTS
TCL: Running for 1500000 steps
ETITLE: TS BOND ANGLE DIHED IMPRP ELECT VDW BOUNDARY MISC KINETIC TOTAL TEMP POTENTIAL TOTALAVG TEMPAVG PRESSURE GPRESSURE VOLUME PRESSAVG GPRESSAVG
ENERGY: 0 2.2503 7.6924 3.9592 0.0000 -10703.2409 1492.0735 0.0000 0.0000 1720.7483 -7476.5171 294.5807 -9197.2654 -7476.5171 294.5807 482.0493 567.4485 30029.1199 482.0493 567.4485
ENERGY: 300000 3.3469 5.5265 4.7346 0.0000 -10735.1408 1498.2398 0.0000 0.0000 1719.8293 -7503.4637 294.4234 -9223.2930 -7468.8353 297.4571 626.6807 621.6025 29935.2255 265.0712 321.8917
ENERGY: 600000 3.9215 6.9456 7.7147 0.0000 -10753.1478 1495.9511 0.0000 0.0000 1822.1690 -7416.4459 311.9432 -9238.6149 -7446.2734 301.5224 594.6558 682.4175 29589.5731 235.8330 303.2797
ENERGY: 900000 2.6656 7.2456 3.6125 0.0000 -10565.2494 1401.2301 0.0000 0.0000 1722.5958 -7427.8999 294.8970 -9150.4957 -7440.7691 299.9770 -141.8787 -91.3200 29937.8205 138.2052 202.6240
ENERGY: 1200000 1.9401 5.8001 2.5424 0.0000 -10740.6445 1505.8871 0.0000 0.0000 1724.1787 -7500.2962 295.1679 -9224.4749 -7446.1891 299.4776 467.1648 523.9227 30117.2915 119.6669 183.0091
ENERGY: 1500000 1.8214 6.3574 1.8313 0.0000 -10617.0731 1458.1346 0.0000 0.0000 1763.9377 -7384.9908 301.9744 -9148.9285 -7442.1483 299.8352 559.8117 600.0468 29879.3877 74.8508 131.4505
TCL: Running FEP window  10: Lambda1 0.44999999999999996 Lambda2 0.49999999999999994 [dLambda 0.04999999999999999]
TCL: Setting parameter firsttimestep to 0
TCL: Setting parameter alchLambda to 0.44999999999999996
Info: NONBONDED TABLE R-SQUARED SPACING: 0.0625
Info: NONBONDED TABLE SIZE: 705 POINTS
TCL: Setting parameter alchLambda2 to 0.49999999999999994
Info: NONBONDED TABLE R-SQUARED SPACING: 0.0625
Info: NONBONDED TABLE SIZE: 705 POINTS
TCL: Running for 1500000 steps
ETITLE: TS BOND ANGLE DIHED IMPRP ELECT VDW BOUNDARY MISC KINETIC TOTAL TEMP POTENTIAL TOTALAVG TEMPAVG PRESSURE GPRESSURE VOLUME PRESSAVG GPRESSAVG
ENERGY: 0 1.8214 6.3574 1.8313 0.0000 -10617.0730 1458.1407 0.0000 0.0000 1763.0440 -7385.8782 301.8214 -9148.9222 -7385.8782 301.8214 520.3223 604.5628 29879.3877 520.3223 604.5628
ENERGY: 300000 3.2740 3.8780 6.2675 0.0000 -10575.4351 1348.0854 0.0000 0.0000 1745.9625 -7467.9677 298.8972 -9213.9302 -7418.8670 300.2572 -786.5576 -738.7450 30119.6892 -57.7671 10.1874
ENERGY: 600000 1.6785 4.8077 3.6543 0.0000 -10683.7423 1481.8968 0.0000 0.0000 1730.5507 -7461.1543 296.2588 -9191.7050 -7435.0032 299.8054 327.1299 435.7727 30197.8710 -78.1343 -10.9197
ENERGY: 900000 4.5839 4.6878 3.7351 0.0000 -10502.7512 1367.3974 0.0000 0.0000 1776.7869 -7345.5601 304.1741 -9122.3470 -7419.3266 301.2074 -636.7296 -513.3251 30543.6103 -105.3267 -38.8822
ENERGY: 1200000 3.7894 6.6646 0.6941 0.0000 -10606.5787 1401.8685 0.0000 0.0000 1755.2147 -7438.3474 300.4811 -9193.5621 -7420.4378 301.1652 -284.7587 -211.5824 30084.9631 -173.9597 -111.6968
ENERGY: 1500000 1.8277 6.5272 1.8895 0.0000 -10663.3733 1429.4893 0.0000 0.0000 1735.6853 -7487.9543 297.1378 -9223.6395 -7419.5968 301.3233 -83.1240 -10.5070 30026.3280 -145.6711 -77.3056
TCL: Running FEP window  11: Lambda1 0.49999999999999994 Lambda2 0.5499999999999999 [dLambda 0.04999999999999999]
TCL: Setting parameter firsttimestep to 0
TCL: Setting parameter alchLambda to 0.49999999999999994
Info: NONBONDED TABLE R-SQUARED SPACING: 0.0625
Info: NONBONDED TABLE SIZE: 705 POINTS
TCL: Setting parameter alchLambda2 to 0.5499999999999999
Info: NONBONDED TABLE R-SQUARED SPACING: 0.0625
Info: NONBONDED TABLE SIZE: 705 POINTS
TCL: Running for 1500000 steps
ETITLE: TS BOND ANGLE DIHED IMPRP ELECT VDW BOUNDARY MISC KINETIC TOTAL TEMP POTENTIAL TOTALAVG TEMPAVG PRESSURE GPRESSURE VOLUME PRESSAVG GPRESSAVG
ENERGY: 0 1.8277 6.5272 1.8895 0.0000 -10663.3741 1429.2846 0.0000 0.0000 1734.8232 -7489.0220 296.9902 -9223.8451 -7489.0220 296.9902 -93.8047 -6.9912 30026.3280 -93.8047 -6.9912
ENERGY: 300000 2.1992 6.0746 1.5973 0.0000 -10565.2773 1420.7927 0.0000 0.0000 1750.0089 -7384.6047 299.5899 -9134.6136 -7434.8361 297.4956 -111.5116 -85.9135 30733.4091 66.9027 119.4070
ENERGY: 600000 2.1943 5.0361 1.8524 0.0000 -10564.0892 1356.2637 0.0000 0.0000 1749.4918 -7449.2509 299.5014 -9198.7427 -7431.2799 298.5955 -766.0773 -695.7316 30381.0441 67.5478 118.3305
ENERGY: 900000 2.0584 6.8334 0.6365 0.0000 -10532.8123 1367.9895 0.0000 0.0000 1756.7084 -7398.5862 300.7368 -9155.2946 -7432.3130 298.9794 -369.1632 -302.9809 30155.6255 -64.1155 -7.8049
ENERGY: 1200000 1.4523 5.9705 2.1891 0.0000 -10618.0215 1398.7763 0.0000 0.0000 1681.2763 -7528.3569 287.8234 -9209.6332 -7451.5190 297.0695 -200.4358 -106.5063 29831.5290 -15.6689 45.6661
ENERGY: 1500000 3.6085 4.9379 2.7515 0.0000 -10678.2209 1428.4274 0.0000 0.0000 1697.2328 -7541.2628 290.5550 -9238.4956 -7452.2978 296.7062 -445.9346 -352.4344 30450.7450 -20.0528 44.6183
TCL: Running FEP window  12: Lambda1 0.5499999999999999 Lambda2 0.6    [dLambda 0.050000000000000044]
TCL: Setting parameter firsttimestep to 0
TCL: Setting parameter alchLambda to 0.5499999999999999
Info: NONBONDED TABLE R-SQUARED SPACING: 0.0625
Info: NONBONDED TABLE SIZE: 705 POINTS
TCL: Setting parameter alchLambda2 to 0.6
Info: NONBONDED TABLE R-SQUARED SPACING: 0.0625
Info: NONBONDED TABLE SIZE: 705 POINTS
TCL: Running for 1500000 steps
ETITLE: TS BOND ANGLE DIHED IMPRP ELECT VDW BOUNDARY MISC KINETIC TOTAL TEMP POTENTIAL TOTALAVG TEMPAVG PRESSURE GPRESSURE VOLUME PRESSAVG GPRESSAVG
ENERGY: 0 3.6085 4.9379 2.7515 0.0000 -10678.3065 1428.0395 0.0000 0.0000 1696.3986 -7542.5706 290.4122 -9238.9691 -7542.5706 290.4122 -438.8192 -349.5111 30450.7450 -438.8192 -349.5111
ENERGY: 300000 3.7749 5.5998 2.0670 0.0000 -10463.1643 1349.0680 0.0000 0.0000 1732.3561 -7370.2987 296.5679 -9102.6547 -7480.2374 297.0300 -265.6805 -270.8354 30031.1568 -230.8953 -188.9208
ENERGY: 600000 3.4291 5.3772 3.1697 0.0000 -10637.5520 1439.3143 0.0000 0.0000 1758.9354 -7427.3263 301.1181 -9186.2617 -7467.6628 297.1807 -15.5495 62.6621 30147.8898 -50.3349 5.1096
ENERGY: 900000 3.5689 6.6265 4.0734 0.0000 -10530.7343 1416.2521 0.0000 0.0000 1777.5560 -7322.6573 304.3058 -9100.2133 -7437.7646 299.4489 154.9271 234.7998 29934.8421 -54.4917 10.2776
ENERGY: 1200000 2.3474 7.7276 3.6707 0.0000 -10659.2225 1456.2045 0.0000 0.0000 1695.9740 -7493.2984 290.3395 -9189.2724 -7448.7949 299.6913 349.0327 426.7104 29858.2815 73.3839 141.3294
ENERGY: 1500000 2.9946 5.7331 2.5955 0.0000 -10665.8184 1427.7182 0.0000 0.0000 1750.8430 -7475.9341 299.7327 -9226.7770 -7456.0883 299.1697 -335.5506 -251.8243 30468.0457 -49.9718 22.0593
TCL: Running FEP window  13: Lambda1 0.6    Lambda2 0.65   [dLambda 0.050000000000000044]
TCL: Setting parameter firsttimestep to 0
TCL: Setting parameter alchLambda to 0.6
Info: NONBONDED TABLE R-SQUARED SPACING: 0.0625
Info: NONBONDED TABLE SIZE: 705 POINTS
TCL: Setting parameter alchLambda2 to 0.65
Info: NONBONDED TABLE R-SQUARED SPACING: 0.0625
Info: NONBONDED TABLE SIZE: 705 POINTS
TCL: Running for 1500000 steps
ETITLE: TS BOND ANGLE DIHED IMPRP ELECT VDW BOUNDARY MISC KINETIC TOTAL TEMP POTENTIAL TOTALAVG TEMPAVG PRESSURE GPRESSURE VOLUME PRESSAVG GPRESSAVG
ENERGY: 0 2.9946 5.7331 2.5955 0.0000 -10665.8556 1427.3868 0.0000 0.0000 1750.0085 -7477.1372 299.5898 -9227.1456 -7477.1372 299.5898 -326.5933 -249.8163 30468.0457 -326.5933 -249.8163
ENERGY: 300000 2.4230 5.5179 1.3886 0.0000 -10734.0572 1487.3751 0.0000 0.0000 1782.0088 -7455.3438 305.0681 -9237.3526 -7457.7087 300.1082 432.0030 484.9547 29902.5741 362.7979 417.2954
ENERGY: 600000 4.3562 6.1884 9.0291 0.0000 -10777.7456 1478.5735 0.0000 0.0000 1734.8541 -7544.7442 296.9955 -9279.5984 -7456.8712 299.7585 -61.1235 -14.7929 30111.1432 194.4297 262.4477
ENERGY: 900000 4.3520 6.9490 3.9562 0.0000 -10604.5011 1401.8313 0.0000 0.0000 1759.9591 -7427.4535 301.2933 -9187.4126 -7462.0644 299.8369 -531.2841 -451.6187 30669.7230 36.2359 102.7081
ENERGY: 1200000 2.5561 4.6561 3.3333 0.0000 -10670.8269 1470.4864 0.0000 0.0000 1807.1188 -7382.6762 309.3668 -9189.7951 -7445.7227 301.1918 -53.8913 24.7602 30460.7993 -83.4108 -25.6859
ENERGY: 1500000 1.5733 5.3865 3.9050 0.0000 -10444.6042 1291.7355 0.0000 0.0000 1768.1126 -7373.8913 302.6891 -9142.0039 -7446.6163 300.5684 -735.6416 -715.0113 29980.7287 -161.8031 -108.2967
TCL: Running FEP window  14: Lambda1 0.65   Lambda2 0.7000000000000001 [dLambda 0.050000000000000044]
TCL: Setting parameter firsttimestep to 0
TCL: Setting parameter alchLambda to 0.65
Info: NONBONDED TABLE R-SQUARED SPACING: 0.0625
Info: NONBONDED TABLE SIZE: 705 POINTS
TCL: Setting parameter alchLambda2 to 0.7000000000000001
Info: NONBONDED TABLE R-SQUARED SPACING: 0.0625
Info: NONBONDED TABLE SIZE: 705 POINTS
TCL: Running for 1500000 steps
ETITLE: TS BOND ANGLE DIHED IMPRP ELECT VDW BOUNDARY MISC KINETIC TOTAL TEMP POTENTIAL TOTALAVG TEMPAVG PRESSURE GPRESSURE VOLUME PRESSAVG GPRESSAVG
ENERGY: 0 1.5733 5.3865 3.9050 0.0000 -10444.7499 1292.5009 0.0000 0.0000 1767.2129 -7374.1713 302.5351 -9141.3842 -7374.1713 302.5351 -772.9527 -695.9409 29980.7287 -772.9527 -695.9409
ENERGY: 300000 1.7553 7.4502 5.7401 0.0000 -10553.8160 1381.1953 0.0000 0.0000 1758.4756 -7399.1994 301.0394 -9157.6750 -7399.0423 301.1924 -338.7395 -280.2890 30440.9268 -39.7704 21.5568
ENERGY: 600000 3.4085 3.3581 2.6507 0.0000 -10711.7945 1493.8957 0.0000 0.0000 1807.6547 -7400.8269 309.4585 -9208.4816 -7405.6820 302.1053 734.5841 810.7648 30063.0735 175.5224 240.1568
ENERGY: 900000 1.8894 10.1913 2.2613 0.0000 -10588.1100 1397.9353 0.0000 0.0000 1751.2600 -7424.5727 299.8041 -9175.8327 -7413.2942 301.6549 -253.9146 -172.7969 30253.3436 7.4552 64.7370
ENERGY: 1200000 6.1201 3.6590 2.9311 0.0000 -10667.9202 1466.3068 0.0000 0.0000 1759.8461 -7429.0570 301.2740 -9188.9031 -7416.2474 300.8260 -63.6673 -0.3906 30726.9525 -100.8842 -40.9621
ENERGY: 1500000 1.2664 6.5736 2.8121 0.0000 -10524.9601 1345.2010 0.0000 0.0000 1745.5007 -7423.6063 298.8181 -9169.1070 -7411.4884 301.3906 -764.4756 -684.3771 30711.8909 -197.9411 -135.3022
TCL: Running FEP window  15: Lambda1 0.7000000000000001 Lambda2 0.7500000000000001 [dLambda 0.050000000000000044]
TCL: Setting parameter firsttimestep to 0
TCL: Setting parameter alchLambda to 0.7000000000000001
Info: NONBONDED TABLE R-SQUARED SPACING: 0.0625
Info: NONBONDED TABLE SIZE: 705 POINTS
TCL: Setting parameter alchLambda2 to 0.7500000000000001
Info: NONBONDED TABLE R-SQUARED SPACING: 0.0625
Info: NONBONDED TABLE SIZE: 705 POINTS
TCL: Running for 1500000 steps
ETITLE: TS BOND ANGLE DIHED IMPRP ELECT VDW BOUNDARY MISC KINETIC TOTAL TEMP POTENTIAL TOTALAVG TEMPAVG PRESSURE GPRESSURE VOLUME PRESSAVG GPRESSAVG
ENERGY: 0 1.2664 6.5736 2.8121 0.0000 -10525.8675 1345.2822 0.0000 0.0000 1744.6022 -7425.3311 298.6643 -9169.9333 -7425.3311 298.6643 -758.9605 -673.3415 30711.8909 -758.9605 -673.3415
ENERGY: 300000 2.6245 7.6861 3.6650 0.0000 -10618.6143 1381.9812 0.0000 0.0000 1764.9756 -7457.6819 302.1521 -9222.6576 -7438.6184 300.5298 -453.1259 -399.1269 30090.7076 -384.2049 -366.8336
ENERGY: 600000 1.7988 4.8588 2.7841 0.0000 -10658.9891 1388.7567 0.0000 0.0000 1772.8188 -7487.9718 303.4948 -9260.7907 -7427.7591 301.5095 -590.5136 -494.7696 30337.1601 -392.9694 -349.9517
ENERGY: 900000 3.3034 7.4945 4.2424 0.0000 -10629.0790 1435.3902 0.0000 0.0000 1698.4381 -7480.2104 290.7613 -9178.6484 -7438.7868 301.1383 -115.7632 -92.5342 30336.8743 -337.9800 -291.6142
ENERGY: 1200000 4.0353 11.9932 3.2576 0.0000 -10602.4232 1423.2522 0.0000 0.0000 1733.4361 -7426.4488 296.7528 -9159.8849 -7437.3016 300.8066 175.6553 220.9759 30152.4473 -301.5198 -251.6772
ENERGY: 1500000 3.4640 8.7560 2.6941 0.0000 -10638.1676 1446.7836 0.0000 0.0000 1755.5863 -7420.8836 300.5447 -9176.4699 -7431.9434 301.4338 209.6670 283.2428 30144.5343 -254.6445 -198.2402
TCL: Running FEP window  16: Lambda1 0.7500000000000001 Lambda2 0.8000000000000002 [dLambda 0.050000000000000044]
TCL: Setting parameter firsttimestep to 0
TCL: Setting parameter alchLambda to 0.7500000000000001
Info: NONBONDED TABLE R-SQUARED SPACING: 0.0625
Info: NONBONDED TABLE SIZE: 705 POINTS
TCL: Setting parameter alchLambda2 to 0.8000000000000002
Info: NONBONDED TABLE R-SQUARED SPACING: 0.0625
Info: NONBONDED TABLE SIZE: 705 POINTS
TCL: Running for 1500000 steps
ETITLE: TS BOND ANGLE DIHED IMPRP ELECT VDW BOUNDARY MISC KINETIC TOTAL TEMP POTENTIAL TOTALAVG TEMPAVG PRESSURE GPRESSURE VOLUME PRESSAVG GPRESSAVG
ENERGY: 0 3.4641 8.7560 2.6941 0.0000 -10638.5402 1446.4921 0.0000 0.0000 1754.7198 -7422.4142 300.3964 -9177.1339 -7422.4142 300.3964 209.0959 287.5523 30144.5343 209.0959 287.5523
ENERGY: 300000 3.7893 6.1062 7.0529 0.0000 -10809.8330 1560.8202 0.0000 0.0000 1731.0242 -7501.0402 296.3399 -9232.0644 -7425.0967 302.8834 1067.2869 1116.2291 29448.4121 109.4223 163.4708
ENERGY: 600000 3.0209 3.7614 1.0226 0.0000 -10701.7254 1471.6296 0.0000 0.0000 1781.4377 -7440.8532 304.9703 -9222.2909 -7426.0128 303.1704 389.2754 450.7463 29950.9996 165.4262 225.6530
ENERGY: 900000 4.5221 3.9098 2.4493 0.0000 -10697.0763 1444.6841 0.0000 0.0000 1683.6475 -7557.8634 288.2293 -9241.5110 -7432.5820 303.0232 -102.5635 -99.0118 30324.7891 -12.1610 39.9071
ENERGY: 1200000 4.9566 4.4159 2.8437 0.0000 -10813.2447 1519.8421 0.0000 0.0000 1747.9557 -7533.2307 299.2384 -9281.1864 -7448.6655 302.7407 372.3830 487.2013 30218.1979 -8.8951 47.8054
ENERGY: 1500000 4.1171 6.9457 1.7393 0.0000 -10659.7427 1405.5635 0.0000 0.0000 1801.1610 -7440.2162 308.3468 -9241.3771 -7443.1557 303.6479 -34.4193 53.1710 29522.0873 -55.4072 3.0361
TCL: Running FEP window  17: Lambda1 0.8000000000000002 Lambda2 0.8500000000000002 [dLambda 0.050000000000000044]
TCL: Setting parameter firsttimestep to 0
TCL: Setting parameter alchLambda to 0.8000000000000002
Info: NONBONDED TABLE R-SQUARED SPACING: 0.0625
Info: NONBONDED TABLE SIZE: 705 POINTS
TCL: Setting parameter alchLambda2 to 0.8500000000000002
Info: NONBONDED TABLE R-SQUARED SPACING: 0.0625
Info: NONBONDED TABLE SIZE: 705 POINTS
TCL: Running for 1500000 steps
ETITLE: TS BOND ANGLE DIHED IMPRP ELECT VDW BOUNDARY MISC KINETIC TOTAL TEMP POTENTIAL TOTALAVG TEMPAVG PRESSURE GPRESSURE VOLUME PRESSAVG GPRESSAVG
ENERGY: 0 4.1171 6.9457 1.7393 0.0000 -10660.8978 1406.0294 0.0000 0.0000 1800.2777 -7441.7886 308.1956 -9242.0663 -7441.7886 308.1956 -14.2322 68.9491 29522.0873 -14.2322 68.9491
ENERGY: 300000 4.1817 8.8868 2.4471 0.0000 -10641.9432 1462.3550 0.0000 0.0000 1846.1569 -7317.9158 316.0498 -9164.0726 -7393.8402 307.7854 336.6462 486.2525 30267.2638 -38.3377 37.1043
ENERGY: 600000 2.0104 6.5960 3.1659 0.0000 -10506.6178 1324.5043 0.0000 0.0000 1732.4712 -7437.8702 296.5876 -9170.3413 -7412.7563 303.3369 -669.9960 -627.2741 30123.1858 -33.6623 15.5353
ENERGY: 900000 2.4655 4.4774 3.1702 0.0000 -10615.3189 1378.2690 0.0000 0.0000 1734.2645 -7492.6722 296.8946 -9226.9367 -7429.1747 302.0041 -103.0144 -51.9332 29775.1105 -178.0189 -127.6218
ENERGY: 1200000 6.1519 5.5746 3.2746 0.0000 -10527.9201 1371.4661 0.0000 0.0000 1702.1358 -7439.3172 291.3944 -9141.4531 -7438.8815 300.5710 -480.7159 -402.9280 30414.0715 -241.2652 -194.5220
ENERGY: 1500000 2.5937 5.9489 2.3358 0.0000 -10495.7962 1349.8348 0.0000 0.0000 1720.7958 -7414.2872 294.5888 -9135.0830 -7431.9022 300.8334 -754.9826 -661.8781 30766.4803 -244.7242 -192.8120
TCL: Running FEP window  18: Lambda1 0.8500000000000002 Lambda2 0.9000000000000002 [dLambda 0.050000000000000044]
TCL: Setting parameter firsttimestep to 0
TCL: Setting parameter alchLambda to 0.8500000000000002
Info: NONBONDED TABLE R-SQUARED SPACING: 0.0625
Info: NONBONDED TABLE SIZE: 705 POINTS
TCL: Setting parameter alchLambda2 to 0.9000000000000002
Info: NONBONDED TABLE R-SQUARED SPACING: 0.0625
Info: NONBONDED TABLE SIZE: 705 POINTS
TCL: Running for 1500000 steps
ETITLE: TS BOND ANGLE DIHED IMPRP ELECT VDW BOUNDARY MISC KINETIC TOTAL TEMP POTENTIAL TOTALAVG TEMPAVG PRESSURE GPRESSURE VOLUME PRESSAVG GPRESSAVG
ENERGY: 0 2.5937 5.9488 2.3358 0.0000 -10497.2632 1349.7698 0.0000 0.0000 1719.8894 -7416.7256 294.4337 -9136.6150 -7416.7256 294.4337 -753.1388 -655.9991 30766.4803 -753.1388 -655.9991
ENERGY: 300000 2.8438 5.4404 4.5958 0.0000 -10592.2078 1397.4809 0.0000 0.0000 1844.4332 -7337.4137 315.7547 -9181.8469 -7400.4541 303.2463 -29.4166 19.3290 30115.4145 -478.7793 -394.3666
ENERGY: 600000 3.6797 7.2577 2.0985 0.0000 -10691.3186 1408.3379 0.0000 0.0000 1739.0020 -7530.9428 297.7056 -9269.9448 -7433.1285 299.3055 -302.7150 -256.2657 29879.3377 -270.7670 -209.3935
ENERGY: 900000 2.2174 5.6322 6.9218 0.0000 -10597.4897 1443.5712 0.0000 0.0000 1747.7787 -7391.3684 299.2081 -9139.1471 -7442.8012 297.7226 52.2878 116.1390 30801.8909 -151.3262 -89.3219
ENERGY: 1200000 2.7026 10.3975 2.5334 0.0000 -10635.0137 1459.4276 0.0000 0.0000 1747.5956 -7412.3569 299.1768 -9159.9525 -7443.3396 298.5663 399.0905 425.4266 30173.3900 -181.6785 -130.4205
ENERGY: 1500000 6.4980 6.1378 3.9481 0.0000 -10683.1607 1465.0392 0.0000 0.0000 1657.3719 -7544.1657 283.7311 -9201.5376 -7445.4570 298.1881 -40.6836 50.6109 30232.6146 -119.5626 -58.0608
TCL: Running FEP window  19: Lambda1 0.9000000000000002 Lambda2 0.9500000000000003 [dLambda 0.050000000000000044]
TCL: Setting parameter firsttimestep to 0
TCL: Setting parameter alchLambda to 0.9000000000000002
Info: NONBONDED TABLE R-SQUARED SPACING: 0.0625
Info: NONBONDED TABLE SIZE: 705 POINTS
TCL: Setting parameter alchLambda2 to 0.9500000000000003
Info: NONBONDED TABLE R-SQUARED SPACING: 0.0625
Info: NONBONDED TABLE SIZE: 705 POINTS
TCL: Running for 1500000 steps
ETITLE: TS BOND ANGLE DIHED IMPRP ELECT VDW BOUNDARY MISC KINETIC TOTAL TEMP POTENTIAL TOTALAVG TEMPAVG PRESSURE GPRESSURE VOLUME PRESSAVG GPRESSAVG
ENERGY: 0 6.4980 6.1378 3.9481 0.0000 -10685.9541 1467.9146 0.0000 0.0000 1656.5386 -7544.9169 283.5884 -9201.4556 -7544.9169 283.5884 4.3944 89.9961 30232.6146 4.3944 89.9961
ENERGY: 300000 3.6641 5.8110 1.5854 0.0000 -10680.2648 1436.9892 0.0000 0.0000 1723.3256 -7508.8894 295.0219 -9232.2150 -7489.7304 291.6264 -71.7003 -29.7343 30355.4962 -236.1794 -205.0708
ENERGY: 600000 4.1527 4.2173 3.2095 0.0000 -10446.8608 1302.1759 0.0000 0.0000 1759.8091 -7373.2963 301.2676 -9133.1054 -7454.5431 296.1133 -674.9677 -582.2992 30389.8802 -129.2991 -81.8653
ENERGY: 900000 2.8177 5.1197 2.4083 0.0000 -10672.0571 1429.7133 0.0000 0.0000 1787.7033 -7444.2949 306.0429 -9231.9981 -7448.0577 298.2995 135.3953 175.4775 29898.3712 -235.3960 -179.2577
ENERGY: 1200000 4.0284 6.9824 5.4083 0.0000 -10777.5469 1455.8925 0.0000 0.0000 1742.5346 -7562.7007 298.3104 -9305.2353 -7455.0261 298.1079 -98.2386 -91.6320 30338.3691 -156.9487 -103.4689
ENERGY: 1500000 2.2686 11.2471 2.4659 0.0000 -10482.0587 1307.5316 0.0000 0.0000 1768.3456 -7390.1998 302.7290 -9158.5454 -7450.9240 298.2310 -880.0819 -818.2053 30217.8818 -228.0493 -172.0305
TCL: Running FEP window  20: Lambda1 0.9500000000000003 Lambda2 1.0    [dLambda 0.04999999999999971]
TCL: Setting parameter firsttimestep to 0
TCL: Setting parameter alchLambda to 0.9500000000000003
Info: NONBONDED TABLE R-SQUARED SPACING: 0.0625
Info: NONBONDED TABLE SIZE: 705 POINTS
TCL: Setting parameter alchLambda2 to 1.0
Info: NONBONDED TABLE R-SQUARED SPACING: 0.0625
Info: NONBONDED TABLE SIZE: 705 POINTS
TCL: Running for 1500000 steps
ETITLE: TS BOND ANGLE DIHED IMPRP ELECT VDW BOUNDARY MISC KINETIC TOTAL TEMP POTENTIAL TOTALAVG TEMPAVG PRESSURE GPRESSURE VOLUME PRESSAVG GPRESSAVG
ENERGY: 0 2.2686 11.2471 2.4659 0.0000 -10482.8254 1308.1815 0.0000 0.0000 1767.4591 -7391.2032 302.5773 -9158.6623 -7391.2032 302.5773 -882.2859 -799.1542 30217.8818 -882.2859 -799.1542
ENERGY: 300000 1.5834 8.2654 2.7036 0.0000 -10567.0324 1375.6170 0.0000 0.0000 1793.9583 -7384.9047 307.1138 -9178.8630 -7425.8554 301.3897 -121.9041 -25.2480 29917.5655 -278.6972 -202.3923
ENERGY: 600000 3.9349 5.9935 1.7775 0.0000 -10662.1065 1427.4033 0.0000 0.0000 1701.2066 -7521.7908 291.2353 -9222.9974 -7418.8779 303.3063 -290.5298 -300.2433 30635.0094 -145.5833 -86.9577
ENERGY: 900000 3.9231 3.0517 3.1580 0.0000 -10630.5467 1470.5487 0.0000 0.0000 1694.5419 -7455.3233 290.0943 -9149.8652 -7435.6252 300.3053 440.4323 511.7675 30134.0571 -66.6131 -2.0775
ENERGY: 1200000 3.6963 6.6089 3.4401 0.0000 -10614.7289 1377.3284 0.0000 0.0000 1707.9370 -7515.7183 292.3875 -9223.6553 -7453.2092 298.7455 -389.6651 -363.4747 29992.7764 -106.5740 -43.7890
ENERGY: 1500000 3.1484 6.1906 5.3912 0.0000 -10493.0272 1346.0460 0.0000 0.0000 1694.1085 -7438.1424 290.0201 -9132.2509 -7458.8582 297.8446 -613.8966 -529.5252 30408.9289 -72.3146 -7.5618
TCL: Exiting due to exit command.
