Info: SIMULATION PARAMETERS:
Info: TIMESTEP               2
Info: NUMBER OF STEPS        0
Info: STEPS PER CYCLE        10
Info: PERIODIC CELL BASIS 1  30.3532 0 0
Info: PERIODIC CELL BASIS 2  0 31.4216 0
Info: PERIODIC CELL BASIS 3  0 0 31.6984
Info: PERIODIC CELL CENTER   0 0 0
Info: WRAPPING WATERS AROUND PERIODIC BOUNDARIES ON OUTPUT.
Info: WRAPPING ALL CLUSTERS AROUND PERIODIC BOUNDARIES ON OUTPUT.
Info: FIRST LDB TIMESTEP     50
Info: LAST LDB TIMESTEP     -1
Info: HOM BACKGROUND SCALING 1
Info: PME BACKGROUND SCALING 1
Info: MIN ATOMS PER PATCH    40
Info: EMPTY PATCH LOAD       40 ATOMS
Info: VELOCITY FILE          mobley_1278715_equil.vel
Info: CENTER OF MASS MOVING INITIALLY? NO
Info: DIELECTRIC             1
Info: EXCLUDE                SCALED ONE-FOUR
Info: 1-4 ELECTROSTATICS SCALED BY 0.833333
Info: MODIFIED 1-4 VDW PARAMETERS WILL BE USED
Info: DCD FILENAME           mobley_1278715_prod.dcd
Info: DCD FREQUENCY          100000
Info: DCD FIRST STEP         100000
Info: DCD FILE WILL CONTAIN UNIT CELL DATA
Info: XST FILENAME           mobley_1278715_prod.xst
Info: XST FREQUENCY          100000
Info: NO VELOCITY DCD OUTPUT
Info: NO FORCE DCD OUTPUT
Info: OUTPUT FILENAME        mobley_1278715_prod
Info: BINARY OUTPUT FILES WILL BE USED
Info: RESTART FILENAME       mobley_1278715_prod.restart
Info: RESTART FREQUENCY      100000
Info: BINARY RESTART FILES WILL BE USED
Info: CUTOFF                 9
Info: PAIRLIST DISTANCE      11
Info: PAIRLIST SHRINK RATE   0.01
Info: PAIRLIST GROW RATE     0.01
Info: PAIRLIST TRIGGER       0.3
Info: PAIRLISTS PER CYCLE    2
Info: PAIRLISTS ENABLED
Info: MARGIN                 2
Info: HYDROGEN GROUP CUTOFF  2.5
Info: PATCH DIMENSION        15.5
Info: ENERGY OUTPUT STEPS    100000
Info: ENERGY EVALUATION STEPS    100000
Info: OUTPUT ENERGY PRECISION 4
Info: CROSSTERM ENERGY INCLUDED IN DIHEDRAL
Info: TIMING OUTPUT STEPS    1000000
Info: PRESSURE OUTPUT STEPS  100000
Info: ALCHEMICAL FEP ON
Info: FEP CURRENT LAMBDA VALUE     0
Info: FEP COMPARISON LAMBDA VALUE  0.05
Info: FEP INTRA-ALCHEMICAL NON-BONDED INTERACTIONS WILL BE RETAINED
Info: FEP INTRA-ALCHEMICAL BONDED INTERACTIONS WILL BE RETAINED
Info: FEP VDW SHIFTING COEFFICIENT 5
Info: FEP ELEC. ACTIVE FOR ANNIHILATED PARTICLES BETWEEN LAMBDA = 0 AND LAMBDA = 0.5
Info: FEP ELEC. ACTIVE FOR EXNIHILATED PARTICLES BETWEEN LAMBDA = 0.5 AND LAMBDA = 1
Info: FEP VDW ACTIVE FOR ANNIHILATED PARTICLES BETWEEN LAMBDA = 0 AND LAMBDA = 1
Info: FEP VDW ACTIVE FOR EXNIHILATED PARTICLES BETWEEN LAMBDA = 0 AND LAMBDA = 1
Info: FEP BOND ACTIVE FOR ANNIHILATED PARTICLES BETWEEN LAMBDA = 1 AND LAMBDA = 1
Info: FEP BOND ACTIVE FOR EXNIHILATED PARTICLES BETWEEN LAMBDA = 0 AND LAMBDA = 0
Info: LANGEVIN DYNAMICS ACTIVE
Info: LANGEVIN TEMPERATURE   300
Info: LANGEVIN USING BBK INTEGRATOR
Info: LANGEVIN DAMPING COEFFICIENT IS 1 INVERSE PS
Info: LANGEVIN DYNAMICS APPLIED TO HYDROGENS
Info: LANGEVIN PISTON PRESSURE CONTROL ACTIVE
Info:        TARGET PRESSURE IS 1.01325 BAR
Info:     OSCILLATION PERIOD IS 50 FS
Info:             DECAY TIME IS 25 FS
Info:     PISTON TEMPERATURE IS 300 K
Info:       PRESSURE CONTROL IS GROUP-BASED
Info:    INITIAL STRAIN RATE IS 0.000263988 0.000263988 0.000263988
Info:       CELL FLUCTUATION IS ISOTROPIC
Info: PARTICLE MESH EWALD (PME) ACTIVE
Info: PME TOLERANCE               1e-06
Info: PME EWALD COEFFICIENT       0.348832
Info: PME INTERPOLATION ORDER     4
Info: PME GRID DIMENSIONS         32 32 32
Info: PME MAXIMUM GRID SPACING    1
Info: PME CALCULATION WILL BE PERFORMED ON GPU
Info: FULL ELECTROSTATIC EVALUATION FREQUENCY      2
Info: USING VERLET I (r-RESPA) MTS SCHEME.
Info: C1 SPLITTING OF LONG RANGE ELECTROSTATICS
Info: PLACING ATOMS IN PATCHES BY HYDROGEN GROUPS
Info: RIGID BONDS TO HYDROGEN : ALL
Info:         ERROR TOLERANCE : 1e-08
Info:          MAX ITERATIONS : 100
Info: RIGID WATER USING SETTLE ALGORITHM
Info: RANDOM NUMBER SEED     1743479982
Info: USE HYDROGEN BONDS?    NO
Info: Using AMBER format force field!
Info: AMBER PARM FILE        mobley_1278715.prmtop
Info: COORDINATE PDB         mobley_1278715.pdb
Info: Exclusions will be read from PARM file!
Info: SCNB (VDW SCALING)     2
Info: USING ARITHMETIC MEAN TO COMBINE L-J SIGMA PARAMETERS
Info: BINARY COORDINATES     mobley_1278715_equil.coor
Info: SUMMARY OF PARAMETERS:
Info: 4 BONDS
Info: 2 ANGLES
Info:   2 HARMONIC
Info:   0 COSINE-BASED
Info: 2 DIHEDRAL
Info: 0 IMPROPER
Info: 0 CROSSTERM
Info: 0 VDW
Info: 10 VDW_PAIRS
Info: 0 NBTHOLE_PAIRS
Info: To read alchdata from file: mobley_1278715.pdb
Info: To read alchflag data from column: 5
Info: STRUCTURE SUMMARY:
Info: 2903 ATOMS
Info: 2902 BONDS
Info: 12 ANGLES
Info: 18 DIHEDRALS
Info: 0 IMPROPERS
Info: 0 CROSSTERMS
Info: 2923 EXCLUSIONS
Info: 2895 RIGID BONDS
Info: ALCH: 0 ATOMS TO DISAPPEAR IN FINAL STATE
Info: ALCH: 8 ATOMS TO APPEAR IN FINAL STATE
Info: 5814 DEGREES OF FREEDOM
Info: 973 HYDROGEN GROUPS
Info: 3 ATOMS IN LARGEST HYDROGEN GROUP
Info: 973 MIGRATION GROUPS
Info: 3 ATOMS IN LARGEST MIGRATION GROUP
Info: TOTAL MASS = 17622.2 amu
Info: TOTAL CHARGE = -0.000199974 e
Info: MASS DENSITY = 0.967937 g/cm^3
Info: ATOM DENSITY = 0.0960232 atoms/A^3
Info: ADDED 0 IMPLICIT EXCLUSIONS
Info: NONBONDED TABLE R-SQUARED SPACING: 0.0625
Info: NONBONDED TABLE SIZE: 705 POINTS
Info: REMOVING COM VELOCITY 0.0966242 -0.131944 0.11822
Info: Use 3D box decompostion in PME FFT.
Info: Updated CUDA force table with 4096 elements.
Info: Updated CUDA LJ table with 4 x 4 elements.
Info: Found 11 unique exclusion lists needing 16 bytes
TCL: Running for 1500000 steps
ETITLE: TS BOND ANGLE DIHED IMPRP ELECT VDW BOUNDARY MISC KINETIC TOTAL TEMP POTENTIAL TOTALAVG TEMPAVG PRESSURE GPRESSURE VOLUME PRESSAVG GPRESSAVG
ENERGY: 0 3.6834 1.9707 4.0494 0.0000 -10360.6824 1273.5650 0.0000 0.0000 1695.3385 -7382.0754 293.4755 -9077.4139 -7382.0754 293.4755 -1135.5387 -1057.4108 30232.2928 -1135.5387 -1057.4108
ENERGY: 300000 3.8232 4.7219 4.0503 0.0000 -10575.3044 1441.9899 0.0000 0.0000 1730.8275 -7389.8916 299.6189 -9120.7191 -7380.5773 300.1832 -161.2056 -107.5430 29867.6096 -511.9303 -433.9988
ENERGY: 600000 2.0898 5.1097 4.0510 0.0000 -10521.3333 1411.6914 0.0000 0.0000 1751.2550 -7347.1364 303.1550 -9098.3914 -7390.0206 299.1761 -338.8921 -151.0577 30066.3212 -291.6076 -207.9647
ENERGY: 900000 3.1319 2.2917 4.0502 0.0000 -10527.9233 1430.6753 0.0000 0.0000 1722.5330 -7365.2412 298.1830 -9087.7742 -7388.5596 298.9162 739.6563 712.2234 29112.7092 -123.7552 -56.2857
ENERGY: 1200000 1.1590 1.2924 4.0490 0.0000 -10512.8196 1396.4866 0.0000 0.0000 1740.6854 -7369.1471 301.3253 -9109.8325 -7387.4424 298.6102 -246.0330 -134.3452 29854.4256 -136.3578 -64.9571
ENERGY: 1500000 3.0795 2.6235 4.0452 0.0000 -10667.5040 1436.5026 0.0000 0.0000 1750.0051 -7471.2481 302.9386 -9221.2532 -7398.2988 298.4974 -249.1677 -201.9226 29820.5440 -131.0914 -68.5908
TCL: Running FEP window   2: Lambda1 0.05   Lambda2 0.1    [dLambda 0.05  ]
TCL: Setting parameter firsttimestep to 0
TCL: Setting parameter alchLambda to 0.05
Info: NONBONDED TABLE R-SQUARED SPACING: 0.0625
Info: NONBONDED TABLE SIZE: 705 POINTS
TCL: Setting parameter alchLambda2 to 0.1
Info: NONBONDED TABLE R-SQUARED SPACING: 0.0625
Info: NONBONDED TABLE SIZE: 705 POINTS
TCL: Running for 1500000 steps
ETITLE: TS BOND ANGLE DIHED IMPRP ELECT VDW BOUNDARY MISC KINETIC TOTAL TEMP POTENTIAL TOTALAVG TEMPAVG PRESSURE GPRESSURE VOLUME PRESSAVG GPRESSAVG
ENERGY: 0 3.0795 2.6235 4.0452 0.0000 -10667.5030 1442.5808 0.0000 0.0000 1749.1061 -7466.0679 302.7830 -9215.1740 -7466.0679 302.7830 -287.0222 -190.3830 29820.5440 -287.0222 -190.3830
ENERGY: 300000 0.6784 2.2195 4.0489 0.0000 -10523.6991 1415.7731 0.0000 0.0000 1737.7363 -7363.2428 300.8148 -9100.9791 -7391.0860 301.4867 -177.7935 -64.5992 30021.5877 -374.3345 -295.0209
ENERGY: 600000 1.6369 1.1528 4.0508 0.0000 -10579.5905 1459.6714 0.0000 0.0000 1683.3894 -7429.6894 291.4070 -9113.0788 -7393.4690 299.1959 264.6646 293.5940 29793.4811 -296.6682 -231.9126
ENERGY: 900000 2.1991 5.7249 4.0472 0.0000 -10501.9401 1419.9952 0.0000 0.0000 1693.9501 -7376.0235 293.2351 -9069.9737 -7394.9824 298.5833 -29.6133 38.7036 29953.9258 -132.3914 -61.7729
ENERGY: 1200000 1.8142 1.4138 4.0504 0.0000 -10487.5909 1437.8620 0.0000 0.0000 1734.3244 -7308.1261 300.2242 -9042.4505 -7390.4043 298.4098 46.9882 114.6366 30297.7375 -154.3131 -85.4107
ENERGY: 1500000 3.6436 2.9420 4.0509 0.0000 -10540.1745 1403.3471 0.0000 0.0000 1693.6798 -7432.5110 293.1883 -9126.1908 -7392.7064 298.1333 -388.9823 -334.2082 30105.1935 -168.0823 -105.0686
TCL: Running FEP window   3: Lambda1 0.1    Lambda2 0.15000000000000002 [dLambda 0.05000000000000002]
TCL: Setting parameter firsttimestep to 0
TCL: Setting parameter alchLambda to 0.1
Info: NONBONDED TABLE R-SQUARED SPACING: 0.0625
Info: NONBONDED TABLE SIZE: 705 POINTS
TCL: Setting parameter alchLambda2 to 0.15000000000000002
Info: NONBONDED TABLE R-SQUARED SPACING: 0.0625
Info: NONBONDED TABLE SIZE: 705 POINTS
TCL: Running for 1500000 steps
ETITLE: TS BOND ANGLE DIHED IMPRP ELECT VDW BOUNDARY MISC KINETIC TOTAL TEMP POTENTIAL TOTALAVG TEMPAVG PRESSURE GPRESSURE VOLUME PRESSAVG GPRESSAVG
ENERGY: 0 3.6436 2.9420 4.0509 0.0000 -10540.1749 1405.1007 0.0000 0.0000 1692.8264 -7431.6113 293.0406 -9124.4377 -7431.6113 293.0406 -411.6402 -325.0407 30105.1935 -411.6402 -325.0407
ENERGY: 300000 1.7628 3.4078 4.0440 0.0000 -10643.7911 1473.2024 0.0000 0.0000 1781.5808 -7379.7933 308.4046 -9161.3741 -7373.3015 301.0047 541.0449 646.5163 29377.5647 -79.2643 8.6291
ENERGY: 600000 2.1261 5.5933 4.0492 0.0000 -10639.1626 1482.8495 0.0000 0.0000 1715.4370 -7429.1074 296.9546 -9144.5444 -7372.5536 301.7138 314.9317 372.0315 29746.7449 -36.0234 33.4853
ENERGY: 900000 3.4756 1.1122 4.0482 0.0000 -10568.7018 1416.9518 0.0000 0.0000 1717.3649 -7425.7491 297.2884 -9143.1140 -7379.2497 300.4801 -472.7561 -389.1421 30253.3385 -45.5534 28.6346
ENERGY: 1200000 4.5851 4.0354 4.0483 0.0000 -10500.0561 1353.9393 0.0000 0.0000 1715.4113 -7418.0367 296.9502 -9133.4480 -7379.8957 299.8703 -827.8063 -699.7954 30052.6206 -88.6348 -9.8228
ENERGY: 1500000 1.3049 2.8876 4.0505 0.0000 -10430.1744 1320.3442 0.0000 0.0000 1708.5868 -7393.0003 295.7688 -9101.5871 -7374.6412 300.0816 -759.2454 -717.5797 29943.2580 -69.2435 10.3937
TCL: Running FEP window   4: Lambda1 0.15000000000000002 Lambda2 0.2    [dLambda 0.04999999999999999]
TCL: Setting parameter firsttimestep to 0
TCL: Setting parameter alchLambda to 0.15000000000000002
Info: NONBONDED TABLE R-SQUARED SPACING: 0.0625
Info: NONBONDED TABLE SIZE: 705 POINTS
TCL: Setting parameter alchLambda2 to 0.2
Info: NONBONDED TABLE R-SQUARED SPACING: 0.0625
Info: NONBONDED TABLE SIZE: 705 POINTS
TCL: Running for 1500000 steps
ETITLE: TS BOND ANGLE DIHED IMPRP ELECT VDW BOUNDARY MISC KINETIC TOTAL TEMP POTENTIAL TOTALAVG TEMPAVG PRESSURE GPRESSURE VOLUME PRESSAVG GPRESSAVG
ENERGY: 0 1.3049 2.8876 4.0505 0.0000 -10430.1740 1321.0314 0.0000 0.0000 1707.7206 -7393.1790 295.6189 -9100.8995 -7393.1790 295.6189 -797.3091 -712.7055 29943.2580 -797.3091 -712.7055
ENERGY: 300000 3.0005 1.1677 4.0508 0.0000 -10587.1402 1446.3671 0.0000 0.0000 1763.4063 -7369.1478 305.2585 -9132.5541 -7333.2142 302.7466 77.1764 134.6843 29795.0113 -211.4860 -132.4390
ENERGY: 600000 3.9969 5.3156 4.0507 0.0000 -10477.0101 1392.5723 0.0000 0.0000 1668.8154 -7402.2592 288.8841 -9071.0746 -7351.0991 298.8690 -230.0322 -156.0894 30107.9863 -307.4306 -238.5864
ENERGY: 900000 0.5704 5.0839 4.0456 0.0000 -10494.4779 1355.4535 0.0000 0.0000 1819.5986 -7309.7259 314.9858 -9129.3245 -7344.9350 301.3425 -353.0054 -297.3222 29534.9254 -166.4959 -102.2630
ENERGY: 1200000 1.9888 2.2625 4.0509 0.0000 -10412.3080 1375.0334 0.0000 0.0000 1726.0140 -7302.9583 298.7856 -9028.9723 -7350.5540 301.3346 -289.6523 -299.4986 30217.0950 -165.8946 -104.6679
ENERGY: 1500000 1.9237 2.3359 4.0467 0.0000 -10427.6422 1362.5971 0.0000 0.0000 1744.6127 -7312.1261 302.0052 -9056.7388 -7348.1844 301.5963 -307.4512 -256.4184 30284.2945 -166.5238 -103.0595
TCL: Running FEP window   5: Lambda1 0.2    Lambda2 0.25   [dLambda 0.04999999999999999]
TCL: Setting parameter firsttimestep to 0
TCL: Setting parameter alchLambda to 0.2
Info: NONBONDED TABLE R-SQUARED SPACING: 0.0625
Info: NONBONDED TABLE SIZE: 705 POINTS
TCL: Setting parameter alchLambda2 to 0.25
Info: NONBONDED TABLE R-SQUARED SPACING: 0.0625
Info: NONBONDED TABLE SIZE: 705 POINTS
TCL: Running for 1500000 steps
ETITLE: TS BOND ANGLE DIHED IMPRP ELECT VDW BOUNDARY MISC KINETIC TOTAL TEMP POTENTIAL TOTALAVG TEMPAVG PRESSURE GPRESSURE VOLUME PRESSAVG GPRESSAVG
ENERGY: 0 1.9237 2.3359 4.0467 0.0000 -10427.6438 1362.6848 0.0000 0.0000 1743.7683 -7312.8844 301.8590 -9056.6527 -7312.8844 301.8590 -347.7779 -248.6402 30284.2945 -347.7779 -248.6402
ENERGY: 300000 2.2326 2.2602 4.0499 0.0000 -10362.9892 1354.1388 0.0000 0.0000 1699.0662 -7301.2415 294.1208 -9000.3077 -7342.7649 298.5040 -133.4924 -63.7088 29793.2379 -5.6522 69.8323
ENERGY: 600000 1.1327 3.5023 4.0514 0.0000 -10538.4024 1422.0955 0.0000 0.0000 1720.7591 -7386.8612 297.8759 -9107.6204 -7355.3068 298.1768 65.7181 112.3731 29883.2921 -16.5953 61.5884
ENERGY: 900000 4.3496 1.9179 4.0505 0.0000 -10410.6970 1335.8926 0.0000 0.0000 1734.2038 -7330.2827 300.2033 -9064.4865 -7356.3576 297.8918 -805.0811 -736.2656 30164.4837 -63.8774 17.2336
ENERGY: 1200000 1.8342 4.0607 4.0497 0.0000 -10474.2180 1362.8300 0.0000 0.0000 1766.9975 -7334.4458 305.8802 -9101.4433 -7363.5059 297.8791 -543.6544 -463.3824 30264.7072 -201.7828 -124.2473
ENERGY: 1500000 1.2425 4.2686 4.0465 0.0000 -10631.6105 1473.4244 0.0000 0.0000 1702.0208 -7446.6076 294.6322 -9148.6285 -7377.3081 297.4561 313.0095 359.3230 29725.3537 -180.2195 -108.0886
TCL: Running FEP window   6: Lambda1 0.25   Lambda2 0.3    [dLambda 0.04999999999999999]
TCL: Setting parameter firsttimestep to 0
TCL: Setting parameter alchLambda to 0.25
Info: NONBONDED TABLE R-SQUARED SPACING: 0.0625
Info: NONBONDED TABLE SIZE: 705 POINTS
TCL: Setting parameter alchLambda2 to 0.3
Info: NONBONDED TABLE R-SQUARED SPACING: 0.0625
Info: NONBONDED TABLE SIZE: 705 POINTS
TCL: Running for 1500000 steps
ETITLE: TS BOND ANGLE DIHED IMPRP ELECT VDW BOUNDARY MISC KINETIC TOTAL TEMP POTENTIAL TOTALAVG TEMPAVG PRESSURE GPRESSURE VOLUME PRESSAVG GPRESSAVG
ENERGY: 0 1.2425 4.2686 4.0465 0.0000 -10631.6098 1473.1980 0.0000 0.0000 1701.1377 -7447.7165 294.4793 -9148.8542 -7447.7165 294.4793 292.1696 364.5567 29725.3537 292.1696 364.5567
ENERGY: 300000 3.4511 2.5887 4.0533 0.0000 -10599.2701 1444.9327 0.0000 0.0000 1731.6232 -7412.6210 299.7566 -9144.2443 -7400.6479 297.0386 173.9561 258.1796 29722.0380 152.2506 230.9422
ENERGY: 600000 1.0330 4.3079 4.0462 0.0000 -10418.6242 1398.0054 0.0000 0.0000 1759.2265 -7252.0052 304.5349 -9011.2317 -7343.2302 299.9503 -81.0923 -8.2541 30241.3853 -17.5642 51.1117
ENERGY: 900000 4.1573 2.4001 4.0466 0.0000 -10466.7496 1393.4980 0.0000 0.0000 1749.2161 -7313.4316 302.8021 -9062.6476 -7352.2345 299.7756 -384.5817 -315.0828 29930.1242 -105.0916 -43.0237
ENERGY: 1200000 2.1211 2.9553 4.0471 0.0000 -10548.7494 1386.2773 0.0000 0.0000 1760.1811 -7393.1675 304.7002 -9153.3486 -7368.5975 299.4448 -160.1919 -131.2238 29407.7521 -109.3661 -47.9030
ENERGY: 1500000 1.4251 2.7714 4.0545 0.0000 -10530.1940 1425.7715 0.0000 0.0000 1771.7741 -7324.3974 306.7070 -9096.1715 -7357.1963 300.7000 226.1354 314.3417 29525.0230 -124.4741 -60.2760
TCL: Running FEP window   7: Lambda1 0.3    Lambda2 0.35   [dLambda 0.04999999999999999]
TCL: Setting parameter firsttimestep to 0
TCL: Setting parameter alchLambda to 0.3
Info: NONBONDED TABLE R-SQUARED SPACING: 0.0625
Info: NONBONDED TABLE SIZE: 705 POINTS
TCL: Setting parameter alchLambda2 to 0.35
Info: NONBONDED TABLE R-SQUARED SPACING: 0.0625
Info: NONBONDED TABLE SIZE: 705 POINTS
TCL: Running for 1500000 steps
ETITLE: TS BOND ANGLE DIHED IMPRP ELECT VDW BOUNDARY MISC KINETIC TOTAL TEMP POTENTIAL TOTALAVG TEMPAVG PRESSURE GPRESSURE VOLUME PRESSAVG GPRESSAVG
ENERGY: 0 1.4251 2.7714 4.0545 0.0000 -10530.1939 1427.1154 0.0000 0.0000 1770.8609 -7323.9666 306.5489 -9094.8275 -7323.9666 306.5489 238.8749 327.7042 29525.0230 238.8749 327.7042
ENERGY: 300000 1.7028 4.4040 4.0401 0.0000 -10625.0600 1527.3860 0.0000 0.0000 1776.5009 -7311.0261 307.5253 -9087.5271 -7350.3251 304.9810 887.7047 987.6981 29802.6915 122.3293 195.3562
ENERGY: 600000 2.1845 0.9918 4.0500 0.0000 -10645.4301 1457.4743 0.0000 0.0000 1721.7516 -7458.9780 298.0478 -9180.7296 -7362.6168 302.1473 74.6893 199.0879 29684.8560 -85.2932 -9.7170
ENERGY: 900000 5.0922 2.7804 4.0463 0.0000 -10565.1801 1480.5416 0.0000 0.0000 1704.7236 -7367.9960 295.1001 -9072.7196 -7366.6520 301.0770 428.6017 502.0516 29698.6784 -69.5108 11.3066
ENERGY: 1200000 1.7824 5.6542 4.0427 0.0000 -10693.9843 1461.9105 0.0000 0.0000 1797.2627 -7423.3318 311.1193 -9220.5945 -7377.9488 301.2272 187.1150 308.4048 29759.3052 14.6595 96.2546
ENERGY: 1500000 3.6800 5.6857 4.0582 0.0000 -10500.3012 1383.2391 0.0000 0.0000 1725.5270 -7378.1112 298.7013 -9103.6382 -7378.4249 301.4198 -173.8093 -172.4863 30071.7196 25.7198 97.9381
TCL: Running FEP window   8: Lambda1 0.35   Lambda2 0.39999999999999997 [dLambda 0.04999999999999999]
TCL: Setting parameter firsttimestep to 0
TCL: Setting parameter alchLambda to 0.35
Info: NONBONDED TABLE R-SQUARED SPACING: 0.0625
Info: NONBONDED TABLE SIZE: 705 POINTS
TCL: Setting parameter alchLambda2 to 0.39999999999999997
Info: NONBONDED TABLE R-SQUARED SPACING: 0.0625
Info: NONBONDED TABLE SIZE: 705 POINTS
TCL: Running for 1500000 steps
ETITLE: TS BOND ANGLE DIHED IMPRP ELECT VDW BOUNDARY MISC KINETIC TOTAL TEMP POTENTIAL TOTALAVG TEMPAVG PRESSURE GPRESSURE VOLUME PRESSAVG GPRESSAVG
ENERGY: 0 3.6800 5.6857 4.0582 0.0000 -10500.3001 1382.7905 0.0000 0.0000 1724.6609 -7379.4248 298.5514 -9104.0857 -7379.4248 298.5514 -246.1112 -167.1110 30071.7196 -246.1112 -167.1110
ENERGY: 300000 3.5864 1.7023 4.0485 0.0000 -10438.8123 1355.2311 0.0000 0.0000 1731.3139 -7342.9301 299.7031 -9074.2440 -7385.6251 300.7000 -517.5919 -438.9185 30013.8975 -333.4509 -272.3746
ENERGY: 600000 1.6868 1.6068 4.0496 0.0000 -10447.7472 1348.4630 0.0000 0.0000 1738.4859 -7353.4551 300.9446 -9091.9410 -7368.9461 302.3644 -644.7644 -593.1841 30240.7974 -321.8673 -262.1214
ENERGY: 900000 0.9101 2.0066 4.0513 0.0000 -10596.9210 1460.3114 0.0000 0.0000 1713.3533 -7416.2884 296.5939 -9129.6416 -7357.0328 303.3734 -132.6733 -3.8571 30358.1287 -318.3211 -247.4143
ENERGY: 1200000 1.1659 3.5753 4.0493 0.0000 -10571.4604 1470.0245 0.0000 0.0000 1684.7127 -7407.9327 291.6361 -9092.6455 -7366.7555 301.4067 439.4951 438.8316 29926.4876 -133.0273 -63.2285
ENERGY: 1500000 4.0520 2.1985 4.0554 0.0000 -10674.0287 1526.1936 0.0000 0.0000 1710.0781 -7427.4510 296.0270 -9137.5291 -7365.4548 300.9977 1271.9058 1243.4742 29156.8189 -62.6400 2.8509
TCL: Running FEP window   9: Lambda1 0.39999999999999997 Lambda2 0.44999999999999996 [dLambda 0.04999999999999999]
TCL: Setting parameter firsttimestep to 0
TCL: Setting parameter alchLambda to 0.39999999999999997
Info: NONBONDED TABLE R-SQUARED SPACING: 0.0625
Info: NONBONDED TABLE SIZE: 705 POINTS
TCL: Setting parameter alchLambda2 to 0.44999999999999996
Info: NONBONDED TABLE R-SQUARED SPACING: 0.0625
Info: NONBONDED TABLE SIZE: 705 POINTS
TCL: Running for 1500000 steps
ETITLE: TS BOND ANGLE DIHED IMPRP ELECT VDW BOUNDARY MISC KINETIC TOTAL TEMP POTENTIAL TOTALAVG TEMPAVG PRESSURE GPRESSURE VOLUME PRESSAVG GPRESSAVG
ENERGY: 0 4.0520 2.1985 4.0554 0.0000 -10674.0283 1527.2163 0.0000 0.0000 1709.2388 -7427.2673 295.8817 -9136.5061 -7427.2673 295.8817 1184.5778 1256.6013 29156.8189 1184.5778 1256.6013
ENERGY: 300000 2.5494 4.1515 4.0566 0.0000 -10376.6277 1348.5789 0.0000 0.0000 1777.5033 -7239.7879 307.6988 -9017.2913 -7377.4790 302.9053 -340.4178 -251.8559 29991.9577 142.2151 210.0105
ENERGY: 600000 3.4879 2.9586 4.0493 0.0000 -10459.0944 1328.1330 0.0000 0.0000 1733.3599 -7387.1057 300.0572 -9120.4656 -7373.0813 301.1925 -686.5457 -589.6205 29742.9033 -113.6747 -34.3637
ENERGY: 900000 2.8370 2.7078 4.0519 0.0000 -10495.6485 1375.3115 0.0000 0.0000 1793.6086 -7317.1317 310.4867 -9110.7403 -7362.6743 301.4800 -550.6742 -508.1862 30250.6257 -168.7744 -96.1068
ENERGY: 1200000 2.2410 3.6278 4.0500 0.0000 -10443.3553 1356.9778 0.0000 0.0000 1785.7180 -7290.7407 309.1208 -9076.4587 -7360.1215 302.2792 -358.6821 -362.3399 30162.3077 -308.5690 -239.8115
ENERGY: 1500000 0.9776 1.9490 4.0496 0.0000 -10634.4830 1466.2794 0.0000 0.0000 1706.0743 -7455.1531 295.3339 -9161.2274 -7375.0833 302.2950 270.1688 303.5765 29639.5077 -123.9885 -55.8971
TCL: Running FEP window  10: Lambda1 0.44999999999999996 Lambda2 0.49999999999999994 [dLambda 0.04999999999999999]
TCL: Setting parameter firsttimestep to 0
TCL: Setting parameter alchLambda to 0.44999999999999996
Info: NONBONDED TABLE R-SQUARED SPACING: 0.0625
Info: NONBONDED TABLE SIZE: 705 POINTS
TCL: Setting parameter alchLambda2 to 0.49999999999999994
Info: NONBONDED TABLE R-SQUARED SPACING: 0.0625
Info: NONBONDED TABLE SIZE: 705 POINTS
TCL: Running for 1500000 steps
ETITLE: TS BOND ANGLE DIHED IMPRP ELECT VDW BOUNDARY MISC KINETIC TOTAL TEMP POTENTIAL TOTALAVG TEMPAVG PRESSURE GPRESSURE VOLUME PRESSAVG GPRESSAVG
ENERGY: 0 0.9776 1.9490 4.0496 0.0000 -10634.4828 1466.7256 0.0000 0.0000 1705.2247 -7455.5563 295.1868 -9160.7810 -7455.5563 295.1868 235.9875 315.8842 29639.5077 235.9875 315.8842
ENERGY: 300000 5.6086 2.5075 4.0463 0.0000 -10579.5936 1429.7292 0.0000 0.0000 1740.1901 -7397.5119 301.2396 -9137.7020 -7425.1596 297.2683 85.6260 97.6055 30056.8226 -329.4248 -259.6396
ENERGY: 600000 1.2013 1.5035 4.0512 0.0000 -10576.8691 1429.6722 0.0000 0.0000 1701.7490 -7438.6918 294.5852 -9140.4409 -7415.0014 297.5429 -91.9645 36.7432 29710.8471 -249.4854 -166.1597
ENERGY: 900000 4.6367 1.1123 4.0502 0.0000 -10488.0207 1369.9370 0.0000 0.0000 1717.2459 -7391.0386 297.2678 -9108.2845 -7408.2499 298.2997 -765.3681 -697.1616 30464.6055 -335.3845 -253.2171
ENERGY: 1200000 0.3666 2.5938 4.0512 0.0000 -10493.2962 1417.5038 0.0000 0.0000 1702.9438 -7365.8370 294.7920 -9068.7808 -7405.2887 298.6447 90.9044 154.5190 29878.5608 -274.7480 -197.8411
ENERGY: 1500000 4.4563 2.7058 4.0503 0.0000 -10397.9434 1319.3326 0.0000 0.0000 1671.6758 -7395.7226 289.3793 -9067.3984 -7401.4884 298.1357 -730.1541 -689.8075 30027.2131 -258.4230 -187.7697
TCL: Running FEP window  11: Lambda1 0.49999999999999994 Lambda2 0.5499999999999999 [dLambda 0.04999999999999999]
TCL: Setting parameter firsttimestep to 0
TCL: Setting parameter alchLambda to 0.49999999999999994
Info: NONBONDED TABLE R-SQUARED SPACING: 0.0625
Info: NONBONDED TABLE SIZE: 705 POINTS
TCL: Setting parameter alchLambda2 to 0.5499999999999999
Info: NONBONDED TABLE R-SQUARED SPACING: 0.0625
Info: NONBONDED TABLE SIZE: 705 POINTS
TCL: Running for 1500000 steps
ETITLE: TS BOND ANGLE DIHED IMPRP ELECT VDW BOUNDARY MISC KINETIC TOTAL TEMP POTENTIAL TOTALAVG TEMPAVG PRESSURE GPRESSURE VOLUME PRESSAVG GPRESSAVG
ENERGY: 0 4.4563 2.7058 4.0503 0.0000 -10397.9432 1319.4557 0.0000 0.0000 1670.8314 -7396.4438 289.2331 -9067.2751 -7396.4438 289.2331 -753.0008 -682.0602 30027.2131 -753.0008 -682.0602
ENERGY: 300000 6.1775 3.6544 4.0476 0.0000 -10579.0752 1397.8542 0.0000 0.0000 1709.1457 -7458.1959 295.8656 -9167.3415 -7443.8432 291.5465 -286.9603 -184.9786 29577.4516 -607.8940 -550.1539
ENERGY: 600000 1.5425 3.9992 4.0596 0.0000 -10583.7157 1434.2339 0.0000 0.0000 1744.0951 -7395.7853 301.9156 -9139.8804 -7403.7877 295.7391 153.2041 193.9722 29863.8547 -403.0930 -355.1110
ENERGY: 900000 1.4340 3.0511 4.0553 0.0000 -10556.8005 1438.7025 0.0000 0.0000 1738.5946 -7370.9629 300.9634 -9109.5576 -7386.1167 297.2861 -69.9388 22.5893 30063.1938 -261.6108 -212.5571
ENERGY: 1200000 0.9321 3.6319 4.0497 0.0000 -10438.5407 1330.3360 0.0000 0.0000 1713.3425 -7386.2485 296.5921 -9099.5910 -7386.5437 297.5595 -642.8220 -587.0773 29723.8856 -188.6036 -146.5530
ENERGY: 1500000 1.3019 1.6649 4.0514 0.0000 -10489.4377 1403.9874 0.0000 0.0000 1671.9838 -7406.4483 289.4326 -9078.4321 -7383.9987 297.2510 -211.1069 -116.6587 29904.9571 -221.0811 -177.2375
TCL: Running FEP window  12: Lambda1 0.5499999999999999 Lambda2 0.6    [dLambda 0.050000000000000044]
TCL: Setting parameter firsttimestep to 0
TCL: Setting parameter alchLambda to 0.5499999999999999
Info: NONBONDED TABLE R-SQUARED SPACING: 0.0625
Info: NONBONDED TABLE SIZE: 705 POINTS
TCL: Setting parameter alchLambda2 to 0.6
Info: NONBONDED TABLE R-SQUARED SPACING: 0.0625
Info: NONBONDED TABLE SIZE: 705 POINTS
TCL: Running for 1500000 steps
ETITLE: TS BOND ANGLE DIHED IMPRP ELECT VDW BOUNDARY MISC KINETIC TOTAL TEMP POTENTIAL TOTALAVG TEMPAVG PRESSURE GPRESSURE VOLUME PRESSAVG GPRESSAVG
ENERGY: 0 1.3019 1.6649 4.0514 0.0000 -10489.4853 1404.1704 0.0000 0.0000 1671.1209 -7407.1758 289.2832 -9078.2968 -7407.1758 289.2832 -206.1944 -107.7942 29904.9571 -206.1944 -107.7942
ENERGY: 300000 2.4157 3.6345 4.0513 0.0000 -10480.2093 1342.2575 0.0000 0.0000 1682.6339 -7445.2164 291.2762 -9127.8502 -7406.7433 295.2250 -1022.4706 -948.0990 30461.4094 -551.7276 -490.8824
ENERGY: 600000 0.9836 3.3006 4.0512 0.0000 -10599.1650 1448.0279 0.0000 0.0000 1725.1187 -7417.6830 298.6306 -9142.8017 -7404.1677 296.4177 209.1393 367.2630 29498.2087 -368.2182 -285.1064
ENERGY: 900000 3.6240 5.2014 4.0555 0.0000 -10681.5600 1502.6903 0.0000 0.0000 1735.3064 -7430.6824 300.3942 -9165.9888 -7405.9718 297.2905 754.6086 818.1198 29852.3550 -203.9779 -126.7794
ENERGY: 1200000 2.3501 4.6459 4.0479 0.0000 -10686.3463 1456.2706 0.0000 0.0000 1742.6484 -7476.3834 301.6651 -9219.0317 -7402.9062 297.9175 392.5012 450.5715 29249.3726 -73.5722 -1.0721
ENERGY: 1500000 3.6727 2.3548 4.0482 0.0000 -10608.8682 1448.1001 0.0000 0.0000 1745.7340 -7404.9583 302.1993 -9150.6923 -7406.6057 298.8251 137.9340 160.5183 29780.0491 22.3513 89.5934
TCL: Running FEP window  13: Lambda1 0.6    Lambda2 0.65   [dLambda 0.050000000000000044]
TCL: Setting parameter firsttimestep to 0
TCL: Setting parameter alchLambda to 0.6
Info: NONBONDED TABLE R-SQUARED SPACING: 0.0625
Info: NONBONDED TABLE SIZE: 705 POINTS
TCL: Setting parameter alchLambda2 to 0.65
Info: NONBONDED TABLE R-SQUARED SPACING: 0.0625
Info: NONBONDED TABLE SIZE: 705 POINTS
TCL: Running for 1500000 steps
ETITLE: TS BOND ANGLE DIHED IMPRP ELECT VDW BOUNDARY MISC KINETIC TOTAL TEMP POTENTIAL TOTALAVG TEMPAVG PRESSURE GPRESSURE VOLUME PRESSAVG GPRESSAVG
ENERGY: 0 3.6727 2.3548 4.0482 0.0000 -10608.9195 1447.6132 0.0000 0.0000 1744.8676 -7406.3630 302.0493 -9151.2306 -7406.3630 302.0493 100.2929 165.0126 29780.0491 100.2929 165.0126
ENERGY: 300000 1.1350 4.3574 4.0523 0.0000 -10734.2409 1511.1313 0.0000 0.0000 1772.5710 -7440.9938 306.8450 -9213.5649 -7439.6271 302.2215 647.1268 803.4490 29469.2728 75.8859 195.4608
ENERGY: 600000 2.8399 5.3844 4.0534 0.0000 -10423.7675 1344.2092 0.0000 0.0000 1731.5951 -7335.6854 299.7517 -9067.2806 -7392.9504 301.6947 -595.6586 -559.7119 30335.6470 2.8351 93.1683
ENERGY: 900000 1.3548 4.8579 4.0551 0.0000 -10512.2439 1422.6588 0.0000 0.0000 1724.1574 -7355.1599 298.4642 -9079.3173 -7374.8390 300.8081 148.3171 248.1965 30007.7129 -24.5030 65.5880
ENERGY: 1200000 2.3789 2.0622 4.0493 0.0000 -10478.5798 1399.1488 0.0000 0.0000 1780.0822 -7290.8584 308.1452 -9070.9406 -7371.6345 301.4085 238.9463 297.0861 29562.2848 -8.6618 70.8651
ENERGY: 1500000 2.7591 2.6552 4.0496 0.0000 -10620.1002 1515.4183 0.0000 0.0000 1664.2374 -7430.9806 288.0916 -9095.2180 -7375.5311 300.9296 843.1472 859.2200 29722.6806 22.4286 97.3899
TCL: Running FEP window  14: Lambda1 0.65   Lambda2 0.7000000000000001 [dLambda 0.050000000000000044]
TCL: Setting parameter firsttimestep to 0
TCL: Setting parameter alchLambda to 0.65
Info: NONBONDED TABLE R-SQUARED SPACING: 0.0625
Info: NONBONDED TABLE SIZE: 705 POINTS
TCL: Setting parameter alchLambda2 to 0.7000000000000001
Info: NONBONDED TABLE R-SQUARED SPACING: 0.0625
Info: NONBONDED TABLE SIZE: 705 POINTS
TCL: Running for 1500000 steps
ETITLE: TS BOND ANGLE DIHED IMPRP ELECT VDW BOUNDARY MISC KINETIC TOTAL TEMP POTENTIAL TOTALAVG TEMPAVG PRESSURE GPRESSURE VOLUME PRESSAVG GPRESSAVG
ENERGY: 0 2.7591 2.6552 4.0496 0.0000 -10620.1503 1514.7732 0.0000 0.0000 1663.3867 -7432.5265 287.9444 -9095.9132 -7432.5265 287.9444 774.2609 858.2934 29722.6806 774.2609 858.2934
ENERGY: 300000 2.5220 1.8714 4.0509 0.0000 -10534.2147 1449.1528 0.0000 0.0000 1741.6953 -7334.9223 301.5002 -9076.6176 -7354.3197 297.9717 463.3163 496.9376 29975.9620 348.5342 414.8348
ENERGY: 600000 1.1406 3.5314 4.0455 0.0000 -10512.5759 1396.5875 0.0000 0.0000 1765.6580 -7341.6129 305.6483 -9107.2709 -7351.7031 301.3941 118.5938 210.5690 29402.0838 430.7018 493.2856
ENERGY: 900000 2.2500 2.1162 4.0527 0.0000 -10447.6192 1331.5918 0.0000 0.0000 1759.3855 -7348.2229 304.5625 -9107.6084 -7343.9778 302.2159 -806.6867 -731.4649 30528.4768 146.8940 211.8185
ENERGY: 1200000 1.9970 3.9930 4.0484 0.0000 -10632.3176 1486.0448 0.0000 0.0000 1759.8577 -7376.3768 304.6442 -9136.2345 -7339.3847 302.8097 754.5760 795.0593 29919.6855 289.0795 353.6304
ENERGY: 1500000 1.3493 7.3820 4.0703 0.0000 -10471.0863 1409.2134 0.0000 0.0000 1695.8052 -7353.2661 293.5562 -9049.0713 -7343.3152 302.1838 -17.6912 61.1302 30111.6714 323.3417 385.2092
TCL: Running FEP window  15: Lambda1 0.7000000000000001 Lambda2 0.7500000000000001 [dLambda 0.050000000000000044]
TCL: Setting parameter firsttimestep to 0
TCL: Setting parameter alchLambda to 0.7000000000000001
Info: NONBONDED TABLE R-SQUARED SPACING: 0.0625
Info: NONBONDED TABLE SIZE: 705 POINTS
TCL: Setting parameter alchLambda2 to 0.7500000000000001
Info: NONBONDED TABLE R-SQUARED SPACING: 0.0625
Info: NONBONDED TABLE SIZE: 705 POINTS
TCL: Running for 1500000 steps
ETITLE: TS BOND ANGLE DIHED IMPRP ELECT VDW BOUNDARY MISC KINETIC TOTAL TEMP POTENTIAL TOTALAVG TEMPAVG PRESSURE GPRESSURE VOLUME PRESSAVG GPRESSAVG
ENERGY: 0 1.3493 7.3820 4.0703 0.0000 -10471.1268 1409.0169 0.0000 0.0000 1694.9249 -7354.3834 293.4039 -9049.3083 -7354.3834 293.4039 -3.6544 70.6304 30111.6714 -3.6544 70.6304
ENERGY: 300000 1.5428 4.2525 4.0504 0.0000 -10512.8202 1440.5226 0.0000 0.0000 1738.3627 -7324.0892 300.9233 -9062.4519 -7375.5222 298.6038 546.8749 545.4199 29752.3859 -43.0668 -11.3972
ENERGY: 600000 3.0631 3.6268 4.0427 0.0000 -10457.9910 1346.7679 0.0000 0.0000 1763.3781 -7337.1124 305.2536 -9100.4905 -7367.1997 299.5416 -731.3133 -728.6898 30375.7641 -198.2999 -143.7886
ENERGY: 900000 2.4303 2.1709 4.0498 0.0000 -10585.1405 1443.3320 0.0000 0.0000 1769.6072 -7363.5504 306.3319 -9133.1576 -7373.7137 300.1310 75.2713 114.9039 30030.1288 -180.1634 -122.8461
ENERGY: 1200000 5.0938 1.3040 4.0527 0.0000 -10522.1413 1374.1670 0.0000 0.0000 1688.5246 -7448.9993 292.2959 -9137.5238 -7379.2395 300.0278 -811.4210 -701.5059 30383.7009 -234.6926 -171.5233
ENERGY: 1500000 3.1697 1.7071 4.0505 0.0000 -10526.7683 1425.1458 0.0000 0.0000 1703.8718 -7388.8235 294.9526 -9092.6953 -7381.7465 299.5809 297.8385 332.6677 30039.0481 -151.4139 -88.9317
TCL: Running FEP window  16: Lambda1 0.7500000000000001 Lambda2 0.8000000000000002 [dLambda 0.050000000000000044]
TCL: Setting parameter firsttimestep to 0
TCL: Setting parameter alchLambda to 0.7500000000000001
Info: NONBONDED TABLE R-SQUARED SPACING: 0.0625
Info: NONBONDED TABLE SIZE: 705 POINTS
TCL: Setting parameter alchLambda2 to 0.8000000000000002
Info: NONBONDED TABLE R-SQUARED SPACING: 0.0625
Info: NONBONDED TABLE SIZE: 705 POINTS
TCL: Running for 1500000 steps
ETITLE: TS BOND ANGLE DIHED IMPRP ELECT VDW BOUNDARY MISC KINETIC TOTAL TEMP POTENTIAL TOTALAVG TEMPAVG PRESSURE GPRESSURE VOLUME PRESSAVG GPRESSAVG
ENERGY: 0 3.1697 1.7071 4.0505 0.0000 -10526.8119 1424.8101 0.0000 0.0000 1702.9733 -7390.1013 294.7971 -9093.0746 -7390.1013 294.7971 237.2466 339.5478 30039.0481 237.2466 339.5478
ENERGY: 300000 5.5471 3.7791 4.0505 0.0000 -10537.1372 1416.9504 0.0000 0.0000 1736.0077 -7370.8023 300.5156 -9106.8100 -7388.9990 299.4225 304.1159 318.4888 29486.7886 21.2551 90.0683
ENERGY: 600000 2.3523 2.9671 4.0483 0.0000 -10396.1937 1296.1605 0.0000 0.0000 1745.5916 -7345.0739 302.1746 -9090.6655 -7376.8832 299.8993 -1003.1894 -897.9137 30238.5537 -130.6647 -56.4805
ENERGY: 900000 1.1137 3.8501 4.0496 0.0000 -10644.0678 1502.0322 0.0000 0.0000 1804.3416 -7328.6806 312.3447 -9133.0222 -7369.1845 302.5306 857.4666 891.3470 29428.8913 -9.5220 64.6231
ENERGY: 1200000 1.9846 3.9385 4.0518 0.0000 -10563.5874 1378.8668 0.0000 0.0000 1753.7482 -7420.9975 303.5866 -9174.7457 -7372.2688 301.8589 -176.8973 -100.8655 29233.0540 -75.8748 -6.6466
ENERGY: 1500000 1.5469 2.4536 4.0540 0.0000 -10606.9045 1447.5102 0.0000 0.0000 1742.8082 -7408.5317 301.6928 -9151.3398 -7378.1527 301.3971 167.3733 213.7433 29934.8398 -54.2520 15.9227
TCL: Running FEP window  17: Lambda1 0.8000000000000002 Lambda2 0.8500000000000002 [dLambda 0.050000000000000044]
TCL: Setting parameter firsttimestep to 0
TCL: Setting parameter alchLambda to 0.8000000000000002
Info: NONBONDED TABLE R-SQUARED SPACING: 0.0625
Info: NONBONDED TABLE SIZE: 705 POINTS
TCL: Setting parameter alchLambda2 to 0.8500000000000002
Info: NONBONDED TABLE R-SQUARED SPACING: 0.0625
Info: NONBONDED TABLE SIZE: 705 POINTS
TCL: Running for 1500000 steps
ETITLE: TS BOND ANGLE DIHED IMPRP ELECT VDW BOUNDARY MISC KINETIC TOTAL TEMP POTENTIAL TOTALAVG TEMPAVG PRESSURE GPRESSURE VOLUME PRESSAVG GPRESSAVG
ENERGY: 0 1.5470 2.4536 4.0540 0.0000 -10606.9016 1447.7378 0.0000 0.0000 1741.9497 -7409.1596 301.5442 -9151.1094 -7409.1596 301.5442 139.9895 228.8810 29934.8398 139.9895 228.8810
ENERGY: 300000 2.5679 2.7181 4.0473 0.0000 -10636.9546 1500.7059 0.0000 0.0000 1790.6192 -7336.2961 309.9692 -9126.9153 -7381.8196 300.3694 560.9251 630.2532 30280.8518 332.9100 412.6700
ENERGY: 600000 2.2412 2.0126 4.0472 0.0000 -10579.5274 1389.3011 0.0000 0.0000 1745.6187 -7436.3067 302.1793 -9181.9254 -7392.1209 301.4181 -236.2272 -141.9271 29878.9521 62.8639 135.0728
ENERGY: 900000 3.5163 4.7031 4.0505 0.0000 -10647.8580 1443.3810 0.0000 0.0000 1748.0016 -7444.2054 302.5918 -9192.2071 -7404.1805 299.1761 -33.9281 24.0569 29803.8615 17.0039 93.0929
ENERGY: 1200000 2.6230 5.3141 4.0521 0.0000 -10383.9301 1324.1539 0.0000 0.0000 1735.6842 -7312.1028 300.4596 -9047.7871 -7393.0137 298.3920 -680.3870 -576.9767 30005.2287 -31.1989 45.9106
ENERGY: 1500000 3.2958 3.2148 4.0494 0.0000 -10651.8857 1466.5919 0.0000 0.0000 1713.9051 -7460.8288 296.6895 -9174.7339 -7395.1738 297.8405 277.3134 357.6038 29668.0005 -26.1309 47.1178
TCL: Running FEP window  18: Lambda1 0.8500000000000002 Lambda2 0.9000000000000002 [dLambda 0.050000000000000044]
TCL: Setting parameter firsttimestep to 0
TCL: Setting parameter alchLambda to 0.8500000000000002
Info: NONBONDED TABLE R-SQUARED SPACING: 0.0625
Info: NONBONDED TABLE SIZE: 705 POINTS
TCL: Setting parameter alchLambda2 to 0.9000000000000002
Info: NONBONDED TABLE R-SQUARED SPACING: 0.0625
Info: NONBONDED TABLE SIZE: 705 POINTS
TCL: Running for 1500000 steps
ETITLE: TS BOND ANGLE DIHED IMPRP ELECT VDW BOUNDARY MISC KINETIC TOTAL TEMP POTENTIAL TOTALAVG TEMPAVG PRESSURE GPRESSURE VOLUME PRESSAVG GPRESSAVG
ENERGY: 0 3.2958 3.2148 4.0494 0.0000 -10651.8975 1466.0104 0.0000 0.0000 1713.0492 -7462.2780 296.5413 -9175.3272 -7462.2780 296.5413 292.3806 357.0737 29668.0005 292.3806 357.0737
ENERGY: 300000 3.1506 4.1765 4.0510 0.0000 -10622.8207 1467.5585 0.0000 0.0000 1754.6297 -7389.2544 303.7392 -9143.8841 -7377.9948 304.1923 233.3606 340.9983 30037.9758 74.2590 166.4317
ENERGY: 600000 2.0288 4.8755 4.0503 0.0000 -10493.4482 1440.0109 0.0000 0.0000 1740.1962 -7302.2864 301.2406 -9042.4826 -7361.1065 301.8602 480.4122 648.4612 29690.1449 174.6276 269.0003
ENERGY: 900000 4.4477 2.1431 4.0479 0.0000 -10508.5068 1390.8964 0.0000 0.0000 1730.7326 -7376.2391 299.6024 -9106.9717 -7357.2890 300.6128 -141.2738 -64.8517 29981.6369 124.3804 208.4938
ENERGY: 1200000 5.7409 3.0555 4.0505 0.0000 -10467.6201 1343.1047 0.0000 0.0000 1700.5973 -7411.0713 294.3858 -9111.6686 -7365.9788 299.1712 -679.7126 -568.8975 30029.4703 9.4503 89.1311
ENERGY: 1500000 3.3343 6.2738 4.0381 0.0000 -10436.6378 1343.2068 0.0000 0.0000 1780.3714 -7299.4133 308.1953 -9079.7847 -7368.4134 299.3778 -399.0309 -329.7034 29655.4398 -27.3203 51.9930
TCL: Running FEP window  19: Lambda1 0.9000000000000002 Lambda2 0.9500000000000003 [dLambda 0.050000000000000044]
TCL: Setting parameter firsttimestep to 0
TCL: Setting parameter alchLambda to 0.9000000000000002
Info: NONBONDED TABLE R-SQUARED SPACING: 0.0625
Info: NONBONDED TABLE SIZE: 705 POINTS
TCL: Setting parameter alchLambda2 to 0.9500000000000003
Info: NONBONDED TABLE R-SQUARED SPACING: 0.0625
Info: NONBONDED TABLE SIZE: 705 POINTS
TCL: Running for 1500000 steps
ETITLE: TS BOND ANGLE DIHED IMPRP ELECT VDW BOUNDARY MISC KINETIC TOTAL TEMP POTENTIAL TOTALAVG TEMPAVG PRESSURE GPRESSURE VOLUME PRESSAVG GPRESSAVG
ENERGY: 0 3.3343 6.2738 4.0381 0.0000 -10436.6600 1343.7558 0.0000 0.0000 1779.4924 -7299.7654 308.0431 -9079.2579 -7299.7654 308.0431 -403.6861 -312.3644 29655.4398 -403.6861 -312.3644
ENERGY: 300000 2.8176 1.1198 4.0511 0.0000 -10423.4045 1300.9182 0.0000 0.0000 1703.7226 -7410.7752 294.9268 -9114.4977 -7342.2180 299.5940 -882.0175 -827.7647 29943.4608 -122.8465 -82.7184
ENERGY: 600000 1.7095 2.5586 4.0492 0.0000 -10499.6690 1373.1291 0.0000 0.0000 1694.5938 -7423.6289 293.3465 -9118.2227 -7356.8740 298.8526 -352.8311 -317.1732 30232.5553 -57.3296 -13.8363
ENERGY: 900000 3.6003 2.2691 4.0528 0.0000 -10445.0820 1387.5257 0.0000 0.0000 1658.4052 -7389.2290 287.0820 -9047.6342 -7367.7541 298.5960 -41.2268 -13.3607 30038.0242 -140.0517 -88.6832
ENERGY: 1200000 2.8656 3.5193 4.0456 0.0000 -10560.7662 1505.9974 0.0000 0.0000 1800.5137 -7243.8246 311.6821 -9044.3383 -7361.5423 300.1699 890.1625 981.2785 30273.5882 22.8236 77.5919
ENERGY: 1500000 1.0375 2.2916 4.0504 0.0000 -10352.8110 1319.8750 0.0000 0.0000 1740.8635 -7284.6931 301.3562 -9025.5566 -7355.0018 300.4737 -778.2500 -721.6163 30891.5188 14.3900 72.0815
TCL: Running FEP window  20: Lambda1 0.9500000000000003 Lambda2 1.0    [dLambda 0.04999999999999971]
TCL: Setting parameter firsttimestep to 0
TCL: Setting parameter alchLambda to 0.9500000000000003
Info: NONBONDED TABLE R-SQUARED SPACING: 0.0625
Info: NONBONDED TABLE SIZE: 705 POINTS
TCL: Setting parameter alchLambda2 to 1.0
Info: NONBONDED TABLE R-SQUARED SPACING: 0.0625
Info: NONBONDED TABLE SIZE: 705 POINTS
TCL: Running for 1500000 steps
ETITLE: TS BOND ANGLE DIHED IMPRP ELECT VDW BOUNDARY MISC KINETIC TOTAL TEMP POTENTIAL TOTALAVG TEMPAVG PRESSURE GPRESSURE VOLUME PRESSAVG GPRESSAVG
ENERGY: 0 1.0375 2.2916 4.0504 0.0000 -10352.8361 1319.6982 0.0000 0.0000 1740.0074 -7285.7510 301.2080 -9025.7584 -7285.7510 301.2080 -788.7792 -712.4554 30891.5188 -788.7792 -712.4554
ENERGY: 300000 2.4474 4.0914 4.0564 0.0000 -10506.9602 1374.6854 0.0000 0.0000 1745.7352 -7375.9445 302.1995 -9121.6797 -7359.2916 299.2580 -219.7601 -182.9913 29607.0666 -226.6193 -158.0539
ENERGY: 600000 2.3344 2.2287 4.0539 0.0000 -10557.8684 1446.5608 0.0000 0.0000 1673.4577 -7429.2328 289.6877 -9102.6905 -7373.7268 296.9362 432.4341 468.7478 29823.1916 -1.2830 60.6689
ENERGY: 900000 2.9577 2.7843 4.0522 0.0000 -10527.4617 1443.6861 0.0000 0.0000 1714.4335 -7359.5479 296.7809 -9073.9814 -7365.3806 298.2271 126.4430 155.9683 30367.2232 -9.1911 55.4446
ENERGY: 1200000 3.2148 2.3329 4.0475 0.0000 -10466.1348 1379.9169 0.0000 0.0000 1722.8744 -7353.7482 298.2421 -9076.6226 -7365.7158 298.7916 27.1172 108.9528 29866.8598 -18.3354 44.4144
ENERGY: 1500000 1.6574 3.2059 4.0484 0.0000 -10488.7405 1339.4700 0.0000 0.0000 1740.7605 -7399.5983 301.3383 -9140.3588 -7365.5537 299.3836 -652.9636 -572.4386 30234.8847 49.5188 112.3467
TCL: Exiting due to exit command.
