Info: SIMULATION PARAMETERS:
Info: TIMESTEP               2
Info: NUMBER OF STEPS        0
Info: STEPS PER CYCLE        10
Info: PERIODIC CELL BASIS 1  30.947 0 0
Info: PERIODIC CELL BASIS 2  0 31.6485 0
Info: PERIODIC CELL BASIS 3  0 0 31.599
Info: PERIODIC CELL CENTER   0 0 0
Info: WRAPPING WATERS AROUND PERIODIC BOUNDARIES ON OUTPUT.
Info: WRAPPING ALL CLUSTERS AROUND PERIODIC BOUNDARIES ON OUTPUT.
Info: FIRST LDB TIMESTEP     50
Info: LAST LDB TIMESTEP     -1
Info: HOM BACKGROUND SCALING 1
Info: PME BACKGROUND SCALING 1
Info: MIN ATOMS PER PATCH    40
Info: EMPTY PATCH LOAD       40 ATOMS
Info: VELOCITY FILE          mobley_9100956_equil.vel
Info: CENTER OF MASS MOVING INITIALLY? NO
Info: DIELECTRIC             1
Info: EXCLUDE                SCALED ONE-FOUR
Info: 1-4 ELECTROSTATICS SCALED BY 0.833333
Info: MODIFIED 1-4 VDW PARAMETERS WILL BE USED
Info: DCD FILENAME           mobley_9100956_prod.dcd
Info: DCD FREQUENCY          100000
Info: DCD FIRST STEP         100000
Info: DCD FILE WILL CONTAIN UNIT CELL DATA
Info: XST FILENAME           mobley_9100956_prod.xst
Info: XST FREQUENCY          100000
Info: NO VELOCITY DCD OUTPUT
Info: NO FORCE DCD OUTPUT
Info: OUTPUT FILENAME        mobley_9100956_prod
Info: BINARY OUTPUT FILES WILL BE USED
Info: RESTART FILENAME       mobley_9100956_prod.restart
Info: RESTART FREQUENCY      100000
Info: BINARY RESTART FILES WILL BE USED
Info: CUTOFF                 9
Info: PAIRLIST DISTANCE      11
Info: PAIRLIST SHRINK RATE   0.01
Info: PAIRLIST GROW RATE     0.01
Info: PAIRLIST TRIGGER       0.3
Info: PAIRLISTS PER CYCLE    2
Info: PAIRLISTS ENABLED
Info: MARGIN                 2
Info: HYDROGEN GROUP CUTOFF  2.5
Info: PATCH DIMENSION        15.5
Info: ENERGY OUTPUT STEPS    100000
Info: ENERGY EVALUATION STEPS    100000
Info: OUTPUT ENERGY PRECISION 4
Info: CROSSTERM ENERGY INCLUDED IN DIHEDRAL
Info: TIMING OUTPUT STEPS    1000000
Info: PRESSURE OUTPUT STEPS  100000
Info: ALCHEMICAL FEP ON
Info: FEP CURRENT LAMBDA VALUE     1
Info: FEP COMPARISON LAMBDA VALUE  0.95
Info: FEP INTRA-ALCHEMICAL NON-BONDED INTERACTIONS WILL BE RETAINED
Info: FEP INTRA-ALCHEMICAL BONDED INTERACTIONS WILL BE RETAINED
Info: FEP VDW SHIFTING COEFFICIENT 5
Info: FEP ELEC. ACTIVE FOR ANNIHILATED PARTICLES BETWEEN LAMBDA = 0 AND LAMBDA = 0.5
Info: FEP ELEC. ACTIVE FOR EXNIHILATED PARTICLES BETWEEN LAMBDA = 0.5 AND LAMBDA = 1
Info: FEP VDW ACTIVE FOR ANNIHILATED PARTICLES BETWEEN LAMBDA = 0 AND LAMBDA = 1
Info: FEP VDW ACTIVE FOR EXNIHILATED PARTICLES BETWEEN LAMBDA = 0 AND LAMBDA = 1
Info: FEP BOND ACTIVE FOR ANNIHILATED PARTICLES BETWEEN LAMBDA = 1 AND LAMBDA = 1
Info: FEP BOND ACTIVE FOR EXNIHILATED PARTICLES BETWEEN LAMBDA = 0 AND LAMBDA = 0
Info: LANGEVIN DYNAMICS ACTIVE
Info: LANGEVIN TEMPERATURE   300
Info: LANGEVIN USING BBK INTEGRATOR
Info: LANGEVIN DAMPING COEFFICIENT IS 1 INVERSE PS
Info: LANGEVIN DYNAMICS APPLIED TO HYDROGENS
Info: LANGEVIN PISTON PRESSURE CONTROL ACTIVE
Info:        TARGET PRESSURE IS 1.01325 BAR
Info:     OSCILLATION PERIOD IS 50 FS
Info:             DECAY TIME IS 25 FS
Info:     PISTON TEMPERATURE IS 300 K
Info:       PRESSURE CONTROL IS GROUP-BASED
Info:    INITIAL STRAIN RATE IS 0.000170215 0.000170215 0.000170215
Info:       CELL FLUCTUATION IS ISOTROPIC
Info: PARTICLE MESH EWALD (PME) ACTIVE
Info: PME TOLERANCE               1e-06
Info: PME EWALD COEFFICIENT       0.348832
Info: PME INTERPOLATION ORDER     4
Info: PME GRID DIMENSIONS         32 32 32
Info: PME MAXIMUM GRID SPACING    1
Info: PME CALCULATION WILL BE PERFORMED ON GPU
Info: FULL ELECTROSTATIC EVALUATION FREQUENCY      2
Info: USING VERLET I (r-RESPA) MTS SCHEME.
Info: C1 SPLITTING OF LONG RANGE ELECTROSTATICS
Info: PLACING ATOMS IN PATCHES BY HYDROGEN GROUPS
Info: RIGID BONDS TO HYDROGEN : ALL
Info:         ERROR TOLERANCE : 1e-08
Info:          MAX ITERATIONS : 100
Info: RIGID WATER USING SETTLE ALGORITHM
Info: RANDOM NUMBER SEED     1743639766
Info: USE HYDROGEN BONDS?    NO
Info: Using AMBER format force field!
Info: AMBER PARM FILE        mobley_9100956.prmtop
Info: COORDINATE PDB         mobley_9100956.pdb
Info: Exclusions will be read from PARM file!
Info: SCNB (VDW SCALING)     2
Info: USING ARITHMETIC MEAN TO COMBINE L-J SIGMA PARAMETERS
Info: BINARY COORDINATES     mobley_9100956_equil.coor
Info: SUMMARY OF PARAMETERS:
Info: 4 BONDS
Info: 3 ANGLES
Info:   3 HARMONIC
Info:   0 COSINE-BASED
Info: 5 DIHEDRAL
Info: 0 IMPROPER
Info: 0 CROSSTERM
Info: 0 VDW
Info: 10 VDW_PAIRS
Info: 0 NBTHOLE_PAIRS
Info: To read alchdata from file: mobley_9100956.pdb
Info: To read alchflag data from column: 5
Info: STRUCTURE SUMMARY:
Info: 2988 ATOMS
Info: 2988 BONDS
Info: 42 ANGLES
Info: 79 DIHEDRALS
Info: 0 IMPROPERS
Info: 0 CROSSTERMS
Info: 3090 EXCLUSIONS
Info: 2981 RIGID BONDS
Info: ALCH: 0 ATOMS TO DISAPPEAR IN FINAL STATE
Info: ALCH: 21 ATOMS TO APPEAR IN FINAL STATE
Info: 5983 DEGREES OF FREEDOM
Info: 996 HYDROGEN GROUPS
Info: 4 ATOMS IN LARGEST HYDROGEN GROUP
Info: 996 MIGRATION GROUPS
Info: 4 ATOMS IN LARGEST MIGRATION GROUP
Info: TOTAL MASS = 17916 amu
Info: TOTAL CHARGE = 0.000199977 e
Info: MASS DENSITY = 0.961292 g/cm^3
Info: ATOM DENSITY = 0.0965462 atoms/A^3
Info: ADDED 0 IMPLICIT EXCLUSIONS
Info: NONBONDED TABLE R-SQUARED SPACING: 0.0625
Info: NONBONDED TABLE SIZE: 705 POINTS
Info: REMOVING COM VELOCITY 0.0962577 0.137242 -0.00238405
Info: Use 3D box decompostion in PME FFT.
Info: Updated CUDA force table with 4096 elements.
Info: Updated CUDA LJ table with 4 x 4 elements.
Info: Found 24 unique exclusion lists needing 72 bytes
TCL: Running for 1500000 steps
ETITLE: TS BOND ANGLE DIHED IMPRP ELECT VDW BOUNDARY MISC KINETIC TOTAL TEMP POTENTIAL TOTALAVG TEMPAVG PRESSURE GPRESSURE VOLUME PRESSAVG GPRESSAVG
ENERGY: 0 1.1012 12.2859 4.3303 0.0000 -10739.8365 1357.6328 0.0000 0.0000 1811.2829 -7553.2035 304.6896 -9364.4864 -7553.2035 304.6896 -1002.2231 -906.0133 30948.9056 -1002.2231 -906.0133
ENERGY: 300000 4.3011 7.4329 4.4546 0.0000 -10635.4868 1364.6127 0.0000 0.0000 1781.9462 -7472.7393 299.7547 -9254.6855 -7519.0376 301.0987 -455.2396 -416.1749 31016.8714 -95.2469 -40.1614
ENERGY: 600000 2.0424 7.9657 6.4140 0.0000 -10639.0543 1316.0122 0.0000 0.0000 1812.4746 -7494.1453 304.8901 -9306.6199 -7529.5832 301.5326 -792.2242 -713.1206 30526.6328 -200.8929 -127.8388
ENERGY: 900000 3.0879 11.3436 4.3964 0.0000 -10775.6760 1428.3297 0.0000 0.0000 1860.2681 -7468.2504 312.9298 -9328.5185 -7531.2017 302.4636 -303.3809 -196.9397 30868.8231 -330.3910 -261.9250
ENERGY: 1200000 2.4871 10.3121 4.7544 0.0000 -10835.9090 1427.4458 0.0000 0.0000 1794.9081 -7596.0015 301.9351 -9390.9096 -7523.7150 303.4794 -435.8249 -435.8415 30757.6125 -218.8372 -152.4506
ENERGY: 1500000 1.2594 10.9272 4.8416 0.0000 -10807.2489 1485.1082 0.0000 0.0000 1768.3878 -7536.7247 297.4739 -9305.1125 -7529.2363 302.8712 400.8661 481.5539 30523.8363 -164.3120 -98.3121
TCL: Running FEP window   2: Lambda1 0.95   Lambda2 0.8999999999999999 [dLambda -0.050000000000000044]
TCL: Setting parameter firsttimestep to 0
TCL: Setting parameter alchLambda to 0.95
Info: NONBONDED TABLE R-SQUARED SPACING: 0.0625
Info: NONBONDED TABLE SIZE: 705 POINTS
TCL: Setting parameter alchLambda2 to 0.8999999999999999
Info: NONBONDED TABLE R-SQUARED SPACING: 0.0625
Info: NONBONDED TABLE SIZE: 705 POINTS
TCL: Running for 1500000 steps
ETITLE: TS BOND ANGLE DIHED IMPRP ELECT VDW BOUNDARY MISC KINETIC TOTAL TEMP POTENTIAL TOTALAVG TEMPAVG PRESSURE GPRESSURE VOLUME PRESSAVG GPRESSAVG
ENERGY: 0 1.2594 10.9272 4.8416 0.0000 -10807.2436 1485.4682 0.0000 0.0000 1767.4621 -7537.2851 297.3182 -9304.7472 -7537.2851 297.3182 390.2189 473.2046 30523.8363 390.2189 473.2046
ENERGY: 300000 2.3059 11.8054 4.2302 0.0000 -10791.2911 1465.0877 0.0000 0.0000 1784.2967 -7523.5653 300.1501 -9307.8619 -7540.4322 299.4172 -33.2692 78.4094 30835.9493 263.5114 348.4837
ENERGY: 600000 1.5925 9.0551 4.1471 0.0000 -10788.9711 1496.1976 0.0000 0.0000 1805.3130 -7472.6657 303.6854 -9277.9787 -7510.6245 302.5360 617.5199 712.4543 30562.0623 75.0060 160.7732
ENERGY: 900000 5.7645 9.8272 4.6868 0.0000 -10645.5392 1312.2298 0.0000 0.0000 1760.5224 -7552.5084 296.1508 -9313.0309 -7531.5090 300.8833 -1058.0765 -956.0916 30877.2422 -94.5747 -15.6687
ENERGY: 1200000 2.3259 12.3922 4.7567 0.0000 -10794.6903 1414.5946 0.0000 0.0000 1788.8138 -7571.8073 300.9099 -9360.6211 -7544.8232 300.5904 -109.9517 -59.5249 30394.3130 -136.5048 -57.6463
ENERGY: 1500000 1.8305 8.4164 3.9795 0.0000 -10825.2802 1452.4641 0.0000 0.0000 1813.7027 -7544.8869 305.0967 -9358.5896 -7541.1582 300.2596 269.3893 367.3581 30449.2413 -94.4022 -21.1984
TCL: Running FEP window   3: Lambda1 0.8999999999999999 Lambda2 0.8499999999999999 [dLambda -0.050000000000000044]
TCL: Setting parameter firsttimestep to 0
TCL: Setting parameter alchLambda to 0.8999999999999999
Info: NONBONDED TABLE R-SQUARED SPACING: 0.0625
Info: NONBONDED TABLE SIZE: 705 POINTS
TCL: Setting parameter alchLambda2 to 0.8499999999999999
Info: NONBONDED TABLE R-SQUARED SPACING: 0.0625
Info: NONBONDED TABLE SIZE: 705 POINTS
TCL: Running for 1500000 steps
ETITLE: TS BOND ANGLE DIHED IMPRP ELECT VDW BOUNDARY MISC KINETIC TOTAL TEMP POTENTIAL TOTALAVG TEMPAVG PRESSURE GPRESSURE VOLUME PRESSAVG GPRESSAVG
ENERGY: 0 1.8305 8.4164 3.9795 0.0000 -10825.2756 1452.1347 0.0000 0.0000 1812.8367 -7546.0777 304.9510 -9358.9144 -7546.0777 304.9510 264.1000 346.6938 30449.2413 264.1000 346.6938
ENERGY: 300000 2.0211 14.8374 5.9684 0.0000 -10697.2946 1381.8039 0.0000 0.0000 1815.6419 -7477.0218 305.4229 -9292.6637 -7568.6785 301.9229 -506.5222 -516.6354 31048.9413 188.0318 231.3894
ENERGY: 600000 3.7892 8.3988 4.0964 0.0000 -10783.8954 1388.5316 0.0000 0.0000 1862.8749 -7516.2046 313.3683 -9379.0795 -7553.2546 302.4415 -426.3402 -405.0361 30597.1325 -33.7291 6.6535
ENERGY: 900000 2.4650 8.4517 4.1960 0.0000 -10746.7692 1411.4249 0.0000 0.0000 1793.7268 -7526.5048 301.7364 -9320.2316 -7543.1787 302.3103 -212.7106 -173.9086 30861.8195 -139.5991 -103.5473
ENERGY: 1200000 1.4859 11.6697 5.6104 0.0000 -10892.9329 1469.6662 0.0000 0.0000 1790.1073 -7614.3934 301.1275 -9404.5007 -7552.1009 301.3607 226.9086 209.5539 30403.4072 -73.3770 -40.2606
ENERGY: 1500000 1.4601 11.4976 5.3394 0.0000 -10853.9964 1473.2097 0.0000 0.0000 1784.8558 -7577.6337 300.2441 -9362.4895 -7554.1318 301.0349 43.0663 87.7101 30572.8904 -99.0494 -60.3497
TCL: Running FEP window   4: Lambda1 0.8499999999999999 Lambda2 0.7999999999999998 [dLambda -0.050000000000000044]
TCL: Setting parameter firsttimestep to 0
TCL: Setting parameter alchLambda to 0.8499999999999999
Info: NONBONDED TABLE R-SQUARED SPACING: 0.0625
Info: NONBONDED TABLE SIZE: 705 POINTS
TCL: Setting parameter alchLambda2 to 0.7999999999999998
Info: NONBONDED TABLE R-SQUARED SPACING: 0.0625
Info: NONBONDED TABLE SIZE: 705 POINTS
TCL: Running for 1500000 steps
ETITLE: TS BOND ANGLE DIHED IMPRP ELECT VDW BOUNDARY MISC KINETIC TOTAL TEMP POTENTIAL TOTALAVG TEMPAVG PRESSURE GPRESSURE VOLUME PRESSAVG GPRESSAVG
ENERGY: 0 1.4601 11.4976 5.3394 0.0000 -10853.9024 1473.6254 0.0000 0.0000 1783.9858 -7577.9940 300.0978 -9361.9798 -7577.9940 300.0978 4.8997 80.6496 30572.8904 4.8997 80.6496
ENERGY: 300000 1.2688 19.2251 4.0743 0.0000 -10788.4465 1469.5719 0.0000 0.0000 1816.4713 -7477.8350 305.5624 -9294.3064 -7585.1809 298.5751 277.9766 303.2933 30743.6959 -113.6009 -51.7051
ENERGY: 600000 3.0438 11.5076 3.7912 0.0000 -10753.8668 1407.8139 0.0000 0.0000 1758.0231 -7569.6872 295.7304 -9327.7103 -7569.8794 297.8954 -351.2362 -308.5314 30806.1662 -311.0432 -262.6998
ENERGY: 900000 3.6505 6.4997 5.0614 0.0000 -10869.7867 1488.0028 0.0000 0.0000 1759.2711 -7607.3012 295.9403 -9366.5723 -7569.2839 297.3348 250.0346 330.6206 30476.2956 -167.4428 -112.4822
ENERGY: 1200000 3.1939 6.7205 4.3910 0.0000 -10724.9419 1442.4570 0.0000 0.0000 1818.4641 -7449.7153 305.8976 -9268.1794 -7564.6037 297.7721 -72.6254 60.9100 31122.8878 -129.5400 -65.0243
ENERGY: 1500000 1.6848 13.7086 4.3459 0.0000 -10844.0413 1441.4220 0.0000 0.0000 1772.4501 -7610.4297 298.1573 -9382.8798 -7566.5891 297.8459 -267.8036 -195.7710 30530.1304 -82.5681 -21.3864
TCL: Running FEP window   5: Lambda1 0.7999999999999998 Lambda2 0.7499999999999998 [dLambda -0.050000000000000044]
TCL: Setting parameter firsttimestep to 0
TCL: Setting parameter alchLambda to 0.7999999999999998
Info: NONBONDED TABLE R-SQUARED SPACING: 0.0625
Info: NONBONDED TABLE SIZE: 705 POINTS
TCL: Setting parameter alchLambda2 to 0.7499999999999998
Info: NONBONDED TABLE R-SQUARED SPACING: 0.0625
Info: NONBONDED TABLE SIZE: 705 POINTS
TCL: Running for 1500000 steps
ETITLE: TS BOND ANGLE DIHED IMPRP ELECT VDW BOUNDARY MISC KINETIC TOTAL TEMP POTENTIAL TOTALAVG TEMPAVG PRESSURE GPRESSURE VOLUME PRESSAVG GPRESSAVG
ENERGY: 0 1.6848 13.7086 4.3459 0.0000 -10844.0366 1441.5655 0.0000 0.0000 1771.5594 -7611.1723 298.0074 -9382.7317 -7611.1723 298.0074 -293.8526 -206.3369 30530.1304 -293.8526 -206.3369
ENERGY: 300000 1.8995 8.1755 4.6448 0.0000 -10888.6337 1453.1564 0.0000 0.0000 1751.2351 -7669.5224 294.5885 -9420.7575 -7600.4432 295.1082 -328.6964 -220.6464 30764.6873 -83.7818 -2.9560
ENERGY: 600000 4.5317 6.5901 4.4875 0.0000 -10648.5259 1356.6888 0.0000 0.0000 1715.0484 -7561.1794 288.5013 -9276.2278 -7577.1694 295.4469 -795.8502 -683.5073 30824.2963 -252.5520 -166.4743
ENERGY: 900000 5.0351 7.5620 4.3210 0.0000 -10816.8211 1500.3568 0.0000 0.0000 1822.0801 -7477.4661 306.5059 -9299.5462 -7566.6741 296.4090 282.1374 265.8499 30943.7217 -125.5032 -56.4462
ENERGY: 1200000 3.0811 15.4255 4.4681 0.0000 -10667.7859 1343.4143 0.0000 0.0000 1766.6387 -7534.7582 297.1797 -9301.3970 -7557.2517 297.5694 -703.9517 -615.5714 30738.6648 -206.7389 -138.8564
ENERGY: 1500000 2.0058 7.0550 4.4857 0.0000 -10804.0866 1442.2192 0.0000 0.0000 1777.1176 -7571.2033 298.9424 -9348.3210 -7549.5058 298.4200 -171.0349 -71.3667 30726.6591 -176.6973 -105.2857
TCL: Running FEP window   6: Lambda1 0.7499999999999998 Lambda2 0.6999999999999997 [dLambda -0.050000000000000044]
TCL: Setting parameter firsttimestep to 0
TCL: Setting parameter alchLambda to 0.7499999999999998
Info: NONBONDED TABLE R-SQUARED SPACING: 0.0625
Info: NONBONDED TABLE SIZE: 705 POINTS
TCL: Setting parameter alchLambda2 to 0.6999999999999997
Info: NONBONDED TABLE R-SQUARED SPACING: 0.0625
Info: NONBONDED TABLE SIZE: 705 POINTS
TCL: Running for 1500000 steps
ETITLE: TS BOND ANGLE DIHED IMPRP ELECT VDW BOUNDARY MISC KINETIC TOTAL TEMP POTENTIAL TOTALAVG TEMPAVG PRESSURE GPRESSURE VOLUME PRESSAVG GPRESSAVG
ENERGY: 0 2.0058 7.0550 4.4857 0.0000 -10804.0905 1442.9785 0.0000 0.0000 1776.2271 -7571.3385 298.7926 -9347.5656 -7571.3385 298.7926 -160.7974 -70.9550 30726.6591 -160.7974 -70.9550
ENERGY: 300000 0.9981 7.1054 3.9667 0.0000 -10655.1056 1332.4472 0.0000 0.0000 1787.4188 -7523.1693 300.6753 -9310.5882 -7525.1331 301.3465 -1063.7485 -1002.6907 31365.3792 -538.8271 -472.5470
ENERGY: 600000 3.5119 10.6960 4.5578 0.0000 -10657.0436 1356.3281 0.0000 0.0000 1778.0466 -7503.9032 299.0987 -9281.9498 -7526.8087 298.9665 -722.5221 -668.7971 31204.1425 -234.1075 -175.0645
ENERGY: 900000 5.1256 6.1760 4.7403 0.0000 -10870.7708 1494.1191 0.0000 0.0000 1795.7534 -7564.8564 302.0773 -9360.6098 -7537.7715 299.6957 215.6776 323.8750 30625.5024 -226.6123 -162.8900
ENERGY: 1200000 1.5376 13.0445 6.5441 0.0000 -10726.3524 1428.6926 0.0000 0.0000 1771.0958 -7505.4377 297.9295 -9276.5335 -7541.7229 299.5498 -191.9792 -96.8425 30993.3180 -170.6583 -111.7441
ENERGY: 1500000 4.0672 10.4701 6.6294 0.0000 -10807.9552 1462.6104 0.0000 0.0000 1763.9602 -7560.2179 296.7291 -9324.1781 -7548.8503 298.7002 78.0760 114.9353 30503.7914 -90.6175 -35.7849
TCL: Running FEP window   7: Lambda1 0.6999999999999997 Lambda2 0.6499999999999997 [dLambda -0.050000000000000044]
TCL: Setting parameter firsttimestep to 0
TCL: Setting parameter alchLambda to 0.6999999999999997
Info: NONBONDED TABLE R-SQUARED SPACING: 0.0625
Info: NONBONDED TABLE SIZE: 705 POINTS
TCL: Setting parameter alchLambda2 to 0.6499999999999997
Info: NONBONDED TABLE R-SQUARED SPACING: 0.0625
Info: NONBONDED TABLE SIZE: 705 POINTS
TCL: Running for 1500000 steps
ETITLE: TS BOND ANGLE DIHED IMPRP ELECT VDW BOUNDARY MISC KINETIC TOTAL TEMP POTENTIAL TOTALAVG TEMPAVG PRESSURE GPRESSURE VOLUME PRESSAVG GPRESSAVG
ENERGY: 0 4.0672 10.4701 6.6294 0.0000 -10807.9853 1462.4958 0.0000 0.0000 1763.0707 -7561.2521 296.5795 -9324.3228 -7561.2521 296.5795 12.2874 103.4416 30503.7914 12.2874 103.4416
ENERGY: 300000 0.4102 13.7101 4.1927 0.0000 -10767.6567 1429.7080 0.0000 0.0000 1777.8357 -7541.8000 299.0632 -9319.6357 -7498.9032 299.7625 -102.8239 -58.9894 30724.6397 260.0786 327.0729
ENERGY: 600000 4.0016 12.4501 4.7360 0.0000 -10780.7561 1459.0922 0.0000 0.0000 1789.1598 -7511.3164 300.9681 -9300.4762 -7528.5774 299.0853 -158.1778 -115.0201 31094.0529 84.1007 148.6142
ENERGY: 900000 2.4459 7.9095 3.9583 0.0000 -10765.1194 1366.1914 0.0000 0.0000 1718.9411 -7665.6731 289.1561 -9384.6143 -7563.1452 297.6630 -608.1083 -595.6768 30267.7087 15.9450 74.2909
ENERGY: 1200000 0.5682 9.6280 3.9524 0.0000 -10911.8672 1478.4192 0.0000 0.0000 1841.3151 -7577.9843 309.7416 -9419.2994 -7560.9687 298.2390 -28.4286 55.0238 30749.6978 22.5578 80.1016
ENERGY: 1500000 2.1540 7.8559 4.4135 0.0000 -10815.0507 1460.7824 0.0000 0.0000 1818.1186 -7521.7263 305.8395 -9339.8449 -7559.7108 298.4136 57.0625 101.6123 30594.4729 12.5974 68.5673
TCL: Running FEP window   8: Lambda1 0.6499999999999997 Lambda2 0.5999999999999996 [dLambda -0.050000000000000044]
TCL: Setting parameter firsttimestep to 0
TCL: Setting parameter alchLambda to 0.6499999999999997
Info: NONBONDED TABLE R-SQUARED SPACING: 0.0625
Info: NONBONDED TABLE SIZE: 705 POINTS
TCL: Setting parameter alchLambda2 to 0.5999999999999996
Info: NONBONDED TABLE R-SQUARED SPACING: 0.0625
Info: NONBONDED TABLE SIZE: 705 POINTS
TCL: Running for 1500000 steps
ETITLE: TS BOND ANGLE DIHED IMPRP ELECT VDW BOUNDARY MISC KINETIC TOTAL TEMP POTENTIAL TOTALAVG TEMPAVG PRESSURE GPRESSURE VOLUME PRESSAVG GPRESSAVG
ENERGY: 0 2.1540 7.8559 4.4135 0.0000 -10815.0534 1461.4500 0.0000 0.0000 1817.1952 -7521.9847 305.6842 -9339.1800 -7521.9847 305.6842 9.3542 100.3521 30594.4729 9.3542 100.3521
ENERGY: 300000 1.2443 13.7618 4.1831 0.0000 -10730.5788 1420.1046 0.0000 0.0000 1828.2598 -7463.0252 307.5454 -9291.2850 -7501.7832 304.7566 -148.5344 -108.3864 30759.0530 -249.9313 -197.0370
ENERGY: 600000 3.0558 5.4360 3.8396 0.0000 -10739.6911 1433.6137 0.0000 0.0000 1801.5849 -7492.1610 303.0583 -9293.7460 -7529.8050 301.7649 -407.6648 -346.7184 31253.0796 -145.5270 -81.9142
ENERGY: 900000 0.8763 7.9245 4.3676 0.0000 -10657.6508 1346.3698 0.0000 0.0000 1750.5773 -7547.5353 294.4779 -9298.1127 -7534.5523 299.8485 -829.4432 -815.7298 30975.4844 -117.9273 -60.7206
ENERGY: 1200000 1.9391 15.8738 4.4683 0.0000 -10873.2156 1492.6013 0.0000 0.0000 1770.4783 -7587.8548 297.8256 -9358.3331 -7554.0901 298.8700 733.4653 725.4265 29785.1704 5.0101 57.2497
ENERGY: 1500000 1.2058 8.0108 5.4665 0.0000 -10803.1358 1416.6070 0.0000 0.0000 1780.2276 -7591.6181 299.4656 -9371.8458 -7544.9284 299.4627 -419.0220 -343.3339 30571.9734 -86.5304 -32.8606
TCL: Running FEP window   9: Lambda1 0.5999999999999996 Lambda2 0.5499999999999996 [dLambda -0.050000000000000044]
TCL: Setting parameter firsttimestep to 0
TCL: Setting parameter alchLambda to 0.5999999999999996
Info: NONBONDED TABLE R-SQUARED SPACING: 0.0625
Info: NONBONDED TABLE SIZE: 705 POINTS
TCL: Setting parameter alchLambda2 to 0.5499999999999996
Info: NONBONDED TABLE R-SQUARED SPACING: 0.0625
Info: NONBONDED TABLE SIZE: 705 POINTS
TCL: Running for 1500000 steps
ETITLE: TS BOND ANGLE DIHED IMPRP ELECT VDW BOUNDARY MISC KINETIC TOTAL TEMP POTENTIAL TOTALAVG TEMPAVG PRESSURE GPRESSURE VOLUME PRESSAVG GPRESSAVG
ENERGY: 0 1.2058 8.0108 5.4665 0.0000 -10803.1587 1417.1202 0.0000 0.0000 1779.3369 -7592.0185 299.3157 -9371.3554 -7592.0185 299.3157 -440.8986 -348.6029 30571.9734 -440.8986 -348.6029
ENERGY: 300000 3.7315 11.1539 5.5606 0.0000 -10909.3543 1517.3119 0.0000 0.0000 1814.8838 -7556.7126 305.2954 -9371.5964 -7548.7251 305.3042 433.9942 523.4710 30609.1632 -47.6911 34.7226
ENERGY: 600000 3.8669 11.8384 5.0252 0.0000 -10747.4052 1419.9143 0.0000 0.0000 1786.2158 -7520.5447 300.4729 -9306.7604 -7544.5196 303.5255 -47.2361 -1.4861 30567.0563 -147.3214 -79.2235
ENERGY: 900000 3.6744 13.6479 4.7560 0.0000 -10644.1199 1392.7695 0.0000 0.0000 1731.4442 -7497.8280 291.2594 -9229.2722 -7535.2043 302.9996 -688.9498 -547.9697 31412.6556 -176.7510 -105.9865
ENERGY: 1200000 2.4929 11.6911 4.8459 0.0000 -10885.8298 1477.8509 0.0000 0.0000 1701.0208 -7687.9282 286.1416 -9388.9490 -7543.7421 301.0365 222.5734 306.9938 29954.7057 -159.0922 -90.9346
ENERGY: 1500000 1.4909 9.5342 4.5565 0.0000 -10873.2655 1438.6885 0.0000 0.0000 1813.1258 -7605.8696 304.9996 -9418.9954 -7551.7811 300.1156 -246.5998 -224.9494 30661.8895 -140.0041 -73.4785
TCL: Running FEP window  10: Lambda1 0.5499999999999996 Lambda2 0.4999999999999996 [dLambda -0.04999999999999999]
TCL: Setting parameter firsttimestep to 0
TCL: Setting parameter alchLambda to 0.5499999999999996
Info: NONBONDED TABLE R-SQUARED SPACING: 0.0625
Info: NONBONDED TABLE SIZE: 705 POINTS
TCL: Setting parameter alchLambda2 to 0.4999999999999996
Info: NONBONDED TABLE R-SQUARED SPACING: 0.0625
Info: NONBONDED TABLE SIZE: 705 POINTS
TCL: Running for 1500000 steps
ETITLE: TS BOND ANGLE DIHED IMPRP ELECT VDW BOUNDARY MISC KINETIC TOTAL TEMP POTENTIAL TOTALAVG TEMPAVG PRESSURE GPRESSURE VOLUME PRESSAVG GPRESSAVG
ENERGY: 0 1.4909 9.5342 4.5565 0.0000 -10873.2806 1438.9432 0.0000 0.0000 1812.2202 -7606.5356 304.8473 -9418.7559 -7606.5356 304.8473 -309.5398 -230.4438 30661.8895 -309.5398 -230.4438
ENERGY: 300000 4.0338 9.7843 4.3409 0.0000 -10702.2948 1381.9291 0.0000 0.0000 1787.4234 -7514.7832 300.6760 -9302.2067 -7510.2952 302.9042 -388.4580 -346.2576 30490.7521 -289.6601 -226.8622
ENERGY: 600000 3.6018 9.5881 4.4382 0.0000 -10749.3407 1447.0123 0.0000 0.0000 1802.9581 -7481.7422 303.2893 -9284.7003 -7529.1844 302.9239 -92.3648 -61.3842 30919.0378 -18.7030 39.7139
ENERGY: 900000 2.1554 10.9428 4.7700 0.0000 -10838.8121 1547.4314 0.0000 0.0000 1728.4476 -7545.0649 290.7553 -9273.5125 -7530.3560 301.8047 846.4674 913.7750 30574.0452 98.1762 150.2747
ENERGY: 1200000 2.6798 8.9812 4.7192 0.0000 -10752.6936 1455.5125 0.0000 0.0000 1783.1980 -7497.6028 299.9653 -9280.8009 -7522.7285 302.3060 79.5914 133.1209 30652.1240 141.2161 192.1762
ENERGY: 1500000 2.2635 17.5973 4.0827 0.0000 -10885.0021 1436.0256 0.0000 0.0000 1777.6904 -7647.3426 299.0388 -9425.0330 -7532.9113 301.8387 -452.4023 -407.2980 30670.5711 72.5334 124.1559
TCL: Running FEP window  11: Lambda1 0.4999999999999996 Lambda2 0.4499999999999996 [dLambda -0.04999999999999999]
TCL: Setting parameter firsttimestep to 0
TCL: Setting parameter alchLambda to 0.4999999999999996
Info: NONBONDED TABLE R-SQUARED SPACING: 0.0625
Info: NONBONDED TABLE SIZE: 705 POINTS
TCL: Setting parameter alchLambda2 to 0.4499999999999996
Info: NONBONDED TABLE R-SQUARED SPACING: 0.0625
Info: NONBONDED TABLE SIZE: 705 POINTS
TCL: Running for 1500000 steps
ETITLE: TS BOND ANGLE DIHED IMPRP ELECT VDW BOUNDARY MISC KINETIC TOTAL TEMP POTENTIAL TOTALAVG TEMPAVG PRESSURE GPRESSURE VOLUME PRESSAVG GPRESSAVG
ENERGY: 0 2.2635 17.5974 4.0827 0.0000 -10885.0601 1436.5843 0.0000 0.0000 1776.7960 -7647.7362 298.8883 -9424.5322 -7647.7362 298.8883 -490.4408 -410.3467 30670.5711 -490.4408 -410.3467
ENERGY: 300000 2.1278 6.4996 3.7722 0.0000 -10753.2078 1457.4702 0.0000 0.0000 1839.5720 -7443.7660 309.4483 -9283.3380 -7568.7082 303.0538 129.0169 226.9424 30470.4453 16.2833 97.9865
ENERGY: 600000 0.8294 5.9034 5.0278 0.0000 -10732.7655 1381.2526 0.0000 0.0000 1794.8532 -7544.8992 301.9259 -9339.7524 -7538.5380 301.9662 -420.5875 -345.6639 30479.4865 -186.8438 -120.9027
ENERGY: 900000 0.7132 19.6040 4.5379 0.0000 -10728.3863 1433.3810 0.0000 0.0000 1791.8828 -7478.2675 301.4262 -9270.1503 -7540.3005 301.8591 -50.9812 -11.9439 30920.1009 -39.4560 24.1368
ENERGY: 1200000 1.8134 11.2705 4.1858 0.0000 -10894.3778 1465.5478 0.0000 0.0000 1790.1510 -7621.4094 301.1349 -9411.5604 -7549.3226 301.4610 122.4947 170.2899 30456.3754 -69.0934 -6.3425
ENERGY: 1500000 1.0333 8.0589 4.0463 0.0000 -10756.3210 1359.1519 0.0000 0.0000 1813.6274 -7570.4031 305.0840 -9384.0305 -7551.8848 300.6638 -558.8894 -450.8422 29976.2182 -117.6614 -51.3380
TCL: Running FEP window  12: Lambda1 0.4499999999999996 Lambda2 0.39999999999999963 [dLambda -0.04999999999999999]
TCL: Setting parameter firsttimestep to 0
TCL: Setting parameter alchLambda to 0.4499999999999996
Info: NONBONDED TABLE R-SQUARED SPACING: 0.0625
Info: NONBONDED TABLE SIZE: 705 POINTS
TCL: Setting parameter alchLambda2 to 0.39999999999999963
Info: NONBONDED TABLE R-SQUARED SPACING: 0.0625
Info: NONBONDED TABLE SIZE: 705 POINTS
TCL: Running for 1500000 steps
ETITLE: TS BOND ANGLE DIHED IMPRP ELECT VDW BOUNDARY MISC KINETIC TOTAL TEMP POTENTIAL TOTALAVG TEMPAVG PRESSURE GPRESSURE VOLUME PRESSAVG GPRESSAVG
ENERGY: 0 1.0333 8.0589 4.0463 0.0000 -10756.3226 1359.7831 0.0000 0.0000 1812.7382 -7570.6627 304.9344 -9383.4009 -7570.6627 304.9344 -534.7514 -452.8442 29976.2182 -534.7514 -452.8442
ENERGY: 300000 1.4672 6.5541 4.7628 0.0000 -10683.4092 1362.1921 0.0000 0.0000 1779.4913 -7528.9417 299.3417 -9308.4330 -7503.6314 305.1895 -564.6382 -423.2531 30427.7875 -368.6631 -260.1546
ENERGY: 600000 2.3583 9.9272 4.8029 0.0000 -10933.8045 1552.6396 0.0000 0.0000 1788.8553 -7575.2213 300.9169 -9364.0765 -7526.8378 302.4301 995.8490 995.3328 30198.2843 -70.1814 2.8196
ENERGY: 900000 4.0557 6.3329 5.5579 0.0000 -10664.5449 1346.7221 0.0000 0.0000 1746.7505 -7555.1259 293.8341 -9301.8763 -7529.8118 301.0313 -1101.9573 -1014.9724 31348.8381 -283.9744 -202.8770
ENERGY: 1200000 3.2562 10.7177 3.8837 0.0000 -10935.6239 1522.3297 0.0000 0.0000 1817.3243 -7578.1124 305.7059 -9395.4367 -7542.6230 300.4086 317.2264 450.3828 30389.6983 -222.3319 -145.3831
ENERGY: 1500000 3.0118 8.1286 4.7313 0.0000 -10725.0763 1391.7183 0.0000 0.0000 1766.0674 -7551.4189 297.0836 -9317.4864 -7542.8464 300.4628 -431.2368 -361.6076 30494.9031 -259.3147 -185.9606
TCL: Running FEP window  13: Lambda1 0.39999999999999963 Lambda2 0.34999999999999964 [dLambda -0.04999999999999999]
TCL: Setting parameter firsttimestep to 0
TCL: Setting parameter alchLambda to 0.39999999999999963
Info: NONBONDED TABLE R-SQUARED SPACING: 0.0625
Info: NONBONDED TABLE SIZE: 705 POINTS
TCL: Setting parameter alchLambda2 to 0.34999999999999964
Info: NONBONDED TABLE R-SQUARED SPACING: 0.0625
Info: NONBONDED TABLE SIZE: 705 POINTS
TCL: Running for 1500000 steps
ETITLE: TS BOND ANGLE DIHED IMPRP ELECT VDW BOUNDARY MISC KINETIC TOTAL TEMP POTENTIAL TOTALAVG TEMPAVG PRESSURE GPRESSURE VOLUME PRESSAVG GPRESSAVG
ENERGY: 0 3.0118 8.1286 4.7313 0.0000 -10725.0770 1392.1501 0.0000 0.0000 1765.1755 -7551.8797 296.9336 -9317.0553 -7551.8797 296.9336 -452.6088 -364.2697 30494.9031 -452.6088 -364.2697
ENERGY: 300000 1.6012 12.4411 5.3165 0.0000 -10759.1637 1444.7460 0.0000 0.0000 1853.5821 -7441.4768 311.8051 -9295.0588 -7503.1657 303.2109 34.5053 147.1444 30758.8135 101.8655 170.9243
ENERGY: 600000 0.9031 5.7521 6.0685 0.0000 -10673.1907 1350.1489 0.0000 0.0000 1833.5000 -7476.8182 308.4269 -9310.3181 -7511.3997 303.4364 -758.1083 -705.9109 30765.3192 -101.4500 -24.9254
ENERGY: 900000 2.2322 11.3541 4.2253 0.0000 -10881.7172 1486.8518 0.0000 0.0000 1837.8357 -7539.2181 309.1563 -9377.0539 -7519.6221 304.3285 182.7769 194.5847 30652.0032 -57.4150 3.9865
ENERGY: 1200000 1.4218 9.0275 4.5197 0.0000 -10764.4507 1488.1243 0.0000 0.0000 1780.9105 -7480.4468 299.5805 -9261.3574 -7511.4935 304.1584 266.0589 339.2326 30812.6868 -84.3085 -23.5879
ENERGY: 1500000 3.4989 10.5790 3.8701 0.0000 -10732.7742 1420.2526 0.0000 0.0000 1757.9438 -7536.6297 295.7171 -9294.5736 -7518.7608 302.2459 -283.7036 -262.3491 31125.3330 -151.0076 -97.2054
TCL: Running FEP window  14: Lambda1 0.34999999999999964 Lambda2 0.29999999999999966 [dLambda -0.04999999999999999]
TCL: Setting parameter firsttimestep to 0
TCL: Setting parameter alchLambda to 0.34999999999999964
Info: NONBONDED TABLE R-SQUARED SPACING: 0.0625
Info: NONBONDED TABLE SIZE: 705 POINTS
TCL: Setting parameter alchLambda2 to 0.29999999999999966
Info: NONBONDED TABLE R-SQUARED SPACING: 0.0625
Info: NONBONDED TABLE SIZE: 705 POINTS
TCL: Running for 1500000 steps
ETITLE: TS BOND ANGLE DIHED IMPRP ELECT VDW BOUNDARY MISC KINETIC TOTAL TEMP POTENTIAL TOTALAVG TEMPAVG PRESSURE GPRESSURE VOLUME PRESSAVG GPRESSAVG
ENERGY: 0 3.4989 10.5790 3.8701 0.0000 -10732.7732 1419.8185 0.0000 0.0000 1757.0417 -7537.9650 295.5653 -9295.0067 -7537.9650 295.5653 -365.0996 -269.1387 31125.3330 -365.0996 -269.1387
ENERGY: 300000 1.4835 11.9638 3.7760 0.0000 -10786.8387 1432.8670 0.0000 0.0000 1770.2993 -7566.4490 297.7955 -9336.7484 -7582.9712 296.2658 -114.8228 -92.4054 30617.7829 81.3662 124.4824
ENERGY: 600000 1.9500 8.2427 4.7009 0.0000 -10772.6793 1432.1289 0.0000 0.0000 1791.2384 -7534.4183 301.3178 -9325.6567 -7573.9822 297.2657 -210.8256 -113.8719 31001.3792 91.7969 157.4978
ENERGY: 900000 2.6172 12.3640 4.5125 0.0000 -10813.7142 1481.0342 0.0000 0.0000 1785.2991 -7527.8872 300.3187 -9313.1863 -7548.0881 298.6730 350.8040 454.3456 30315.4854 188.5895 253.1288
ENERGY: 1200000 1.1267 11.9381 5.6494 0.0000 -10749.9383 1435.3938 0.0000 0.0000 1786.1644 -7509.6660 300.4642 -9295.8303 -7539.4997 299.7736 -216.2256 -198.4179 30838.9134 16.5576 81.2411
ENERGY: 1500000 3.8405 8.1147 3.9499 0.0000 -10782.7829 1385.7176 0.0000 0.0000 1801.0054 -7580.1547 302.9608 -9381.1600 -7545.0289 299.3542 -827.4658 -784.9182 30910.2941 -72.9832 -7.1379
TCL: Running FEP window  15: Lambda1 0.29999999999999966 Lambda2 0.24999999999999967 [dLambda -0.04999999999999999]
TCL: Setting parameter firsttimestep to 0
TCL: Setting parameter alchLambda to 0.29999999999999966
Info: NONBONDED TABLE R-SQUARED SPACING: 0.0625
Info: NONBONDED TABLE SIZE: 705 POINTS
TCL: Setting parameter alchLambda2 to 0.24999999999999967
Info: NONBONDED TABLE R-SQUARED SPACING: 0.0625
Info: NONBONDED TABLE SIZE: 705 POINTS
TCL: Running for 1500000 steps
ETITLE: TS BOND ANGLE DIHED IMPRP ELECT VDW BOUNDARY MISC KINETIC TOTAL TEMP POTENTIAL TOTALAVG TEMPAVG PRESSURE GPRESSURE VOLUME PRESSAVG GPRESSAVG
ENERGY: 0 3.8405 8.1147 3.9499 0.0000 -10782.7821 1385.9253 0.0000 0.0000 1800.0789 -7580.8728 302.8049 -9380.9516 -7580.8728 302.8049 -869.7489 -788.6100 30910.2941 -869.7489 -788.6100
ENERGY: 300000 1.2889 8.3940 4.6826 0.0000 -10879.5070 1522.4999 0.0000 0.0000 1819.2765 -7523.3652 306.0343 -9342.6417 -7538.7846 303.5608 343.9290 383.1240 30804.6401 -98.2633 -45.0449
ENERGY: 600000 3.6842 7.3396 5.1790 0.0000 -10737.9570 1403.7275 0.0000 0.0000 1769.7732 -7548.2536 297.7070 -9318.0267 -7540.4801 301.4510 -402.1651 -380.9976 30666.8428 -49.0221 7.6127
ENERGY: 900000 2.8403 9.7101 3.7914 0.0000 -10831.4279 1438.7577 0.0000 0.0000 1797.7090 -7578.6194 302.4063 -9376.3285 -7553.7925 300.5795 -427.4839 -394.3133 30787.9187 42.7082 95.0795
ENERGY: 1200000 0.8634 10.7825 4.1519 0.0000 -10858.3828 1430.0164 0.0000 0.0000 1810.4104 -7602.1583 304.5429 -9412.5687 -7551.5178 301.5904 -515.3011 -493.1216 30860.0159 23.0248 67.3405
ENERGY: 1500000 2.8080 9.0830 4.9076 0.0000 -10775.5708 1418.7938 0.0000 0.0000 1779.5030 -7560.4755 299.3437 -9339.9785 -7546.4224 300.8164 -664.3535 -628.1800 31138.0985 -35.8002 9.5910
TCL: Running FEP window  16: Lambda1 0.24999999999999967 Lambda2 0.19999999999999968 [dLambda -0.04999999999999999]
TCL: Setting parameter firsttimestep to 0
TCL: Setting parameter alchLambda to 0.24999999999999967
Info: NONBONDED TABLE R-SQUARED SPACING: 0.0625
Info: NONBONDED TABLE SIZE: 705 POINTS
TCL: Setting parameter alchLambda2 to 0.19999999999999968
Info: NONBONDED TABLE R-SQUARED SPACING: 0.0625
Info: NONBONDED TABLE SIZE: 705 POINTS
TCL: Running for 1500000 steps
ETITLE: TS BOND ANGLE DIHED IMPRP ELECT VDW BOUNDARY MISC KINETIC TOTAL TEMP POTENTIAL TOTALAVG TEMPAVG PRESSURE GPRESSURE VOLUME PRESSAVG GPRESSAVG
ENERGY: 0 2.8080 9.0830 4.9076 0.0000 -10775.5732 1418.1688 0.0000 0.0000 1778.5981 -7562.0079 299.1915 -9340.6060 -7562.0079 299.1915 -715.1426 -634.8960 31138.0985 -715.1426 -634.8960
ENERGY: 300000 2.8952 12.9722 4.6146 0.0000 -10787.4527 1387.7033 0.0000 0.0000 1790.5918 -7588.6757 301.2090 -9379.2675 -7543.6994 301.6718 -663.0982 -632.3737 30632.7648 -208.6499 -153.4659
ENERGY: 600000 3.6385 12.9879 4.7005 0.0000 -10806.0308 1454.8670 0.0000 0.0000 1801.2486 -7528.5883 303.0017 -9329.8369 -7540.2873 302.0865 10.6641 156.9541 30164.5924 54.2194 116.2522
ENERGY: 900000 2.2337 10.3146 6.1892 0.0000 -10696.7217 1372.1905 0.0000 0.0000 1773.3043 -7532.4893 298.3010 -9305.7936 -7536.1168 301.8870 -801.2973 -797.0820 30982.6562 -42.3612 5.5317
ENERGY: 1200000 2.8257 8.2671 4.3370 0.0000 -10908.6313 1488.3504 0.0000 0.0000 1750.1850 -7654.6661 294.4119 -9404.8511 -7540.6942 301.1277 144.0367 164.2553 30460.5014 -134.5000 -87.5426
ENERGY: 1500000 2.2815 11.2294 4.3730 0.0000 -10818.5463 1469.2471 0.0000 0.0000 1761.5319 -7569.8834 296.3206 -9331.4153 -7543.9810 301.0084 424.5099 436.4654 30126.2158 -128.9619 -80.0879
TCL: Running FEP window  17: Lambda1 0.19999999999999968 Lambda2 0.1499999999999997 [dLambda -0.04999999999999999]
TCL: Setting parameter firsttimestep to 0
TCL: Setting parameter alchLambda to 0.19999999999999968
Info: NONBONDED TABLE R-SQUARED SPACING: 0.0625
Info: NONBONDED TABLE SIZE: 705 POINTS
TCL: Setting parameter alchLambda2 to 0.1499999999999997
Info: NONBONDED TABLE R-SQUARED SPACING: 0.0625
Info: NONBONDED TABLE SIZE: 705 POINTS
TCL: Running for 1500000 steps
ETITLE: TS BOND ANGLE DIHED IMPRP ELECT VDW BOUNDARY MISC KINETIC TOTAL TEMP POTENTIAL TOTALAVG TEMPAVG PRESSURE GPRESSURE VOLUME PRESSAVG GPRESSAVG
ENERGY: 0 2.2815 11.2295 4.3730 0.0000 -10818.5447 1468.9509 0.0000 0.0000 1760.6288 -7571.0810 296.1687 -9331.7098 -7571.0810 296.1687 321.0423 427.6739 30126.2158 321.0423 427.6739
ENERGY: 300000 1.4123 11.9517 3.7172 0.0000 -10775.0262 1433.3115 0.0000 0.0000 1802.4560 -7522.1776 303.2048 -9324.6336 -7538.7467 299.5795 -387.0920 -306.7540 30883.1500 -76.2084 -13.5766
ENERGY: 600000 2.1696 7.5122 4.0525 0.0000 -10936.7782 1549.6783 0.0000 0.0000 1816.1625 -7557.2032 305.5105 -9373.3656 -7564.7223 299.7755 416.6452 452.1231 31176.1981 -40.9777 11.6843
ENERGY: 900000 2.4411 10.9722 4.6654 0.0000 -10807.0685 1452.4844 0.0000 0.0000 1799.3733 -7537.1321 302.6862 -9336.5054 -7553.8582 300.6871 62.5956 119.1212 30746.9539 -12.7675 38.7810
ENERGY: 1200000 3.4818 13.2177 4.0998 0.0000 -10768.2236 1354.6185 0.0000 0.0000 1779.9713 -7612.8345 299.4225 -9392.8058 -7555.5744 299.8831 -1061.5466 -1016.5992 30682.9689 -14.2178 33.5567
ENERGY: 1500000 3.3523 5.2190 5.6268 0.0000 -10939.1043 1528.0186 0.0000 0.0000 1783.1323 -7613.7553 299.9542 -9396.8876 -7560.9257 299.0520 362.2946 394.8829 30471.0261 -25.1866 22.9066
TCL: Running FEP window  18: Lambda1 0.1499999999999997 Lambda2 0.09999999999999969 [dLambda -0.05 ]
TCL: Setting parameter firsttimestep to 0
TCL: Setting parameter alchLambda to 0.1499999999999997
Info: NONBONDED TABLE R-SQUARED SPACING: 0.0625
Info: NONBONDED TABLE SIZE: 705 POINTS
TCL: Setting parameter alchLambda2 to 0.09999999999999969
Info: NONBONDED TABLE R-SQUARED SPACING: 0.0625
Info: NONBONDED TABLE SIZE: 705 POINTS
TCL: Running for 1500000 steps
ETITLE: TS BOND ANGLE DIHED IMPRP ELECT VDW BOUNDARY MISC KINETIC TOTAL TEMP POTENTIAL TOTALAVG TEMPAVG PRESSURE GPRESSURE VOLUME PRESSAVG GPRESSAVG
ENERGY: 0 3.3523 5.2190 5.6268 0.0000 -10939.1036 1528.1703 0.0000 0.0000 1782.2206 -7614.5146 299.8008 -9396.7352 -7614.5146 299.8008 297.7929 391.9188 30471.0261 297.7929 391.9188
ENERGY: 300000 1.6305 10.6937 4.6392 0.0000 -10903.0515 1518.1871 0.0000 0.0000 1806.0497 -7561.8512 303.8093 -9367.9009 -7578.4751 301.1945 533.8861 586.5093 30416.2151 227.0502 290.6492
ENERGY: 600000 1.9033 7.9577 4.8699 0.0000 -10703.1634 1419.1534 0.0000 0.0000 1772.4392 -7496.8400 298.1554 -9269.2792 -7566.9047 300.2174 -314.2773 -266.3100 30927.0410 16.1749 82.6867
ENERGY: 900000 2.1517 9.1223 5.2978 0.0000 -10835.9756 1473.0004 0.0000 0.0000 1755.9414 -7590.4620 295.3802 -9346.4034 -7556.4749 300.9014 123.6937 217.7639 30177.4778 75.8296 147.6060
ENERGY: 1200000 1.0717 11.7131 4.1902 0.0000 -10750.0331 1405.7193 0.0000 0.0000 1806.7499 -7520.5890 303.9271 -9327.3388 -7559.0043 300.2797 -515.6649 -485.4180 31028.5816 3.2699 64.1130
ENERGY: 1500000 2.1385 10.3840 4.6610 0.0000 -10833.4017 1522.1374 0.0000 0.0000 1733.7052 -7560.3755 291.6397 -9294.0808 -7549.3723 300.8224 609.2114 669.6934 30465.3693 87.4705 144.8899
TCL: Running FEP window  19: Lambda1 0.09999999999999969 Lambda2 0.049999999999999684 [dLambda -0.05 ]
TCL: Setting parameter firsttimestep to 0
TCL: Setting parameter alchLambda to 0.09999999999999969
Info: NONBONDED TABLE R-SQUARED SPACING: 0.0625
Info: NONBONDED TABLE SIZE: 705 POINTS
TCL: Setting parameter alchLambda2 to 0.049999999999999684
Info: NONBONDED TABLE R-SQUARED SPACING: 0.0625
Info: NONBONDED TABLE SIZE: 705 POINTS
TCL: Running for 1500000 steps
ETITLE: TS BOND ANGLE DIHED IMPRP ELECT VDW BOUNDARY MISC KINETIC TOTAL TEMP POTENTIAL TOTALAVG TEMPAVG PRESSURE GPRESSURE VOLUME PRESSAVG GPRESSAVG
ENERGY: 0 2.1385 10.3840 4.6610 0.0000 -10833.4015 1522.3777 0.0000 0.0000 1732.7839 -7561.0564 291.4847 -9293.8403 -7561.0564 291.4847 576.2712 666.4402 30465.3693 576.2712 666.4402
ENERGY: 300000 4.6438 12.4251 5.4946 0.0000 -10943.4717 1534.5155 0.0000 0.0000 1745.9300 -7640.4628 293.6961 -9386.3928 -7543.7201 298.9656 371.1826 347.3646 30359.8630 302.8997 329.7312
ENERGY: 600000 2.1416 12.6801 4.0059 0.0000 -10818.0525 1453.5651 0.0000 0.0000 1747.4938 -7598.1660 293.9592 -9345.6598 -7544.4045 298.4243 -167.5846 -153.2727 30977.5592 55.2646 98.7984
ENERGY: 900000 2.2496 9.1147 4.5797 0.0000 -10672.3597 1443.7448 0.0000 0.0000 1813.5687 -7399.1021 305.0741 -9212.6708 -7539.6397 299.5845 173.9641 257.8976 30758.9290 -1.0488 50.7227
ENERGY: 1200000 1.8443 5.9968 3.9530 0.0000 -10897.5843 1531.5364 0.0000 0.0000 1833.8608 -7520.3930 308.4876 -9354.2538 -7531.0026 300.5746 979.3180 1052.7220 30015.0041 11.6484 66.5843
ENERGY: 1500000 0.8929 10.2766 4.6275 0.0000 -10931.0096 1480.7164 0.0000 0.0000 1814.5822 -7619.9140 305.2446 -9434.4962 -7541.5662 300.4973 -243.4049 -187.2577 30747.5774 -31.2497 27.2884
TCL: Running FEP window  20: Lambda1 0.049999999999999684 Lambda2 0.0    [dLambda -0.049999999999999684]
TCL: Setting parameter firsttimestep to 0
TCL: Setting parameter alchLambda to 0.049999999999999684
Info: NONBONDED TABLE R-SQUARED SPACING: 0.0625
Info: NONBONDED TABLE SIZE: 705 POINTS
TCL: Setting parameter alchLambda2 to 0.0
Info: NONBONDED TABLE R-SQUARED SPACING: 0.0625
Info: NONBONDED TABLE SIZE: 705 POINTS
TCL: Running for 1500000 steps
ETITLE: TS BOND ANGLE DIHED IMPRP ELECT VDW BOUNDARY MISC KINETIC TOTAL TEMP POTENTIAL TOTALAVG TEMPAVG PRESSURE GPRESSURE VOLUME PRESSAVG GPRESSAVG
ENERGY: 0 0.8929 10.2766 4.6275 0.0000 -10931.0095 1480.4880 0.0000 0.0000 1813.6922 -7621.0323 305.0949 -9434.7245 -7621.0323 305.0949 -282.3532 -191.8713 30747.5774 -282.3532 -191.8713
ENERGY: 300000 1.3767 9.7680 4.6538 0.0000 -10803.2199 1436.1302 0.0000 0.0000 1780.3356 -7570.9557 299.4837 -9351.2913 -7569.6774 301.0250 -153.1273 -95.4374 30465.1255 -287.1184 -232.1195
ENERGY: 600000 2.3041 8.0940 4.8986 0.0000 -10640.7629 1322.7274 0.0000 0.0000 1791.2083 -7511.5304 301.3127 -9302.7387 -7545.9872 300.8377 -1060.2381 -947.9666 30561.4213 -419.9527 -349.5811
ENERGY: 900000 2.4699 7.6210 4.7425 0.0000 -10766.8681 1460.0901 0.0000 0.0000 1803.7891 -7488.1555 303.4290 -9291.9445 -7553.4478 300.9734 175.1042 194.2646 30686.7456 -260.0457 -197.3497
ENERGY: 1200000 1.4580 8.7526 4.7492 0.0000 -10874.9490 1546.0281 0.0000 0.0000 1794.5534 -7519.4077 301.8754 -9313.9611 -7549.6631 300.8998 698.4572 746.6100 30746.8017 -223.0922 -161.7433
ENERGY: 1500000 0.8195 8.3786 4.2043 0.0000 -10908.8011 1515.1439 0.0000 0.0000 1797.5084 -7582.7464 302.3725 -9380.2548 -7556.4404 300.7449 234.7130 331.9778 30544.2493 -255.0144 -187.5122
TCL: Exiting due to exit command.
