Info: SIMULATION PARAMETERS:
Info: TIMESTEP               2
Info: NUMBER OF STEPS        0
Info: STEPS PER CYCLE        10
Info: PERIODIC CELL BASIS 1  30.7898 0 0
Info: PERIODIC CELL BASIS 2  0 31.1638 0
Info: PERIODIC CELL BASIS 3  0 0 31.4384
Info: PERIODIC CELL CENTER   0 0 0
Info: WRAPPING WATERS AROUND PERIODIC BOUNDARIES ON OUTPUT.
Info: WRAPPING ALL CLUSTERS AROUND PERIODIC BOUNDARIES ON OUTPUT.
Info: FIRST LDB TIMESTEP     50
Info: LAST LDB TIMESTEP     -1
Info: HOM BACKGROUND SCALING 1
Info: PME BACKGROUND SCALING 1
Info: MIN ATOMS PER PATCH    40
Info: EMPTY PATCH LOAD       40 ATOMS
Info: VELOCITY FILE          mobley_3682850_equil.vel
Info: CENTER OF MASS MOVING INITIALLY? NO
Info: DIELECTRIC             1
Info: EXCLUDE                SCALED ONE-FOUR
Info: 1-4 ELECTROSTATICS SCALED BY 0.833333
Info: MODIFIED 1-4 VDW PARAMETERS WILL BE USED
Info: DCD FILENAME           mobley_3682850_prod.dcd
Info: DCD FREQUENCY          100000
Info: DCD FIRST STEP         100000
Info: DCD FILE WILL CONTAIN UNIT CELL DATA
Info: XST FILENAME           mobley_3682850_prod.xst
Info: XST FREQUENCY          100000
Info: NO VELOCITY DCD OUTPUT
Info: NO FORCE DCD OUTPUT
Info: OUTPUT FILENAME        mobley_3682850_prod
Info: BINARY OUTPUT FILES WILL BE USED
Info: RESTART FILENAME       mobley_3682850_prod.restart
Info: RESTART FREQUENCY      100000
Info: BINARY RESTART FILES WILL BE USED
Info: CUTOFF                 9
Info: PAIRLIST DISTANCE      11
Info: PAIRLIST SHRINK RATE   0.01
Info: PAIRLIST GROW RATE     0.01
Info: PAIRLIST TRIGGER       0.3
Info: PAIRLISTS PER CYCLE    2
Info: PAIRLISTS ENABLED
Info: MARGIN                 2
Info: HYDROGEN GROUP CUTOFF  2.5
Info: PATCH DIMENSION        15.5
Info: ENERGY OUTPUT STEPS    100000
Info: ENERGY EVALUATION STEPS    100000
Info: OUTPUT ENERGY PRECISION 4
Info: CROSSTERM ENERGY INCLUDED IN DIHEDRAL
Info: TIMING OUTPUT STEPS    1000000
Info: PRESSURE OUTPUT STEPS  100000
Info: ALCHEMICAL FEP ON
Info: FEP CURRENT LAMBDA VALUE     1
Info: FEP COMPARISON LAMBDA VALUE  0.95
Info: FEP INTRA-ALCHEMICAL NON-BONDED INTERACTIONS WILL BE RETAINED
Info: FEP INTRA-ALCHEMICAL BONDED INTERACTIONS WILL BE RETAINED
Info: FEP VDW SHIFTING COEFFICIENT 5
Info: FEP ELEC. ACTIVE FOR ANNIHILATED PARTICLES BETWEEN LAMBDA = 0 AND LAMBDA = 0.5
Info: FEP ELEC. ACTIVE FOR EXNIHILATED PARTICLES BETWEEN LAMBDA = 0.5 AND LAMBDA = 1
Info: FEP VDW ACTIVE FOR ANNIHILATED PARTICLES BETWEEN LAMBDA = 0 AND LAMBDA = 1
Info: FEP VDW ACTIVE FOR EXNIHILATED PARTICLES BETWEEN LAMBDA = 0 AND LAMBDA = 1
Info: FEP BOND ACTIVE FOR ANNIHILATED PARTICLES BETWEEN LAMBDA = 1 AND LAMBDA = 1
Info: FEP BOND ACTIVE FOR EXNIHILATED PARTICLES BETWEEN LAMBDA = 0 AND LAMBDA = 0
Info: LANGEVIN DYNAMICS ACTIVE
Info: LANGEVIN TEMPERATURE   300
Info: LANGEVIN USING BBK INTEGRATOR
Info: LANGEVIN DAMPING COEFFICIENT IS 1 INVERSE PS
Info: LANGEVIN DYNAMICS APPLIED TO HYDROGENS
Info: LANGEVIN PISTON PRESSURE CONTROL ACTIVE
Info:        TARGET PRESSURE IS 1.01325 BAR
Info:     OSCILLATION PERIOD IS 50 FS
Info:             DECAY TIME IS 25 FS
Info:     PISTON TEMPERATURE IS 300 K
Info:       PRESSURE CONTROL IS GROUP-BASED
Info:    INITIAL STRAIN RATE IS -0.000239674 -0.000239674 -0.000239674
Info:       CELL FLUCTUATION IS ISOTROPIC
Info: PARTICLE MESH EWALD (PME) ACTIVE
Info: PME TOLERANCE               1e-06
Info: PME EWALD COEFFICIENT       0.348832
Info: PME INTERPOLATION ORDER     4
Info: PME GRID DIMENSIONS         32 32 32
Info: PME MAXIMUM GRID SPACING    1
Info: PME CALCULATION WILL BE PERFORMED ON GPU
Info: FULL ELECTROSTATIC EVALUATION FREQUENCY      2
Info: USING VERLET I (r-RESPA) MTS SCHEME.
Info: C1 SPLITTING OF LONG RANGE ELECTROSTATICS
Info: PLACING ATOMS IN PATCHES BY HYDROGEN GROUPS
Info: RIGID BONDS TO HYDROGEN : ALL
Info:         ERROR TOLERANCE : 1e-08
Info:          MAX ITERATIONS : 100
Info: RIGID WATER USING SETTLE ALGORITHM
Info: RANDOM NUMBER SEED     1743605127
Info: USE HYDROGEN BONDS?    NO
Info: Using AMBER format force field!
Info: AMBER PARM FILE        mobley_3682850.prmtop
Info: COORDINATE PDB         mobley_3682850.pdb
Info: Exclusions will be read from PARM file!
Info: SCNB (VDW SCALING)     2
Info: USING ARITHMETIC MEAN TO COMBINE L-J SIGMA PARAMETERS
Info: BINARY COORDINATES     mobley_3682850_equil.coor
Info: SUMMARY OF PARAMETERS:
Info: 6 BONDS
Info: 7 ANGLES
Info:   7 HARMONIC
Info:   0 COSINE-BASED
Info: 11 DIHEDRAL
Info: 0 IMPROPER
Info: 0 CROSSTERM
Info: 0 VDW
Info: 21 VDW_PAIRS
Info: 0 NBTHOLE_PAIRS
Info: To read alchdata from file: mobley_3682850.pdb
Info: To read alchflag data from column: 5
Info: STRUCTURE SUMMARY:
Info: 2936 ATOMS
Info: 2936 BONDS
Info: 33 ANGLES
Info: 61 DIHEDRALS
Info: 0 IMPROPERS
Info: 0 CROSSTERMS
Info: 3014 EXCLUSIONS
Info: 2929 RIGID BONDS
Info: ALCH: 0 ATOMS TO DISAPPEAR IN FINAL STATE
Info: ALCH: 17 ATOMS TO APPEAR IN FINAL STATE
Info: 5879 DEGREES OF FREEDOM
Info: 980 HYDROGEN GROUPS
Info: 3 ATOMS IN LARGEST HYDROGEN GROUP
Info: 980 MIGRATION GROUPS
Info: 3 ATOMS IN LARGEST MIGRATION GROUP
Info: TOTAL MASS = 17627.7 amu
Info: TOTAL CHARGE = 0.000299945 e
Info: MASS DENSITY = 0.970369 g/cm^3
Info: ATOM DENSITY = 0.097328 atoms/A^3
Info: ADDED 0 IMPLICIT EXCLUSIONS
Info: NONBONDED TABLE R-SQUARED SPACING: 0.0625
Info: NONBONDED TABLE SIZE: 705 POINTS
Info: REMOVING COM VELOCITY 0.136974 -0.162737 -0.076003
Info: Use 3D box decompostion in PME FFT.
Info: Updated CUDA force table with 4096 elements.
Info: Updated CUDA LJ table with 6 x 6 elements.
Info: Found 20 unique exclusion lists needing 52 bytes
TCL: Running for 1500000 steps
ETITLE: TS BOND ANGLE DIHED IMPRP ELECT VDW BOUNDARY MISC KINETIC TOTAL TEMP POTENTIAL TOTALAVG TEMPAVG PRESSURE GPRESSURE VOLUME PRESSAVG GPRESSAVG
ENERGY: 0 3.6819 7.3167 5.2301 0.0000 -10778.1615 1524.8163 0.0000 0.0000 1734.9294 -7502.1870 297.0084 -9237.1164 -7502.1870 297.0084 696.8487 775.2616 30166.0368 696.8487 775.2616
ENERGY: 300000 2.8500 7.3147 6.2249 0.0000 -10745.9400 1427.1451 0.0000 0.0000 1756.9620 -7545.4432 300.7802 -9302.4052 -7487.9497 301.0632 -318.3726 -263.8943 30264.3878 142.8827 217.9637
ENERGY: 600000 1.2211 10.2774 5.9667 0.0000 -10774.2156 1471.3531 0.0000 0.0000 1756.3074 -7529.0900 300.6682 -9285.3973 -7496.2444 299.7820 26.0829 87.5025 30224.3137 160.7304 229.6503
ENERGY: 900000 4.4742 7.7066 5.8818 0.0000 -10605.2968 1441.2349 0.0000 0.0000 1762.6941 -7383.3052 301.7615 -9145.9993 -7471.8678 300.0855 178.1338 189.5361 30374.3233 60.4071 121.7726
ENERGY: 1200000 2.6324 6.6713 6.1684 0.0000 -10672.3040 1521.9478 0.0000 0.0000 1771.2296 -7363.6544 303.2228 -9134.8841 -7447.9478 300.8037 689.3102 713.1020 30614.4560 131.8493 189.6335
ENERGY: 1500000 1.2079 7.3990 6.0274 0.0000 -10644.1731 1392.0968 0.0000 0.0000 1782.4159 -7455.0260 305.1378 -9237.4419 -7448.0927 300.8463 -76.9102 -91.4490 30109.8211 147.0376 203.8536
TCL: Running FEP window   2: Lambda1 0.95   Lambda2 0.8999999999999999 [dLambda -0.050000000000000044]
TCL: Setting parameter firsttimestep to 0
TCL: Setting parameter alchLambda to 0.95
Info: NONBONDED TABLE R-SQUARED SPACING: 0.0625
Info: NONBONDED TABLE SIZE: 705 POINTS
TCL: Setting parameter alchLambda2 to 0.8999999999999999
Info: NONBONDED TABLE R-SQUARED SPACING: 0.0625
Info: NONBONDED TABLE SIZE: 705 POINTS
TCL: Running for 1500000 steps
ETITLE: TS BOND ANGLE DIHED IMPRP ELECT VDW BOUNDARY MISC KINETIC TOTAL TEMP POTENTIAL TOTALAVG TEMPAVG PRESSURE GPRESSURE VOLUME PRESSAVG GPRESSAVG
ENERGY: 0 1.2079 7.3990 6.0274 0.0000 -10643.7896 1392.2053 0.0000 0.0000 1781.5376 -7455.4124 304.9874 -9236.9500 -7455.4124 304.9874 -189.8166 -102.0219 30109.8211 -189.8166 -102.0219
ENERGY: 300000 3.2980 8.4766 5.6940 0.0000 -10715.7201 1510.0818 0.0000 0.0000 1758.2664 -7429.9034 301.0035 -9188.1698 -7451.2739 301.9511 565.8270 696.1921 30063.6851 219.6381 314.1286
ENERGY: 600000 2.3240 8.5746 5.7045 0.0000 -10674.9264 1441.4232 0.0000 0.0000 1724.4390 -7492.4611 295.2125 -9216.9001 -7459.5990 300.4918 208.3324 263.6346 30085.5539 -20.9261 63.3412
ENERGY: 900000 0.5751 7.6242 5.7575 0.0000 -10563.3699 1381.1066 0.0000 0.0000 1744.4231 -7423.8834 298.6337 -9168.3065 -7440.3460 300.6394 -473.2894 -393.8929 30579.3065 -36.0845 47.1500
ENERGY: 1200000 1.9033 9.1524 7.3144 0.0000 -10569.7110 1364.3358 0.0000 0.0000 1734.5243 -7452.4808 296.9390 -9187.0051 -7437.9676 300.8987 -723.0047 -711.1143 30760.5777 -85.1760 -6.7839
ENERGY: 1500000 1.6437 6.4758 7.4614 0.0000 -10571.0046 1425.3899 0.0000 0.0000 1724.6818 -7405.3519 295.2541 -9130.0338 -7440.1700 300.1939 147.3405 128.7833 30528.0664 -60.4456 13.7968
TCL: Running FEP window   3: Lambda1 0.8999999999999999 Lambda2 0.8499999999999999 [dLambda -0.050000000000000044]
TCL: Setting parameter firsttimestep to 0
TCL: Setting parameter alchLambda to 0.8999999999999999
Info: NONBONDED TABLE R-SQUARED SPACING: 0.0625
Info: NONBONDED TABLE SIZE: 705 POINTS
TCL: Setting parameter alchLambda2 to 0.8499999999999999
Info: NONBONDED TABLE R-SQUARED SPACING: 0.0625
Info: NONBONDED TABLE SIZE: 705 POINTS
TCL: Running for 1500000 steps
ETITLE: TS BOND ANGLE DIHED IMPRP ELECT VDW BOUNDARY MISC KINETIC TOTAL TEMP POTENTIAL TOTALAVG TEMPAVG PRESSURE GPRESSURE VOLUME PRESSAVG GPRESSAVG
ENERGY: 0 1.6437 6.4758 7.4614 0.0000 -10569.8701 1424.2249 0.0000 0.0000 1723.7518 -7406.3125 295.0949 -9130.0643 -7406.3125 295.0949 10.1817 104.2014 30528.0664 10.1817 104.2014
ENERGY: 300000 2.2639 8.1562 6.5438 0.0000 -10586.5012 1401.8162 0.0000 0.0000 1760.7971 -7406.9239 301.4368 -9167.7210 -7426.5326 299.7136 156.4690 216.5763 29928.6809 -45.1076 31.9018
ENERGY: 600000 1.8486 10.5382 5.9436 0.0000 -10630.1517 1406.3544 0.0000 0.0000 1694.5348 -7510.9321 290.0931 -9205.4669 -7453.1685 298.2350 -169.1285 -138.9432 30253.3321 -144.5119 -68.7475
ENERGY: 900000 4.3818 9.4014 6.1368 0.0000 -10571.1789 1393.4440 0.0000 0.0000 1706.3757 -7451.4391 292.1202 -9157.8148 -7447.0870 297.6457 -149.8255 -29.2776 29963.5651 -172.9238 -99.9596
ENERGY: 1200000 2.6563 10.3342 6.2420 0.0000 -10562.8337 1361.1342 0.0000 0.0000 1783.2789 -7399.1881 305.2855 -9182.4670 -7438.5136 298.8598 -448.4349 -399.8287 30183.7295 -177.1558 -112.0160
ENERGY: 1500000 1.4534 7.3511 5.8148 0.0000 -10686.8793 1481.8262 0.0000 0.0000 1766.5305 -7423.9032 302.4183 -9190.4337 -7442.9646 298.8169 336.5697 458.5859 30240.1963 -82.7364 -11.6885
TCL: Running FEP window   4: Lambda1 0.8499999999999999 Lambda2 0.7999999999999998 [dLambda -0.050000000000000044]
TCL: Setting parameter firsttimestep to 0
TCL: Setting parameter alchLambda to 0.8499999999999999
Info: NONBONDED TABLE R-SQUARED SPACING: 0.0625
Info: NONBONDED TABLE SIZE: 705 POINTS
TCL: Setting parameter alchLambda2 to 0.7999999999999998
Info: NONBONDED TABLE R-SQUARED SPACING: 0.0625
Info: NONBONDED TABLE SIZE: 705 POINTS
TCL: Running for 1500000 steps
ETITLE: TS BOND ANGLE DIHED IMPRP ELECT VDW BOUNDARY MISC KINETIC TOTAL TEMP POTENTIAL TOTALAVG TEMPAVG PRESSURE GPRESSURE VOLUME PRESSAVG GPRESSAVG
ENERGY: 0 1.4534 7.3511 5.8148 0.0000 -10685.1183 1481.2549 0.0000 0.0000 1765.6709 -7423.5732 302.2711 -9189.2441 -7423.5732 302.2711 354.5560 444.1761 30240.1963 354.5560 444.1761
ENERGY: 300000 1.9563 9.6571 6.2454 0.0000 -10830.0109 1520.6958 0.0000 0.0000 1704.5304 -7586.9259 291.8043 -9291.4562 -7450.2612 298.4904 263.8139 373.8776 29939.0121 44.1295 97.0174
ENERGY: 600000 1.7104 5.8270 5.8452 0.0000 -10688.8585 1457.0749 0.0000 0.0000 1827.6945 -7390.7064 312.8892 -9218.4009 -7423.9562 301.3053 168.1082 220.1670 30400.3048 151.0904 204.3900
ENERGY: 900000 2.4749 4.9985 5.1085 0.0000 -10852.6314 1571.3580 0.0000 0.0000 1805.1246 -7463.5669 309.0254 -9268.6915 -7419.9896 301.7872 1012.2010 1029.9840 29891.2301 114.8316 163.4006
ENERGY: 1200000 1.0943 10.8577 6.2487 0.0000 -10714.9443 1488.5012 0.0000 0.0000 1770.5152 -7437.7271 303.1004 -9208.2423 -7418.3475 301.9965 618.8547 658.9670 29960.2699 141.8792 188.7202
ENERGY: 1500000 2.3443 7.3372 6.5046 0.0000 -10634.5195 1430.6603 0.0000 0.0000 1749.2701 -7438.4031 299.4634 -9187.6732 -7426.2786 301.7221 -45.5231 26.5731 30327.3912 181.2244 233.7921
TCL: Running FEP window   5: Lambda1 0.7999999999999998 Lambda2 0.7499999999999998 [dLambda -0.050000000000000044]
TCL: Setting parameter firsttimestep to 0
TCL: Setting parameter alchLambda to 0.7999999999999998
Info: NONBONDED TABLE R-SQUARED SPACING: 0.0625
Info: NONBONDED TABLE SIZE: 705 POINTS
TCL: Setting parameter alchLambda2 to 0.7499999999999998
Info: NONBONDED TABLE R-SQUARED SPACING: 0.0625
Info: NONBONDED TABLE SIZE: 705 POINTS
TCL: Running for 1500000 steps
ETITLE: TS BOND ANGLE DIHED IMPRP ELECT VDW BOUNDARY MISC KINETIC TOTAL TEMP POTENTIAL TOTALAVG TEMPAVG PRESSURE GPRESSURE VOLUME PRESSAVG GPRESSAVG
ENERGY: 0 2.3443 7.3372 6.5046 0.0000 -10633.2265 1430.0309 0.0000 0.0000 1748.4395 -7438.5701 299.3212 -9187.0095 -7438.5701 299.3212 -71.6371 13.7198 30327.3912 -71.6371 13.7198
ENERGY: 300000 1.1085 5.1843 5.4212 0.0000 -10673.7188 1484.9619 0.0000 0.0000 1803.3269 -7373.7161 308.7176 -9177.0430 -7461.7723 299.5339 712.0919 787.3195 29897.7243 142.0101 226.4289
ENERGY: 600000 3.9742 6.8488 5.9208 0.0000 -10633.4797 1425.8602 0.0000 0.0000 1715.9600 -7474.9157 293.7610 -9190.8757 -7463.0293 300.1395 -108.9304 -95.1347 30068.5400 -17.8304 36.5760
ENERGY: 900000 5.7613 8.5004 5.7058 0.0000 -10546.9891 1368.0011 0.0000 0.0000 1786.9065 -7372.1140 305.9065 -9159.0205 -7452.5829 300.6181 -396.8433 -426.4936 30365.4812 -174.8826 -135.8277
ENERGY: 1200000 1.7910 9.9732 5.8373 0.0000 -10566.2333 1395.6470 0.0000 0.0000 1833.7185 -7319.2663 313.9204 -9152.9848 -7437.4331 302.5404 107.0418 98.8174 30157.7026 -149.6501 -113.9197
ENERGY: 1500000 0.6550 5.0486 5.3199 0.0000 -10604.4830 1388.5933 0.0000 0.0000 1735.7142 -7469.1521 297.1428 -9204.8663 -7435.8689 301.4785 -361.1386 -316.1972 30391.6285 -89.8785 -46.4189
TCL: Running FEP window   6: Lambda1 0.7499999999999998 Lambda2 0.6999999999999997 [dLambda -0.050000000000000044]
TCL: Setting parameter firsttimestep to 0
TCL: Setting parameter alchLambda to 0.7499999999999998
Info: NONBONDED TABLE R-SQUARED SPACING: 0.0625
Info: NONBONDED TABLE SIZE: 705 POINTS
TCL: Setting parameter alchLambda2 to 0.6999999999999997
Info: NONBONDED TABLE R-SQUARED SPACING: 0.0625
Info: NONBONDED TABLE SIZE: 705 POINTS
TCL: Running for 1500000 steps
ETITLE: TS BOND ANGLE DIHED IMPRP ELECT VDW BOUNDARY MISC KINETIC TOTAL TEMP POTENTIAL TOTALAVG TEMPAVG PRESSURE GPRESSURE VOLUME PRESSAVG GPRESSAVG
ENERGY: 0 0.6550 5.0486 5.3199 0.0000 -10602.8434 1387.8469 0.0000 0.0000 1734.8565 -7469.1165 296.9959 -9203.9730 -7469.1165 296.9959 -400.6301 -333.7721 30391.6285 -400.6301 -333.7721
ENERGY: 300000 4.8639 7.1606 6.6740 0.0000 -10649.1822 1427.3528 0.0000 0.0000 1745.4298 -7457.7010 298.8060 -9203.1308 -7470.9730 296.2374 -31.4688 27.3708 30379.4212 -23.9133 -7.5011
ENERGY: 600000 0.6260 7.3631 5.3711 0.0000 -10645.0665 1472.6912 0.0000 0.0000 1766.4755 -7392.5395 302.4089 -9159.0150 -7450.8284 298.7389 573.2855 612.6619 30005.9806 238.6201 267.7254
ENERGY: 900000 2.7842 7.2449 6.2510 0.0000 -10509.0433 1318.6906 0.0000 0.0000 1754.0725 -7420.0002 300.2856 -9174.0727 -7458.8237 298.9553 -718.2693 -674.3415 30280.9428 92.1452 135.0700
ENERGY: 1200000 2.5905 6.1100 5.4039 0.0000 -10565.6059 1379.4475 0.0000 0.0000 1755.4840 -7416.5700 300.5272 -9172.0540 -7459.0440 298.2558 -361.2821 -329.4114 30370.2646 -3.2342 38.7275
ENERGY: 1500000 2.6503 6.0801 6.1092 0.0000 -10461.5961 1317.7277 0.0000 0.0000 1715.2427 -7413.7861 293.6382 -9129.0288 -7465.4021 297.5712 -1092.9931 -1045.7158 30973.1841 -121.6020 -76.9235
TCL: Running FEP window   7: Lambda1 0.6999999999999997 Lambda2 0.6499999999999997 [dLambda -0.050000000000000044]
TCL: Setting parameter firsttimestep to 0
TCL: Setting parameter alchLambda to 0.6999999999999997
Info: NONBONDED TABLE R-SQUARED SPACING: 0.0625
Info: NONBONDED TABLE SIZE: 705 POINTS
TCL: Setting parameter alchLambda2 to 0.6499999999999997
Info: NONBONDED TABLE R-SQUARED SPACING: 0.0625
Info: NONBONDED TABLE SIZE: 705 POINTS
TCL: Running for 1500000 steps
ETITLE: TS BOND ANGLE DIHED IMPRP ELECT VDW BOUNDARY MISC KINETIC TOTAL TEMP POTENTIAL TOTALAVG TEMPAVG PRESSURE GPRESSURE VOLUME PRESSAVG GPRESSAVG
ENERGY: 0 2.6503 6.0801 6.1092 0.0000 -10460.5133 1317.6682 0.0000 0.0000 1714.3974 -7413.6082 293.4934 -9128.0055 -7413.6082 293.4934 -1136.9836 -1053.1072 30973.1841 -1136.9836 -1053.1072
ENERGY: 300000 0.3994 7.1938 5.7776 0.0000 -10817.7803 1500.4142 0.0000 0.0000 1743.8529 -7560.1424 298.5360 -9303.9953 -7483.5045 296.3283 481.1850 494.3932 29786.0291 -91.9610 -45.0096
ENERGY: 600000 1.1211 7.3257 5.9808 0.0000 -10672.6966 1408.2181 0.0000 0.0000 1737.1426 -7512.9082 297.3873 -9250.0508 -7468.1422 298.3720 -293.0108 -180.8509 30141.4121 -64.1905 -8.5562
ENERGY: 900000 0.9439 6.6963 5.9910 0.0000 -10615.5073 1410.1114 0.0000 0.0000 1773.4301 -7418.3345 303.5995 -9191.7647 -7447.2526 300.4373 164.2325 133.4168 29901.8729 -44.7238 7.0944
ENERGY: 1200000 0.8362 10.3969 6.8366 0.0000 -10699.3089 1393.6807 0.0000 0.0000 1752.7821 -7534.7764 300.0647 -9287.5585 -7456.2347 300.3003 -495.1948 -406.3464 29913.3122 -68.3035 -11.0782
ENERGY: 1500000 1.9314 6.7889 6.0833 0.0000 -10684.9784 1461.0371 0.0000 0.0000 1747.6740 -7461.4637 299.1902 -9209.1377 -7449.5277 300.2880 351.4895 478.5913 29861.5830 51.4140 112.3181
TCL: Running FEP window   8: Lambda1 0.6499999999999997 Lambda2 0.5999999999999996 [dLambda -0.050000000000000044]
TCL: Setting parameter firsttimestep to 0
TCL: Setting parameter alchLambda to 0.6499999999999997
Info: NONBONDED TABLE R-SQUARED SPACING: 0.0625
Info: NONBONDED TABLE SIZE: 705 POINTS
TCL: Setting parameter alchLambda2 to 0.5999999999999996
Info: NONBONDED TABLE R-SQUARED SPACING: 0.0625
Info: NONBONDED TABLE SIZE: 705 POINTS
TCL: Running for 1500000 steps
ETITLE: TS BOND ANGLE DIHED IMPRP ELECT VDW BOUNDARY MISC KINETIC TOTAL TEMP POTENTIAL TOTALAVG TEMPAVG PRESSURE GPRESSURE VOLUME PRESSAVG GPRESSAVG
ENERGY: 0 1.9314 6.7889 6.0833 0.0000 -10684.8291 1461.6233 0.0000 0.0000 1746.7988 -7461.6035 299.0404 -9208.4023 -7461.6035 299.0404 395.4219 479.1004 29861.5830 395.4219 479.1004
ENERGY: 300000 2.8090 6.7603 5.5898 0.0000 -10539.0345 1353.8291 0.0000 0.0000 1771.9225 -7398.1238 303.3414 -9170.0463 -7391.7352 302.2215 -571.5276 -537.0503 30260.5153 -165.8616 -114.1139
ENERGY: 600000 0.4107 7.4577 6.6408 0.0000 -10690.1865 1452.6299 0.0000 0.0000 1763.6109 -7459.4365 301.9185 -9223.0474 -7404.2223 300.6306 -5.1533 79.5991 30382.3353 -119.5018 -60.6230
ENERGY: 900000 3.8317 7.3354 5.6755 0.0000 -10638.5775 1454.5029 0.0000 0.0000 1790.8188 -7376.4131 306.5763 -9167.2319 -7406.0190 301.4741 111.7969 203.2099 30211.5811 -9.9685 44.6405
ENERGY: 1200000 1.5003 8.8059 6.6104 0.0000 -10620.3172 1389.9156 0.0000 0.0000 1773.3566 -7440.1283 303.5869 -9213.4849 -7411.6251 300.8863 -415.4409 -393.6084 30428.3444 -86.2693 -34.5419
ENERGY: 1500000 1.3595 5.2511 6.6260 0.0000 -10709.4497 1494.9942 0.0000 0.0000 1768.8067 -7432.4122 302.8080 -9201.2189 -7419.1179 300.3104 538.1439 612.9202 30168.6158 -64.4722 -14.8118
TCL: Running FEP window   9: Lambda1 0.5999999999999996 Lambda2 0.5499999999999996 [dLambda -0.050000000000000044]
TCL: Setting parameter firsttimestep to 0
TCL: Setting parameter alchLambda to 0.5999999999999996
Info: NONBONDED TABLE R-SQUARED SPACING: 0.0625
Info: NONBONDED TABLE SIZE: 705 POINTS
TCL: Setting parameter alchLambda2 to 0.5499999999999996
Info: NONBONDED TABLE R-SQUARED SPACING: 0.0625
Info: NONBONDED TABLE SIZE: 705 POINTS
TCL: Running for 1500000 steps
ETITLE: TS BOND ANGLE DIHED IMPRP ELECT VDW BOUNDARY MISC KINETIC TOTAL TEMP POTENTIAL TOTALAVG TEMPAVG PRESSURE GPRESSURE VOLUME PRESSAVG GPRESSAVG
ENERGY: 0 1.3595 5.2511 6.6260 0.0000 -10708.9136 1494.5189 0.0000 0.0000 1767.8974 -7433.2608 302.6523 -9201.1582 -7433.2608 302.6523 517.1502 602.6288 30168.6158 517.1502 602.6288
ENERGY: 300000 1.4945 6.9380 5.6052 0.0000 -10657.5709 1436.7116 0.0000 0.0000 1748.0462 -7458.7754 299.2539 -9206.8215 -7465.9401 298.4592 260.9941 345.5024 29710.1271 -2.5821 68.6435
ENERGY: 600000 1.4271 7.4108 5.9100 0.0000 -10673.3983 1455.8746 0.0000 0.0000 1768.6929 -7434.0829 302.7885 -9202.7759 -7450.7520 299.5955 426.9249 437.2822 29796.0245 102.7396 157.3987
ENERGY: 900000 1.1437 6.3065 6.2776 0.0000 -10597.1387 1389.2824 0.0000 0.0000 1785.6554 -7408.4730 305.6924 -9194.1284 -7456.6930 299.7169 -428.6650 -352.8425 30383.7643 -132.3243 -75.6745
ENERGY: 1200000 4.0798 6.6484 5.6132 0.0000 -10591.6661 1428.1252 0.0000 0.0000 1749.2649 -7397.9345 299.4625 -9147.1995 -7463.2899 299.6676 -97.4343 -91.4025 30317.4959 -74.8507 -16.2707
ENERGY: 1500000 2.3968 6.2613 6.7111 0.0000 -10601.8883 1388.8430 0.0000 0.0000 1844.0315 -7353.6446 315.6859 -9197.6761 -7453.0278 301.7442 -322.0837 -229.2500 30121.5002 -65.1103 -3.8239
TCL: Running FEP window  10: Lambda1 0.5499999999999996 Lambda2 0.4999999999999996 [dLambda -0.04999999999999999]
TCL: Setting parameter firsttimestep to 0
TCL: Setting parameter alchLambda to 0.5499999999999996
Info: NONBONDED TABLE R-SQUARED SPACING: 0.0625
Info: NONBONDED TABLE SIZE: 705 POINTS
TCL: Setting parameter alchLambda2 to 0.4999999999999996
Info: NONBONDED TABLE R-SQUARED SPACING: 0.0625
Info: NONBONDED TABLE SIZE: 705 POINTS
TCL: Running for 1500000 steps
ETITLE: TS BOND ANGLE DIHED IMPRP ELECT VDW BOUNDARY MISC KINETIC TOTAL TEMP POTENTIAL TOTALAVG TEMPAVG PRESSURE GPRESSURE VOLUME PRESSAVG GPRESSAVG
ENERGY: 0 2.3968 6.2613 6.7111 0.0000 -10602.0751 1389.1862 0.0000 0.0000 1843.1579 -7354.3618 315.5364 -9197.5198 -7354.3618 315.5364 -329.2461 -234.5061 30121.5002 -329.2461 -234.5061
ENERGY: 300000 4.1615 7.0258 5.5408 0.0000 -10640.5190 1382.7953 0.0000 0.0000 1731.2070 -7509.7885 296.3711 -9240.9955 -7429.7138 301.6167 -722.0867 -600.3078 30056.0722 -489.3757 -402.1711
ENERGY: 600000 1.5950 10.8599 5.6778 0.0000 -10586.0093 1427.2504 0.0000 0.0000 1714.4238 -7426.2024 293.4980 -9140.6261 -7441.7328 298.7442 111.5642 140.5679 30093.5657 -255.6115 -168.7922
ENERGY: 900000 0.7300 4.1224 6.0546 0.0000 -10672.3137 1430.5812 0.0000 0.0000 1795.8509 -7434.9745 307.4378 -9230.8255 -7421.0283 301.9911 -122.2562 -60.8970 30133.0416 -210.1664 -123.2245
ENERGY: 1200000 1.6821 6.3898 5.0491 0.0000 -10554.7210 1370.0196 0.0000 0.0000 1744.4087 -7427.1717 298.6312 -9171.5804 -7425.2260 301.5141 -580.9985 -493.3444 30415.5947 -207.0301 -113.5233
ENERGY: 1500000 1.8715 6.7868 5.9676 0.0000 -10464.1170 1306.5138 0.0000 0.0000 1747.1271 -7395.8501 299.0966 -9142.9772 -7419.2641 301.3508 -980.8025 -967.7960 30729.9204 -291.8995 -205.4045
TCL: Running FEP window  11: Lambda1 0.4999999999999996 Lambda2 0.4499999999999996 [dLambda -0.04999999999999999]
TCL: Setting parameter firsttimestep to 0
TCL: Setting parameter alchLambda to 0.4999999999999996
Info: NONBONDED TABLE R-SQUARED SPACING: 0.0625
Info: NONBONDED TABLE SIZE: 705 POINTS
TCL: Setting parameter alchLambda2 to 0.4499999999999996
Info: NONBONDED TABLE R-SQUARED SPACING: 0.0625
Info: NONBONDED TABLE SIZE: 705 POINTS
TCL: Running for 1500000 steps
ETITLE: TS BOND ANGLE DIHED IMPRP ELECT VDW BOUNDARY MISC KINETIC TOTAL TEMP POTENTIAL TOTALAVG TEMPAVG PRESSURE GPRESSURE VOLUME PRESSAVG GPRESSAVG
ENERGY: 0 1.8715 6.7868 5.9676 0.0000 -10464.4875 1306.7486 0.0000 0.0000 1746.2517 -7396.8614 298.9467 -9143.1130 -7396.8614 298.9467 -1053.0063 -973.7918 30729.9204 -1053.0063 -973.7918
ENERGY: 300000 3.3952 6.3937 5.7201 0.0000 -10639.3563 1386.2220 0.0000 0.0000 1799.3844 -7438.2409 308.0427 -9237.6253 -7428.8025 302.4260 -392.2044 -360.4924 29955.9631 -334.8422 -271.8865
ENERGY: 600000 0.9766 9.0942 5.7984 0.0000 -10619.6582 1449.7120 0.0000 0.0000 1765.7386 -7388.3384 302.2827 -9154.0769 -7419.8405 302.3312 68.2049 184.5861 30138.6081 -152.4947 -82.3316
ENERGY: 900000 2.9839 7.1266 5.9738 0.0000 -10800.3116 1557.9657 0.0000 0.0000 1751.0708 -7475.1908 299.7717 -9226.2616 -7428.7728 301.2291 1118.5230 1118.2019 29647.5537 14.8388 74.9453
ENERGY: 1200000 0.9049 7.8302 7.1207 0.0000 -10652.3023 1451.1883 0.0000 0.0000 1792.0596 -7393.1985 306.7887 -9185.2581 -7434.6734 300.6355 87.0624 160.9544 30180.5321 -11.3661 49.8942
ENERGY: 1500000 1.3613 8.1438 5.1995 0.0000 -10689.3262 1461.5706 0.0000 0.0000 1717.9883 -7495.0626 294.1082 -9213.0509 -7446.1056 299.6765 131.0787 120.0599 29993.8905 -55.3183 6.0048
TCL: Running FEP window  12: Lambda1 0.4499999999999996 Lambda2 0.39999999999999963 [dLambda -0.04999999999999999]
TCL: Setting parameter firsttimestep to 0
TCL: Setting parameter alchLambda to 0.4499999999999996
Info: NONBONDED TABLE R-SQUARED SPACING: 0.0625
Info: NONBONDED TABLE SIZE: 705 POINTS
TCL: Setting parameter alchLambda2 to 0.39999999999999963
Info: NONBONDED TABLE R-SQUARED SPACING: 0.0625
Info: NONBONDED TABLE SIZE: 705 POINTS
TCL: Running for 1500000 steps
ETITLE: TS BOND ANGLE DIHED IMPRP ELECT VDW BOUNDARY MISC KINETIC TOTAL TEMP POTENTIAL TOTALAVG TEMPAVG PRESSURE GPRESSURE VOLUME PRESSAVG GPRESSAVG
ENERGY: 0 1.3613 8.1438 5.1995 0.0000 -10689.3271 1461.3662 0.0000 0.0000 1717.1256 -7496.1306 293.9605 -9213.2562 -7496.1306 293.9605 29.7067 112.9304 29993.8905 29.7067 112.9304
ENERGY: 300000 1.5552 10.5742 5.7842 0.0000 -10511.7961 1343.8553 0.0000 0.0000 1772.5645 -7377.4627 303.4513 -9150.0272 -7467.2946 295.4773 -437.8271 -366.2849 30092.1704 -55.1061 -9.2563
ENERGY: 600000 1.1989 6.7277 5.2233 0.0000 -10474.7865 1382.8365 0.0000 0.0000 1757.9387 -7320.8614 300.9474 -9078.8001 -7445.7647 297.2677 -35.0382 -39.6891 30311.8493 49.9379 90.8083
ENERGY: 900000 0.9820 4.4870 5.3414 0.0000 -10552.1065 1389.9815 0.0000 0.0000 1740.9435 -7410.3712 298.0380 -9151.3147 -7433.1254 298.2410 -63.2507 7.4216 30190.3590 8.9996 57.0811
ENERGY: 1200000 2.1355 9.0658 5.6289 0.0000 -10473.5577 1346.9104 0.0000 0.0000 1751.2915 -7358.5257 299.8095 -9109.8172 -7430.1062 298.3530 -288.7347 -241.6405 30114.7088 -16.3129 36.1131
ENERGY: 1500000 0.9985 6.9292 6.6219 0.0000 -10759.0557 1476.6358 0.0000 0.0000 1710.6746 -7557.1957 292.8561 -9267.8703 -7439.0998 298.2327 262.8968 284.2089 29608.4856 -60.9039 -4.8341
TCL: Running FEP window  13: Lambda1 0.39999999999999963 Lambda2 0.34999999999999964 [dLambda -0.04999999999999999]
TCL: Setting parameter firsttimestep to 0
TCL: Setting parameter alchLambda to 0.39999999999999963
Info: NONBONDED TABLE R-SQUARED SPACING: 0.0625
Info: NONBONDED TABLE SIZE: 705 POINTS
TCL: Setting parameter alchLambda2 to 0.34999999999999964
Info: NONBONDED TABLE R-SQUARED SPACING: 0.0625
Info: NONBONDED TABLE SIZE: 705 POINTS
TCL: Running for 1500000 steps
ETITLE: TS BOND ANGLE DIHED IMPRP ELECT VDW BOUNDARY MISC KINETIC TOTAL TEMP POTENTIAL TOTALAVG TEMPAVG PRESSURE GPRESSURE VOLUME PRESSAVG GPRESSAVG
ENERGY: 0 0.9985 6.9292 6.6219 0.0000 -10759.0550 1476.9459 0.0000 0.0000 1709.8016 -7557.7578 292.7067 -9267.5594 -7557.7578 292.7067 204.0824 282.7293 29608.4856 204.0824 282.7293
ENERGY: 300000 5.0868 5.9243 5.7787 0.0000 -10569.3011 1377.6079 0.0000 0.0000 1832.8668 -7342.0366 313.7746 -9174.9034 -7443.0318 300.0209 -662.1097 -572.7377 30503.5984 -173.1802 -79.7027
ENERGY: 600000 1.8233 5.5195 6.4278 0.0000 -10643.3134 1406.4604 0.0000 0.0000 1728.9000 -7494.1824 295.9762 -9223.0824 -7432.5515 301.0453 -263.3554 -243.2217 29995.1615 -41.2293 28.3000
ENERGY: 900000 2.2370 7.7462 5.3862 0.0000 -10505.9822 1356.9294 0.0000 0.0000 1810.4057 -7323.2777 309.9294 -9133.6834 -7421.3310 302.3992 -369.1573 -302.1251 30417.8145 -8.5839 56.4846
ENERGY: 1200000 1.8597 8.1021 5.3911 0.0000 -10721.1641 1460.0058 0.0000 0.0000 1729.7679 -7516.0375 296.1248 -9245.8053 -7425.4857 302.6412 104.3609 217.4798 29914.3622 -3.4707 64.0934
ENERGY: 1500000 1.7015 9.0586 5.6404 0.0000 -10562.7125 1364.8868 0.0000 0.0000 1727.3338 -7454.0914 295.7081 -9181.4251 -7425.8967 302.3791 -708.3659 -650.6105 30366.3591 -114.2589 -52.7587
TCL: Running FEP window  14: Lambda1 0.34999999999999964 Lambda2 0.29999999999999966 [dLambda -0.04999999999999999]
TCL: Setting parameter firsttimestep to 0
TCL: Setting parameter alchLambda to 0.34999999999999964
Info: NONBONDED TABLE R-SQUARED SPACING: 0.0625
Info: NONBONDED TABLE SIZE: 705 POINTS
TCL: Setting parameter alchLambda2 to 0.29999999999999966
Info: NONBONDED TABLE R-SQUARED SPACING: 0.0625
Info: NONBONDED TABLE SIZE: 705 POINTS
TCL: Running for 1500000 steps
ETITLE: TS BOND ANGLE DIHED IMPRP ELECT VDW BOUNDARY MISC KINETIC TOTAL TEMP POTENTIAL TOTALAVG TEMPAVG PRESSURE GPRESSURE VOLUME PRESSAVG GPRESSAVG
ENERGY: 0 1.7015 9.0586 5.6404 0.0000 -10562.7120 1365.2431 0.0000 0.0000 1726.4675 -7454.6009 295.5598 -9181.0684 -7454.6009 295.5598 -753.4688 -652.9637 30366.3591 -753.4688 -652.9637
ENERGY: 300000 1.4085 7.4330 5.3920 0.0000 -10632.1677 1480.9951 0.0000 0.0000 1784.6156 -7352.3235 305.5144 -9136.9391 -7445.0183 299.8209 534.4000 607.0473 30522.6986 118.1178 179.0301
ENERGY: 600000 2.8736 5.0221 5.5235 0.0000 -10828.7937 1579.0860 0.0000 0.0000 1735.2392 -7501.0493 297.0614 -9236.2885 -7449.1272 297.8921 1120.5535 1158.7726 29779.5082 86.9516 146.0282
ENERGY: 900000 0.9700 7.9898 5.6789 0.0000 -10819.1737 1545.4687 0.0000 0.0000 1772.6948 -7486.3715 303.4736 -9259.0663 -7454.2296 298.5583 551.8030 696.0277 30252.3631 99.5769 157.2989
ENERGY: 1200000 2.4577 7.8878 5.4728 0.0000 -10636.0943 1442.9178 0.0000 0.0000 1708.1684 -7469.1898 292.4271 -9177.3582 -7453.7802 299.3424 459.9572 518.2985 29527.8461 120.3885 177.0371
ENERGY: 1500000 1.8051 7.4691 5.7006 0.0000 -10641.1081 1433.4144 0.0000 0.0000 1756.8026 -7435.9162 300.7530 -9192.7188 -7454.5029 299.5073 -278.2711 -164.8873 30526.3155 84.5312 142.3401
TCL: Running FEP window  15: Lambda1 0.29999999999999966 Lambda2 0.24999999999999967 [dLambda -0.04999999999999999]
TCL: Setting parameter firsttimestep to 0
TCL: Setting parameter alchLambda to 0.29999999999999966
Info: NONBONDED TABLE R-SQUARED SPACING: 0.0625
Info: NONBONDED TABLE SIZE: 705 POINTS
TCL: Setting parameter alchLambda2 to 0.24999999999999967
Info: NONBONDED TABLE R-SQUARED SPACING: 0.0625
Info: NONBONDED TABLE SIZE: 705 POINTS
TCL: Running for 1500000 steps
ETITLE: TS BOND ANGLE DIHED IMPRP ELECT VDW BOUNDARY MISC KINETIC TOTAL TEMP POTENTIAL TOTALAVG TEMPAVG PRESSURE GPRESSURE VOLUME PRESSAVG GPRESSAVG
ENERGY: 0 1.8051 7.4691 5.7007 0.0000 -10641.1082 1433.2782 0.0000 0.0000 1755.9447 -7436.9104 300.6061 -9192.8552 -7436.9104 300.6061 -254.7997 -171.3042 30526.3155 -254.7997 -171.3042
ENERGY: 300000 1.3093 8.1793 6.2499 0.0000 -10694.4292 1393.5635 0.0000 0.0000 1833.9568 -7451.1704 313.9612 -9285.1272 -7428.9318 304.4224 -295.8690 -241.0133 29635.7327 -447.3096 -395.7405
ENERGY: 600000 1.8441 7.1056 6.0033 0.0000 -10564.4567 1390.5232 0.0000 0.0000 1714.0431 -7444.9373 293.4328 -9158.9804 -7420.2578 301.5061 -164.0635 -135.5841 30095.5845 -106.4914 -60.1758
ENERGY: 900000 3.3937 7.8700 6.1026 0.0000 -10741.4204 1467.7938 0.0000 0.0000 1798.0374 -7458.2228 307.8121 -9256.2603 -7436.2386 301.9127 57.2155 105.1998 30058.0852 -91.7195 -40.1383
ENERGY: 1200000 3.1846 5.9774 5.8420 0.0000 -10657.8094 1456.4915 0.0000 0.0000 1748.3048 -7438.0090 299.2982 -9186.3139 -7440.1311 301.9364 361.5832 469.7098 29911.5770 -57.4729 4.7991
ENERGY: 1500000 2.2164 8.1782 6.7589 0.0000 -10636.7831 1460.4950 0.0000 0.0000 1754.8104 -7404.3241 300.4119 -9159.1345 -7435.4440 301.8635 612.4134 636.4000 29717.0943 -56.5274 2.4741
TCL: Running FEP window  16: Lambda1 0.24999999999999967 Lambda2 0.19999999999999968 [dLambda -0.04999999999999999]
TCL: Setting parameter firsttimestep to 0
TCL: Setting parameter alchLambda to 0.24999999999999967
Info: NONBONDED TABLE R-SQUARED SPACING: 0.0625
Info: NONBONDED TABLE SIZE: 705 POINTS
TCL: Setting parameter alchLambda2 to 0.19999999999999968
Info: NONBONDED TABLE R-SQUARED SPACING: 0.0625
Info: NONBONDED TABLE SIZE: 705 POINTS
TCL: Running for 1500000 steps
ETITLE: TS BOND ANGLE DIHED IMPRP ELECT VDW BOUNDARY MISC KINETIC TOTAL TEMP POTENTIAL TOTALAVG TEMPAVG PRESSURE GPRESSURE VOLUME PRESSAVG GPRESSAVG
ENERGY: 0 2.2164 8.1783 6.7589 0.0000 -10636.7827 1460.6455 0.0000 0.0000 1753.9266 -7405.0570 300.2606 -9158.9836 -7405.0570 300.2606 533.6143 632.1559 29717.0943 533.6143 632.1559
ENERGY: 300000 2.6555 7.2281 5.3914 0.0000 -10580.5704 1366.3414 0.0000 0.0000 1733.4343 -7465.5197 296.7525 -9198.9540 -7421.3529 301.6628 -374.4876 -297.6449 29787.5404 188.6188 271.0573
ENERGY: 600000 0.7611 4.8739 5.6588 0.0000 -10621.0021 1394.3803 0.0000 0.0000 1735.0540 -7480.2741 297.0297 -9215.3281 -7432.6892 301.2466 -245.7010 -250.7796 29974.6483 59.9910 131.5164
ENERGY: 900000 2.0405 11.8427 6.1829 0.0000 -10700.8299 1447.7763 0.0000 0.0000 1758.0318 -7474.9557 300.9634 -9232.9875 -7429.9494 301.3803 31.9441 104.2153 29929.4708 -67.0732 5.1160
ENERGY: 1200000 0.7218 10.4976 6.4729 0.0000 -10670.3176 1442.3908 0.0000 0.0000 1789.8138 -7420.4207 306.4042 -9210.2344 -7420.4187 303.0364 -162.9713 -116.1952 30424.9670 -138.9076 -67.3880
ENERGY: 1500000 1.8349 11.9039 5.5118 0.0000 -10531.3806 1387.1221 0.0000 0.0000 1697.6934 -7427.3144 290.6338 -9125.0078 -7418.6090 301.7503 -216.3375 -150.8558 30268.4041 -143.4716 -63.9662
TCL: Running FEP window  17: Lambda1 0.19999999999999968 Lambda2 0.1499999999999997 [dLambda -0.04999999999999999]
TCL: Setting parameter firsttimestep to 0
TCL: Setting parameter alchLambda to 0.19999999999999968
Info: NONBONDED TABLE R-SQUARED SPACING: 0.0625
Info: NONBONDED TABLE SIZE: 705 POINTS
TCL: Setting parameter alchLambda2 to 0.1499999999999997
Info: NONBONDED TABLE R-SQUARED SPACING: 0.0625
Info: NONBONDED TABLE SIZE: 705 POINTS
TCL: Running for 1500000 steps
ETITLE: TS BOND ANGLE DIHED IMPRP ELECT VDW BOUNDARY MISC KINETIC TOTAL TEMP POTENTIAL TOTALAVG TEMPAVG PRESSURE GPRESSURE VOLUME PRESSAVG GPRESSAVG
ENERGY: 0 1.8349 11.9039 5.5118 0.0000 -10531.3822 1386.7982 0.0000 0.0000 1696.8414 -7428.4919 290.4880 -9125.3334 -7428.4919 290.4880 -230.8990 -155.9782 30268.4041 -230.8990 -155.9782
ENERGY: 300000 1.6754 7.1191 5.9485 0.0000 -10476.6080 1362.2207 0.0000 0.0000 1743.9063 -7355.7380 298.5452 -9099.6443 -7442.7861 296.7697 -493.7871 -406.8298 30553.1415 -258.4789 -167.9595
ENERGY: 600000 5.9138 6.5266 5.4844 0.0000 -10715.0166 1527.6208 0.0000 0.0000 1734.6429 -7434.8281 296.9593 -9169.4710 -7457.3140 296.7193 733.6772 756.5243 30165.6240 53.3782 130.1956
ENERGY: 900000 4.1353 7.4452 5.1623 0.0000 -10590.2425 1462.0242 0.0000 0.0000 1781.3473 -7330.1282 304.9548 -9111.4754 -7439.1743 297.8628 338.7173 463.3040 30006.1157 175.4549 262.6127
ENERGY: 1200000 1.1363 6.8502 5.6529 0.0000 -10639.9250 1441.0460 0.0000 0.0000 1755.1010 -7430.1386 300.4616 -9185.2396 -7445.5762 298.1791 73.5043 116.5338 29952.8326 173.0378 251.8253
ENERGY: 1500000 2.1678 7.7283 6.4127 0.0000 -10553.3027 1410.0383 0.0000 0.0000 1794.4588 -7332.4967 307.1994 -9126.9556 -7436.1816 298.4484 -83.3008 -50.2905 30224.5005 3.3367 72.7568
TCL: Running FEP window  18: Lambda1 0.1499999999999997 Lambda2 0.09999999999999969 [dLambda -0.05 ]
TCL: Setting parameter firsttimestep to 0
TCL: Setting parameter alchLambda to 0.1499999999999997
Info: NONBONDED TABLE R-SQUARED SPACING: 0.0625
Info: NONBONDED TABLE SIZE: 705 POINTS
TCL: Setting parameter alchLambda2 to 0.09999999999999969
Info: NONBONDED TABLE R-SQUARED SPACING: 0.0625
Info: NONBONDED TABLE SIZE: 705 POINTS
TCL: Running for 1500000 steps
ETITLE: TS BOND ANGLE DIHED IMPRP ELECT VDW BOUNDARY MISC KINETIC TOTAL TEMP POTENTIAL TOTALAVG TEMPAVG PRESSURE GPRESSURE VOLUME PRESSAVG GPRESSAVG
ENERGY: 0 2.1678 7.7283 6.4127 0.0000 -10553.3034 1410.3239 0.0000 0.0000 1793.5830 -7333.0877 307.0495 -9126.6708 -7333.0877 307.0495 -119.3045 -48.6688 30224.5005 -119.3045 -48.6688
ENERGY: 300000 2.3317 11.6462 5.2700 0.0000 -10656.6104 1500.0203 0.0000 0.0000 1765.2560 -7372.0863 302.2001 -9137.3422 -7393.9417 303.9668 451.8463 481.5629 30379.3175 106.7537 156.1475
ENERGY: 600000 2.2998 7.2116 5.9013 0.0000 -10512.9869 1367.1246 0.0000 0.0000 1715.5894 -7414.8603 293.6975 -9130.4497 -7412.0235 302.0147 -580.3579 -528.2444 30374.3810 -152.4326 -94.4970
ENERGY: 900000 1.8083 9.5954 6.4407 0.0000 -10473.3243 1367.9714 0.0000 0.0000 1733.8748 -7353.6337 296.8279 -9087.5085 -7417.0292 300.5251 -405.6604 -344.4495 30642.0860 -170.6166 -120.4028
ENERGY: 1200000 2.0741 10.4894 5.7982 0.0000 -10684.2036 1446.8070 0.0000 0.0000 1733.3727 -7485.6623 296.7419 -9219.0350 -7423.5847 300.2942 -105.5258 -8.7430 30207.2202 -164.7011 -106.4389
ENERGY: 1500000 1.4344 8.4984 6.9580 0.0000 -10650.0135 1447.6954 0.0000 0.0000 1789.8081 -7395.6193 306.4033 -9185.4274 -7431.1223 300.6028 333.6497 377.0827 29779.8410 -149.5109 -89.7251
TCL: Running FEP window  19: Lambda1 0.09999999999999969 Lambda2 0.049999999999999684 [dLambda -0.05 ]
TCL: Setting parameter firsttimestep to 0
TCL: Setting parameter alchLambda to 0.09999999999999969
Info: NONBONDED TABLE R-SQUARED SPACING: 0.0625
Info: NONBONDED TABLE SIZE: 705 POINTS
TCL: Setting parameter alchLambda2 to 0.049999999999999684
Info: NONBONDED TABLE R-SQUARED SPACING: 0.0625
Info: NONBONDED TABLE SIZE: 705 POINTS
TCL: Running for 1500000 steps
ETITLE: TS BOND ANGLE DIHED IMPRP ELECT VDW BOUNDARY MISC KINETIC TOTAL TEMP POTENTIAL TOTALAVG TEMPAVG PRESSURE GPRESSURE VOLUME PRESSAVG GPRESSAVG
ENERGY: 0 1.4344 8.4984 6.9580 0.0000 -10650.0138 1447.1822 0.0000 0.0000 1788.9186 -7397.0223 306.2510 -9185.9409 -7397.0223 306.2510 294.8884 372.3088 29779.8410 294.8884 372.3088
ENERGY: 300000 4.0145 6.1163 6.4775 0.0000 -10613.5312 1432.1792 0.0000 0.0000 1724.0226 -7440.7211 295.1412 -9164.7437 -7442.2427 298.5789 -74.1922 4.6968 30144.6908 -194.1598 -106.9830
ENERGY: 600000 3.0431 7.7970 5.4333 0.0000 -10666.2281 1462.9695 0.0000 0.0000 1673.8165 -7513.1687 286.5463 -9186.9852 -7463.2468 297.2424 94.0797 171.9574 30308.7134 -153.8407 -68.8166
ENERGY: 900000 1.3534 9.8641 5.1980 0.0000 -10670.7805 1465.7637 0.0000 0.0000 1752.9154 -7435.6860 300.0875 -9188.6013 -7449.0731 298.6654 431.5299 527.0827 29618.6729 -123.4647 -46.0594
ENERGY: 1200000 1.2113 9.4656 5.2920 0.0000 -10539.8103 1390.9131 0.0000 0.0000 1769.8900 -7363.0382 302.9934 -9132.9282 -7442.4962 299.5497 -447.5327 -423.4568 30522.6518 -79.2284 -0.4183
ENERGY: 1500000 5.5419 5.2624 6.8797 0.0000 -10485.0215 1305.5175 0.0000 0.0000 1701.6002 -7460.2199 291.3027 -9161.8201 -7448.9387 297.8537 -1308.5435 -1315.4872 30764.8221 -196.5176 -122.8651
TCL: Running FEP window  20: Lambda1 0.049999999999999684 Lambda2 0.0    [dLambda -0.049999999999999684]
TCL: Setting parameter firsttimestep to 0
TCL: Setting parameter alchLambda to 0.049999999999999684
Info: NONBONDED TABLE R-SQUARED SPACING: 0.0625
Info: NONBONDED TABLE SIZE: 705 POINTS
TCL: Setting parameter alchLambda2 to 0.0
Info: NONBONDED TABLE R-SQUARED SPACING: 0.0625
Info: NONBONDED TABLE SIZE: 705 POINTS
TCL: Running for 1500000 steps
ETITLE: TS BOND ANGLE DIHED IMPRP ELECT VDW BOUNDARY MISC KINETIC TOTAL TEMP POTENTIAL TOTALAVG TEMPAVG PRESSURE GPRESSURE VOLUME PRESSAVG GPRESSAVG
ENERGY: 0 5.5419 5.2624 6.8797 0.0000 -10485.0217 1305.4071 0.0000 0.0000 1700.7290 -7461.2017 291.1535 -9161.9307 -7461.2017 291.1535 -1382.9737 -1316.2104 30764.8221 -1382.9737 -1316.2104
ENERGY: 300000 2.6798 2.9791 5.9156 0.0000 -10524.3112 1383.6326 0.0000 0.0000 1771.3904 -7357.7137 303.2503 -9129.1041 -7393.2466 299.8276 -497.8357 -482.8893 30821.6685 -506.4806 -462.6121
ENERGY: 600000 2.3534 7.4647 6.9333 0.0000 -10575.1440 1452.7482 0.0000 0.0000 1690.0649 -7415.5796 289.3279 -9105.6445 -7423.0129 297.9374 452.0793 494.1012 29800.2718 -212.7883 -171.8799
ENERGY: 900000 3.5338 8.9465 5.5922 0.0000 -10547.5582 1410.0414 0.0000 0.0000 1756.9734 -7362.4709 300.7822 -9119.4443 -7418.8999 297.7907 186.0643 221.6543 30015.7834 -207.3471 -161.0995
ENERGY: 1200000 3.9076 11.2536 7.7166 0.0000 -10708.2567 1472.9023 0.0000 0.0000 1776.5079 -7435.9686 304.1264 -9212.4766 -7426.4558 298.3702 71.4128 104.5913 30218.0475 -109.2507 -69.7774
ENERGY: 1500000 3.4933 8.7801 5.2920 0.0000 -10598.2346 1344.0087 0.0000 0.0000 1727.0458 -7509.6147 295.6588 -9236.6605 -7428.7353 298.7636 -946.2256 -907.7537 30230.0042 -135.5715 -90.3594
TCL: Exiting due to exit command.
