Info: SIMULATION PARAMETERS:
Info: TIMESTEP               2
Info: NUMBER OF STEPS        0
Info: STEPS PER CYCLE        10
Info: PERIODIC CELL BASIS 1  32.7265 0 0
Info: PERIODIC CELL BASIS 2  0 32.2664 0
Info: PERIODIC CELL BASIS 3  0 0 28.0748
Info: PERIODIC CELL CENTER   0 0 0
Info: WRAPPING WATERS AROUND PERIODIC BOUNDARIES ON OUTPUT.
Info: WRAPPING ALL CLUSTERS AROUND PERIODIC BOUNDARIES ON OUTPUT.
Info: FIRST LDB TIMESTEP     50
Info: LAST LDB TIMESTEP     -1
Info: HOM BACKGROUND SCALING 1
Info: PME BACKGROUND SCALING 1
Info: MIN ATOMS PER PATCH    40
Info: EMPTY PATCH LOAD       40 ATOMS
Info: VELOCITY FILE          mobley_3264884_equil.vel
Info: CENTER OF MASS MOVING INITIALLY? NO
Info: DIELECTRIC             1
Info: EXCLUDE                SCALED ONE-FOUR
Info: 1-4 ELECTROSTATICS SCALED BY 0.833333
Info: MODIFIED 1-4 VDW PARAMETERS WILL BE USED
Info: DCD FILENAME           mobley_3264884_prod.dcd
Info: DCD FREQUENCY          100000
Info: DCD FIRST STEP         100000
Info: DCD FILE WILL CONTAIN UNIT CELL DATA
Info: XST FILENAME           mobley_3264884_prod.xst
Info: XST FREQUENCY          100000
Info: NO VELOCITY DCD OUTPUT
Info: NO FORCE DCD OUTPUT
Info: OUTPUT FILENAME        mobley_3264884_prod
Info: BINARY OUTPUT FILES WILL BE USED
Info: RESTART FILENAME       mobley_3264884_prod.restart
Info: RESTART FREQUENCY      100000
Info: BINARY RESTART FILES WILL BE USED
Info: CUTOFF                 9
Info: PAIRLIST DISTANCE      11
Info: PAIRLIST SHRINK RATE   0.01
Info: PAIRLIST GROW RATE     0.01
Info: PAIRLIST TRIGGER       0.3
Info: PAIRLISTS PER CYCLE    2
Info: PAIRLISTS ENABLED
Info: MARGIN                 2
Info: HYDROGEN GROUP CUTOFF  2.5
Info: PATCH DIMENSION        15.5
Info: ENERGY OUTPUT STEPS    100000
Info: ENERGY EVALUATION STEPS    100000
Info: OUTPUT ENERGY PRECISION 4
Info: CROSSTERM ENERGY INCLUDED IN DIHEDRAL
Info: TIMING OUTPUT STEPS    1000000
Info: PRESSURE OUTPUT STEPS  100000
Info: ALCHEMICAL FEP ON
Info: FEP CURRENT LAMBDA VALUE     1
Info: FEP COMPARISON LAMBDA VALUE  0.95
Info: FEP INTRA-ALCHEMICAL NON-BONDED INTERACTIONS WILL BE RETAINED
Info: FEP INTRA-ALCHEMICAL BONDED INTERACTIONS WILL BE RETAINED
Info: FEP VDW SHIFTING COEFFICIENT 5
Info: FEP ELEC. ACTIVE FOR ANNIHILATED PARTICLES BETWEEN LAMBDA = 0 AND LAMBDA = 0.5
Info: FEP ELEC. ACTIVE FOR EXNIHILATED PARTICLES BETWEEN LAMBDA = 0.5 AND LAMBDA = 1
Info: FEP VDW ACTIVE FOR ANNIHILATED PARTICLES BETWEEN LAMBDA = 0 AND LAMBDA = 1
Info: FEP VDW ACTIVE FOR EXNIHILATED PARTICLES BETWEEN LAMBDA = 0 AND LAMBDA = 1
Info: FEP BOND ACTIVE FOR ANNIHILATED PARTICLES BETWEEN LAMBDA = 1 AND LAMBDA = 1
Info: FEP BOND ACTIVE FOR EXNIHILATED PARTICLES BETWEEN LAMBDA = 0 AND LAMBDA = 0
Info: LANGEVIN DYNAMICS ACTIVE
Info: LANGEVIN TEMPERATURE   300
Info: LANGEVIN USING BBK INTEGRATOR
Info: LANGEVIN DAMPING COEFFICIENT IS 1 INVERSE PS
Info: LANGEVIN DYNAMICS APPLIED TO HYDROGENS
Info: LANGEVIN PISTON PRESSURE CONTROL ACTIVE
Info:        TARGET PRESSURE IS 1.01325 BAR
Info:     OSCILLATION PERIOD IS 50 FS
Info:             DECAY TIME IS 25 FS
Info:     PISTON TEMPERATURE IS 300 K
Info:       PRESSURE CONTROL IS GROUP-BASED
Info:    INITIAL STRAIN RATE IS -0.000449767 -0.000449767 -0.000449767
Info:       CELL FLUCTUATION IS ISOTROPIC
Info: PARTICLE MESH EWALD (PME) ACTIVE
Info: PME TOLERANCE               1e-06
Info: PME EWALD COEFFICIENT       0.348832
Info: PME INTERPOLATION ORDER     4
Info: PME GRID DIMENSIONS         36 36 32
Info: PME MAXIMUM GRID SPACING    1
Info: PME CALCULATION WILL BE PERFORMED ON GPU
Info: FULL ELECTROSTATIC EVALUATION FREQUENCY      2
Info: USING VERLET I (r-RESPA) MTS SCHEME.
Info: C1 SPLITTING OF LONG RANGE ELECTROSTATICS
Info: PLACING ATOMS IN PATCHES BY HYDROGEN GROUPS
Info: RIGID BONDS TO HYDROGEN : ALL
Info:         ERROR TOLERANCE : 1e-08
Info:          MAX ITERATIONS : 100
Info: RIGID WATER USING SETTLE ALGORITHM
Info: RANDOM NUMBER SEED     1743632768
Info: USE HYDROGEN BONDS?    NO
Info: Using AMBER format force field!
Info: AMBER PARM FILE        mobley_3264884.prmtop
Info: COORDINATE PDB         mobley_3264884.pdb
Info: Exclusions will be read from PARM file!
Info: SCNB (VDW SCALING)     2
Info: USING ARITHMETIC MEAN TO COMBINE L-J SIGMA PARAMETERS
Info: BINARY COORDINATES     mobley_3264884_equil.coor
Info: SUMMARY OF PARAMETERS:
Info: 6 BONDS
Info: 5 ANGLES
Info:   5 HARMONIC
Info:   0 COSINE-BASED
Info: 3 DIHEDRAL
Info: 0 IMPROPER
Info: 0 CROSSTERM
Info: 0 VDW
Info: 21 VDW_PAIRS
Info: 0 NBTHOLE_PAIRS
Info: To read alchdata from file: mobley_3264884.pdb
Info: To read alchflag data from column: 5
Info: STRUCTURE SUMMARY:
Info: 2912 ATOMS
Info: 2913 BONDS
Info: 33 ANGLES
Info: 59 DIHEDRALS
Info: 0 IMPROPERS
Info: 0 CROSSTERMS
Info: 2988 EXCLUSIONS
Info: 2901 RIGID BONDS
Info: ALCH: 0 ATOMS TO DISAPPEAR IN FINAL STATE
Info: ALCH: 20 ATOMS TO APPEAR IN FINAL STATE
Info: 5835 DEGREES OF FREEDOM
Info: 975 HYDROGEN GROUPS
Info: 3 ATOMS IN LARGEST HYDROGEN GROUP
Info: 975 MIGRATION GROUPS
Info: 3 ATOMS IN LARGEST MIGRATION GROUP
Info: TOTAL MASS = 17510.6 amu
Info: TOTAL CHARGE = 9.99963e-05 e
Info: MASS DENSITY = 0.980827 g/cm^3
Info: ATOM DENSITY = 0.0982253 atoms/A^3
Info: ADDED 0 IMPLICIT EXCLUSIONS
Info: NONBONDED TABLE R-SQUARED SPACING: 0.0625
Info: NONBONDED TABLE SIZE: 705 POINTS
Info: REDUCING NUMBER OF PATCHES TO IMPROVE LOAD BALANCE
Info: REMOVING COM VELOCITY -0.241237 -0.0139971 -0.0157065
Info: Use 3D box decompostion in PME FFT.
Info: Updated CUDA force table with 4096 elements.
Info: Updated CUDA LJ table with 6 x 6 elements.
Info: Found 21 unique exclusion lists needing 60 bytes
TCL: Running for 1500000 steps
ETITLE: TS BOND ANGLE DIHED IMPRP ELECT VDW BOUNDARY MISC KINETIC TOTAL TEMP POTENTIAL TOTALAVG TEMPAVG PRESSURE GPRESSURE VOLUME PRESSAVG GPRESSAVG
ENERGY: 0 3.9301 8.5486 5.8707 0.0000 -10575.1115 1447.6311 0.0000 0.0000 1704.2663 -7404.8648 293.9591 -9109.1311 -7404.8648 293.9591 408.4165 492.4788 29646.1214 408.4165 492.4788
ENERGY: 300000 7.5890 6.3712 5.4527 0.0000 -10584.5121 1509.1577 0.0000 0.0000 1724.8306 -7331.1108 297.5062 -9055.9415 -7384.0970 296.3372 830.6941 892.8302 29921.5152 44.0398 118.4679
ENERGY: 600000 4.4732 5.6928 5.1001 0.0000 -10594.0118 1434.7747 0.0000 0.0000 1701.0814 -7442.8897 293.4098 -9143.9711 -7394.9778 295.7649 58.5962 103.6301 30166.7838 98.8217 165.4319
ENERGY: 900000 5.8965 3.4312 5.4430 0.0000 -10572.0479 1370.9255 0.0000 0.0000 1726.9039 -7459.4479 297.8638 -9186.3517 -7401.7127 297.0281 -773.0268 -636.8566 30124.7396 -125.0052 -48.4555
ENERGY: 1200000 4.1462 4.3287 9.7373 0.0000 -10572.5750 1389.6390 0.0000 0.0000 1772.6003 -7392.1236 305.7457 -9164.7239 -7396.6258 299.0532 -196.0380 -157.0378 29747.2397 -76.3950 -2.9869
ENERGY: 1500000 3.2605 4.4040 2.3342 0.0000 -10549.6217 1400.5620 0.0000 0.0000 1789.7332 -7349.3278 308.7008 -9139.0610 -7384.2862 300.4417 -107.8390 -17.7408 30007.6075 -0.3069 67.7068
TCL: Running FEP window   2: Lambda1 0.95   Lambda2 0.8999999999999999 [dLambda -0.050000000000000044]
TCL: Setting parameter firsttimestep to 0
TCL: Setting parameter alchLambda to 0.95
Info: NONBONDED TABLE R-SQUARED SPACING: 0.0625
Info: NONBONDED TABLE SIZE: 705 POINTS
TCL: Setting parameter alchLambda2 to 0.8999999999999999
Info: NONBONDED TABLE R-SQUARED SPACING: 0.0625
Info: NONBONDED TABLE SIZE: 705 POINTS
TCL: Running for 1500000 steps
ETITLE: TS BOND ANGLE DIHED IMPRP ELECT VDW BOUNDARY MISC KINETIC TOTAL TEMP POTENTIAL TOTALAVG TEMPAVG PRESSURE GPRESSURE VOLUME PRESSAVG GPRESSAVG
ENERGY: 0 3.2605 4.4040 2.3342 0.0000 -10547.9000 1400.8065 0.0000 0.0000 1788.8736 -7348.2212 308.5526 -9137.0948 -7348.2212 308.5526 -112.8215 -28.3267 30007.6075 -112.8215 -28.3267
ENERGY: 300000 3.6268 5.1534 5.0097 0.0000 -10628.0082 1439.8955 0.0000 0.0000 1736.2840 -7438.0389 299.4817 -9174.3229 -7374.9802 303.9634 99.9287 178.4691 29878.9897 68.8658 127.6832
ENERGY: 600000 3.0346 5.9655 6.3833 0.0000 -10533.0904 1384.5623 0.0000 0.0000 1658.6995 -7474.4452 286.0996 -9133.1447 -7409.7447 299.1636 -416.9629 -364.0746 30212.5267 20.3492 85.3200
ENERGY: 900000 2.9889 5.0691 5.8976 0.0000 -10567.0851 1367.7562 0.0000 0.0000 1711.1570 -7474.2164 295.1477 -9185.3734 -7406.6784 299.2353 -517.7727 -414.8154 29695.2837 55.3488 123.9229
ENERGY: 1200000 5.9239 6.4700 6.6822 0.0000 -10661.1959 1467.7183 0.0000 0.0000 1779.0338 -7395.3678 306.8554 -9174.4016 -7408.6754 300.0095 61.7834 141.6157 30107.0891 -19.2808 43.9906
ENERGY: 1500000 6.9253 5.3310 4.0152 0.0000 -10555.8722 1389.0857 0.0000 0.0000 1723.3516 -7427.1634 297.2511 -9150.5150 -7408.9287 299.8470 -529.9597 -502.9369 30179.2739 -85.3845 -29.0279
TCL: Running FEP window   3: Lambda1 0.8999999999999999 Lambda2 0.8499999999999999 [dLambda -0.050000000000000044]
TCL: Setting parameter firsttimestep to 0
TCL: Setting parameter alchLambda to 0.8999999999999999
Info: NONBONDED TABLE R-SQUARED SPACING: 0.0625
Info: NONBONDED TABLE SIZE: 705 POINTS
TCL: Setting parameter alchLambda2 to 0.8499999999999999
Info: NONBONDED TABLE R-SQUARED SPACING: 0.0625
Info: NONBONDED TABLE SIZE: 705 POINTS
TCL: Running for 1500000 steps
ETITLE: TS BOND ANGLE DIHED IMPRP ELECT VDW BOUNDARY MISC KINETIC TOTAL TEMP POTENTIAL TOTALAVG TEMPAVG PRESSURE GPRESSURE VOLUME PRESSAVG GPRESSAVG
ENERGY: 0 6.9254 5.3310 4.0152 0.0000 -10554.5051 1388.5925 0.0000 0.0000 1722.4990 -7427.1422 297.1040 -9149.6412 -7427.1422 297.1040 -609.1213 -521.4879 30179.2739 -609.1213 -521.4879
ENERGY: 300000 5.1783 3.0796 6.6574 0.0000 -10497.4062 1375.9821 0.0000 0.0000 1696.3165 -7410.1922 292.5879 -9106.5088 -7394.3150 297.5670 -551.6337 -563.8534 30576.7077 -367.8390 -325.7456
ENERGY: 600000 4.8773 6.8817 4.7437 0.0000 -10381.6953 1308.1488 0.0000 0.0000 1691.3863 -7365.6575 291.7376 -9057.0438 -7375.1595 297.9850 -793.4051 -729.4127 30223.6693 -403.0085 -365.7759
ENERGY: 900000 3.9143 3.8781 4.8500 0.0000 -10711.6430 1468.7298 0.0000 0.0000 1736.9514 -7493.3193 299.5968 -9230.2707 -7400.9715 298.8405 288.8763 345.7172 29559.5295 -321.3753 -283.2065
ENERGY: 1200000 3.8026 4.1001 6.3491 0.0000 -10531.4747 1400.7750 0.0000 0.0000 1704.0272 -7412.4207 293.9179 -9116.4480 -7401.0943 298.8458 157.2737 190.0229 29786.8044 -158.4375 -118.3111
ENERGY: 1500000 3.5150 3.3145 9.2050 0.0000 -10666.9682 1455.3374 0.0000 0.0000 1743.9105 -7451.6857 300.7972 -9195.5962 -7392.6734 299.6471 248.4679 327.0098 29713.1780 -97.3769 -54.7540
TCL: Running FEP window   4: Lambda1 0.8499999999999999 Lambda2 0.7999999999999998 [dLambda -0.050000000000000044]
TCL: Setting parameter firsttimestep to 0
TCL: Setting parameter alchLambda to 0.8499999999999999
Info: NONBONDED TABLE R-SQUARED SPACING: 0.0625
Info: NONBONDED TABLE SIZE: 705 POINTS
TCL: Setting parameter alchLambda2 to 0.7999999999999998
Info: NONBONDED TABLE R-SQUARED SPACING: 0.0625
Info: NONBONDED TABLE SIZE: 705 POINTS
TCL: Running for 1500000 steps
ETITLE: TS BOND ANGLE DIHED IMPRP ELECT VDW BOUNDARY MISC KINETIC TOTAL TEMP POTENTIAL TOTALAVG TEMPAVG PRESSURE GPRESSURE VOLUME PRESSAVG GPRESSAVG
ENERGY: 0 3.5150 3.3145 9.2050 0.0000 -10664.9672 1455.5140 0.0000 0.0000 1743.0872 -7450.3314 300.6551 -9193.4186 -7450.3314 300.6551 238.4111 321.8215 29713.1780 238.4111 321.8215
ENERGY: 300000 4.0813 11.4000 6.8319 0.0000 -10584.9174 1429.6468 0.0000 0.0000 1692.5188 -7440.4386 291.9329 -9132.9574 -7401.5443 299.0965 17.4572 43.5288 29803.1185 -133.2418 -33.5524
ENERGY: 600000 2.9173 8.0572 6.1719 0.0000 -10636.0430 1424.8892 0.0000 0.0000 1754.5752 -7439.4321 302.6366 -9194.0073 -7372.7682 302.6056 50.8793 118.5602 29779.5962 -65.3898 21.1447
ENERGY: 900000 5.2115 5.7998 3.8613 0.0000 -10439.3190 1333.9318 0.0000 0.0000 1759.4101 -7331.1045 303.4706 -9090.5146 -7388.9931 301.5669 -411.3830 -387.2644 30027.6387 -100.2161 -32.0500
ENERGY: 1200000 3.3953 3.4773 7.6832 0.0000 -10649.4970 1475.7829 0.0000 0.0000 1713.6714 -7445.4870 295.5814 -9159.1584 -7393.8312 300.5249 216.2355 246.7473 30236.9106 -93.8373 -27.5032
ENERGY: 1500000 0.6789 5.9036 7.6963 0.0000 -10439.3097 1319.5357 0.0000 0.0000 1731.5451 -7373.9501 298.6643 -9105.4953 -7394.1976 300.7544 -751.6319 -700.3761 30188.6920 -197.6558 -129.8068
TCL: Running FEP window   5: Lambda1 0.7999999999999998 Lambda2 0.7499999999999998 [dLambda -0.050000000000000044]
TCL: Setting parameter firsttimestep to 0
TCL: Setting parameter alchLambda to 0.7999999999999998
Info: NONBONDED TABLE R-SQUARED SPACING: 0.0625
Info: NONBONDED TABLE SIZE: 705 POINTS
TCL: Setting parameter alchLambda2 to 0.7499999999999998
Info: NONBONDED TABLE R-SQUARED SPACING: 0.0625
Info: NONBONDED TABLE SIZE: 705 POINTS
TCL: Running for 1500000 steps
ETITLE: TS BOND ANGLE DIHED IMPRP ELECT VDW BOUNDARY MISC KINETIC TOTAL TEMP POTENTIAL TOTALAVG TEMPAVG PRESSURE GPRESSURE VOLUME PRESSAVG GPRESSAVG
ENERGY: 0 0.6789 5.9036 7.6963 0.0000 -10436.8461 1318.5037 0.0000 0.0000 1730.7007 -7373.3630 298.5187 -9104.0637 -7373.3630 298.5187 -806.0896 -725.5499 30188.6920 -806.0896 -725.5499
ENERGY: 300000 1.3855 6.0900 4.4688 0.0000 -10726.8666 1468.8259 0.0000 0.0000 1707.0388 -7539.0576 294.4374 -9246.0964 -7374.7929 301.7375 106.4439 207.0347 29653.4198 -284.4290 -220.6111
ENERGY: 600000 2.4963 6.9758 7.7816 0.0000 -10522.9285 1404.3541 0.0000 0.0000 1723.2367 -7378.0840 297.2313 -9101.3207 -7386.6013 300.2235 -85.1570 -37.0545 29991.7091 -265.0183 -210.2634
ENERGY: 900000 4.1447 8.0973 8.7041 0.0000 -10398.5300 1316.8199 0.0000 0.0000 1742.4552 -7318.3089 300.5461 -9060.7640 -7380.4943 298.9199 -639.5026 -469.1225 29936.9851 -279.8807 -213.4015
ENERGY: 1200000 5.1398 4.1442 4.8919 0.0000 -10543.6685 1445.7032 0.0000 0.0000 1751.4375 -7332.3519 302.0954 -9083.7894 -7383.2150 298.1675 620.9306 680.8635 29705.0856 -273.0457 -210.8578
ENERGY: 1500000 2.4003 3.9549 2.2636 0.0000 -10645.2792 1499.5216 0.0000 0.0000 1714.7291 -7422.4098 295.7638 -9137.1389 -7380.5323 297.7089 400.1113 431.8056 30350.0173 -258.7917 -191.9913
TCL: Running FEP window   6: Lambda1 0.7499999999999998 Lambda2 0.6999999999999997 [dLambda -0.050000000000000044]
TCL: Setting parameter firsttimestep to 0
TCL: Setting parameter alchLambda to 0.7499999999999998
Info: NONBONDED TABLE R-SQUARED SPACING: 0.0625
Info: NONBONDED TABLE SIZE: 705 POINTS
TCL: Setting parameter alchLambda2 to 0.6999999999999997
Info: NONBONDED TABLE R-SQUARED SPACING: 0.0625
Info: NONBONDED TABLE SIZE: 705 POINTS
TCL: Running for 1500000 steps
ETITLE: TS BOND ANGLE DIHED IMPRP ELECT VDW BOUNDARY MISC KINETIC TOTAL TEMP POTENTIAL TOTALAVG TEMPAVG PRESSURE GPRESSURE VOLUME PRESSAVG GPRESSAVG
ENERGY: 0 2.4003 3.9549 2.2636 0.0000 -10643.2578 1499.0814 0.0000 0.0000 1713.8520 -7421.7057 295.6125 -9135.5577 -7421.7057 295.6125 345.1802 421.2960 30350.0173 345.1802 421.2960
ENERGY: 300000 5.8619 5.5777 10.6045 0.0000 -10502.4974 1389.3403 0.0000 0.0000 1658.4300 -7432.6830 286.0531 -9091.1130 -7410.5528 291.3669 -284.0393 -193.7029 29881.5514 77.0878 158.3323
ENERGY: 600000 2.4627 8.4490 5.5190 0.0000 -10459.7927 1332.1800 0.0000 0.0000 1761.0776 -7350.1045 303.7582 -9111.1821 -7382.3492 295.9712 -679.4272 -619.6957 30111.4633 -62.3086 6.6698
ENERGY: 900000 4.2896 8.9869 3.3956 0.0000 -10450.1756 1377.2546 0.0000 0.0000 1760.7087 -7295.5402 303.6946 -9056.2488 -7371.0696 298.7014 -277.2881 -183.5399 29830.3563 -71.3431 0.8253
ENERGY: 1200000 2.7249 7.3880 3.7892 0.0000 -10527.8958 1408.0394 0.0000 0.0000 1729.5434 -7376.4109 298.3191 -9105.9543 -7376.2731 298.8680 35.0375 69.0567 29820.9976 -94.1362 -26.0848
ENERGY: 1500000 1.8311 4.4806 7.3331 0.0000 -10480.1496 1360.8139 0.0000 0.0000 1730.0165 -7375.6744 298.4007 -9105.6909 -7372.7708 299.0987 -405.7752 -383.7507 30062.8090 -159.1287 -98.7497
TCL: Running FEP window   7: Lambda1 0.6999999999999997 Lambda2 0.6499999999999997 [dLambda -0.050000000000000044]
TCL: Setting parameter firsttimestep to 0
TCL: Setting parameter alchLambda to 0.6999999999999997
Info: NONBONDED TABLE R-SQUARED SPACING: 0.0625
Info: NONBONDED TABLE SIZE: 705 POINTS
TCL: Setting parameter alchLambda2 to 0.6499999999999997
Info: NONBONDED TABLE R-SQUARED SPACING: 0.0625
Info: NONBONDED TABLE SIZE: 705 POINTS
TCL: Running for 1500000 steps
ETITLE: TS BOND ANGLE DIHED IMPRP ELECT VDW BOUNDARY MISC KINETIC TOTAL TEMP POTENTIAL TOTALAVG TEMPAVG PRESSURE GPRESSURE VOLUME PRESSAVG GPRESSAVG
ENERGY: 0 1.8311 4.4806 7.3331 0.0000 -10478.6328 1360.5647 0.0000 0.0000 1729.1526 -7375.2708 298.2516 -9104.4233 -7375.2708 298.2516 -481.8026 -395.1273 30062.8090 -481.8026 -395.1273
ENERGY: 300000 3.6295 5.9447 6.2414 0.0000 -10577.0405 1435.5870 0.0000 0.0000 1749.3264 -7376.3115 301.7313 -9125.6379 -7409.8798 297.8356 311.6898 414.0775 29672.1851 54.1691 135.5542
ENERGY: 600000 1.7209 3.8563 5.8565 0.0000 -10579.3345 1420.5429 0.0000 0.0000 1727.3814 -7419.9765 297.9461 -9147.3579 -7421.7087 297.8404 26.7757 178.9734 29748.8400 151.4196 246.0071
ENERGY: 900000 1.4760 3.1475 5.6354 0.0000 -10580.7258 1408.6625 0.0000 0.0000 1770.5282 -7391.2762 305.3883 -9161.8043 -7413.2386 299.3643 46.6944 86.1304 29662.3809 151.6180 240.3405
ENERGY: 1200000 4.2335 5.4808 8.3665 0.0000 -10592.3157 1449.4964 0.0000 0.0000 1730.3728 -7394.3657 298.4621 -9124.7385 -7404.1631 299.7236 -106.1992 9.4716 30232.9622 135.3927 215.8229
ENERGY: 1500000 1.6800 5.8267 2.8183 0.0000 -10465.9636 1357.9906 0.0000 0.0000 1743.8338 -7353.8141 300.7839 -9097.6479 -7401.3742 300.5808 -535.5868 -456.0207 30218.3156 78.3781 153.6969
TCL: Running FEP window   8: Lambda1 0.6499999999999997 Lambda2 0.5999999999999996 [dLambda -0.050000000000000044]
TCL: Setting parameter firsttimestep to 0
TCL: Setting parameter alchLambda to 0.6499999999999997
Info: NONBONDED TABLE R-SQUARED SPACING: 0.0625
Info: NONBONDED TABLE SIZE: 705 POINTS
TCL: Setting parameter alchLambda2 to 0.5999999999999996
Info: NONBONDED TABLE R-SQUARED SPACING: 0.0625
Info: NONBONDED TABLE SIZE: 705 POINTS
TCL: Running for 1500000 steps
ETITLE: TS BOND ANGLE DIHED IMPRP ELECT VDW BOUNDARY MISC KINETIC TOTAL TEMP POTENTIAL TOTALAVG TEMPAVG PRESSURE GPRESSURE VOLUME PRESSAVG GPRESSAVG
ENERGY: 0 1.6800 5.8267 2.8183 0.0000 -10464.1606 1357.9629 0.0000 0.0000 1742.9641 -7352.9086 300.6339 -9095.8727 -7352.9086 300.6339 -539.9466 -462.3886 30218.3156 -539.9466 -462.3886
ENERGY: 300000 6.9124 2.7147 7.7726 0.0000 -10431.9822 1353.0350 0.0000 0.0000 1752.4421 -7309.1055 302.2687 -9061.5476 -7344.3292 301.0349 -420.6348 -372.7366 30467.2115 -517.5448 -448.6432
ENERGY: 600000 5.9919 3.3466 5.5304 0.0000 -10511.2386 1341.2328 0.0000 0.0000 1724.1330 -7431.0040 297.3858 -9155.1369 -7358.1775 302.2279 -745.8621 -664.8940 30051.1249 -434.6031 -366.0194
ENERGY: 900000 2.4503 8.4018 5.2738 0.0000 -10644.1527 1445.9858 0.0000 0.0000 1663.5913 -7518.4497 286.9434 -9182.0410 -7373.2585 300.7343 -83.1226 -29.4949 29945.4908 -348.8687 -285.4390
ENERGY: 1200000 2.7475 6.4750 8.6657 0.0000 -10726.4809 1556.7036 0.0000 0.0000 1731.2959 -7420.5931 298.6213 -9151.8890 -7390.2228 300.0869 779.9332 820.7555 30016.1090 -182.6369 -120.2968
ENERGY: 1500000 5.0379 6.0189 6.1426 0.0000 -10509.0437 1387.6876 0.0000 0.0000 1731.1856 -7372.9711 298.6023 -9104.1567 -7389.6589 300.5694 -266.8157 -261.1570 29934.7952 -182.2454 -122.9825
TCL: Running FEP window   9: Lambda1 0.5999999999999996 Lambda2 0.5499999999999996 [dLambda -0.050000000000000044]
TCL: Setting parameter firsttimestep to 0
TCL: Setting parameter alchLambda to 0.5999999999999996
Info: NONBONDED TABLE R-SQUARED SPACING: 0.0625
Info: NONBONDED TABLE SIZE: 705 POINTS
TCL: Setting parameter alchLambda2 to 0.5499999999999996
Info: NONBONDED TABLE R-SQUARED SPACING: 0.0625
Info: NONBONDED TABLE SIZE: 705 POINTS
TCL: Running for 1500000 steps
ETITLE: TS BOND ANGLE DIHED IMPRP ELECT VDW BOUNDARY MISC KINETIC TOTAL TEMP POTENTIAL TOTALAVG TEMPAVG PRESSURE GPRESSURE VOLUME PRESSAVG GPRESSAVG
ENERGY: 0 5.0379 6.0189 6.1426 0.0000 -10507.6368 1387.5586 0.0000 0.0000 1730.3049 -7372.5740 298.4504 -9102.8788 -7372.5740 298.4504 -343.7504 -267.5622 29934.7952 -343.7504 -267.5622
ENERGY: 300000 3.3367 6.0630 2.9439 0.0000 -10376.6218 1284.3323 0.0000 0.0000 1743.8955 -7336.0504 300.7946 -9079.9459 -7359.6032 298.6183 -934.6796 -880.7369 30017.7650 -539.4629 -466.4425
ENERGY: 600000 4.4484 3.7990 5.4722 0.0000 -10536.5294 1407.1575 0.0000 0.0000 1726.7702 -7388.8822 297.8407 -9115.6524 -7349.7412 299.5671 -591.2544 -476.3398 30659.1883 -506.8831 -445.4367
ENERGY: 900000 4.6875 4.0961 7.8939 0.0000 -10609.5621 1412.8108 0.0000 0.0000 1716.7188 -7463.3550 296.1070 -9180.0738 -7379.0252 298.4838 -283.2386 -186.8849 29758.8178 -436.3873 -377.9326
ENERGY: 1200000 8.2311 5.5477 4.5213 0.0000 -10588.0428 1408.9101 0.0000 0.0000 1696.9832 -7463.8495 292.7029 -9160.8326 -7390.1311 297.7821 -163.1670 -129.9324 30112.8272 -365.2918 -309.5104
ENERGY: 1500000 3.7920 2.9581 6.7049 0.0000 -10709.1434 1478.6934 0.0000 0.0000 1714.6447 -7502.3503 295.7493 -9216.9951 -7391.2300 297.8370 7.8166 19.0018 30014.4162 -303.1225 -245.7615
TCL: Running FEP window  10: Lambda1 0.5499999999999996 Lambda2 0.4999999999999996 [dLambda -0.04999999999999999]
TCL: Setting parameter firsttimestep to 0
TCL: Setting parameter alchLambda to 0.5499999999999996
Info: NONBONDED TABLE R-SQUARED SPACING: 0.0625
Info: NONBONDED TABLE SIZE: 705 POINTS
TCL: Setting parameter alchLambda2 to 0.4999999999999996
Info: NONBONDED TABLE R-SQUARED SPACING: 0.0625
Info: NONBONDED TABLE SIZE: 705 POINTS
TCL: Running for 1500000 steps
ETITLE: TS BOND ANGLE DIHED IMPRP ELECT VDW BOUNDARY MISC KINETIC TOTAL TEMP POTENTIAL TOTALAVG TEMPAVG PRESSURE GPRESSURE VOLUME PRESSAVG GPRESSAVG
ENERGY: 0 3.7920 2.9581 6.7049 0.0000 -10708.9455 1478.2656 0.0000 0.0000 1713.8031 -7503.4219 295.6041 -9217.2250 -7503.4219 295.6041 -89.1648 6.1616 30014.4162 -89.1648 6.1616
ENERGY: 300000 3.3061 5.9549 7.0482 0.0000 -10621.9294 1480.2304 0.0000 0.0000 1691.9153 -7433.4744 291.8288 -9125.3897 -7416.9492 300.7937 594.8991 711.1432 29603.5573 -138.6937 -59.2003
ENERGY: 600000 2.2609 4.0247 5.3528 0.0000 -10446.8263 1352.7331 0.0000 0.0000 1733.6952 -7348.7596 299.0352 -9082.4548 -7365.4253 302.9691 -414.5708 -383.2238 30272.3702 -253.0299 -190.1799
ENERGY: 900000 1.5766 3.3452 5.3835 0.0000 -10568.6753 1448.5585 0.0000 0.0000 1692.8589 -7416.9526 291.9915 -9109.8115 -7375.2343 301.5517 348.9215 404.7885 29947.6818 -90.4846 -26.3030
ENERGY: 1200000 6.6298 5.6973 4.5990 0.0000 -10598.9592 1382.1367 0.0000 0.0000 1767.5242 -7432.3723 304.8701 -9199.8965 -7378.0143 302.8418 -479.1401 -389.6865 29878.5739 -61.1030 5.4194
ENERGY: 1500000 1.8871 3.4787 3.9403 0.0000 -10459.8152 1372.7313 0.0000 0.0000 1734.6167 -7343.1611 299.1941 -9077.7778 -7377.1076 301.5197 -394.7505 -357.6013 30189.3315 -90.9546 -31.6019
TCL: Running FEP window  11: Lambda1 0.4999999999999996 Lambda2 0.4499999999999996 [dLambda -0.04999999999999999]
TCL: Setting parameter firsttimestep to 0
TCL: Setting parameter alchLambda to 0.4999999999999996
Info: NONBONDED TABLE R-SQUARED SPACING: 0.0625
Info: NONBONDED TABLE SIZE: 705 POINTS
TCL: Setting parameter alchLambda2 to 0.4499999999999996
Info: NONBONDED TABLE R-SQUARED SPACING: 0.0625
Info: NONBONDED TABLE SIZE: 705 POINTS
TCL: Running for 1500000 steps
ETITLE: TS BOND ANGLE DIHED IMPRP ELECT VDW BOUNDARY MISC KINETIC TOTAL TEMP POTENTIAL TOTALAVG TEMPAVG PRESSURE GPRESSURE VOLUME PRESSAVG GPRESSAVG
ENERGY: 0 1.8871 3.4787 3.9403 0.0000 -10459.2993 1373.4034 0.0000 0.0000 1733.7654 -7342.8244 299.0473 -9076.5899 -7342.8244 299.0473 -447.8001 -357.8795 30189.3315 -447.8001 -357.8795
ENERGY: 300000 1.5143 5.6087 6.0602 0.0000 -10585.6830 1429.1374 0.0000 0.0000 1764.8159 -7378.5465 304.4030 -9143.3624 -7389.2367 301.9037 151.0487 145.8798 29773.3960 -62.4765 -26.4438
ENERGY: 600000 3.2023 6.8962 4.4765 0.0000 -10609.6576 1415.2498 0.0000 0.0000 1764.5618 -7415.2710 304.3592 -9179.8328 -7375.2775 302.0346 -102.0258 -88.7012 29938.9974 -131.2160 -99.3971
ENERGY: 900000 5.5599 3.5958 6.5743 0.0000 -10439.6007 1262.9612 0.0000 0.0000 1743.4666 -7417.4429 300.7206 -9160.9094 -7385.9797 300.8386 -1543.3926 -1427.0742 30180.3360 -276.0186 -227.5443
ENERGY: 1200000 4.8985 2.5499 4.5669 0.0000 -10582.3479 1462.3454 0.0000 0.0000 1756.2042 -7351.7830 302.9176 -9107.9872 -7381.0070 300.1626 419.2376 465.0056 30012.4987 -132.8899 -96.5128
ENERGY: 1500000 5.0110 5.0115 7.1084 0.0000 -10569.3305 1433.0415 0.0000 0.0000 1689.2969 -7429.8610 291.3772 -9119.1579 -7377.7252 299.3405 -107.9987 -76.6648 30186.0138 -206.3381 -164.9522
TCL: Running FEP window  12: Lambda1 0.4499999999999996 Lambda2 0.39999999999999963 [dLambda -0.04999999999999999]
TCL: Setting parameter firsttimestep to 0
TCL: Setting parameter alchLambda to 0.4499999999999996
Info: NONBONDED TABLE R-SQUARED SPACING: 0.0625
Info: NONBONDED TABLE SIZE: 705 POINTS
TCL: Setting parameter alchLambda2 to 0.39999999999999963
Info: NONBONDED TABLE R-SQUARED SPACING: 0.0625
Info: NONBONDED TABLE SIZE: 705 POINTS
TCL: Running for 1500000 steps
ETITLE: TS BOND ANGLE DIHED IMPRP ELECT VDW BOUNDARY MISC KINETIC TOTAL TEMP POTENTIAL TOTALAVG TEMPAVG PRESSURE GPRESSURE VOLUME PRESSAVG GPRESSAVG
ENERGY: 0 5.0110 5.0115 7.1084 0.0000 -10569.3300 1433.5806 0.0000 0.0000 1688.4299 -7430.1885 291.2276 -9118.6184 -7430.1885 291.2276 -156.4147 -77.6479 30186.0138 -156.4147 -77.6479
ENERGY: 300000 6.3287 2.9548 4.0198 0.0000 -10679.1762 1453.2230 0.0000 0.0000 1693.6803 -7518.9696 292.1332 -9212.6499 -7424.0892 296.3744 98.6891 107.0555 29342.4513 269.4394 342.5988
ENERGY: 600000 3.3239 7.8342 3.1471 0.0000 -10421.6052 1338.0272 0.0000 0.0000 1777.3009 -7291.9719 306.5565 -9069.2729 -7393.1343 298.7976 -720.9238 -618.2063 30659.7779 147.2803 221.0799
ENERGY: 900000 4.2376 7.8832 5.9631 0.0000 -10667.2888 1481.4784 0.0000 0.0000 1730.1297 -7437.5968 298.4202 -9167.7266 -7402.4712 297.5843 173.1471 230.6330 30188.4507 234.1366 303.0958
ENERGY: 1200000 4.6467 5.9011 4.5356 0.0000 -10529.5775 1440.6152 0.0000 0.0000 1732.8913 -7340.9876 298.8965 -9073.8789 -7398.9668 297.4105 261.5560 340.7922 29787.6704 198.8640 271.1063
ENERGY: 1500000 1.8638 8.0276 4.3908 0.0000 -10732.1493 1558.2725 0.0000 0.0000 1744.2447 -7415.3498 300.8548 -9159.5946 -7390.2640 298.3161 1076.0241 1083.4572 29908.0675 236.2843 299.0437
TCL: Running FEP window  13: Lambda1 0.39999999999999963 Lambda2 0.34999999999999964 [dLambda -0.04999999999999999]
TCL: Setting parameter firsttimestep to 0
TCL: Setting parameter alchLambda to 0.39999999999999963
Info: NONBONDED TABLE R-SQUARED SPACING: 0.0625
Info: NONBONDED TABLE SIZE: 705 POINTS
TCL: Setting parameter alchLambda2 to 0.34999999999999964
Info: NONBONDED TABLE R-SQUARED SPACING: 0.0625
Info: NONBONDED TABLE SIZE: 705 POINTS
TCL: Running for 1500000 steps
ETITLE: TS BOND ANGLE DIHED IMPRP ELECT VDW BOUNDARY MISC KINETIC TOTAL TEMP POTENTIAL TOTALAVG TEMPAVG PRESSURE GPRESSURE VOLUME PRESSAVG GPRESSAVG
ENERGY: 0 1.8638 8.0276 4.3908 0.0000 -10732.1478 1558.0114 0.0000 0.0000 1743.3712 -7416.4830 300.7041 -9159.8542 -7416.4830 300.7041 1002.2877 1074.9507 29908.0675 1002.2877 1074.9507
ENERGY: 300000 4.6521 5.3017 3.0562 0.0000 -10504.8059 1420.5302 0.0000 0.0000 1747.3063 -7323.9594 301.3829 -9071.2657 -7345.3528 297.7952 11.9875 79.7822 30145.2997 245.6056 309.0742
ENERGY: 600000 3.8741 6.5565 5.2699 0.0000 -10531.5680 1444.0253 0.0000 0.0000 1749.3836 -7322.4587 301.7412 -9071.8423 -7361.5929 298.1914 41.4462 97.1416 30354.2659 102.1561 179.1029
ENERGY: 900000 2.4353 3.6130 3.7948 0.0000 -10471.4506 1404.4207 0.0000 0.0000 1713.5693 -7343.6174 295.5638 -9057.1868 -7358.4106 297.8381 -67.7937 -22.6086 30003.0153 115.8235 186.2776
ENERGY: 1200000 4.2602 5.9394 3.3960 0.0000 -10493.7678 1335.8823 0.0000 0.0000 1764.1136 -7380.1763 304.2819 -9144.2899 -7357.8733 299.6874 -756.2259 -694.2728 29935.2132 41.2638 110.9459
ENERGY: 1500000 2.6295 4.6614 3.7989 0.0000 -10605.0778 1436.0151 0.0000 0.0000 1751.6867 -7406.2862 302.1384 -9157.9728 -7358.9680 300.5205 26.9825 143.5638 29745.3077 107.5363 180.3943
TCL: Running FEP window  14: Lambda1 0.34999999999999964 Lambda2 0.29999999999999966 [dLambda -0.04999999999999999]
TCL: Setting parameter firsttimestep to 0
TCL: Setting parameter alchLambda to 0.34999999999999964
Info: NONBONDED TABLE R-SQUARED SPACING: 0.0625
Info: NONBONDED TABLE SIZE: 705 POINTS
TCL: Setting parameter alchLambda2 to 0.29999999999999966
Info: NONBONDED TABLE R-SQUARED SPACING: 0.0625
Info: NONBONDED TABLE SIZE: 705 POINTS
TCL: Running for 1500000 steps
ETITLE: TS BOND ANGLE DIHED IMPRP ELECT VDW BOUNDARY MISC KINETIC TOTAL TEMP POTENTIAL TOTALAVG TEMPAVG PRESSURE GPRESSURE VOLUME PRESSAVG GPRESSAVG
ENERGY: 0 2.6295 4.6614 3.7989 0.0000 -10605.0768 1436.2298 0.0000 0.0000 1750.7921 -7406.9651 301.9841 -9157.7572 -7406.9651 301.9841 43.4446 134.0350 29745.3077 43.4446 134.0350
ENERGY: 300000 3.3774 4.9001 4.9276 0.0000 -10744.8168 1555.3790 0.0000 0.0000 1725.7004 -7450.5323 297.6562 -9176.2327 -7412.3356 297.9226 1104.1727 1194.6385 29500.7400 410.6354 479.5578
ENERGY: 600000 3.9370 5.4279 8.7502 0.0000 -10506.3665 1369.8371 0.0000 0.0000 1754.6444 -7363.7698 302.6486 -9118.4142 -7391.1109 298.0324 -462.7365 -404.3352 29896.6551 223.7155 291.9281
ENERGY: 900000 3.9488 5.4771 3.6335 0.0000 -10512.9616 1456.6489 0.0000 0.0000 1714.7798 -7328.4733 295.7726 -9043.2532 -7387.6486 297.7961 362.5348 435.7298 30228.4507 214.7577 293.2840
ENERGY: 1200000 2.7577 6.7802 5.3284 0.0000 -10637.0227 1479.4119 0.0000 0.0000 1703.0061 -7439.7384 293.7418 -9142.7445 -7394.5963 297.2506 4.6055 38.2690 30607.6423 107.6198 180.0358
ENERGY: 1500000 3.6010 4.3586 5.6166 0.0000 -10475.9102 1373.3573 0.0000 0.0000 1775.5005 -7313.4763 306.2459 -9088.9768 -7393.0905 297.5974 -315.5962 -342.9900 30249.9545 63.6355 130.5856
TCL: Running FEP window  15: Lambda1 0.29999999999999966 Lambda2 0.24999999999999967 [dLambda -0.04999999999999999]
TCL: Setting parameter firsttimestep to 0
TCL: Setting parameter alchLambda to 0.29999999999999966
Info: NONBONDED TABLE R-SQUARED SPACING: 0.0625
Info: NONBONDED TABLE SIZE: 705 POINTS
TCL: Setting parameter alchLambda2 to 0.24999999999999967
Info: NONBONDED TABLE R-SQUARED SPACING: 0.0625
Info: NONBONDED TABLE SIZE: 705 POINTS
TCL: Running for 1500000 steps
ETITLE: TS BOND ANGLE DIHED IMPRP ELECT VDW BOUNDARY MISC KINETIC TOTAL TEMP POTENTIAL TOTALAVG TEMPAVG PRESSURE GPRESSURE VOLUME PRESSAVG GPRESSAVG
ENERGY: 0 3.6010 4.3586 5.6166 0.0000 -10475.9098 1373.7054 0.0000 0.0000 1774.6569 -7313.9712 306.1004 -9088.6281 -7313.9712 306.1004 -425.3438 -345.3245 30249.9545 -425.3438 -345.3245
ENERGY: 300000 2.0388 5.6645 3.8795 0.0000 -10582.0924 1428.0246 0.0000 0.0000 1778.9779 -7363.5070 306.8457 -9142.4849 -7357.4676 306.6781 -67.1519 27.8772 29915.6391 -283.3949 -225.5606
ENERGY: 600000 2.3731 4.9301 3.7442 0.0000 -10587.5375 1432.3233 0.0000 0.0000 1660.7495 -7483.4174 286.4532 -9144.1669 -7375.8210 302.8108 -39.6875 48.4767 29834.9761 -314.4379 -256.0944
ENERGY: 900000 4.6713 4.7241 3.4216 0.0000 -10537.0421 1376.2982 0.0000 0.0000 1685.1152 -7462.8117 290.6559 -9147.9270 -7388.6243 302.0275 -491.9625 -453.2492 30145.0170 -372.3245 -303.4066
ENERGY: 1200000 3.1415 5.0747 6.7646 0.0000 -10651.8955 1474.8820 0.0000 0.0000 1767.9526 -7394.0801 304.9440 -9162.0327 -7391.5228 300.8928 6.1001 40.0133 30045.6504 -344.9853 -280.2867
ENERGY: 1500000 2.5116 6.1163 7.9789 0.0000 -10528.0496 1442.8281 0.0000 0.0000 1789.4448 -7279.1698 308.6511 -9068.6146 -7384.8143 301.1923 232.0008 307.3567 29851.8931 -263.9036 -194.7690
TCL: Running FEP window  16: Lambda1 0.24999999999999967 Lambda2 0.19999999999999968 [dLambda -0.04999999999999999]
TCL: Setting parameter firsttimestep to 0
TCL: Setting parameter alchLambda to 0.24999999999999967
Info: NONBONDED TABLE R-SQUARED SPACING: 0.0625
Info: NONBONDED TABLE SIZE: 705 POINTS
TCL: Setting parameter alchLambda2 to 0.19999999999999968
Info: NONBONDED TABLE R-SQUARED SPACING: 0.0625
Info: NONBONDED TABLE SIZE: 705 POINTS
TCL: Running for 1500000 steps
ETITLE: TS BOND ANGLE DIHED IMPRP ELECT VDW BOUNDARY MISC KINETIC TOTAL TEMP POTENTIAL TOTALAVG TEMPAVG PRESSURE GPRESSURE VOLUME PRESSAVG GPRESSAVG
ENERGY: 0 2.5116 6.1163 7.9789 0.0000 -10528.0497 1443.3014 0.0000 0.0000 1788.5195 -7279.6219 308.4915 -9068.1414 -7279.6219 308.4915 224.9391 305.0968 29851.8931 224.9391 305.0968
ENERGY: 300000 4.6873 3.7797 6.1520 0.0000 -10501.9766 1398.2498 0.0000 0.0000 1762.6557 -7326.4522 304.0304 -9089.1078 -7349.7944 300.7454 -160.7743 -137.0696 30150.5545 69.2823 114.1661
ENERGY: 600000 2.7073 3.0540 4.2461 0.0000 -10527.2188 1418.4491 0.0000 0.0000 1761.2676 -7337.4947 303.7910 -9098.7623 -7368.5454 299.4835 214.1300 248.8351 29766.3499 82.6753 143.3580
ENERGY: 900000 5.1659 7.1009 7.2864 0.0000 -10586.2123 1419.3546 0.0000 0.0000 1753.8177 -7393.4868 302.5060 -9147.3045 -7365.1314 300.3119 -141.8167 -72.5655 29813.1011 -3.6950 57.2248
ENERGY: 1200000 3.9591 6.4978 2.5315 0.0000 -10501.9998 1350.0475 0.0000 0.0000 1700.5097 -7438.4543 293.3112 -9138.9640 -7374.5986 299.9474 -877.1337 -718.7655 30365.5206 -4.8184 68.4084
ENERGY: 1500000 6.6583 4.4263 4.0281 0.0000 -10581.9240 1379.6019 0.0000 0.0000 1690.3131 -7496.8962 291.5524 -9187.2093 -7380.4489 299.7300 -715.7656 -643.8963 29605.2686 -15.7481 55.0303
TCL: Running FEP window  17: Lambda1 0.19999999999999968 Lambda2 0.1499999999999997 [dLambda -0.04999999999999999]
TCL: Setting parameter firsttimestep to 0
TCL: Setting parameter alchLambda to 0.19999999999999968
Info: NONBONDED TABLE R-SQUARED SPACING: 0.0625
Info: NONBONDED TABLE SIZE: 705 POINTS
TCL: Setting parameter alchLambda2 to 0.1499999999999997
Info: NONBONDED TABLE R-SQUARED SPACING: 0.0625
Info: NONBONDED TABLE SIZE: 705 POINTS
TCL: Running for 1500000 steps
ETITLE: TS BOND ANGLE DIHED IMPRP ELECT VDW BOUNDARY MISC KINETIC TOTAL TEMP POTENTIAL TOTALAVG TEMPAVG PRESSURE GPRESSURE VOLUME PRESSAVG GPRESSAVG
ENERGY: 0 6.6583 4.4263 4.0281 0.0000 -10581.9252 1379.0318 0.0000 0.0000 1689.4700 -7498.3106 291.4070 -9187.7806 -7498.3106 291.4070 -733.5783 -651.1237 29605.2686 -733.5783 -651.1237
ENERGY: 300000 4.2514 7.5526 7.7907 0.0000 -10673.1722 1480.7355 0.0000 0.0000 1669.0975 -7503.7444 287.8931 -9172.8419 -7405.6016 296.2823 392.5404 480.4491 29588.6930 -303.9032 -247.0041
ENERGY: 600000 5.0555 5.4410 5.9331 0.0000 -10588.5589 1413.6092 0.0000 0.0000 1751.7960 -7406.7240 302.1573 -9158.5200 -7409.5101 297.4929 -319.7991 -257.7389 30210.8996 -339.0274 -275.4589
ENERGY: 900000 3.2936 6.1480 4.3309 0.0000 -10590.4386 1407.1973 0.0000 0.0000 1732.4564 -7437.0123 298.8215 -9169.4687 -7409.6199 299.1928 -223.0773 -185.5246 29959.5413 -218.4085 -157.1950
ENERGY: 1200000 3.8789 5.7226 5.5484 0.0000 -10514.3101 1461.6357 0.0000 0.0000 1754.8080 -7282.7166 302.6768 -9037.5246 -7395.0066 300.3079 818.8414 852.1091 29666.8491 -69.1637 -11.4605
ENERGY: 1500000 4.4424 7.7216 7.4520 0.0000 -10551.0973 1420.9433 0.0000 0.0000 1730.2522 -7380.2857 298.4413 -9110.5379 -7387.4583 301.0736 -283.3196 -219.8645 29981.2097 -60.6895 -0.1049
TCL: Running FEP window  18: Lambda1 0.1499999999999997 Lambda2 0.09999999999999969 [dLambda -0.05 ]
TCL: Setting parameter firsttimestep to 0
TCL: Setting parameter alchLambda to 0.1499999999999997
Info: NONBONDED TABLE R-SQUARED SPACING: 0.0625
Info: NONBONDED TABLE SIZE: 705 POINTS
TCL: Setting parameter alchLambda2 to 0.09999999999999969
Info: NONBONDED TABLE R-SQUARED SPACING: 0.0625
Info: NONBONDED TABLE SIZE: 705 POINTS
TCL: Running for 1500000 steps
ETITLE: TS BOND ANGLE DIHED IMPRP ELECT VDW BOUNDARY MISC KINETIC TOTAL TEMP POTENTIAL TOTALAVG TEMPAVG PRESSURE GPRESSURE VOLUME PRESSAVG GPRESSAVG
ENERGY: 0 4.4424 7.7216 7.4520 0.0000 -10551.0980 1420.4244 0.0000 0.0000 1729.3569 -7381.7007 298.2869 -9111.0576 -7381.7007 298.2869 -290.1942 -225.3579 29981.2097 -290.1942 -225.3579
ENERGY: 300000 1.0933 7.5667 10.2037 0.0000 -10363.3592 1252.3632 0.0000 0.0000 1751.7828 -7340.3496 302.1550 -9092.1323 -7418.9594 297.6185 -1248.8246 -1146.2633 29911.5394 -487.7199 -388.9631
ENERGY: 600000 4.4641 5.8564 3.1366 0.0000 -10614.4453 1392.6661 0.0000 0.0000 1736.1401 -7472.1819 299.4569 -9208.3221 -7423.5680 298.3517 -595.2100 -632.2647 29913.4956 -394.3499 -329.4179
ENERGY: 900000 3.8573 6.1756 9.4001 0.0000 -10617.9722 1436.9656 0.0000 0.0000 1719.5544 -7442.0193 296.5961 -9161.5736 -7419.7424 299.0396 -200.9037 -96.2802 29858.0288 -294.1587 -235.1273
ENERGY: 1200000 6.6331 5.4338 5.4134 0.0000 -10457.4752 1341.6793 0.0000 0.0000 1775.3276 -7322.9880 306.2161 -9098.3156 -7395.9633 300.8736 -1029.8863 -937.2090 30221.4563 -257.8961 -198.7974
ENERGY: 1500000 4.8631 4.4006 7.0963 0.0000 -10600.9189 1458.8052 0.0000 0.0000 1702.2281 -7423.5257 293.6076 -9125.7538 -7388.1350 300.5759 287.5420 311.4906 29683.4885 -189.1240 -129.7659
TCL: Running FEP window  19: Lambda1 0.09999999999999969 Lambda2 0.049999999999999684 [dLambda -0.05 ]
TCL: Setting parameter firsttimestep to 0
TCL: Setting parameter alchLambda to 0.09999999999999969
Info: NONBONDED TABLE R-SQUARED SPACING: 0.0625
Info: NONBONDED TABLE SIZE: 705 POINTS
TCL: Setting parameter alchLambda2 to 0.049999999999999684
Info: NONBONDED TABLE R-SQUARED SPACING: 0.0625
Info: NONBONDED TABLE SIZE: 705 POINTS
TCL: Running for 1500000 steps
ETITLE: TS BOND ANGLE DIHED IMPRP ELECT VDW BOUNDARY MISC KINETIC TOTAL TEMP POTENTIAL TOTALAVG TEMPAVG PRESSURE GPRESSURE VOLUME PRESSAVG GPRESSAVG
ENERGY: 0 4.8631 4.4006 7.0963 0.0000 -10600.9202 1458.5721 0.0000 0.0000 1701.3848 -7424.6034 293.4621 -9125.9882 -7424.6034 293.4621 225.7774 305.8574 29683.4885 225.7774 305.8574
ENERGY: 300000 7.7452 8.2336 4.1888 0.0000 -10637.9615 1423.9079 0.0000 0.0000 1730.9169 -7462.9691 298.5560 -9193.8860 -7412.3141 300.3116 -364.3128 -255.7296 29333.9930 -169.1568 -80.6595
ENERGY: 600000 3.3843 6.9484 4.1531 0.0000 -10478.5607 1391.1345 0.0000 0.0000 1782.5600 -7290.3803 307.4636 -9072.9404 -7406.0969 299.9440 -279.6310 -187.7382 30029.5854 -7.7382 80.7645
ENERGY: 900000 5.2775 4.8789 3.0599 0.0000 -10462.3484 1417.7527 0.0000 0.0000 1754.8952 -7276.4843 302.6918 -9031.3795 -7400.4940 299.7204 -89.5330 21.7618 30499.6415 -35.7757 52.5814
ENERGY: 1200000 6.6916 5.7647 5.0740 0.0000 -10387.4498 1352.7263 0.0000 0.0000 1749.8226 -7267.3706 301.8169 -9017.1932 -7393.4168 299.5013 -334.3766 -348.2337 29908.5371 -106.6433 -26.1244
ENERGY: 1500000 2.2530 6.9323 2.3216 0.0000 -10409.1786 1333.8101 0.0000 0.0000 1749.2286 -7314.6330 301.7144 -9063.8616 -7387.9930 299.9426 -789.3723 -730.0972 30406.7567 -142.5079 -63.1677
TCL: Running FEP window  20: Lambda1 0.049999999999999684 Lambda2 0.0    [dLambda -0.049999999999999684]
TCL: Setting parameter firsttimestep to 0
TCL: Setting parameter alchLambda to 0.049999999999999684
Info: NONBONDED TABLE R-SQUARED SPACING: 0.0625
Info: NONBONDED TABLE SIZE: 705 POINTS
TCL: Setting parameter alchLambda2 to 0.0
Info: NONBONDED TABLE R-SQUARED SPACING: 0.0625
Info: NONBONDED TABLE SIZE: 705 POINTS
TCL: Running for 1500000 steps
ETITLE: TS BOND ANGLE DIHED IMPRP ELECT VDW BOUNDARY MISC KINETIC TOTAL TEMP POTENTIAL TOTALAVG TEMPAVG PRESSURE GPRESSURE VOLUME PRESSAVG GPRESSAVG
ENERGY: 0 2.2530 6.9323 2.3216 0.0000 -10409.1774 1333.7373 0.0000 0.0000 1748.3601 -7315.5731 301.5646 -9063.9332 -7315.5731 301.5646 -808.4643 -731.7346 30406.7567 -808.4643 -731.7346
ENERGY: 300000 6.3349 3.6508 5.0528 0.0000 -10654.0954 1427.8894 0.0000 0.0000 1650.2618 -7560.9056 284.6442 -9211.1674 -7406.8993 297.2511 -407.1037 -364.6275 29737.5574 -241.5099 -173.3454
ENERGY: 600000 1.1117 5.8810 7.0039 0.0000 -10600.2166 1456.5153 0.0000 0.0000 1764.9418 -7364.7629 304.4247 -9129.7047 -7409.3694 298.8444 390.4608 500.0433 29630.6385 -5.5866 59.7720
ENERGY: 900000 2.0826 9.4977 4.5684 0.0000 -10680.7886 1500.7161 0.0000 0.0000 1725.8900 -7438.0339 297.6889 -9163.9238 -7406.0839 298.0020 836.2821 918.9830 29051.8663 58.4145 125.4375
ENERGY: 1200000 4.8316 7.4926 11.0416 0.0000 -10553.0052 1360.5607 0.0000 0.0000 1739.0106 -7430.0681 299.9520 -9169.0787 -7410.8388 298.2684 -872.4603 -761.6060 29997.7015 21.3131 90.3121
ENERGY: 1500000 2.1187 3.0408 6.7025 0.0000 -10480.7403 1422.6878 0.0000 0.0000 1711.6605 -7334.5300 295.2345 -9046.1905 -7403.6185 297.9372 118.1753 118.0863 30090.8306 22.1111 83.8909
TCL: Exiting due to exit command.
