Info: SIMULATION PARAMETERS:
Info: TIMESTEP               2
Info: NUMBER OF STEPS        0
Info: STEPS PER CYCLE        10
Info: PERIODIC CELL BASIS 1  32.1378 0 0
Info: PERIODIC CELL BASIS 2  0 30.0897 0
Info: PERIODIC CELL BASIS 3  0 0 31.3746
Info: PERIODIC CELL CENTER   0 0 0
Info: WRAPPING WATERS AROUND PERIODIC BOUNDARIES ON OUTPUT.
Info: WRAPPING ALL CLUSTERS AROUND PERIODIC BOUNDARIES ON OUTPUT.
Info: FIRST LDB TIMESTEP     50
Info: LAST LDB TIMESTEP     -1
Info: HOM BACKGROUND SCALING 1
Info: PME BACKGROUND SCALING 1
Info: MIN ATOMS PER PATCH    40
Info: EMPTY PATCH LOAD       40 ATOMS
Info: VELOCITY FILE          mobley_2661134_equil.vel
Info: CENTER OF MASS MOVING INITIALLY? NO
Info: DIELECTRIC             1
Info: EXCLUDE                SCALED ONE-FOUR
Info: 1-4 ELECTROSTATICS SCALED BY 0.833333
Info: MODIFIED 1-4 VDW PARAMETERS WILL BE USED
Info: DCD FILENAME           mobley_2661134_prod.dcd
Info: DCD FREQUENCY          100000
Info: DCD FIRST STEP         100000
Info: DCD FILE WILL CONTAIN UNIT CELL DATA
Info: XST FILENAME           mobley_2661134_prod.xst
Info: XST FREQUENCY          100000
Info: NO VELOCITY DCD OUTPUT
Info: NO FORCE DCD OUTPUT
Info: OUTPUT FILENAME        mobley_2661134_prod
Info: BINARY OUTPUT FILES WILL BE USED
Info: RESTART FILENAME       mobley_2661134_prod.restart
Info: RESTART FREQUENCY      100000
Info: BINARY RESTART FILES WILL BE USED
Info: CUTOFF                 9
Info: PAIRLIST DISTANCE      11
Info: PAIRLIST SHRINK RATE   0.01
Info: PAIRLIST GROW RATE     0.01
Info: PAIRLIST TRIGGER       0.3
Info: PAIRLISTS PER CYCLE    2
Info: PAIRLISTS ENABLED
Info: MARGIN                 2
Info: HYDROGEN GROUP CUTOFF  2.5
Info: PATCH DIMENSION        15.5
Info: ENERGY OUTPUT STEPS    100000
Info: ENERGY EVALUATION STEPS    100000
Info: OUTPUT ENERGY PRECISION 4
Info: CROSSTERM ENERGY INCLUDED IN DIHEDRAL
Info: TIMING OUTPUT STEPS    1000000
Info: PRESSURE OUTPUT STEPS  100000
Info: ALCHEMICAL FEP ON
Info: FEP CURRENT LAMBDA VALUE     0
Info: FEP COMPARISON LAMBDA VALUE  0.05
Info: FEP INTRA-ALCHEMICAL NON-BONDED INTERACTIONS WILL BE RETAINED
Info: FEP INTRA-ALCHEMICAL BONDED INTERACTIONS WILL BE RETAINED
Info: FEP VDW SHIFTING COEFFICIENT 5
Info: FEP ELEC. ACTIVE FOR ANNIHILATED PARTICLES BETWEEN LAMBDA = 0 AND LAMBDA = 0.5
Info: FEP ELEC. ACTIVE FOR EXNIHILATED PARTICLES BETWEEN LAMBDA = 0.5 AND LAMBDA = 1
Info: FEP VDW ACTIVE FOR ANNIHILATED PARTICLES BETWEEN LAMBDA = 0 AND LAMBDA = 1
Info: FEP VDW ACTIVE FOR EXNIHILATED PARTICLES BETWEEN LAMBDA = 0 AND LAMBDA = 1
Info: FEP BOND ACTIVE FOR ANNIHILATED PARTICLES BETWEEN LAMBDA = 1 AND LAMBDA = 1
Info: FEP BOND ACTIVE FOR EXNIHILATED PARTICLES BETWEEN LAMBDA = 0 AND LAMBDA = 0
Info: LANGEVIN DYNAMICS ACTIVE
Info: LANGEVIN TEMPERATURE   300
Info: LANGEVIN USING BBK INTEGRATOR
Info: LANGEVIN DAMPING COEFFICIENT IS 1 INVERSE PS
Info: LANGEVIN DYNAMICS APPLIED TO HYDROGENS
Info: LANGEVIN PISTON PRESSURE CONTROL ACTIVE
Info:        TARGET PRESSURE IS 1.01325 BAR
Info:     OSCILLATION PERIOD IS 50 FS
Info:             DECAY TIME IS 25 FS
Info:     PISTON TEMPERATURE IS 300 K
Info:       PRESSURE CONTROL IS GROUP-BASED
Info:    INITIAL STRAIN RATE IS -0.000836706 -0.000836706 -0.000836706
Info:       CELL FLUCTUATION IS ISOTROPIC
Info: PARTICLE MESH EWALD (PME) ACTIVE
Info: PME TOLERANCE               1e-06
Info: PME EWALD COEFFICIENT       0.348832
Info: PME INTERPOLATION ORDER     4
Info: PME GRID DIMENSIONS         36 32 32
Info: PME MAXIMUM GRID SPACING    1
Info: PME CALCULATION WILL BE PERFORMED ON GPU
Info: FULL ELECTROSTATIC EVALUATION FREQUENCY      2
Info: USING VERLET I (r-RESPA) MTS SCHEME.
Info: C1 SPLITTING OF LONG RANGE ELECTROSTATICS
Info: PLACING ATOMS IN PATCHES BY HYDROGEN GROUPS
Info: RIGID BONDS TO HYDROGEN : ALL
Info:         ERROR TOLERANCE : 1e-08
Info:          MAX ITERATIONS : 100
Info: RIGID WATER USING SETTLE ALGORITHM
Info: RANDOM NUMBER SEED     1743559408
Info: USE HYDROGEN BONDS?    NO
Info: Using AMBER format force field!
Info: AMBER PARM FILE        mobley_2661134.prmtop
Info: COORDINATE PDB         mobley_2661134.pdb
Info: Exclusions will be read from PARM file!
Info: SCNB (VDW SCALING)     2
Info: USING ARITHMETIC MEAN TO COMBINE L-J SIGMA PARAMETERS
Info: BINARY COORDINATES     mobley_2661134_equil.coor
Info: SUMMARY OF PARAMETERS:
Info: 8 BONDS
Info: 6 ANGLES
Info:   6 HARMONIC
Info:   0 COSINE-BASED
Info: 4 DIHEDRAL
Info: 0 IMPROPER
Info: 0 CROSSTERM
Info: 0 VDW
Info: 28 VDW_PAIRS
Info: 0 NBTHOLE_PAIRS
Info: To read alchdata from file: mobley_2661134.pdb
Info: To read alchflag data from column: 5
Info: STRUCTURE SUMMARY:
Info: 2960 ATOMS
Info: 2960 BONDS
Info: 20 ANGLES
Info: 34 DIHEDRALS
Info: 0 IMPROPERS
Info: 0 CROSSTERMS
Info: 3005 EXCLUSIONS
Info: 2951 RIGID BONDS
Info: ALCH: 0 ATOMS TO DISAPPEAR IN FINAL STATE
Info: ALCH: 14 ATOMS TO APPEAR IN FINAL STATE
Info: 5929 DEGREES OF FREEDOM
Info: 991 HYDROGEN GROUPS
Info: 3 ATOMS IN LARGEST HYDROGEN GROUP
Info: 991 MIGRATION GROUPS
Info: 3 ATOMS IN LARGEST MIGRATION GROUP
Info: TOTAL MASS = 17810.8 amu
Info: TOTAL CHARGE = -0.000100004 e
Info: MASS DENSITY = 0.974834 g/cm^3
Info: ATOM DENSITY = 0.0975616 atoms/A^3
Info: ADDED 0 IMPLICIT EXCLUSIONS
Info: NONBONDED TABLE R-SQUARED SPACING: 0.0625
Info: NONBONDED TABLE SIZE: 705 POINTS
Info: REMOVING COM VELOCITY -0.0581171 -0.0910683 0.135995
Info: Use 3D box decompostion in PME FFT.
Info: Updated CUDA force table with 4096 elements.
Info: Updated CUDA LJ table with 7 x 7 elements.
Info: Found 17 unique exclusion lists needing 36 bytes
TCL: Running for 1500000 steps
ETITLE: TS BOND ANGLE DIHED IMPRP ELECT VDW BOUNDARY MISC KINETIC TOTAL TEMP POTENTIAL TOTALAVG TEMPAVG PRESSURE GPRESSURE VOLUME PRESSAVG GPRESSAVG
ENERGY: 0 4.2375 3.7530 2.5768 0.0000 -10799.3429 1442.1840 0.0000 0.0000 1774.1972 -7572.3944 301.1694 -9346.5916 -7572.3944 301.1694 -416.8577 -332.8062 30339.8062 -416.8577 -332.8062
ENERGY: 300000 2.7610 3.4663 3.5194 0.0000 -10832.2629 1492.0626 0.0000 0.0000 1792.5043 -7537.9493 304.2770 -9330.4536 -7502.9856 301.5407 154.0678 211.5103 30455.9958 -140.7812 -65.4866
ENERGY: 600000 1.9528 8.2133 3.4074 0.0000 -10763.8595 1408.5116 0.0000 0.0000 1814.3816 -7527.3927 307.9907 -9341.7744 -7505.6732 302.2749 -424.1965 -324.3085 29888.7695 -282.2827 -201.5135
ENERGY: 900000 4.8744 3.1869 2.5774 0.0000 -10768.2788 1470.4305 0.0000 0.0000 1786.1792 -7501.0304 303.2033 -9287.2097 -7510.8340 302.1589 44.6378 131.4880 30616.1734 -110.5865 -31.2120
ENERGY: 1200000 3.9475 3.6579 1.8248 0.0000 -10779.6980 1435.5032 0.0000 0.0000 1764.7178 -7570.0468 299.5603 -9334.7646 -7516.7191 301.6846 -196.2830 -198.9017 30001.4811 -48.4421 17.8035
ENERGY: 1500000 2.3169 5.3436 4.9399 0.0000 -10821.1853 1491.1865 0.0000 0.0000 1849.3576 -7468.0407 313.9278 -9317.3983 -7513.6964 303.4482 269.9908 354.6421 30011.8285 -54.3381 13.4252
TCL: Running FEP window   2: Lambda1 0.05   Lambda2 0.1    [dLambda 0.05  ]
TCL: Setting parameter firsttimestep to 0
TCL: Setting parameter alchLambda to 0.05
Info: NONBONDED TABLE R-SQUARED SPACING: 0.0625
Info: NONBONDED TABLE SIZE: 705 POINTS
TCL: Setting parameter alchLambda2 to 0.1
Info: NONBONDED TABLE R-SQUARED SPACING: 0.0625
Info: NONBONDED TABLE SIZE: 705 POINTS
TCL: Running for 1500000 steps
ETITLE: TS BOND ANGLE DIHED IMPRP ELECT VDW BOUNDARY MISC KINETIC TOTAL TEMP POTENTIAL TOTALAVG TEMPAVG PRESSURE GPRESSURE VOLUME PRESSAVG GPRESSAVG
ENERGY: 0 2.3169 5.3436 4.9399 0.0000 -10821.1854 1494.5455 0.0000 0.0000 1848.4645 -7465.5750 313.7762 -9314.0395 -7465.5750 313.7762 274.1338 360.1324 30011.8285 274.1338 360.1324
ENERGY: 300000 2.3023 2.2813 3.8143 0.0000 -10731.2876 1376.4943 0.0000 0.0000 1768.9732 -7577.4223 300.2826 -9346.3955 -7516.9606 304.2169 -752.5316 -700.0768 30453.5869 -311.9446 -232.4531
ENERGY: 600000 5.5301 5.5845 5.4333 0.0000 -10647.4282 1407.8283 0.0000 0.0000 1783.9220 -7439.1301 302.8202 -9223.0521 -7498.6476 304.9278 -226.9994 -191.3338 30664.8513 -130.2340 -57.6579
ENERGY: 900000 3.0604 1.7950 3.6307 0.0000 -10720.9082 1443.6114 0.0000 0.0000 1809.5521 -7459.2586 307.1709 -9268.8108 -7514.3064 303.0782 44.2168 88.7289 30241.2520 -30.8735 35.4216
ENERGY: 1200000 3.1437 2.5800 2.6607 0.0000 -10587.3059 1344.5771 0.0000 0.0000 1830.4018 -7403.9426 310.7101 -9234.3444 -7497.4781 304.4243 -1028.7832 -976.2367 31055.9870 -109.4438 -53.7619
ENERGY: 1500000 2.0981 3.6763 5.0839 0.0000 -10723.0913 1358.0889 0.0000 0.0000 1736.3984 -7617.7457 294.7531 -9354.1441 -7499.0178 303.5098 -992.3475 -863.3963 30267.1708 -110.9789 -47.4940
TCL: Running FEP window   3: Lambda1 0.1    Lambda2 0.15000000000000002 [dLambda 0.05000000000000002]
TCL: Setting parameter firsttimestep to 0
TCL: Setting parameter alchLambda to 0.1
Info: NONBONDED TABLE R-SQUARED SPACING: 0.0625
Info: NONBONDED TABLE SIZE: 705 POINTS
TCL: Setting parameter alchLambda2 to 0.15000000000000002
Info: NONBONDED TABLE R-SQUARED SPACING: 0.0625
Info: NONBONDED TABLE SIZE: 705 POINTS
TCL: Running for 1500000 steps
ETITLE: TS BOND ANGLE DIHED IMPRP ELECT VDW BOUNDARY MISC KINETIC TOTAL TEMP POTENTIAL TOTALAVG TEMPAVG PRESSURE GPRESSURE VOLUME PRESSAVG GPRESSAVG
ENERGY: 0 2.0981 3.6763 5.0839 0.0000 -10723.0915 1360.3200 0.0000 0.0000 1735.5034 -7616.4097 294.6011 -9351.9132 -7616.4097 294.6011 -949.0415 -855.6203 30267.1708 -949.0415 -855.6203
ENERGY: 300000 1.4717 4.5930 4.1769 0.0000 -10658.2331 1387.8126 0.0000 0.0000 1773.0116 -7487.1673 300.9681 -9260.1789 -7524.7948 298.5462 -665.9306 -612.3674 30767.5307 -472.2340 -432.4784
ENERGY: 600000 1.6242 4.9685 2.7272 0.0000 -10776.1202 1497.3879 0.0000 0.0000 1793.0101 -7476.4023 304.3629 -9269.4124 -7523.5147 299.7677 357.7555 463.4329 30243.9860 -130.8244 -72.5047
ENERGY: 900000 2.0240 4.3731 5.5999 0.0000 -10668.6969 1373.6221 0.0000 0.0000 1768.6223 -7514.4554 300.2231 -9283.0777 -7520.5988 299.7107 -612.1373 -596.2715 30563.9995 -242.6306 -196.6399
ENERGY: 1200000 2.9419 4.4677 5.7719 0.0000 -10749.5422 1467.6787 0.0000 0.0000 1796.2816 -7472.4004 304.9182 -9268.6820 -7522.7138 299.2246 203.6896 262.3394 30106.7051 -188.9115 -138.2975
ENERGY: 1500000 4.0902 6.1782 2.5586 0.0000 -10690.3695 1357.2403 0.0000 0.0000 1775.4478 -7544.8544 301.3817 -9320.3022 -7527.8643 299.3026 -978.1457 -966.1473 30578.4532 -246.3430 -191.7669
TCL: Running FEP window   4: Lambda1 0.15000000000000002 Lambda2 0.2    [dLambda 0.04999999999999999]
TCL: Setting parameter firsttimestep to 0
TCL: Setting parameter alchLambda to 0.15000000000000002
Info: NONBONDED TABLE R-SQUARED SPACING: 0.0625
Info: NONBONDED TABLE SIZE: 705 POINTS
TCL: Setting parameter alchLambda2 to 0.2
Info: NONBONDED TABLE R-SQUARED SPACING: 0.0625
Info: NONBONDED TABLE SIZE: 705 POINTS
TCL: Running for 1500000 steps
ETITLE: TS BOND ANGLE DIHED IMPRP ELECT VDW BOUNDARY MISC KINETIC TOTAL TEMP POTENTIAL TOTALAVG TEMPAVG PRESSURE GPRESSURE VOLUME PRESSAVG GPRESSAVG
ENERGY: 0 4.0902 6.1782 2.5587 0.0000 -10690.3696 1356.9385 0.0000 0.0000 1774.5332 -7546.0708 301.2264 -9320.6041 -7546.0708 301.2264 -1056.9609 -965.6827 30578.4532 -1056.9609 -965.6827
ENERGY: 300000 1.8607 5.2564 3.3483 0.0000 -10857.3037 1513.4891 0.0000 0.0000 1713.1514 -7620.1978 290.8069 -9333.3492 -7512.3866 299.1556 276.5588 402.5488 30390.9862 -314.4640 -230.5997
ENERGY: 600000 3.6894 1.7614 4.2768 0.0000 -10818.1003 1452.7962 0.0000 0.0000 1781.8543 -7573.7222 302.4692 -9355.5765 -7536.7185 298.6198 -251.9498 -150.1458 30269.8700 -208.5915 -125.8621
ENERGY: 900000 1.1180 3.3163 1.8403 0.0000 -10807.1438 1510.9961 0.0000 0.0000 1747.5996 -7542.2736 296.6545 -9289.8732 -7531.5277 299.7715 430.3392 538.7897 30354.3353 -53.1423 20.1888
ENERGY: 1200000 2.7071 4.5736 4.0160 0.0000 -10651.4829 1445.9073 0.0000 0.0000 1793.2754 -7401.0036 304.4079 -9194.2790 -7509.4890 300.5996 153.7111 236.4496 30544.9637 -11.4323 65.1796
ENERGY: 1500000 3.0548 2.4158 2.7413 0.0000 -10785.0829 1437.4846 0.0000 0.0000 1841.1416 -7498.2449 312.5332 -9339.3865 -7511.5854 301.1907 -14.2763 33.0632 30517.2535 -64.6094 11.1233
TCL: Running FEP window   5: Lambda1 0.2    Lambda2 0.25   [dLambda 0.04999999999999999]
TCL: Setting parameter firsttimestep to 0
TCL: Setting parameter alchLambda to 0.2
Info: NONBONDED TABLE R-SQUARED SPACING: 0.0625
Info: NONBONDED TABLE SIZE: 705 POINTS
TCL: Setting parameter alchLambda2 to 0.25
Info: NONBONDED TABLE R-SQUARED SPACING: 0.0625
Info: NONBONDED TABLE SIZE: 705 POINTS
TCL: Running for 1500000 steps
ETITLE: TS BOND ANGLE DIHED IMPRP ELECT VDW BOUNDARY MISC KINETIC TOTAL TEMP POTENTIAL TOTALAVG TEMPAVG PRESSURE GPRESSURE VOLUME PRESSAVG GPRESSAVG
ENERGY: 0 3.0548 2.4158 2.7413 0.0000 -10785.0826 1437.9903 0.0000 0.0000 1840.2832 -7498.5972 312.3875 -9338.8803 -7498.5972 312.3875 -44.4608 38.0966 30517.2535 -44.4608 38.0966
ENERGY: 300000 0.6867 3.0642 4.8570 0.0000 -10739.2279 1401.8869 0.0000 0.0000 1733.6157 -7595.1173 294.2807 -9328.7331 -7510.5671 305.2881 -609.7584 -588.6794 30446.8279 -105.0784 -44.2693
ENERGY: 600000 3.1743 4.1346 2.5592 0.0000 -10754.1949 1454.7188 0.0000 0.0000 1796.6379 -7492.9700 304.9787 -9289.6079 -7519.0567 304.8977 99.4885 172.5699 30162.4287 -2.5594 67.6976
ENERGY: 900000 4.4894 2.6367 4.5315 0.0000 -10797.6256 1457.9906 0.0000 0.0000 1823.6995 -7504.2779 309.5724 -9327.9774 -7527.9797 304.1516 159.1745 249.2467 30097.9069 -17.3534 49.9663
ENERGY: 1200000 5.7686 3.2233 4.2184 0.0000 -10534.2964 1325.7111 0.0000 0.0000 1737.0382 -7458.3369 294.8617 -9195.3751 -7514.2024 302.8383 -862.7729 -760.3848 30738.0258 -141.7867 -79.4183
ENERGY: 1500000 2.3396 2.6400 4.2633 0.0000 -10736.0112 1431.7849 0.0000 0.0000 1796.4892 -7498.4942 304.9534 -9294.9834 -7516.7823 302.7553 -174.4044 -138.1583 30423.2812 -135.9153 -73.9426
TCL: Running FEP window   6: Lambda1 0.25   Lambda2 0.3    [dLambda 0.04999999999999999]
TCL: Setting parameter firsttimestep to 0
TCL: Setting parameter alchLambda to 0.25
Info: NONBONDED TABLE R-SQUARED SPACING: 0.0625
Info: NONBONDED TABLE SIZE: 705 POINTS
TCL: Setting parameter alchLambda2 to 0.3
Info: NONBONDED TABLE R-SQUARED SPACING: 0.0625
Info: NONBONDED TABLE SIZE: 705 POINTS
TCL: Running for 1500000 steps
ETITLE: TS BOND ANGLE DIHED IMPRP ELECT VDW BOUNDARY MISC KINETIC TOTAL TEMP POTENTIAL TOTALAVG TEMPAVG PRESSURE GPRESSURE VOLUME PRESSAVG GPRESSAVG
ENERGY: 0 2.3396 2.6400 4.2633 0.0000 -10736.0090 1431.5306 0.0000 0.0000 1795.6163 -7499.6192 304.8053 -9295.2355 -7499.6192 304.8053 -228.8727 -135.3677 30423.2812 -228.8727 -135.3677
ENERGY: 300000 1.7816 1.8195 3.2785 0.0000 -10651.1958 1373.7396 0.0000 0.0000 1751.0364 -7519.5402 297.2378 -9270.5766 -7494.4643 302.1332 -700.5234 -623.6486 30749.2884 -81.7726 -12.8141
ENERGY: 600000 1.2581 1.8523 3.1984 0.0000 -10545.3856 1357.1820 0.0000 0.0000 1761.3718 -7420.5229 298.9923 -9181.8947 -7503.9160 299.2052 -519.6863 -436.7107 30821.6732 66.6231 139.7907
ENERGY: 900000 2.0721 0.9551 2.3774 0.0000 -10565.7444 1327.2315 0.0000 0.0000 1784.2711 -7448.8371 302.8794 -9233.1082 -7504.4291 299.4805 -752.5862 -663.7813 30582.2759 -50.9463 24.2500
ENERGY: 1200000 4.4519 3.1631 2.3904 0.0000 -10742.0596 1397.4556 0.0000 0.0000 1690.9606 -7643.6380 287.0400 -9334.5986 -7505.6146 300.0036 -354.2892 -341.8094 29882.9241 -77.9224 -14.3629
ENERGY: 1500000 3.7169 5.8936 1.9801 0.0000 -10687.2426 1433.8057 0.0000 0.0000 1839.1809 -7402.6654 312.2003 -9241.8463 -7491.2137 300.5275 -31.7900 28.8286 30472.6741 1.1213 61.4513
TCL: Running FEP window   7: Lambda1 0.3    Lambda2 0.35   [dLambda 0.04999999999999999]
TCL: Setting parameter firsttimestep to 0
TCL: Setting parameter alchLambda to 0.3
Info: NONBONDED TABLE R-SQUARED SPACING: 0.0625
Info: NONBONDED TABLE SIZE: 705 POINTS
TCL: Setting parameter alchLambda2 to 0.35
Info: NONBONDED TABLE R-SQUARED SPACING: 0.0625
Info: NONBONDED TABLE SIZE: 705 POINTS
TCL: Running for 1500000 steps
ETITLE: TS BOND ANGLE DIHED IMPRP ELECT VDW BOUNDARY MISC KINETIC TOTAL TEMP POTENTIAL TOTALAVG TEMPAVG PRESSURE GPRESSURE VOLUME PRESSAVG GPRESSAVG
ENERGY: 0 3.7169 5.8936 1.9801 0.0000 -10687.2422 1433.8825 0.0000 0.0000 1838.3021 -7403.4670 312.0512 -9241.7691 -7403.4670 312.0512 -41.4597 33.9251 30472.6741 -41.4597 33.9251
ENERGY: 300000 0.7092 1.8517 3.0060 0.0000 -10787.9341 1528.6134 0.0000 0.0000 1794.3070 -7459.4467 304.5830 -9253.7537 -7471.5131 305.2070 938.1912 991.0943 30158.2862 88.4530 155.1551
ENERGY: 600000 5.4268 3.6471 1.7961 0.0000 -10673.7287 1422.7730 0.0000 0.0000 1771.6490 -7468.4368 300.7368 -9240.0857 -7482.6997 302.9671 -291.4608 -228.9193 30542.1146 54.2772 117.5672
ENERGY: 900000 3.4670 7.2570 2.6317 0.0000 -10656.1333 1376.4839 0.0000 0.0000 1778.1122 -7488.1815 301.8340 -9266.2937 -7489.2565 302.9087 -349.4165 -278.4090 30116.8950 0.0893 63.5133
ENERGY: 1200000 3.2905 6.8243 2.2784 0.0000 -10705.9641 1494.3667 0.0000 0.0000 1724.1767 -7475.0276 292.6784 -9199.2043 -7482.7598 301.9015 806.0013 855.5204 30192.3558 -24.6538 39.2404
ENERGY: 1500000 6.6954 2.6679 4.0670 0.0000 -10773.3030 1453.8879 0.0000 0.0000 1779.6442 -7526.3405 302.0940 -9305.9848 -7482.9969 301.7688 -244.9957 -162.1599 30468.1666 -36.4033 19.1082
TCL: Running FEP window   8: Lambda1 0.35   Lambda2 0.39999999999999997 [dLambda 0.04999999999999999]
TCL: Setting parameter firsttimestep to 0
TCL: Setting parameter alchLambda to 0.35
Info: NONBONDED TABLE R-SQUARED SPACING: 0.0625
Info: NONBONDED TABLE SIZE: 705 POINTS
TCL: Setting parameter alchLambda2 to 0.39999999999999997
Info: NONBONDED TABLE R-SQUARED SPACING: 0.0625
Info: NONBONDED TABLE SIZE: 705 POINTS
TCL: Running for 1500000 steps
ETITLE: TS BOND ANGLE DIHED IMPRP ELECT VDW BOUNDARY MISC KINETIC TOTAL TEMP POTENTIAL TOTALAVG TEMPAVG PRESSURE GPRESSURE VOLUME PRESSAVG GPRESSAVG
ENERGY: 0 6.6954 2.6679 4.0670 0.0000 -10773.3023 1453.8143 0.0000 0.0000 1778.7586 -7527.2991 301.9437 -9306.0577 -7527.2991 301.9437 -230.3316 -158.5262 30468.1666 -230.3316 -158.5262
ENERGY: 300000 1.7588 2.9906 3.1837 0.0000 -10778.3515 1440.9071 0.0000 0.0000 1804.1122 -7525.3990 306.2474 -9329.5112 -7518.0909 300.9885 -151.5579 -40.5126 30251.5735 -116.8367 -50.4550
ENERGY: 600000 2.2115 3.0524 4.0175 0.0000 -10647.2709 1404.7880 0.0000 0.0000 1803.6112 -7429.5902 306.1624 -9233.2014 -7513.4718 300.4001 -365.2467 -265.7140 30915.9101 -222.5770 -155.0232
ENERGY: 900000 1.1113 6.3414 5.8183 0.0000 -10833.7898 1462.3223 0.0000 0.0000 1778.0416 -7580.1548 301.8220 -9358.1964 -7539.8452 299.6595 74.1927 128.4389 30100.3406 -159.5595 -99.6961
ENERGY: 1200000 5.1777 3.2663 2.5784 0.0000 -10786.7925 1521.7287 0.0000 0.0000 1789.3563 -7464.6850 303.7426 -9254.0414 -7531.0421 299.3764 756.3038 800.0335 30155.3826 -96.6301 -42.4286
ENERGY: 1500000 3.0542 3.2333 3.1146 0.0000 -10774.3655 1444.0621 0.0000 0.0000 1787.9283 -7532.9730 303.5002 -9320.9013 -7528.0920 299.5209 -0.0636 23.9457 30131.9601 -134.7784 -73.8940
TCL: Running FEP window   9: Lambda1 0.39999999999999997 Lambda2 0.44999999999999996 [dLambda 0.04999999999999999]
TCL: Setting parameter firsttimestep to 0
TCL: Setting parameter alchLambda to 0.39999999999999997
Info: NONBONDED TABLE R-SQUARED SPACING: 0.0625
Info: NONBONDED TABLE SIZE: 705 POINTS
TCL: Setting parameter alchLambda2 to 0.44999999999999996
Info: NONBONDED TABLE R-SQUARED SPACING: 0.0625
Info: NONBONDED TABLE SIZE: 705 POINTS
TCL: Running for 1500000 steps
ETITLE: TS BOND ANGLE DIHED IMPRP ELECT VDW BOUNDARY MISC KINETIC TOTAL TEMP POTENTIAL TOTALAVG TEMPAVG PRESSURE GPRESSURE VOLUME PRESSAVG GPRESSAVG
ENERGY: 0 3.0542 3.2334 3.1146 0.0000 -10774.3658 1443.8503 0.0000 0.0000 1787.0609 -7534.0524 303.3530 -9321.1133 -7534.0524 303.3530 -57.2414 26.3505 30131.9601 -57.2414 26.3505
ENERGY: 300000 4.7266 2.5185 2.0522 0.0000 -10550.7466 1383.5567 0.0000 0.0000 1768.0617 -7389.8309 300.1279 -9157.8926 -7498.3576 301.1301 -445.3840 -374.6908 31371.0487 -385.5532 -306.2605
ENERGY: 600000 2.8482 2.1531 3.5244 0.0000 -10710.0791 1429.9696 0.0000 0.0000 1729.5904 -7541.9934 293.5974 -9271.5838 -7501.7947 300.0166 106.8405 144.1437 30460.2116 -210.9079 -139.3537
ENERGY: 900000 2.9053 4.3368 3.5453 0.0000 -10672.0940 1351.1865 0.0000 0.0000 1755.4068 -7554.7133 297.9797 -9310.1201 -7503.5877 301.3873 -1001.8452 -931.4499 30634.1467 -292.9091 -224.0035
ENERGY: 1200000 2.7074 3.5289 2.6090 0.0000 -10693.5470 1423.1335 0.0000 0.0000 1790.9475 -7470.6205 304.0127 -9261.5681 -7494.2921 301.7191 -45.8422 24.8967 30608.6816 -228.7325 -162.8286
ENERGY: 1500000 6.6767 5.5621 4.0347 0.0000 -10874.5910 1498.9915 0.0000 0.0000 1785.0197 -7574.3064 303.0065 -9359.3260 -7505.7609 301.3816 236.3385 252.7582 30055.6665 -117.9122 -54.5256
TCL: Running FEP window  10: Lambda1 0.44999999999999996 Lambda2 0.49999999999999994 [dLambda 0.04999999999999999]
TCL: Setting parameter firsttimestep to 0
TCL: Setting parameter alchLambda to 0.44999999999999996
Info: NONBONDED TABLE R-SQUARED SPACING: 0.0625
Info: NONBONDED TABLE SIZE: 705 POINTS
TCL: Setting parameter alchLambda2 to 0.49999999999999994
Info: NONBONDED TABLE R-SQUARED SPACING: 0.0625
Info: NONBONDED TABLE SIZE: 705 POINTS
TCL: Running for 1500000 steps
ETITLE: TS BOND ANGLE DIHED IMPRP ELECT VDW BOUNDARY MISC KINETIC TOTAL TEMP POTENTIAL TOTALAVG TEMPAVG PRESSURE GPRESSURE VOLUME PRESSAVG GPRESSAVG
ENERGY: 0 6.6767 5.5621 4.0347 0.0000 -10874.5923 1499.4554 0.0000 0.0000 1784.1934 -7574.6700 302.8662 -9358.8634 -7574.6700 302.8662 179.1974 263.1432 30055.6665 179.1974 263.1432
ENERGY: 300000 4.3091 3.9306 3.0555 0.0000 -10592.7255 1419.9142 0.0000 0.0000 1774.2739 -7387.2422 301.1824 -9161.5161 -7489.8550 302.7033 -94.8386 -65.4896 30937.2151 137.8786 218.8085
ENERGY: 600000 3.6161 3.5264 4.6721 0.0000 -10847.9039 1493.9664 0.0000 0.0000 1748.7022 -7593.4207 296.8416 -9342.1229 -7510.1566 300.2895 275.8906 305.3281 30513.6881 162.3485 224.2800
ENERGY: 900000 3.7120 3.6135 5.2639 0.0000 -10775.3797 1463.9636 0.0000 0.0000 1763.8197 -7535.0070 299.4078 -9298.8267 -7515.2528 299.8173 99.2604 183.3243 30386.4663 58.4469 124.5471
ENERGY: 1200000 2.1570 1.4237 3.4465 0.0000 -10662.6349 1365.6246 0.0000 0.0000 1735.1083 -7554.8749 294.5341 -9289.9832 -7509.4989 300.0632 -716.9394 -613.2288 30365.4697 -105.7605 -37.8984
ENERGY: 1500000 4.2104 4.5912 3.7656 0.0000 -10691.4270 1402.5278 0.0000 0.0000 1799.0754 -7477.2566 305.3925 -9276.3320 -7513.5114 300.5169 -343.3401 -293.3383 30634.4994 -69.6127 -1.6797
TCL: Running FEP window  11: Lambda1 0.49999999999999994 Lambda2 0.5499999999999999 [dLambda 0.04999999999999999]
TCL: Setting parameter firsttimestep to 0
TCL: Setting parameter alchLambda to 0.49999999999999994
Info: NONBONDED TABLE R-SQUARED SPACING: 0.0625
Info: NONBONDED TABLE SIZE: 705 POINTS
TCL: Setting parameter alchLambda2 to 0.5499999999999999
Info: NONBONDED TABLE R-SQUARED SPACING: 0.0625
Info: NONBONDED TABLE SIZE: 705 POINTS
TCL: Running for 1500000 steps
ETITLE: TS BOND ANGLE DIHED IMPRP ELECT VDW BOUNDARY MISC KINETIC TOTAL TEMP POTENTIAL TOTALAVG TEMPAVG PRESSURE GPRESSURE VOLUME PRESSAVG GPRESSAVG
ENERGY: 0 4.2104 4.5912 3.7656 0.0000 -10691.4275 1402.2485 0.0000 0.0000 1798.2033 -7478.4085 305.2444 -9276.6118 -7478.4085 305.2444 -385.2600 -290.8069 30634.4994 -385.2600 -290.8069
ENERGY: 300000 0.8485 1.4108 1.9345 0.0000 -10677.0951 1432.6947 0.0000 0.0000 1777.1085 -7463.0981 301.6636 -9240.2066 -7494.6223 299.8500 -27.0075 61.5944 30606.5655 -263.1969 -188.4517
ENERGY: 600000 0.6466 2.0590 6.2020 0.0000 -10786.2960 1485.7504 0.0000 0.0000 1821.0310 -7470.6069 309.1194 -9291.6378 -7493.4418 301.2866 459.8070 581.5941 30189.0536 -119.4958 -50.9305
ENERGY: 900000 2.2514 2.2445 3.2284 0.0000 -10824.6466 1509.0072 0.0000 0.0000 1778.3350 -7529.5800 301.8718 -9307.9150 -7495.2468 301.7985 723.4716 630.3727 30227.9039 -91.8776 -39.4104
ENERGY: 1200000 4.1358 3.2711 5.1209 0.0000 -10840.0947 1553.6787 0.0000 0.0000 1704.8584 -7569.0298 289.3992 -9273.8882 -7513.3626 300.3265 817.1077 885.6218 30418.8926 7.9336 60.5231
ENERGY: 1500000 1.3418 3.5870 1.1199 0.0000 -10629.3246 1400.7807 0.0000 0.0000 1766.1202 -7456.3750 299.7983 -9222.4952 -7521.2713 299.1050 -319.4533 -272.7324 30700.3836 -99.6604 -45.6995
TCL: Running FEP window  12: Lambda1 0.5499999999999999 Lambda2 0.6    [dLambda 0.050000000000000044]
TCL: Setting parameter firsttimestep to 0
TCL: Setting parameter alchLambda to 0.5499999999999999
Info: NONBONDED TABLE R-SQUARED SPACING: 0.0625
Info: NONBONDED TABLE SIZE: 705 POINTS
TCL: Setting parameter alchLambda2 to 0.6
Info: NONBONDED TABLE R-SQUARED SPACING: 0.0625
Info: NONBONDED TABLE SIZE: 705 POINTS
TCL: Running for 1500000 steps
ETITLE: TS BOND ANGLE DIHED IMPRP ELECT VDW BOUNDARY MISC KINETIC TOTAL TEMP POTENTIAL TOTALAVG TEMPAVG PRESSURE GPRESSURE VOLUME PRESSAVG GPRESSAVG
ENERGY: 0 1.3418 3.5870 1.1199 0.0000 -10628.4662 1400.8474 0.0000 0.0000 1765.2273 -7456.3428 299.6467 -9221.5700 -7456.3428 299.6467 -330.2785 -263.4744 30700.3836 -330.2785 -263.4744
ENERGY: 300000 2.5562 3.5366 6.2802 0.0000 -10613.1129 1373.0411 0.0000 0.0000 1774.2505 -7453.4484 301.1784 -9227.6989 -7440.7843 301.7805 -711.3616 -603.0786 30934.6078 -378.4955 -313.2361
ENERGY: 600000 1.3130 2.0415 5.4815 0.0000 -10725.2789 1428.4301 0.0000 0.0000 1801.8773 -7486.1355 305.8681 -9288.0128 -7469.0454 301.2429 -144.9233 -120.3386 30568.5477 -371.5534 -304.5300
ENERGY: 900000 1.4781 5.8834 2.7335 0.0000 -10709.9149 1430.6135 0.0000 0.0000 1719.2377 -7549.9688 291.8400 -9269.2065 -7466.6673 301.3341 -195.6733 -104.4899 30560.4172 -361.9853 -284.7029
ENERGY: 1200000 1.5409 2.3009 4.0062 0.0000 -10718.3560 1417.4515 0.0000 0.0000 1771.2006 -7521.8558 300.6607 -9293.0564 -7471.9451 301.5885 -284.4434 -192.8314 30458.3214 -271.3350 -190.1775
ENERGY: 1500000 2.3769 1.9785 4.2919 0.0000 -10732.1758 1459.3374 0.0000 0.0000 1724.6179 -7539.5732 292.7533 -9264.1911 -7486.7793 300.8083 -63.7800 54.4129 30687.3304 -278.0635 -194.2255
TCL: Running FEP window  13: Lambda1 0.6    Lambda2 0.65   [dLambda 0.050000000000000044]
TCL: Setting parameter firsttimestep to 0
TCL: Setting parameter alchLambda to 0.6
Info: NONBONDED TABLE R-SQUARED SPACING: 0.0625
Info: NONBONDED TABLE SIZE: 705 POINTS
TCL: Setting parameter alchLambda2 to 0.65
Info: NONBONDED TABLE R-SQUARED SPACING: 0.0625
Info: NONBONDED TABLE SIZE: 705 POINTS
TCL: Running for 1500000 steps
ETITLE: TS BOND ANGLE DIHED IMPRP ELECT VDW BOUNDARY MISC KINETIC TOTAL TEMP POTENTIAL TOTALAVG TEMPAVG PRESSURE GPRESSURE VOLUME PRESSAVG GPRESSAVG
ENERGY: 0 2.3769 1.9786 4.2919 0.0000 -10732.5411 1459.5365 0.0000 0.0000 1723.7270 -7540.6303 292.6021 -9264.3573 -7540.6303 292.6021 -26.4145 64.5739 30687.3304 -26.4145 64.5739
ENERGY: 300000 2.7214 3.9002 3.8576 0.0000 -10601.9518 1349.8532 0.0000 0.0000 1817.6607 -7423.9587 308.5473 -9241.6194 -7482.2023 300.0053 -758.4039 -667.8833 30795.7401 -341.5105 -279.8332
ENERGY: 600000 1.4075 3.8742 3.3221 0.0000 -10653.9635 1360.7440 0.0000 0.0000 1722.1574 -7562.4583 292.3356 -9284.6157 -7526.7431 298.3813 -832.0479 -785.8973 30645.9423 -389.3660 -331.9987
ENERGY: 900000 1.7483 6.1382 2.3289 0.0000 -10814.6929 1458.6874 0.0000 0.0000 1724.9236 -7620.8665 292.8052 -9345.7901 -7539.9180 298.7926 81.9918 141.4453 30033.7402 -304.9363 -245.8950
ENERGY: 1200000 1.2950 2.6067 4.6943 0.0000 -10532.4147 1370.4091 0.0000 0.0000 1778.0150 -7375.3945 301.8175 -9153.4095 -7524.0253 299.1554 -41.5067 13.9096 30402.3217 -269.7689 -205.6629
ENERGY: 1500000 2.1995 3.4117 3.1351 0.0000 -10714.9208 1423.4245 0.0000 0.0000 1769.3809 -7513.3691 300.3518 -9282.7500 -7522.1849 299.4050 -359.8781 -299.8423 30419.8132 -269.7018 -206.2276
TCL: Running FEP window  14: Lambda1 0.65   Lambda2 0.7000000000000001 [dLambda 0.050000000000000044]
TCL: Setting parameter firsttimestep to 0
TCL: Setting parameter alchLambda to 0.65
Info: NONBONDED TABLE R-SQUARED SPACING: 0.0625
Info: NONBONDED TABLE SIZE: 705 POINTS
TCL: Setting parameter alchLambda2 to 0.7000000000000001
Info: NONBONDED TABLE R-SQUARED SPACING: 0.0625
Info: NONBONDED TABLE SIZE: 705 POINTS
TCL: Running for 1500000 steps
ETITLE: TS BOND ANGLE DIHED IMPRP ELECT VDW BOUNDARY MISC KINETIC TOTAL TEMP POTENTIAL TOTALAVG TEMPAVG PRESSURE GPRESSURE VOLUME PRESSAVG GPRESSAVG
ENERGY: 0 2.1995 3.4117 3.1351 0.0000 -10715.7557 1423.9739 0.0000 0.0000 1768.4925 -7514.5429 300.2010 -9283.0354 -7514.5429 300.2010 -386.2536 -292.8565 30419.8132 -386.2536 -292.8565
ENERGY: 300000 2.7534 5.0584 1.6351 0.0000 -10786.6154 1478.3025 0.0000 0.0000 1772.4644 -7526.4016 300.8752 -9298.8660 -7519.1551 301.5590 493.0737 494.7810 29915.1195 -51.7404 4.9985
ENERGY: 600000 1.9345 3.2735 2.8029 0.0000 -10844.3220 1552.4178 0.0000 0.0000 1776.1201 -7507.7732 301.4958 -9283.8933 -7503.4371 302.1249 907.8921 922.6328 30284.1318 -104.2043 -49.7732
ENERGY: 900000 6.4229 3.5369 1.7458 0.0000 -10648.9216 1393.0291 0.0000 0.0000 1784.3001 -7459.8868 302.8843 -9244.1869 -7508.6220 301.5899 -655.7939 -609.6743 30670.2407 -201.3743 -149.1612
ENERGY: 1200000 2.6182 5.3475 4.1554 0.0000 -10804.8799 1494.9532 0.0000 0.0000 1761.5004 -7536.3052 299.0141 -9297.8056 -7510.6081 300.7469 286.7083 372.7377 30332.0761 -209.4456 -150.6225
ENERGY: 1500000 3.3458 3.0678 3.2369 0.0000 -10875.7439 1522.9570 0.0000 0.0000 1776.8917 -7566.2447 301.6268 -9343.1364 -7523.0311 300.2917 371.8159 418.7977 30341.6380 -82.7447 -24.4192
TCL: Running FEP window  15: Lambda1 0.7000000000000001 Lambda2 0.7500000000000001 [dLambda 0.050000000000000044]
TCL: Setting parameter firsttimestep to 0
TCL: Setting parameter alchLambda to 0.7000000000000001
Info: NONBONDED TABLE R-SQUARED SPACING: 0.0625
Info: NONBONDED TABLE SIZE: 705 POINTS
TCL: Setting parameter alchLambda2 to 0.7500000000000001
Info: NONBONDED TABLE R-SQUARED SPACING: 0.0625
Info: NONBONDED TABLE SIZE: 705 POINTS
TCL: Running for 1500000 steps
ETITLE: TS BOND ANGLE DIHED IMPRP ELECT VDW BOUNDARY MISC KINETIC TOTAL TEMP POTENTIAL TOTALAVG TEMPAVG PRESSURE GPRESSURE VOLUME PRESSAVG GPRESSAVG
ENERGY: 0 3.3458 3.0678 3.2369 0.0000 -10876.7471 1523.5787 0.0000 0.0000 1775.9649 -7567.5531 301.4695 -9343.5180 -7567.5531 301.4695 344.3958 427.2813 30341.6380 344.3958 427.2813
ENERGY: 300000 1.8936 3.7038 2.2750 0.0000 -10767.8804 1443.6751 0.0000 0.0000 1782.7656 -7533.5674 302.6239 -9316.3330 -7553.7342 300.8736 -141.5421 -88.5051 30737.6245 -33.2595 32.0191
ENERGY: 600000 1.4545 3.1037 4.9636 0.0000 -10663.7624 1393.0394 0.0000 0.0000 1745.2702 -7515.9310 296.2590 -9261.2012 -7529.8262 299.4118 -371.9359 -316.5543 30549.8037 -113.1964 -48.7815
ENERGY: 900000 4.4408 2.6273 4.3305 0.0000 -10743.4656 1438.9406 0.0000 0.0000 1773.8191 -7519.3073 301.1052 -9293.1264 -7523.1604 299.7809 107.7673 149.2278 30087.5900 -196.4807 -136.1429
ENERGY: 1200000 4.1339 2.9184 2.3235 0.0000 -10835.8284 1548.0710 0.0000 0.0000 1804.8466 -7473.5351 306.3721 -9278.3817 -7523.4010 300.4746 899.4504 1053.0534 30473.2651 -14.4102 50.1922
ENERGY: 1500000 1.7058 3.3573 1.1019 0.0000 -10683.5338 1425.8925 0.0000 0.0000 1814.9835 -7436.4928 308.0928 -9251.4763 -7516.3551 301.7286 151.7658 199.6340 30539.0315 7.8402 65.6204
TCL: Running FEP window  16: Lambda1 0.7500000000000001 Lambda2 0.8000000000000002 [dLambda 0.050000000000000044]
TCL: Setting parameter firsttimestep to 0
TCL: Setting parameter alchLambda to 0.7500000000000001
Info: NONBONDED TABLE R-SQUARED SPACING: 0.0625
Info: NONBONDED TABLE SIZE: 705 POINTS
TCL: Setting parameter alchLambda2 to 0.8000000000000002
Info: NONBONDED TABLE R-SQUARED SPACING: 0.0625
Info: NONBONDED TABLE SIZE: 705 POINTS
TCL: Running for 1500000 steps
ETITLE: TS BOND ANGLE DIHED IMPRP ELECT VDW BOUNDARY MISC KINETIC TOTAL TEMP POTENTIAL TOTALAVG TEMPAVG PRESSURE GPRESSURE VOLUME PRESSAVG GPRESSAVG
ENERGY: 0 1.7058 3.3573 1.1019 0.0000 -10684.7015 1425.8659 0.0000 0.0000 1814.1128 -7438.5579 307.9450 -9252.6706 -7438.5579 307.9450 128.3021 208.6857 30539.0315 128.3021 208.6857
ENERGY: 300000 4.7897 1.2557 2.0500 0.0000 -10764.2801 1499.8105 0.0000 0.0000 1747.7215 -7508.6527 296.6751 -9256.3742 -7526.3218 300.7815 421.1489 480.9589 30468.8232 386.9774 452.7614
ENERGY: 600000 5.2733 1.6529 3.8354 0.0000 -10569.7614 1308.3403 0.0000 0.0000 1726.4726 -7524.1869 293.0681 -9250.6595 -7511.6428 300.6191 -1275.6629 -1220.1832 30850.9196 -11.8633 57.1936
ENERGY: 900000 2.5425 1.7792 1.9053 0.0000 -10684.4835 1424.1654 0.0000 0.0000 1804.6443 -7449.4469 306.3378 -9254.0911 -7503.0697 301.2793 -262.4721 -171.7075 31036.1792 10.4361 82.9957
ENERGY: 1200000 3.1198 3.8589 2.2041 0.0000 -10755.9993 1420.9980 0.0000 0.0000 1667.8067 -7658.0118 283.1096 -9325.8186 -7514.7875 299.5279 -43.7388 -66.9332 30014.1073 -3.6098 58.9542
ENERGY: 1500000 4.8735 3.8520 2.0503 0.0000 -10891.5521 1568.7716 0.0000 0.0000 1762.5839 -7549.4208 299.1980 -9312.0047 -7516.0829 300.3640 997.4964 936.4924 30864.0689 40.9150 100.9378
TCL: Running FEP window  17: Lambda1 0.8000000000000002 Lambda2 0.8500000000000002 [dLambda 0.050000000000000044]
TCL: Setting parameter firsttimestep to 0
TCL: Setting parameter alchLambda to 0.8000000000000002
Info: NONBONDED TABLE R-SQUARED SPACING: 0.0625
Info: NONBONDED TABLE SIZE: 705 POINTS
TCL: Setting parameter alchLambda2 to 0.8500000000000002
Info: NONBONDED TABLE R-SQUARED SPACING: 0.0625
Info: NONBONDED TABLE SIZE: 705 POINTS
TCL: Running for 1500000 steps
ETITLE: TS BOND ANGLE DIHED IMPRP ELECT VDW BOUNDARY MISC KINETIC TOTAL TEMP POTENTIAL TOTALAVG TEMPAVG PRESSURE GPRESSURE VOLUME PRESSAVG GPRESSAVG
ENERGY: 0 4.8734 3.8520 2.0503 0.0000 -10893.0053 1569.1611 0.0000 0.0000 1761.6770 -7551.3915 299.0441 -9313.0685 -7551.3915 299.0441 868.1352 946.1419 30864.0689 868.1352 946.1419
ENERGY: 300000 2.6579 1.5966 3.6269 0.0000 -10658.4702 1390.9061 0.0000 0.0000 1850.2594 -7409.4234 314.0809 -9259.6828 -7490.3931 306.0893 -319.7718 -298.7256 30706.9930 166.6603 233.3744
ENERGY: 600000 1.6243 2.6343 1.4098 0.0000 -10746.3013 1476.5229 0.0000 0.0000 1774.0206 -7490.0894 301.1394 -9264.1099 -7505.6678 302.6149 734.7032 859.1189 29957.3331 246.0416 331.4657
ENERGY: 900000 3.4389 4.5006 1.8071 0.0000 -10570.9683 1413.4036 0.0000 0.0000 1803.5548 -7344.2634 306.1528 -9147.8182 -7484.4584 302.2508 200.2466 248.0082 30480.2476 160.5163 227.1030
ENERGY: 1200000 3.7726 3.7910 4.9356 0.0000 -10727.6996 1495.4240 0.0000 0.0000 1742.5062 -7477.2702 295.7899 -9219.7764 -7488.2709 301.8325 350.1513 406.7063 30790.4585 82.8607 145.7498
ENERGY: 1500000 3.2361 3.1549 2.2449 0.0000 -10754.8315 1457.9128 0.0000 0.0000 1786.1467 -7502.1360 303.1978 -9288.2827 -7498.8305 300.9163 165.1358 208.0464 30513.8881 49.1095 108.8292
TCL: Running FEP window  18: Lambda1 0.8500000000000002 Lambda2 0.9000000000000002 [dLambda 0.050000000000000044]
TCL: Setting parameter firsttimestep to 0
TCL: Setting parameter alchLambda to 0.8500000000000002
Info: NONBONDED TABLE R-SQUARED SPACING: 0.0625
Info: NONBONDED TABLE SIZE: 705 POINTS
TCL: Setting parameter alchLambda2 to 0.9000000000000002
Info: NONBONDED TABLE R-SQUARED SPACING: 0.0625
Info: NONBONDED TABLE SIZE: 705 POINTS
TCL: Running for 1500000 steps
ETITLE: TS BOND ANGLE DIHED IMPRP ELECT VDW BOUNDARY MISC KINETIC TOTAL TEMP POTENTIAL TOTALAVG TEMPAVG PRESSURE GPRESSURE VOLUME PRESSAVG GPRESSAVG
ENERGY: 0 3.2361 3.1549 2.2449 0.0000 -10756.7385 1458.8064 0.0000 0.0000 1785.2586 -7504.0377 303.0471 -9289.2962 -7504.0377 303.0471 142.3619 223.1005 30513.8881 142.3619 223.1005
ENERGY: 300000 1.9611 3.2098 5.0008 0.0000 -10763.4939 1439.7623 0.0000 0.0000 1777.1463 -7536.4137 301.6700 -9313.5600 -7516.8790 301.6838 114.2457 233.4843 30125.9377 184.4757 266.8642
ENERGY: 600000 4.2255 2.8278 3.0334 0.0000 -10732.9499 1451.3421 0.0000 0.0000 1784.2978 -7487.2235 302.8840 -9271.5212 -7521.3064 301.6537 -91.9866 26.4739 30424.1652 184.4303 279.8292
ENERGY: 900000 5.1373 3.7334 2.4082 0.0000 -10683.5893 1392.2166 0.0000 0.0000 1730.6406 -7549.4531 293.7757 -9280.0937 -7527.1223 300.4496 -319.1552 -230.8769 30422.5587 90.4775 183.2572
ENERGY: 1200000 3.5569 1.3582 3.0367 0.0000 -10773.1859 1475.4860 0.0000 0.0000 1721.7420 -7568.0062 292.2651 -9289.7482 -7534.0398 299.2398 132.5207 173.6646 30587.0287 55.4786 133.1258
ENERGY: 1500000 3.6146 4.6145 3.3958 0.0000 -10831.3906 1526.3809 0.0000 0.0000 1801.1179 -7492.2670 305.7392 -9293.3848 -7533.3545 299.5460 687.8893 798.1147 30295.9478 137.9136 215.5364
TCL: Running FEP window  19: Lambda1 0.9000000000000002 Lambda2 0.9500000000000003 [dLambda 0.050000000000000044]
TCL: Setting parameter firsttimestep to 0
TCL: Setting parameter alchLambda to 0.9000000000000002
Info: NONBONDED TABLE R-SQUARED SPACING: 0.0625
Info: NONBONDED TABLE SIZE: 705 POINTS
TCL: Setting parameter alchLambda2 to 0.9500000000000003
Info: NONBONDED TABLE R-SQUARED SPACING: 0.0625
Info: NONBONDED TABLE SIZE: 705 POINTS
TCL: Running for 1500000 steps
ETITLE: TS BOND ANGLE DIHED IMPRP ELECT VDW BOUNDARY MISC KINETIC TOTAL TEMP POTENTIAL TOTALAVG TEMPAVG PRESSURE GPRESSURE VOLUME PRESSAVG GPRESSAVG
ENERGY: 0 3.6146 4.6145 3.3958 0.0000 -10832.9158 1527.0693 0.0000 0.0000 1800.2343 -7493.9872 305.5892 -9294.2216 -7493.9872 305.5892 753.3794 811.7496 30295.9478 753.3794 811.7496
ENERGY: 300000 2.7581 1.6950 4.1563 0.0000 -10769.4847 1469.3068 0.0000 0.0000 1789.1484 -7502.4202 303.7073 -9291.5685 -7519.9841 303.7152 175.9457 204.4319 30677.0696 270.0504 307.3428
ENERGY: 600000 2.8681 2.4921 3.2076 0.0000 -10777.4630 1410.5924 0.0000 0.0000 1787.3932 -7570.9096 303.4094 -9358.3028 -7530.9343 301.9383 -338.2225 -337.4831 30375.1366 -72.4579 -36.3757
ENERGY: 900000 0.9523 4.9388 2.9394 0.0000 -10645.2471 1340.7265 0.0000 0.0000 1760.0813 -7535.6087 298.7732 -9295.6901 -7529.3316 300.1417 -779.2181 -711.6524 30510.7449 -204.6366 -164.9175
ENERGY: 1200000 3.2985 3.6749 2.6219 0.0000 -10780.2865 1446.4443 0.0000 0.0000 1752.3385 -7571.9084 297.4589 -9324.2469 -7530.3227 299.2353 -47.4170 -53.0312 30383.9338 -251.8637 -213.9989
ENERGY: 1500000 3.4956 4.8700 7.2801 0.0000 -10745.8537 1443.3702 0.0000 0.0000 1801.4031 -7485.4347 305.7876 -9286.8378 -7523.8861 299.6783 1.0877 65.7973 30627.6857 -226.9297 -189.5854
TCL: Running FEP window  20: Lambda1 0.9500000000000003 Lambda2 1.0    [dLambda 0.04999999999999971]
TCL: Setting parameter firsttimestep to 0
TCL: Setting parameter alchLambda to 0.9500000000000003
Info: NONBONDED TABLE R-SQUARED SPACING: 0.0625
Info: NONBONDED TABLE SIZE: 705 POINTS
TCL: Setting parameter alchLambda2 to 1.0
Info: NONBONDED TABLE R-SQUARED SPACING: 0.0625
Info: NONBONDED TABLE SIZE: 705 POINTS
TCL: Running for 1500000 steps
ETITLE: TS BOND ANGLE DIHED IMPRP ELECT VDW BOUNDARY MISC KINETIC TOTAL TEMP POTENTIAL TOTALAVG TEMPAVG PRESSURE GPRESSURE VOLUME PRESSAVG GPRESSAVG
ENERGY: 0 3.4956 4.8700 7.2801 0.0000 -10747.3723 1443.3466 0.0000 0.0000 1800.5452 -7487.8347 305.6420 -9288.3799 -7487.8347 305.6420 -6.8241 74.6194 30627.6857 -6.8241 74.6194
ENERGY: 300000 3.0969 2.7647 1.2626 0.0000 -10752.1233 1424.7272 0.0000 0.0000 1792.4552 -7527.8168 304.2687 -9320.2720 -7549.5536 301.0213 -447.8841 -354.0228 30742.3362 -289.6478 -235.3277
ENERGY: 600000 3.0518 4.8312 5.2477 0.0000 -10804.1348 1482.3622 0.0000 0.0000 1732.4239 -7576.2181 294.0784 -9308.6419 -7514.1796 301.6761 297.5105 334.6558 30118.2881 -122.1859 -72.9019
ENERGY: 900000 3.7147 3.9229 1.2590 0.0000 -10643.1862 1440.5554 0.0000 0.0000 1819.3999 -7374.3343 308.8425 -9193.7342 -7512.9771 301.6605 237.3948 310.2110 30443.2467 -41.3481 20.6718
ENERGY: 1200000 4.8867 2.1630 5.1214 0.0000 -10818.4364 1486.4562 0.0000 0.0000 1789.6958 -7530.1133 303.8003 -9319.8091 -7513.6955 302.3044 582.8385 625.3376 29754.5083 21.0658 77.5225
ENERGY: 1500000 1.3497 2.0811 2.7453 0.0000 -10641.6601 1313.5610 0.0000 0.0000 1784.6826 -7537.2404 302.9493 -9321.9230 -7511.7972 302.2051 -1112.7151 -1112.7760 30976.4806 2.9191 61.2490
TCL: Exiting due to exit command.
