Info: SIMULATION PARAMETERS:
Info: TIMESTEP               2
Info: NUMBER OF STEPS        0
Info: STEPS PER CYCLE        10
Info: PERIODIC CELL BASIS 1  33.1524 0 0
Info: PERIODIC CELL BASIS 2  0 30.3853 0
Info: PERIODIC CELL BASIS 3  0 0 30.5724
Info: PERIODIC CELL CENTER   0 0 0
Info: WRAPPING WATERS AROUND PERIODIC BOUNDARIES ON OUTPUT.
Info: WRAPPING ALL CLUSTERS AROUND PERIODIC BOUNDARIES ON OUTPUT.
Info: FIRST LDB TIMESTEP     50
Info: LAST LDB TIMESTEP     -1
Info: HOM BACKGROUND SCALING 1
Info: PME BACKGROUND SCALING 1
Info: MIN ATOMS PER PATCH    40
Info: EMPTY PATCH LOAD       40 ATOMS
Info: VELOCITY FILE          mobley_242480_equil.vel
Info: CENTER OF MASS MOVING INITIALLY? NO
Info: DIELECTRIC             1
Info: EXCLUDE                SCALED ONE-FOUR
Info: 1-4 ELECTROSTATICS SCALED BY 0.833333
Info: MODIFIED 1-4 VDW PARAMETERS WILL BE USED
Info: DCD FILENAME           mobley_242480_prod.dcd
Info: DCD FREQUENCY          100000
Info: DCD FIRST STEP         100000
Info: DCD FILE WILL CONTAIN UNIT CELL DATA
Info: XST FILENAME           mobley_242480_prod.xst
Info: XST FREQUENCY          100000
Info: NO VELOCITY DCD OUTPUT
Info: NO FORCE DCD OUTPUT
Info: OUTPUT FILENAME        mobley_242480_prod
Info: BINARY OUTPUT FILES WILL BE USED
Info: RESTART FILENAME       mobley_242480_prod.restart
Info: RESTART FREQUENCY      100000
Info: BINARY RESTART FILES WILL BE USED
Info: CUTOFF                 9
Info: PAIRLIST DISTANCE      11
Info: PAIRLIST SHRINK RATE   0.01
Info: PAIRLIST GROW RATE     0.01
Info: PAIRLIST TRIGGER       0.3
Info: PAIRLISTS PER CYCLE    2
Info: PAIRLISTS ENABLED
Info: MARGIN                 2
Info: HYDROGEN GROUP CUTOFF  2.5
Info: PATCH DIMENSION        15.5
Info: ENERGY OUTPUT STEPS    100000
Info: ENERGY EVALUATION STEPS    100000
Info: OUTPUT ENERGY PRECISION 4
Info: CROSSTERM ENERGY INCLUDED IN DIHEDRAL
Info: TIMING OUTPUT STEPS    1000000
Info: PRESSURE OUTPUT STEPS  100000
Info: ALCHEMICAL FEP ON
Info: FEP CURRENT LAMBDA VALUE     1
Info: FEP COMPARISON LAMBDA VALUE  0.95
Info: FEP INTRA-ALCHEMICAL NON-BONDED INTERACTIONS WILL BE RETAINED
Info: FEP INTRA-ALCHEMICAL BONDED INTERACTIONS WILL BE RETAINED
Info: FEP VDW SHIFTING COEFFICIENT 5
Info: FEP ELEC. ACTIVE FOR ANNIHILATED PARTICLES BETWEEN LAMBDA = 0 AND LAMBDA = 0.5
Info: FEP ELEC. ACTIVE FOR EXNIHILATED PARTICLES BETWEEN LAMBDA = 0.5 AND LAMBDA = 1
Info: FEP VDW ACTIVE FOR ANNIHILATED PARTICLES BETWEEN LAMBDA = 0 AND LAMBDA = 1
Info: FEP VDW ACTIVE FOR EXNIHILATED PARTICLES BETWEEN LAMBDA = 0 AND LAMBDA = 1
Info: FEP BOND ACTIVE FOR ANNIHILATED PARTICLES BETWEEN LAMBDA = 1 AND LAMBDA = 1
Info: FEP BOND ACTIVE FOR EXNIHILATED PARTICLES BETWEEN LAMBDA = 0 AND LAMBDA = 0
Info: LANGEVIN DYNAMICS ACTIVE
Info: LANGEVIN TEMPERATURE   300
Info: LANGEVIN USING BBK INTEGRATOR
Info: LANGEVIN DAMPING COEFFICIENT IS 1 INVERSE PS
Info: LANGEVIN DYNAMICS APPLIED TO HYDROGENS
Info: LANGEVIN PISTON PRESSURE CONTROL ACTIVE
Info:        TARGET PRESSURE IS 1.01325 BAR
Info:     OSCILLATION PERIOD IS 50 FS
Info:             DECAY TIME IS 25 FS
Info:     PISTON TEMPERATURE IS 300 K
Info:       PRESSURE CONTROL IS GROUP-BASED
Info:    INITIAL STRAIN RATE IS 0.000643636 0.000643636 0.000643636
Info:       CELL FLUCTUATION IS ISOTROPIC
Info: PARTICLE MESH EWALD (PME) ACTIVE
Info: PME TOLERANCE               1e-06
Info: PME EWALD COEFFICIENT       0.348832
Info: PME INTERPOLATION ORDER     4
Info: PME GRID DIMENSIONS         36 32 32
Info: PME MAXIMUM GRID SPACING    1
Info: PME CALCULATION WILL BE PERFORMED ON GPU
Info: FULL ELECTROSTATIC EVALUATION FREQUENCY      2
Info: USING VERLET I (r-RESPA) MTS SCHEME.
Info: C1 SPLITTING OF LONG RANGE ELECTROSTATICS
Info: PLACING ATOMS IN PATCHES BY HYDROGEN GROUPS
Info: RIGID BONDS TO HYDROGEN : ALL
Info:         ERROR TOLERANCE : 1e-08
Info:          MAX ITERATIONS : 100
Info: RIGID WATER USING SETTLE ALGORITHM
Info: RANDOM NUMBER SEED     1743666152
Info: USE HYDROGEN BONDS?    NO
Info: Using AMBER format force field!
Info: AMBER PARM FILE        mobley_242480.prmtop
Info: COORDINATE PDB         mobley_242480.pdb
Info: Exclusions will be read from PARM file!
Info: SCNB (VDW SCALING)     2
Info: USING ARITHMETIC MEAN TO COMBINE L-J SIGMA PARAMETERS
Info: BINARY COORDINATES     mobley_242480_equil.coor
Info: SUMMARY OF PARAMETERS:
Info: 8 BONDS
Info: 8 ANGLES
Info:   8 HARMONIC
Info:   0 COSINE-BASED
Info: 5 DIHEDRAL
Info: 0 IMPROPER
Info: 0 CROSSTERM
Info: 0 VDW
Info: 28 VDW_PAIRS
Info: 0 NBTHOLE_PAIRS
Info: To read alchdata from file: mobley_242480.pdb
Info: To read alchflag data from column: 5
Info: STRUCTURE SUMMARY:
Info: 2962 ATOMS
Info: 2964 BONDS
Info: 48 ANGLES
Info: 88 DIHEDRALS
Info: 0 IMPROPERS
Info: 0 CROSSTERMS
Info: 3075 EXCLUSIONS
Info: 2944 RIGID BONDS
Info: ALCH: 0 ATOMS TO DISAPPEAR IN FINAL STATE
Info: ALCH: 28 ATOMS TO APPEAR IN FINAL STATE
Info: 5942 DEGREES OF FREEDOM
Info: 996 HYDROGEN GROUPS
Info: 3 ATOMS IN LARGEST HYDROGEN GROUP
Info: 996 MIGRATION GROUPS
Info: 3 ATOMS IN LARGEST MIGRATION GROUP
Info: TOTAL MASS = 17857.9 amu
Info: TOTAL CHARGE = 0.000299968 e
Info: MASS DENSITY = 0.962898 g/cm^3
Info: ATOM DENSITY = 0.096178 atoms/A^3
Info: ADDED 0 IMPLICIT EXCLUSIONS
Info: NONBONDED TABLE R-SQUARED SPACING: 0.0625
Info: NONBONDED TABLE SIZE: 705 POINTS
Info: REMOVING COM VELOCITY 0.147962 0.000151955 -0.0620166
Info: Use 3D box decompostion in PME FFT.
Info: Updated CUDA force table with 4096 elements.
Info: Updated CUDA LJ table with 7 x 7 elements.
Info: Found 29 unique exclusion lists needing 100 bytes
TCL: Running for 1500000 steps
ETITLE: TS BOND ANGLE DIHED IMPRP ELECT VDW BOUNDARY MISC KINETIC TOTAL TEMP POTENTIAL TOTALAVG TEMPAVG PRESSURE GPRESSURE VOLUME PRESSAVG GPRESSAVG
ENERGY: 0 5.4635 10.5671 9.2538 0.0000 -10933.5806 1566.0605 0.0000 0.0000 1774.5510 -7567.6846 300.5704 -9342.2356 -7567.6846 300.5704 718.2962 784.8742 30797.0501 718.2962 784.8742
ENERGY: 300000 6.1302 13.2274 12.3859 0.0000 -10778.1258 1487.0136 0.0000 0.0000 1817.3496 -7442.0190 307.8196 -9259.3686 -7457.8276 303.8713 306.2576 381.7117 30742.1011 -11.3716 68.8013
ENERGY: 600000 9.6710 7.3584 11.6905 0.0000 -10874.1003 1557.3317 0.0000 0.0000 1703.0435 -7585.0052 288.4586 -9288.0487 -7487.3327 303.1711 727.8991 820.5230 30598.4935 129.2938 211.5805
ENERGY: 900000 7.3954 6.9852 14.6433 0.0000 -10789.1915 1490.4109 0.0000 0.0000 1708.2117 -7561.5450 289.3340 -9269.7567 -7488.2639 302.0555 471.3978 497.4012 30207.7334 175.3779 242.8521
ENERGY: 1200000 10.9807 13.9207 8.3721 0.0000 -10714.2796 1425.9621 0.0000 0.0000 1813.0029 -7442.0411 307.0833 -9255.0441 -7493.5859 301.3088 -86.0584 -98.5912 30502.0615 12.4783 70.9698
ENERGY: 1500000 10.3649 12.1500 12.0602 0.0000 -10802.3118 1471.7670 0.0000 0.0000 1712.6671 -7583.3027 290.0886 -9295.9698 -7493.2524 300.7076 -136.5822 -96.2041 30509.3241 -34.8136 19.1225
TCL: Running FEP window   2: Lambda1 0.95   Lambda2 0.8999999999999999 [dLambda -0.050000000000000044]
TCL: Setting parameter firsttimestep to 0
TCL: Setting parameter alchLambda to 0.95
Info: NONBONDED TABLE R-SQUARED SPACING: 0.0625
Info: NONBONDED TABLE SIZE: 705 POINTS
TCL: Setting parameter alchLambda2 to 0.8999999999999999
Info: NONBONDED TABLE R-SQUARED SPACING: 0.0625
Info: NONBONDED TABLE SIZE: 705 POINTS
TCL: Running for 1500000 steps
ETITLE: TS BOND ANGLE DIHED IMPRP ELECT VDW BOUNDARY MISC KINETIC TOTAL TEMP POTENTIAL TOTALAVG TEMPAVG PRESSURE GPRESSURE VOLUME PRESSAVG GPRESSAVG
ENERGY: 0 10.3649 12.1500 12.0602 0.0000 -10798.6791 1470.4921 0.0000 0.0000 1711.7757 -7581.8363 289.9376 -9293.6120 -7581.8363 289.9376 -208.7955 -125.9022 30509.3241 -208.7955 -125.9022
ENERGY: 300000 7.7451 9.0138 13.7431 0.0000 -10650.5473 1334.8607 0.0000 0.0000 1686.4351 -7598.7495 285.6455 -9285.1846 -7554.3343 293.4699 -1080.3105 -1042.1252 30830.3512 -143.7892 -90.6397
ENERGY: 600000 5.1045 5.2797 11.1454 0.0000 -10682.2383 1413.6795 0.0000 0.0000 1740.1830 -7506.8462 294.7492 -9247.0292 -7532.8941 295.6408 -324.0479 -281.6374 30982.9924 -304.9767 -244.9012
ENERGY: 900000 7.5328 10.3110 13.3254 0.0000 -10565.9196 1332.4105 0.0000 0.0000 1773.5143 -7428.8257 300.3948 -9202.3400 -7515.1941 297.0562 -632.2095 -612.3030 31046.6310 -337.9328 -274.3128
ENERGY: 1200000 5.7116 7.9638 10.5022 0.0000 -10724.2238 1421.3510 0.0000 0.0000 1825.8739 -7452.8213 309.2634 -9278.6952 -7515.7441 298.0190 8.6763 41.5209 30402.0533 -295.9196 -232.7182
ENERGY: 1500000 13.6981 7.8573 11.1577 0.0000 -10686.5779 1431.6712 0.0000 0.0000 1788.2330 -7433.9605 302.8878 -9222.1935 -7513.1620 297.7859 -186.6935 -159.2777 30482.8562 -284.6931 -224.9010
TCL: Running FEP window   3: Lambda1 0.8999999999999999 Lambda2 0.8499999999999999 [dLambda -0.050000000000000044]
TCL: Setting parameter firsttimestep to 0
TCL: Setting parameter alchLambda to 0.8999999999999999
Info: NONBONDED TABLE R-SQUARED SPACING: 0.0625
Info: NONBONDED TABLE SIZE: 705 POINTS
TCL: Setting parameter alchLambda2 to 0.8499999999999999
Info: NONBONDED TABLE R-SQUARED SPACING: 0.0625
Info: NONBONDED TABLE SIZE: 705 POINTS
TCL: Running for 1500000 steps
ETITLE: TS BOND ANGLE DIHED IMPRP ELECT VDW BOUNDARY MISC KINETIC TOTAL TEMP POTENTIAL TOTALAVG TEMPAVG PRESSURE GPRESSURE VOLUME PRESSAVG GPRESSAVG
ENERGY: 0 13.6981 7.8573 11.1577 0.0000 -10682.3489 1429.6292 0.0000 0.0000 1787.3658 -7432.6407 302.7410 -9220.0065 -7432.6407 302.7410 -266.4743 -199.4886 30482.8562 -266.4743 -199.4886
ENERGY: 300000 8.5118 12.7885 6.6621 0.0000 -10666.2000 1427.0430 0.0000 0.0000 1720.7466 -7490.4480 291.4571 -9211.1946 -7420.4379 302.5789 203.2477 325.6571 30257.2867 142.7632 207.6405
ENERGY: 600000 10.2883 5.8914 7.7842 0.0000 -10730.7056 1426.0090 0.0000 0.0000 1793.6262 -7487.1065 303.8013 -9280.7328 -7440.5080 302.6182 -305.8697 -213.4794 31011.0965 134.5564 208.0910
ENERGY: 900000 7.9157 9.7591 8.3572 0.0000 -10768.1210 1478.3986 0.0000 0.0000 1710.7096 -7552.9808 289.7571 -9263.6904 -7465.6438 301.0195 483.2762 571.4191 30024.1705 133.3137 207.1094
ENERGY: 1200000 8.5443 9.1021 8.6776 0.0000 -10697.4268 1383.0002 0.0000 0.0000 1776.2009 -7511.9018 300.8499 -9288.1026 -7476.9880 300.2876 -565.2522 -523.6957 30596.4784 31.5497 100.1123
ENERGY: 1500000 7.1473 13.2068 10.5611 0.0000 -10785.9970 1480.2059 0.0000 0.0000 1803.3127 -7471.5632 305.4420 -9274.8759 -7467.1805 301.3005 407.2002 513.2431 30121.5734 8.5289 81.9095
TCL: Running FEP window   4: Lambda1 0.8499999999999999 Lambda2 0.7999999999999998 [dLambda -0.050000000000000044]
TCL: Setting parameter firsttimestep to 0
TCL: Setting parameter alchLambda to 0.8499999999999999
Info: NONBONDED TABLE R-SQUARED SPACING: 0.0625
Info: NONBONDED TABLE SIZE: 705 POINTS
TCL: Setting parameter alchLambda2 to 0.7999999999999998
Info: NONBONDED TABLE R-SQUARED SPACING: 0.0625
Info: NONBONDED TABLE SIZE: 705 POINTS
TCL: Running for 1500000 steps
ETITLE: TS BOND ANGLE DIHED IMPRP ELECT VDW BOUNDARY MISC KINETIC TOTAL TEMP POTENTIAL TOTALAVG TEMPAVG PRESSURE GPRESSURE VOLUME PRESSAVG GPRESSAVG
ENERGY: 0 7.1473 13.2068 10.5611 0.0000 -10782.7182 1480.6725 0.0000 0.0000 1802.4371 -7468.6933 305.2937 -9271.1305 -7468.6933 305.2937 417.3098 505.2583 30121.5734 417.3098 505.2583
ENERGY: 300000 6.7076 18.1226 11.0206 0.0000 -10898.8237 1574.4800 0.0000 0.0000 1769.9968 -7518.4961 299.7990 -9288.4929 -7464.1447 300.4974 849.4868 938.6598 30602.8603 343.8593 413.2599
ENERGY: 600000 10.9200 8.8540 9.8933 0.0000 -10737.8462 1423.9979 0.0000 0.0000 1789.6595 -7494.5214 303.1295 -9284.1810 -7466.4477 300.0932 -266.3851 -158.2531 30271.6054 63.7449 142.6120
ENERGY: 900000 8.3278 6.4790 6.0020 0.0000 -10685.4218 1432.1818 0.0000 0.0000 1816.6039 -7415.8274 307.6933 -9232.4313 -7454.4231 301.4498 -201.1316 -150.0713 30653.0518 -9.7775 61.7199
ENERGY: 1200000 10.7938 8.2047 9.1656 0.0000 -10822.2153 1528.9022 0.0000 0.0000 1780.9436 -7484.2054 301.6532 -9265.1490 -7464.7301 301.6168 896.2787 899.7314 29644.7639 1.7823 64.9774
ENERGY: 1500000 6.8975 9.6632 8.1597 0.0000 -10729.2273 1463.1752 0.0000 0.0000 1783.8778 -7457.4540 302.1502 -9241.3318 -7464.9689 301.7938 72.2153 101.4327 30315.5243 -40.7550 18.7067
TCL: Running FEP window   5: Lambda1 0.7999999999999998 Lambda2 0.7499999999999998 [dLambda -0.050000000000000044]
TCL: Setting parameter firsttimestep to 0
TCL: Setting parameter alchLambda to 0.7999999999999998
Info: NONBONDED TABLE R-SQUARED SPACING: 0.0625
Info: NONBONDED TABLE SIZE: 705 POINTS
TCL: Setting parameter alchLambda2 to 0.7499999999999998
Info: NONBONDED TABLE R-SQUARED SPACING: 0.0625
Info: NONBONDED TABLE SIZE: 705 POINTS
TCL: Running for 1500000 steps
ETITLE: TS BOND ANGLE DIHED IMPRP ELECT VDW BOUNDARY MISC KINETIC TOTAL TEMP POTENTIAL TOTALAVG TEMPAVG PRESSURE GPRESSURE VOLUME PRESSAVG GPRESSAVG
ENERGY: 0 6.8975 9.6632 8.1597 0.0000 -10725.8690 1462.0153 0.0000 0.0000 1783.0123 -7456.1211 302.0036 -9239.1334 -7456.1211 302.0036 -9.8065 81.3930 30315.5243 -9.8065 81.3930
ENERGY: 300000 10.1362 9.5016 8.0917 0.0000 -10789.0141 1478.0365 0.0000 0.0000 1763.7899 -7519.4582 298.7477 -9283.2481 -7473.1645 298.5626 164.1574 218.7797 30523.7799 -35.3431 88.8375
ENERGY: 600000 6.5992 12.0201 8.8025 0.0000 -10780.9900 1434.2672 0.0000 0.0000 1783.9996 -7535.3015 302.1708 -9319.3011 -7486.8165 300.1221 -405.2457 -368.8805 30744.4645 -142.0903 -43.6324
ENERGY: 900000 5.5180 8.8234 9.5018 0.0000 -10750.6860 1425.4371 0.0000 0.0000 1788.2869 -7513.1187 302.8970 -9301.4057 -7494.7466 299.8042 -59.9354 25.1926 30031.9806 -155.5279 -67.6035
ENERGY: 1200000 11.0168 7.5905 10.6410 0.0000 -10560.5618 1351.0196 0.0000 0.0000 1752.5718 -7427.7221 296.8476 -9180.2939 -7483.5586 299.5975 -780.7075 -719.0636 30613.4188 -185.6624 -111.8388
ENERGY: 1500000 6.7497 11.1449 8.7303 0.0000 -10718.6655 1431.8817 0.0000 0.0000 1808.7800 -7451.3789 306.3681 -9260.1589 -7476.3073 300.5975 -465.6029 -436.9097 31043.2368 -146.1910 -78.1172
TCL: Running FEP window   6: Lambda1 0.7499999999999998 Lambda2 0.6999999999999997 [dLambda -0.050000000000000044]
TCL: Setting parameter firsttimestep to 0
TCL: Setting parameter alchLambda to 0.7499999999999998
Info: NONBONDED TABLE R-SQUARED SPACING: 0.0625
Info: NONBONDED TABLE SIZE: 705 POINTS
TCL: Setting parameter alchLambda2 to 0.6999999999999997
Info: NONBONDED TABLE R-SQUARED SPACING: 0.0625
Info: NONBONDED TABLE SIZE: 705 POINTS
TCL: Running for 1500000 steps
ETITLE: TS BOND ANGLE DIHED IMPRP ELECT VDW BOUNDARY MISC KINETIC TOTAL TEMP POTENTIAL TOTALAVG TEMPAVG PRESSURE GPRESSURE VOLUME PRESSAVG GPRESSAVG
ENERGY: 0 6.7497 11.1449 8.7303 0.0000 -10714.9362 1430.3049 0.0000 0.0000 1807.8975 -7450.1090 306.2186 -9258.0064 -7450.1090 306.2186 -542.9289 -463.1808 31043.2368 -542.9289 -463.1808
ENERGY: 300000 7.6105 10.1145 10.6183 0.0000 -10733.0156 1455.9028 0.0000 0.0000 1756.6518 -7492.1178 297.5387 -9248.7696 -7478.2259 301.0257 253.0316 354.4309 30106.8921 -243.3916 -146.4393
ENERGY: 600000 5.4687 6.5425 6.8698 0.0000 -10868.7157 1551.6791 0.0000 0.0000 1745.8203 -7552.3353 295.7041 -9298.1557 -7487.3171 299.8444 548.9680 614.8170 30431.1656 230.4369 306.9037
ENERGY: 900000 7.1905 12.5452 7.7417 0.0000 -10723.3515 1434.6533 0.0000 0.0000 1804.4891 -7456.7316 305.6413 -9261.2207 -7475.9615 301.7648 11.3434 125.3055 29869.3548 121.1019 207.6510
ENERGY: 1200000 7.8871 12.8865 13.4083 0.0000 -10556.7495 1321.2722 0.0000 0.0000 1825.1286 -7376.1668 309.1371 -9201.2953 -7465.8132 301.8817 -765.1282 -704.1607 30604.2594 142.6247 226.7476
ENERGY: 1500000 5.7380 9.8713 14.7549 0.0000 -10685.0582 1490.4169 0.0000 0.0000 1784.9735 -7379.3037 302.3358 -9164.2772 -7459.2117 301.8480 606.7570 690.8330 30494.0234 115.9485 202.0367
TCL: Running FEP window   7: Lambda1 0.6999999999999997 Lambda2 0.6499999999999997 [dLambda -0.050000000000000044]
TCL: Setting parameter firsttimestep to 0
TCL: Setting parameter alchLambda to 0.6999999999999997
Info: NONBONDED TABLE R-SQUARED SPACING: 0.0625
Info: NONBONDED TABLE SIZE: 705 POINTS
TCL: Setting parameter alchLambda2 to 0.6499999999999997
Info: NONBONDED TABLE R-SQUARED SPACING: 0.0625
Info: NONBONDED TABLE SIZE: 705 POINTS
TCL: Running for 1500000 steps
ETITLE: TS BOND ANGLE DIHED IMPRP ELECT VDW BOUNDARY MISC KINETIC TOTAL TEMP POTENTIAL TOTALAVG TEMPAVG PRESSURE GPRESSURE VOLUME PRESSAVG GPRESSAVG
ENERGY: 0 5.7380 9.8713 14.7549 0.0000 -10680.8820 1489.2884 0.0000 0.0000 1784.1093 -7377.1202 302.1894 -9161.2294 -7377.1202 302.1894 587.0226 676.5186 30494.0234 587.0226 676.5186
ENERGY: 300000 7.8462 6.6360 7.5354 0.0000 -10531.1611 1347.6433 0.0000 0.0000 1775.1409 -7386.3593 300.6703 -9161.5001 -7405.2321 302.2161 -474.7330 -459.5926 30509.6129 -500.3760 -444.2923
ENERGY: 600000 10.2672 8.6185 9.1124 0.0000 -10689.0342 1394.0026 0.0000 0.0000 1753.0371 -7513.9963 296.9264 -9267.0335 -7437.1373 301.0724 -923.9313 -866.0148 30929.9407 -346.7339 -286.2362
ENERGY: 900000 7.1721 8.8858 10.2493 0.0000 -10860.2379 1576.4317 0.0000 0.0000 1723.2266 -7534.2724 291.8772 -9257.4990 -7464.2738 299.1673 809.9234 821.9374 30674.2022 -134.9578 -76.9064
ENERGY: 1200000 6.5046 8.2052 5.7162 0.0000 -10639.7206 1395.5872 0.0000 0.0000 1771.1827 -7452.5246 299.9999 -9223.7074 -7465.2885 299.0771 -421.8119 -304.1514 30462.0259 -241.6199 -184.8104
ENERGY: 1500000 5.1643 7.2999 8.0962 0.0000 -10593.5391 1384.6034 0.0000 0.0000 1797.9934 -7390.3820 304.5410 -9188.3754 -7459.8116 299.7639 -483.3759 -417.0200 30838.9242 -296.6492 -241.6587
TCL: Running FEP window   8: Lambda1 0.6499999999999997 Lambda2 0.5999999999999996 [dLambda -0.050000000000000044]
TCL: Setting parameter firsttimestep to 0
TCL: Setting parameter alchLambda to 0.6499999999999997
Info: NONBONDED TABLE R-SQUARED SPACING: 0.0625
Info: NONBONDED TABLE SIZE: 705 POINTS
TCL: Setting parameter alchLambda2 to 0.5999999999999996
Info: NONBONDED TABLE R-SQUARED SPACING: 0.0625
Info: NONBONDED TABLE SIZE: 705 POINTS
TCL: Running for 1500000 steps
ETITLE: TS BOND ANGLE DIHED IMPRP ELECT VDW BOUNDARY MISC KINETIC TOTAL TEMP POTENTIAL TOTALAVG TEMPAVG PRESSURE GPRESSURE VOLUME PRESSAVG GPRESSAVG
ENERGY: 0 5.1643 7.2999 8.0962 0.0000 -10591.5838 1385.4550 0.0000 0.0000 1797.1437 -7388.4248 304.3971 -9185.5685 -7388.4248 304.3971 -496.3519 -417.3507 30838.9242 -496.3519 -417.3507
ENERGY: 300000 8.8900 4.5865 5.4379 0.0000 -10615.8672 1432.5893 0.0000 0.0000 1762.2844 -7402.0791 298.4927 -9164.3635 -7424.3999 300.1711 187.2546 276.5303 30273.9112 -247.0629 -157.5117
ENERGY: 600000 4.1276 6.8695 5.7957 0.0000 -10852.9044 1573.0433 0.0000 0.0000 1816.4634 -7446.6049 307.6695 -9263.0683 -7425.7467 302.3092 914.9530 947.7106 30557.9092 -154.0149 -70.7950
ENERGY: 900000 9.6397 9.0138 9.8828 0.0000 -10611.9787 1390.3587 0.0000 0.0000 1779.8173 -7413.2664 301.4624 -9193.0837 -7431.0579 301.6691 -247.4547 -238.2707 30467.1399 -172.6552 -107.5232
ENERGY: 1200000 4.7147 13.7548 10.2301 0.0000 -10777.1787 1438.2198 0.0000 0.0000 1834.7177 -7475.5416 310.7613 -9310.2592 -7439.0952 301.8413 -244.7188 -174.8096 30150.4613 -109.6218 -45.8436
ENERGY: 1500000 7.3435 7.7389 9.6171 0.0000 -10736.5915 1426.3779 0.0000 0.0000 1788.4690 -7497.0451 302.9278 -9285.5141 -7456.7895 301.6235 -122.8542 -114.5969 30021.1911 -56.0937 2.8141
TCL: Running FEP window   9: Lambda1 0.5999999999999996 Lambda2 0.5499999999999996 [dLambda -0.050000000000000044]
TCL: Setting parameter firsttimestep to 0
TCL: Setting parameter alchLambda to 0.5999999999999996
Info: NONBONDED TABLE R-SQUARED SPACING: 0.0625
Info: NONBONDED TABLE SIZE: 705 POINTS
TCL: Setting parameter alchLambda2 to 0.5499999999999996
Info: NONBONDED TABLE R-SQUARED SPACING: 0.0625
Info: NONBONDED TABLE SIZE: 705 POINTS
TCL: Running for 1500000 steps
ETITLE: TS BOND ANGLE DIHED IMPRP ELECT VDW BOUNDARY MISC KINETIC TOTAL TEMP POTENTIAL TOTALAVG TEMPAVG PRESSURE GPRESSURE VOLUME PRESSAVG GPRESSAVG
ENERGY: 0 7.3435 7.7389 9.6171 0.0000 -10735.6669 1426.9398 0.0000 0.0000 1787.5613 -7496.4663 302.7741 -9284.0275 -7496.4663 302.7741 -208.2640 -118.0430 30021.1911 -208.2640 -118.0430
ENERGY: 300000 11.6572 8.9879 9.9420 0.0000 -10480.6297 1300.5181 0.0000 0.0000 1818.3799 -7331.1447 307.9941 -9149.5246 -7401.7041 305.4764 -944.7592 -935.9735 30917.0702 -207.1930 -172.1974
ENERGY: 600000 8.4132 11.2840 7.5500 0.0000 -10634.4255 1420.1897 0.0000 0.0000 1758.6695 -7428.3190 297.8804 -9186.9885 -7448.2357 301.3150 -173.5554 -85.3505 30645.1737 -230.5366 -186.7472
ENERGY: 900000 5.4863 10.3019 10.7745 0.0000 -10682.6104 1427.6542 0.0000 0.0000 1788.9835 -7439.4100 303.0150 -9228.3935 -7452.7709 301.2446 -159.3795 -97.5384 30525.3628 -220.2736 -168.1755
ENERGY: 1200000 8.7125 8.8291 5.2661 0.0000 -10741.5510 1507.4889 0.0000 0.0000 1767.2662 -7443.9881 299.3365 -9211.2543 -7454.2390 300.8190 276.9464 366.0113 30689.4527 -226.7316 -169.9994
ENERGY: 1500000 6.7866 11.7199 6.8317 0.0000 -10894.2508 1569.8754 0.0000 0.0000 1730.6622 -7568.3750 293.1366 -9299.0372 -7469.3699 300.0937 744.7993 754.4413 30331.1749 -171.8693 -119.1753
TCL: Running FEP window  10: Lambda1 0.5499999999999996 Lambda2 0.4999999999999996 [dLambda -0.04999999999999999]
TCL: Setting parameter firsttimestep to 0
TCL: Setting parameter alchLambda to 0.5499999999999996
Info: NONBONDED TABLE R-SQUARED SPACING: 0.0625
Info: NONBONDED TABLE SIZE: 705 POINTS
TCL: Setting parameter alchLambda2 to 0.4999999999999996
Info: NONBONDED TABLE R-SQUARED SPACING: 0.0625
Info: NONBONDED TABLE SIZE: 705 POINTS
TCL: Running for 1500000 steps
ETITLE: TS BOND ANGLE DIHED IMPRP ELECT VDW BOUNDARY MISC KINETIC TOTAL TEMP POTENTIAL TOTALAVG TEMPAVG PRESSURE GPRESSURE VOLUME PRESSAVG GPRESSAVG
ENERGY: 0 6.7866 11.7199 6.8317 0.0000 -10892.7423 1570.5733 0.0000 0.0000 1729.7856 -7567.0452 292.9881 -9296.8308 -7567.0452 292.9881 677.2180 755.6803 30331.1749 677.2180 755.6803
ENERGY: 300000 6.8969 9.2347 12.0470 0.0000 -10787.1620 1538.4266 0.0000 0.0000 1792.6341 -7427.9226 303.6333 -9220.5567 -7522.6494 298.9928 805.6320 857.3335 30303.9146 425.4481 472.5457
ENERGY: 600000 9.3934 10.0490 9.8505 0.0000 -10692.6897 1430.5024 0.0000 0.0000 1753.6240 -7479.2704 297.0258 -9232.8943 -7498.1168 299.0550 62.9167 158.5789 30278.1979 172.6026 226.9778
ENERGY: 900000 10.2834 10.0685 12.7929 0.0000 -10915.3828 1557.3288 0.0000 0.0000 1772.7307 -7552.1786 300.2621 -9324.9093 -7501.7867 298.3181 1031.9449 1104.0052 30030.9010 182.4476 243.0952
ENERGY: 1200000 7.0648 9.7697 6.4249 0.0000 -10704.4847 1446.7093 0.0000 0.0000 1759.7238 -7474.7921 298.0590 -9234.5159 -7489.6172 298.6286 5.1576 61.6820 30446.0398 142.5870 205.9836
ENERGY: 1500000 6.7768 6.2429 4.0539 0.0000 -10643.7918 1343.1694 0.0000 0.0000 1761.0397 -7522.5092 298.2819 -9283.5488 -7484.6996 298.9421 -956.7592 -843.9899 30465.9461 27.1694 97.0454
TCL: Running FEP window  11: Lambda1 0.4999999999999996 Lambda2 0.4499999999999996 [dLambda -0.04999999999999999]
TCL: Setting parameter firsttimestep to 0
TCL: Setting parameter alchLambda to 0.4999999999999996
Info: NONBONDED TABLE R-SQUARED SPACING: 0.0625
Info: NONBONDED TABLE SIZE: 705 POINTS
TCL: Setting parameter alchLambda2 to 0.4499999999999996
Info: NONBONDED TABLE R-SQUARED SPACING: 0.0625
Info: NONBONDED TABLE SIZE: 705 POINTS
TCL: Running for 1500000 steps
ETITLE: TS BOND ANGLE DIHED IMPRP ELECT VDW BOUNDARY MISC KINETIC TOTAL TEMP POTENTIAL TOTALAVG TEMPAVG PRESSURE GPRESSURE VOLUME PRESSAVG GPRESSAVG
ENERGY: 0 6.7768 6.2429 4.0538 0.0000 -10642.7708 1343.3721 0.0000 0.0000 1760.1404 -7522.1848 298.1296 -9282.3252 -7522.1848 298.1296 -953.8820 -853.2541 30465.9461 -953.8820 -853.2541
ENERGY: 300000 8.2474 8.9794 9.6640 0.0000 -10671.1848 1404.1792 0.0000 0.0000 1757.9148 -7482.1999 297.7526 -9240.1148 -7468.2454 300.5056 -368.2910 -330.1334 30326.3665 -415.8481 -361.9120
ENERGY: 600000 9.5275 7.2031 8.2617 0.0000 -10659.1088 1335.5300 0.0000 0.0000 1722.9139 -7575.6726 291.8242 -9298.5865 -7474.2701 301.5765 -1208.2467 -1153.4745 30643.6460 -488.2818 -440.2506
ENERGY: 900000 4.5225 9.9719 10.2163 0.0000 -10646.6658 1433.3607 0.0000 0.0000 1770.8982 -7417.6962 299.9517 -9188.5943 -7465.0867 301.9297 82.4191 244.1891 30613.5453 -278.8793 -222.3822
ENERGY: 1200000 3.7972 11.2778 8.9326 0.0000 -10747.4712 1487.0297 0.0000 0.0000 1749.2932 -7487.1407 296.2923 -9236.4339 -7473.9589 300.4118 310.9203 372.2147 30349.1416 -169.8754 -106.7501
ENERGY: 1500000 4.3136 8.4728 5.6288 0.0000 -10772.9363 1454.1099 0.0000 0.0000 1795.3650 -7505.0462 304.0959 -9300.4113 -7477.0045 300.2698 277.8050 423.3205 30113.3354 -97.7950 -32.6234
TCL: Running FEP window  12: Lambda1 0.4499999999999996 Lambda2 0.39999999999999963 [dLambda -0.04999999999999999]
TCL: Setting parameter firsttimestep to 0
TCL: Setting parameter alchLambda to 0.4499999999999996
Info: NONBONDED TABLE R-SQUARED SPACING: 0.0625
Info: NONBONDED TABLE SIZE: 705 POINTS
TCL: Setting parameter alchLambda2 to 0.39999999999999963
Info: NONBONDED TABLE R-SQUARED SPACING: 0.0625
Info: NONBONDED TABLE SIZE: 705 POINTS
TCL: Running for 1500000 steps
ETITLE: TS BOND ANGLE DIHED IMPRP ELECT VDW BOUNDARY MISC KINETIC TOTAL TEMP POTENTIAL TOTALAVG TEMPAVG PRESSURE GPRESSURE VOLUME PRESSAVG GPRESSAVG
ENERGY: 0 4.3136 8.4727 5.6288 0.0000 -10772.9375 1454.1402 0.0000 0.0000 1794.4966 -7505.8856 303.9488 -9300.3822 -7505.8856 303.9488 329.1923 413.4358 30113.3354 329.1923 413.4358
ENERGY: 300000 5.9211 10.5584 7.4646 0.0000 -10568.7924 1320.8972 0.0000 0.0000 1734.3047 -7489.6464 293.7536 -9223.9511 -7465.6005 301.3086 -1004.5127 -985.1983 30489.6400 -111.2042 -40.7174
ENERGY: 600000 11.6602 9.9893 8.3663 0.0000 -10832.5331 1480.2994 0.0000 0.0000 1770.4158 -7551.8020 299.8700 -9322.2178 -7467.0462 301.6921 -183.7162 -156.0052 30676.3094 -126.9376 -82.6530
ENERGY: 900000 6.3850 8.5074 5.6355 0.0000 -10778.7320 1499.5442 0.0000 0.0000 1775.1660 -7483.4938 300.6746 -9258.6598 -7471.6170 300.7906 420.0388 489.6640 30157.7650 -200.2086 -144.3371
ENERGY: 1200000 9.8805 8.6726 13.7260 0.0000 -10771.9152 1481.3047 0.0000 0.0000 1778.4150 -7479.9165 301.2249 -9258.3314 -7472.6702 299.9627 213.8391 204.2837 30229.5373 -196.1291 -137.8704
ENERGY: 1500000 7.2831 11.4521 10.1181 0.0000 -10705.3656 1403.0374 0.0000 0.0000 1762.9408 -7510.5341 298.6039 -9273.4749 -7473.1821 300.3486 -346.9266 -330.9733 30574.1307 -152.9836 -100.3466
TCL: Running FEP window  13: Lambda1 0.39999999999999963 Lambda2 0.34999999999999964 [dLambda -0.04999999999999999]
TCL: Setting parameter firsttimestep to 0
TCL: Setting parameter alchLambda to 0.39999999999999963
Info: NONBONDED TABLE R-SQUARED SPACING: 0.0625
Info: NONBONDED TABLE SIZE: 705 POINTS
TCL: Setting parameter alchLambda2 to 0.34999999999999964
Info: NONBONDED TABLE R-SQUARED SPACING: 0.0625
Info: NONBONDED TABLE SIZE: 705 POINTS
TCL: Running for 1500000 steps
ETITLE: TS BOND ANGLE DIHED IMPRP ELECT VDW BOUNDARY MISC KINETIC TOTAL TEMP POTENTIAL TOTALAVG TEMPAVG PRESSURE GPRESSURE VOLUME PRESSAVG GPRESSAVG
ENERGY: 0 7.2831 11.4521 10.1181 0.0000 -10705.3639 1403.9965 0.0000 0.0000 1762.0564 -7510.4577 298.4541 -9272.5142 -7510.4577 298.4541 -413.3872 -328.5863 30574.1307 -413.3872 -328.5863
ENERGY: 300000 6.3171 10.6240 10.9922 0.0000 -10662.6323 1334.3670 0.0000 0.0000 1811.0585 -7489.2736 306.7540 -9300.3321 -7505.3170 297.1145 -745.9359 -764.3816 29957.2802 -413.3318 -371.7266
ENERGY: 600000 4.9725 10.0524 10.1543 0.0000 -10732.7682 1499.5896 0.0000 0.0000 1755.2146 -7452.7849 297.2952 -9207.9994 -7476.3106 298.1971 624.0533 629.2030 30256.6196 11.5238 54.4018
ENERGY: 900000 8.8687 8.3661 8.7578 0.0000 -10691.2468 1444.1454 0.0000 0.0000 1767.5122 -7453.5966 299.3782 -9221.1089 -7479.6144 297.7589 -24.7522 41.6558 30320.9104 5.3022 57.8560
ENERGY: 1200000 9.0318 5.6087 10.8400 0.0000 -10659.3417 1408.9097 0.0000 0.0000 1780.3336 -7444.6180 301.5499 -9224.9516 -7467.3890 298.6086 -527.6548 -520.9279 30797.1983 -167.3816 -117.2371
ENERGY: 1500000 7.5134 12.2916 8.8847 0.0000 -10862.0758 1508.5546 0.0000 0.0000 1734.4137 -7590.4177 293.7720 -9324.8314 -7478.1707 298.3706 -50.3206 38.9038 30871.0917 -211.0099 -152.3161
TCL: Running FEP window  14: Lambda1 0.34999999999999964 Lambda2 0.29999999999999966 [dLambda -0.04999999999999999]
TCL: Setting parameter firsttimestep to 0
TCL: Setting parameter alchLambda to 0.34999999999999964
Info: NONBONDED TABLE R-SQUARED SPACING: 0.0625
Info: NONBONDED TABLE SIZE: 705 POINTS
TCL: Setting parameter alchLambda2 to 0.29999999999999966
Info: NONBONDED TABLE R-SQUARED SPACING: 0.0625
Info: NONBONDED TABLE SIZE: 705 POINTS
TCL: Running for 1500000 steps
ETITLE: TS BOND ANGLE DIHED IMPRP ELECT VDW BOUNDARY MISC KINETIC TOTAL TEMP POTENTIAL TOTALAVG TEMPAVG PRESSURE GPRESSURE VOLUME PRESSAVG GPRESSAVG
ENERGY: 0 7.5134 12.2916 8.8847 0.0000 -10862.0761 1509.1620 0.0000 0.0000 1733.5472 -7590.6772 293.6253 -9324.2244 -7590.6772 293.6253 -53.5067 36.0672 30871.0917 -53.5067 36.0672
ENERGY: 300000 4.2079 7.7722 12.4116 0.0000 -10738.3933 1498.9829 0.0000 0.0000 1771.4726 -7443.5461 300.0490 -9215.0188 -7489.9972 297.8152 594.6163 656.9543 30097.7020 -253.4447 -179.7911
ENERGY: 600000 3.9150 11.9793 12.5837 0.0000 -10637.5427 1441.1477 0.0000 0.0000 1791.4538 -7376.4633 303.4334 -9167.9171 -7487.1975 298.3111 372.0949 431.5331 30288.1659 -223.3501 -168.0950
ENERGY: 900000 11.8602 12.9712 7.4095 0.0000 -10809.5897 1473.8436 0.0000 0.0000 1800.6326 -7502.8726 304.9881 -9303.5052 -7484.5546 299.3095 35.0064 16.8095 29958.0345 -208.9374 -157.6492
ENERGY: 1200000 7.9218 6.9152 7.5220 0.0000 -10836.0583 1509.9485 0.0000 0.0000 1806.5752 -7497.1755 305.9946 -9303.7507 -7469.1807 300.0057 520.7950 515.8075 30033.1461 -41.3724 5.7289
ENERGY: 1500000 11.6735 10.0446 7.7761 0.0000 -10915.3312 1558.0264 0.0000 0.0000 1708.3323 -7619.4784 289.3544 -9327.8107 -7481.7272 299.2668 577.5362 628.2377 30064.8501 41.8827 91.1953
TCL: Running FEP window  15: Lambda1 0.29999999999999966 Lambda2 0.24999999999999967 [dLambda -0.04999999999999999]
TCL: Setting parameter firsttimestep to 0
TCL: Setting parameter alchLambda to 0.29999999999999966
Info: NONBONDED TABLE R-SQUARED SPACING: 0.0625
Info: NONBONDED TABLE SIZE: 705 POINTS
TCL: Setting parameter alchLambda2 to 0.24999999999999967
Info: NONBONDED TABLE R-SQUARED SPACING: 0.0625
Info: NONBONDED TABLE SIZE: 705 POINTS
TCL: Running for 1500000 steps
ETITLE: TS BOND ANGLE DIHED IMPRP ELECT VDW BOUNDARY MISC KINETIC TOTAL TEMP POTENTIAL TOTALAVG TEMPAVG PRESSURE GPRESSURE VOLUME PRESSAVG GPRESSAVG
ENERGY: 0 11.6735 10.0446 7.7760 0.0000 -10915.3321 1558.4929 0.0000 0.0000 1707.4756 -7619.8695 289.2093 -9327.3451 -7619.8695 289.2093 547.4974 624.1210 30064.8501 547.4974 624.1210
ENERGY: 300000 10.2365 10.9251 5.4923 0.0000 -10896.9644 1522.9372 0.0000 0.0000 1754.0930 -7593.2804 297.1053 -9347.3734 -7523.0650 296.0338 438.6349 468.3419 30357.7588 309.8302 350.6604
ENERGY: 600000 10.8712 7.9017 11.8700 0.0000 -10746.1114 1449.7775 0.0000 0.0000 1752.4169 -7513.2740 296.8214 -9265.6909 -7506.4776 297.9293 -2.2057 62.3062 30105.2171 419.5981 472.4367
ENERGY: 900000 7.5636 9.0662 6.0622 0.0000 -10686.5901 1483.5682 0.0000 0.0000 1821.2724 -7359.0574 308.4840 -9180.3298 -7495.0701 297.9370 254.5186 358.5655 30339.5054 352.0656 410.9539
ENERGY: 1200000 11.0971 7.7281 14.8607 0.0000 -10661.1276 1437.9135 0.0000 0.0000 1753.4017 -7436.1265 296.9882 -9189.5283 -7484.7388 298.5039 -141.0193 -88.9525 30546.5995 281.8594 338.3851
ENERGY: 1500000 9.2429 6.5070 8.9584 0.0000 -10837.5724 1535.2299 0.0000 0.0000 1740.9050 -7536.7292 294.8715 -9277.6342 -7476.4858 298.9555 576.5363 706.3846 30279.2929 226.3282 287.1529
TCL: Running FEP window  16: Lambda1 0.24999999999999967 Lambda2 0.19999999999999968 [dLambda -0.04999999999999999]
TCL: Setting parameter firsttimestep to 0
TCL: Setting parameter alchLambda to 0.24999999999999967
Info: NONBONDED TABLE R-SQUARED SPACING: 0.0625
Info: NONBONDED TABLE SIZE: 705 POINTS
TCL: Setting parameter alchLambda2 to 0.19999999999999968
Info: NONBONDED TABLE R-SQUARED SPACING: 0.0625
Info: NONBONDED TABLE SIZE: 705 POINTS
TCL: Running for 1500000 steps
ETITLE: TS BOND ANGLE DIHED IMPRP ELECT VDW BOUNDARY MISC KINETIC TOTAL TEMP POTENTIAL TOTALAVG TEMPAVG PRESSURE GPRESSURE VOLUME PRESSAVG GPRESSAVG
ENERGY: 0 9.2429 6.5070 8.9584 0.0000 -10837.5708 1536.1261 0.0000 0.0000 1739.9988 -7536.7377 294.7180 -9276.7365 -7536.7377 294.7180 629.0900 707.4843 30279.2929 629.0900 707.4843
ENERGY: 300000 8.3129 8.7506 10.5763 0.0000 -10748.9150 1551.8142 0.0000 0.0000 1727.2780 -7442.1831 292.5634 -9169.4611 -7502.2779 297.0283 849.0848 915.9572 30772.7270 141.3812 191.6772
ENERGY: 600000 7.5569 9.3495 3.8821 0.0000 -10638.7704 1421.0435 0.0000 0.0000 1763.6817 -7433.2566 298.7294 -9196.9383 -7466.9159 298.5869 78.1488 175.7810 30058.0937 155.9223 217.1502
ENERGY: 900000 4.7650 6.6953 9.4599 0.0000 -10836.0567 1571.1467 0.0000 0.0000 1728.2543 -7515.7354 292.7288 -9243.9897 -7471.8069 298.4778 992.6503 1075.4335 29919.9807 216.4148 280.8861
ENERGY: 1200000 7.4843 13.3341 6.7359 0.0000 -10854.9588 1529.9121 0.0000 0.0000 1780.6325 -7516.8599 301.6005 -9297.4924 -7464.6033 299.4837 582.7322 670.8230 29785.9071 212.9513 275.9809
ENERGY: 1500000 5.9401 5.8244 12.7444 0.0000 -10752.7400 1492.1434 0.0000 0.0000 1761.5088 -7474.5790 298.3613 -9236.0878 -7468.2618 299.8831 293.3026 367.5422 30584.5122 190.2915 253.2901
TCL: Running FEP window  17: Lambda1 0.19999999999999968 Lambda2 0.1499999999999997 [dLambda -0.04999999999999999]
TCL: Setting parameter firsttimestep to 0
TCL: Setting parameter alchLambda to 0.19999999999999968
Info: NONBONDED TABLE R-SQUARED SPACING: 0.0625
Info: NONBONDED TABLE SIZE: 705 POINTS
TCL: Setting parameter alchLambda2 to 0.1499999999999997
Info: NONBONDED TABLE R-SQUARED SPACING: 0.0625
Info: NONBONDED TABLE SIZE: 705 POINTS
TCL: Running for 1500000 steps
ETITLE: TS BOND ANGLE DIHED IMPRP ELECT VDW BOUNDARY MISC KINETIC TOTAL TEMP POTENTIAL TOTALAVG TEMPAVG PRESSURE GPRESSURE VOLUME PRESSAVG GPRESSAVG
ENERGY: 0 5.9401 5.8244 12.7444 0.0000 -10752.7417 1491.5632 0.0000 0.0000 1760.6398 -7476.0299 298.2141 -9236.6697 -7476.0299 298.2141 275.6547 356.6204 30584.5122 275.6547 356.6204
ENERGY: 300000 8.3023 8.5149 7.5317 0.0000 -10675.1710 1448.0511 0.0000 0.0000 1816.5884 -7386.1826 307.6906 -9202.7710 -7455.6063 303.7181 292.7873 353.2164 30144.9948 510.5890 575.2296
ENERGY: 600000 6.7327 8.6459 4.2034 0.0000 -10823.2741 1541.0240 0.0000 0.0000 1773.2471 -7489.4210 300.3496 -9262.6681 -7467.7401 302.2711 301.2841 363.5393 30776.6957 291.6832 355.8746
ENERGY: 900000 4.1617 9.4170 8.5895 0.0000 -10654.5937 1395.9308 0.0000 0.0000 1760.2835 -7476.2113 298.1538 -9236.4947 -7472.6292 301.5163 -619.1809 -518.0289 30468.7360 100.4470 179.3425
ENERGY: 1200000 7.6760 9.0869 5.6457 0.0000 -10597.6602 1395.1695 0.0000 0.0000 1776.0816 -7404.0004 300.8297 -9180.0820 -7458.2026 302.2514 -516.2425 -453.3536 30577.4352 -39.5941 30.2170
ENERGY: 1500000 5.8578 8.1181 4.0652 0.0000 -10777.2973 1478.2517 0.0000 0.0000 1786.5313 -7494.4733 302.5996 -9281.0045 -7465.1740 301.2411 525.2450 558.3261 29838.2204 -57.7548 13.1313
TCL: Running FEP window  18: Lambda1 0.1499999999999997 Lambda2 0.09999999999999969 [dLambda -0.05 ]
TCL: Setting parameter firsttimestep to 0
TCL: Setting parameter alchLambda to 0.1499999999999997
Info: NONBONDED TABLE R-SQUARED SPACING: 0.0625
Info: NONBONDED TABLE SIZE: 705 POINTS
TCL: Setting parameter alchLambda2 to 0.09999999999999969
Info: NONBONDED TABLE R-SQUARED SPACING: 0.0625
Info: NONBONDED TABLE SIZE: 705 POINTS
TCL: Running for 1500000 steps
ETITLE: TS BOND ANGLE DIHED IMPRP ELECT VDW BOUNDARY MISC KINETIC TOTAL TEMP POTENTIAL TOTALAVG TEMPAVG PRESSURE GPRESSURE VOLUME PRESSAVG GPRESSAVG
ENERGY: 0 5.8578 8.1181 4.0652 0.0000 -10777.2957 1478.7311 0.0000 0.0000 1785.6794 -7494.8442 302.4553 -9280.5235 -7494.8442 302.4553 473.0907 555.8721 29838.2204 473.0907 555.8721
ENERGY: 300000 6.0274 11.0702 6.6556 0.0000 -10806.5284 1537.9033 0.0000 0.0000 1850.3085 -7394.5636 313.4021 -9244.8721 -7475.0933 304.8552 787.7392 856.6492 30163.6275 286.9915 346.2208
ENERGY: 600000 11.0538 11.0616 6.6198 0.0000 -10654.6682 1380.1101 0.0000 0.0000 1771.0250 -7474.7978 299.9732 -9245.8228 -7485.3938 301.4461 -988.8280 -926.6023 30778.7537 159.3491 223.2709
ENERGY: 900000 5.7048 7.6205 8.5397 0.0000 -10687.7212 1424.8574 0.0000 0.0000 1809.4774 -7431.5213 306.4862 -9240.9987 -7482.1578 300.8968 -142.5923 -65.1410 30189.0321 118.0937 185.4238
ENERGY: 1200000 6.4426 6.0015 5.4491 0.0000 -10670.9610 1376.7587 0.0000 0.0000 1800.0907 -7476.2185 304.8963 -9276.3092 -7474.6077 301.9167 -640.5564 -594.4998 30253.8282 14.0448 83.7440
ENERGY: 1500000 7.4594 11.4656 8.3951 0.0000 -10657.5519 1441.0155 0.0000 0.0000 1751.1911 -7438.0252 296.6137 -9189.2163 -7464.2628 302.1248 43.7433 61.9023 30206.6682 -34.8617 33.2574
TCL: Running FEP window  19: Lambda1 0.09999999999999969 Lambda2 0.049999999999999684 [dLambda -0.05 ]
TCL: Setting parameter firsttimestep to 0
TCL: Setting parameter alchLambda to 0.09999999999999969
Info: NONBONDED TABLE R-SQUARED SPACING: 0.0625
Info: NONBONDED TABLE SIZE: 705 POINTS
TCL: Setting parameter alchLambda2 to 0.049999999999999684
Info: NONBONDED TABLE R-SQUARED SPACING: 0.0625
Info: NONBONDED TABLE SIZE: 705 POINTS
TCL: Running for 1500000 steps
ETITLE: TS BOND ANGLE DIHED IMPRP ELECT VDW BOUNDARY MISC KINETIC TOTAL TEMP POTENTIAL TOTALAVG TEMPAVG PRESSURE GPRESSURE VOLUME PRESSAVG GPRESSAVG
ENERGY: 0 7.4595 11.4656 8.3951 0.0000 -10657.5516 1441.1433 0.0000 0.0000 1750.3312 -7438.7569 296.4681 -9189.0881 -7438.7569 296.4681 -19.5878 57.8645 30206.6682 -19.5878 57.8645
ENERGY: 300000 9.2025 5.0669 8.7016 0.0000 -10764.9915 1460.7254 0.0000 0.0000 1787.7776 -7493.5174 302.8107 -9281.2950 -7431.4968 302.8605 200.6947 260.2573 29783.2641 256.4431 313.8619
ENERGY: 600000 8.2416 8.3492 15.3457 0.0000 -10697.4525 1409.5200 0.0000 0.0000 1778.4913 -7477.5047 301.2378 -9255.9960 -7459.8069 301.2202 -271.4521 -259.9794 30087.2693 58.2576 109.3563
ENERGY: 900000 9.6469 11.3699 8.9957 0.0000 -10763.6698 1446.3280 0.0000 0.0000 1770.3712 -7516.9581 299.8624 -9287.3293 -7473.4978 300.9432 -292.8664 -159.9098 30208.5330 67.9906 132.5988
ENERGY: 1200000 9.4546 9.0608 5.9859 0.0000 -10721.1015 1463.7213 0.0000 0.0000 1765.1324 -7467.7465 298.9751 -9232.8789 -7468.3698 299.8753 332.3278 379.9189 29799.4420 92.2781 153.2823
ENERGY: 1500000 4.7536 10.2703 7.9286 0.0000 -10842.7466 1485.4957 0.0000 0.0000 1769.4682 -7564.8301 299.7095 -9334.2983 -7464.2981 300.5589 279.7863 302.3808 29822.8364 55.8377 114.0641
TCL: Running FEP window  20: Lambda1 0.049999999999999684 Lambda2 0.0    [dLambda -0.049999999999999684]
TCL: Setting parameter firsttimestep to 0
TCL: Setting parameter alchLambda to 0.049999999999999684
Info: NONBONDED TABLE R-SQUARED SPACING: 0.0625
Info: NONBONDED TABLE SIZE: 705 POINTS
TCL: Setting parameter alchLambda2 to 0.0
Info: NONBONDED TABLE R-SQUARED SPACING: 0.0625
Info: NONBONDED TABLE SIZE: 705 POINTS
TCL: Running for 1500000 steps
ETITLE: TS BOND ANGLE DIHED IMPRP ELECT VDW BOUNDARY MISC KINETIC TOTAL TEMP POTENTIAL TOTALAVG TEMPAVG PRESSURE GPRESSURE VOLUME PRESSAVG GPRESSAVG
ENERGY: 0 4.7536 10.2703 7.9286 0.0000 -10842.7468 1485.0927 0.0000 0.0000 1768.5448 -7566.1567 299.5531 -9334.7015 -7566.1567 299.5531 212.7513 298.1421 29822.8364 212.7513 298.1421
ENERGY: 300000 10.9036 9.8731 7.9768 0.0000 -10736.6477 1461.8958 0.0000 0.0000 1786.8349 -7459.1635 302.6510 -9245.9984 -7485.7467 298.3176 -264.3498 -187.8935 30212.1160 -119.2334 -52.1897
ENERGY: 600000 8.4751 12.8509 9.2135 0.0000 -10746.6610 1449.9046 0.0000 0.0000 1724.2183 -7541.9987 292.0451 -9266.2170 -7476.5627 297.0980 -136.5461 -64.7834 30044.1629 -324.1503 -269.0081
ENERGY: 900000 6.5471 11.2388 7.7006 0.0000 -10660.3327 1437.8792 0.0000 0.0000 1800.6087 -7396.3584 304.9840 -9196.9671 -7479.1413 299.1981 -202.9936 -105.4167 30431.7483 -265.7968 -202.7114
ENERGY: 1200000 9.5647 8.7188 7.8026 0.0000 -10753.3031 1492.0202 0.0000 0.0000 1762.2543 -7472.9425 298.4876 -9235.1969 -7480.5739 299.4281 371.2235 444.3541 29985.1805 -245.8275 -180.1651
ENERGY: 1500000 9.4177 7.5509 12.0905 0.0000 -10723.1537 1414.4344 0.0000 0.0000 1801.1881 -7478.4722 305.0821 -9279.6602 -7477.8932 299.2908 -203.6835 -212.6204 30093.8981 -213.2935 -152.9219
TCL: Exiting due to exit command.
