Info: SIMULATION PARAMETERS:
Info: TIMESTEP               2
Info: NUMBER OF STEPS        0
Info: STEPS PER CYCLE        10
Info: PERIODIC CELL BASIS 1  31.7239 0 0
Info: PERIODIC CELL BASIS 2  0 31.5247 0
Info: PERIODIC CELL BASIS 3  0 0 30.7978
Info: PERIODIC CELL CENTER   0 0 0
Info: WRAPPING WATERS AROUND PERIODIC BOUNDARIES ON OUTPUT.
Info: WRAPPING ALL CLUSTERS AROUND PERIODIC BOUNDARIES ON OUTPUT.
Info: FIRST LDB TIMESTEP     50
Info: LAST LDB TIMESTEP     -1
Info: HOM BACKGROUND SCALING 1
Info: PME BACKGROUND SCALING 1
Info: MIN ATOMS PER PATCH    40
Info: EMPTY PATCH LOAD       40 ATOMS
Info: VELOCITY FILE          mobley_2492140_equil.vel
Info: CENTER OF MASS MOVING INITIALLY? NO
Info: DIELECTRIC             1
Info: EXCLUDE                SCALED ONE-FOUR
Info: 1-4 ELECTROSTATICS SCALED BY 0.833333
Info: MODIFIED 1-4 VDW PARAMETERS WILL BE USED
Info: DCD FILENAME           mobley_2492140_prod.dcd
Info: DCD FREQUENCY          100000
Info: DCD FIRST STEP         100000
Info: DCD FILE WILL CONTAIN UNIT CELL DATA
Info: XST FILENAME           mobley_2492140_prod.xst
Info: XST FREQUENCY          100000
Info: NO VELOCITY DCD OUTPUT
Info: NO FORCE DCD OUTPUT
Info: OUTPUT FILENAME        mobley_2492140_prod
Info: BINARY OUTPUT FILES WILL BE USED
Info: RESTART FILENAME       mobley_2492140_prod.restart
Info: RESTART FREQUENCY      100000
Info: BINARY RESTART FILES WILL BE USED
Info: CUTOFF                 9
Info: PAIRLIST DISTANCE      11
Info: PAIRLIST SHRINK RATE   0.01
Info: PAIRLIST GROW RATE     0.01
Info: PAIRLIST TRIGGER       0.3
Info: PAIRLISTS PER CYCLE    2
Info: PAIRLISTS ENABLED
Info: MARGIN                 2
Info: HYDROGEN GROUP CUTOFF  2.5
Info: PATCH DIMENSION        15.5
Info: ENERGY OUTPUT STEPS    100000
Info: ENERGY EVALUATION STEPS    100000
Info: OUTPUT ENERGY PRECISION 4
Info: CROSSTERM ENERGY INCLUDED IN DIHEDRAL
Info: TIMING OUTPUT STEPS    1000000
Info: PRESSURE OUTPUT STEPS  100000
Info: ALCHEMICAL FEP ON
Info: FEP CURRENT LAMBDA VALUE     0
Info: FEP COMPARISON LAMBDA VALUE  0.05
Info: FEP INTRA-ALCHEMICAL NON-BONDED INTERACTIONS WILL BE RETAINED
Info: FEP INTRA-ALCHEMICAL BONDED INTERACTIONS WILL BE RETAINED
Info: FEP VDW SHIFTING COEFFICIENT 5
Info: FEP ELEC. ACTIVE FOR ANNIHILATED PARTICLES BETWEEN LAMBDA = 0 AND LAMBDA = 0.5
Info: FEP ELEC. ACTIVE FOR EXNIHILATED PARTICLES BETWEEN LAMBDA = 0.5 AND LAMBDA = 1
Info: FEP VDW ACTIVE FOR ANNIHILATED PARTICLES BETWEEN LAMBDA = 0 AND LAMBDA = 1
Info: FEP VDW ACTIVE FOR EXNIHILATED PARTICLES BETWEEN LAMBDA = 0 AND LAMBDA = 1
Info: FEP BOND ACTIVE FOR ANNIHILATED PARTICLES BETWEEN LAMBDA = 1 AND LAMBDA = 1
Info: FEP BOND ACTIVE FOR EXNIHILATED PARTICLES BETWEEN LAMBDA = 0 AND LAMBDA = 0
Info: LANGEVIN DYNAMICS ACTIVE
Info: LANGEVIN TEMPERATURE   300
Info: LANGEVIN USING BBK INTEGRATOR
Info: LANGEVIN DAMPING COEFFICIENT IS 1 INVERSE PS
Info: LANGEVIN DYNAMICS APPLIED TO HYDROGENS
Info: LANGEVIN PISTON PRESSURE CONTROL ACTIVE
Info:        TARGET PRESSURE IS 1.01325 BAR
Info:     OSCILLATION PERIOD IS 50 FS
Info:             DECAY TIME IS 25 FS
Info:     PISTON TEMPERATURE IS 300 K
Info:       PRESSURE CONTROL IS GROUP-BASED
Info:    INITIAL STRAIN RATE IS 0.000252911 0.000252911 0.000252911
Info:       CELL FLUCTUATION IS ISOTROPIC
Info: PARTICLE MESH EWALD (PME) ACTIVE
Info: PME TOLERANCE               1e-06
Info: PME EWALD COEFFICIENT       0.348832
Info: PME INTERPOLATION ORDER     4
Info: PME GRID DIMENSIONS         32 32 32
Info: PME MAXIMUM GRID SPACING    1
Info: PME CALCULATION WILL BE PERFORMED ON GPU
Info: FULL ELECTROSTATIC EVALUATION FREQUENCY      2
Info: USING VERLET I (r-RESPA) MTS SCHEME.
Info: C1 SPLITTING OF LONG RANGE ELECTROSTATICS
Info: PLACING ATOMS IN PATCHES BY HYDROGEN GROUPS
Info: RIGID BONDS TO HYDROGEN : ALL
Info:         ERROR TOLERANCE : 1e-08
Info:          MAX ITERATIONS : 100
Info: RIGID WATER USING SETTLE ALGORITHM
Info: RANDOM NUMBER SEED     1743485668
Info: USE HYDROGEN BONDS?    NO
Info: Using AMBER format force field!
Info: AMBER PARM FILE        mobley_2492140.prmtop
Info: COORDINATE PDB         mobley_2492140.pdb
Info: Exclusions will be read from PARM file!
Info: SCNB (VDW SCALING)     2
Info: USING ARITHMETIC MEAN TO COMBINE L-J SIGMA PARAMETERS
Info: BINARY COORDINATES     mobley_2492140_equil.coor
Info: SUMMARY OF PARAMETERS:
Info: 5 BONDS
Info: 4 ANGLES
Info:   4 HARMONIC
Info:   0 COSINE-BASED
Info: 3 DIHEDRAL
Info: 0 IMPROPER
Info: 0 CROSSTERM
Info: 0 VDW
Info: 15 VDW_PAIRS
Info: 0 NBTHOLE_PAIRS
Info: To read alchdata from file: mobley_2492140.pdb
Info: To read alchflag data from column: 5
Info: STRUCTURE SUMMARY:
Info: 2960 ATOMS
Info: 2959 BONDS
Info: 12 ANGLES
Info: 15 DIHEDRALS
Info: 0 IMPROPERS
Info: 0 CROSSTERMS
Info: 2980 EXCLUSIONS
Info: 2953 RIGID BONDS
Info: ALCH: 0 ATOMS TO DISAPPEAR IN FINAL STATE
Info: ALCH: 8 ATOMS TO APPEAR IN FINAL STATE
Info: 5927 DEGREES OF FREEDOM
Info: 991 HYDROGEN GROUPS
Info: 3 ATOMS IN LARGEST HYDROGEN GROUP
Info: 991 MIGRATION GROUPS
Info: 3 ATOMS IN LARGEST MIGRATION GROUP
Info: TOTAL MASS = 17930 amu
Info: TOTAL CHARGE = 0 e
Info: MASS DENSITY = 0.96668 g/cm^3
Info: ATOM DENSITY = 0.0961025 atoms/A^3
Info: ADDED 0 IMPLICIT EXCLUSIONS
Info: NONBONDED TABLE R-SQUARED SPACING: 0.0625
Info: NONBONDED TABLE SIZE: 705 POINTS
Info: REDUCING NUMBER OF PATCHES TO IMPROVE LOAD BALANCE
Info: REMOVING COM VELOCITY -0.190236 -0.159503 0.112951
Info: Use 3D box decompostion in PME FFT.
Info: Updated CUDA force table with 4096 elements.
Info: Updated CUDA LJ table with 5 x 5 elements.
Info: Found 11 unique exclusion lists needing 16 bytes
TCL: Running for 1500000 steps
ETITLE: TS BOND ANGLE DIHED IMPRP ELECT VDW BOUNDARY MISC KINETIC TOTAL TEMP POTENTIAL TOTALAVG TEMPAVG PRESSURE GPRESSURE VOLUME PRESSAVG GPRESSAVG
ENERGY: 0 1.4678 3.4370 2.8980 0.0000 -10681.0653 1444.7029 0.0000 0.0000 1766.9116 -7461.6480 300.0339 -9228.5596 -7461.6480 300.0339 -52.7988 20.7661 30800.4614 -52.7988 20.7661
ENERGY: 300000 1.8361 2.2692 2.8272 0.0000 -10749.5983 1437.7940 0.0000 0.0000 1776.1802 -7528.6915 301.6077 -9304.8717 -7530.9520 297.8645 -134.3828 -101.4992 30326.1941 -135.6511 -78.7618
ENERGY: 600000 1.8161 2.9541 2.8553 0.0000 -10837.8242 1469.6902 0.0000 0.0000 1758.1699 -7602.3386 298.5495 -9360.5086 -7524.3677 299.7361 333.8270 381.9951 29858.5025 129.9590 179.6645
ENERGY: 900000 1.1053 3.7658 2.9349 0.0000 -10731.8808 1415.3349 0.0000 0.0000 1770.9036 -7537.8364 300.7117 -9308.7401 -7527.0846 300.3876 -468.5002 -395.6757 30871.4375 -93.6415 -41.2000
ENERGY: 1200000 1.0963 2.0579 2.7159 0.0000 -10774.6440 1503.4903 0.0000 0.0000 1738.4620 -7526.8216 295.2029 -9265.2836 -7529.8995 300.7181 374.8999 456.6018 30511.3420 -26.0705 24.7205
ENERGY: 1500000 1.8760 4.6471 2.8197 0.0000 -10805.4793 1448.6974 0.0000 0.0000 1773.5292 -7573.9100 301.1576 -9347.4391 -7538.4179 300.0170 -172.8500 -98.5878 30241.8188 -89.3789 -36.9820
TCL: Running FEP window   2: Lambda1 0.05   Lambda2 0.1    [dLambda 0.05  ]
TCL: Setting parameter firsttimestep to 0
TCL: Setting parameter alchLambda to 0.05
Info: NONBONDED TABLE R-SQUARED SPACING: 0.0625
Info: NONBONDED TABLE SIZE: 705 POINTS
TCL: Setting parameter alchLambda2 to 0.1
Info: NONBONDED TABLE R-SQUARED SPACING: 0.0625
Info: NONBONDED TABLE SIZE: 705 POINTS
TCL: Running for 1500000 steps
ETITLE: TS BOND ANGLE DIHED IMPRP ELECT VDW BOUNDARY MISC KINETIC TOTAL TEMP POTENTIAL TOTALAVG TEMPAVG PRESSURE GPRESSURE VOLUME PRESSAVG GPRESSAVG
ENERGY: 0 1.8760 4.6471 2.8197 0.0000 -10805.4791 1452.1812 0.0000 0.0000 1772.6713 -7571.2839 301.0119 -9343.9552 -7571.2839 301.0119 -157.4192 -91.0343 30241.8188 -157.4192 -91.0343
ENERGY: 300000 0.5709 3.3897 2.7168 0.0000 -10879.6972 1524.1824 0.0000 0.0000 1793.8961 -7554.9413 304.6160 -9348.8374 -7549.0317 301.7623 242.1889 331.7004 30478.5986 -76.1704 -5.8618
ENERGY: 600000 0.0662 2.7051 2.7524 0.0000 -10757.4692 1469.9116 0.0000 0.0000 1790.5834 -7491.4505 304.0535 -9282.0339 -7516.5175 301.9524 234.4831 287.3686 30379.3902 -92.8546 -23.8572
ENERGY: 900000 0.7823 4.5051 2.7971 0.0000 -10673.9246 1403.0004 0.0000 0.0000 1731.1446 -7531.6951 293.9604 -9262.8397 -7505.7882 301.0250 -283.8529 -199.2441 30266.5899 -131.6380 -65.4345
ENERGY: 1200000 3.5582 2.5449 2.7632 0.0000 -10762.7477 1478.3707 0.0000 0.0000 1773.4081 -7502.1026 301.1370 -9275.5107 -7512.4182 300.1147 309.8464 367.9408 30270.5355 -79.7542 -14.2563
ENERGY: 1500000 1.6261 1.7679 2.9173 0.0000 -10702.5703 1426.0447 0.0000 0.0000 1804.7038 -7465.5106 306.4512 -9270.2144 -7512.2522 301.1105 -77.8814 10.8148 30341.6923 -100.6777 -35.1627
TCL: Running FEP window   3: Lambda1 0.1    Lambda2 0.15000000000000002 [dLambda 0.05000000000000002]
TCL: Setting parameter firsttimestep to 0
TCL: Setting parameter alchLambda to 0.1
Info: NONBONDED TABLE R-SQUARED SPACING: 0.0625
Info: NONBONDED TABLE SIZE: 705 POINTS
TCL: Setting parameter alchLambda2 to 0.15000000000000002
Info: NONBONDED TABLE R-SQUARED SPACING: 0.0625
Info: NONBONDED TABLE SIZE: 705 POINTS
TCL: Running for 1500000 steps
ETITLE: TS BOND ANGLE DIHED IMPRP ELECT VDW BOUNDARY MISC KINETIC TOTAL TEMP POTENTIAL TOTALAVG TEMPAVG PRESSURE GPRESSURE VOLUME PRESSAVG GPRESSAVG
ENERGY: 0 1.6261 1.7679 2.9173 0.0000 -10702.5689 1429.1360 0.0000 0.0000 1803.7724 -7463.3493 306.2931 -9267.1217 -7463.3493 306.2931 -47.3121 22.8522 30341.6923 -47.3121 22.8522
ENERGY: 300000 1.9607 3.6380 2.7662 0.0000 -10671.6499 1358.7637 0.0000 0.0000 1798.2579 -7506.2634 305.3567 -9304.5213 -7501.7303 304.4524 -652.9669 -625.2042 30586.1942 -182.9315 -93.4527
ENERGY: 600000 1.1485 2.6438 2.7332 0.0000 -10652.4046 1449.6871 0.0000 0.0000 1748.2797 -7447.9122 296.8700 -9196.1919 -7490.8118 302.0531 168.1461 245.2679 30740.8737 -89.2293 -12.5518
ENERGY: 900000 1.5029 4.2226 2.7989 0.0000 -10731.4043 1409.1304 0.0000 0.0000 1791.2144 -7522.5352 304.1607 -9313.7496 -7497.0948 302.6599 -130.0476 -153.1809 30527.1348 -65.4575 -1.5419
ENERGY: 1200000 0.8051 1.6917 2.7555 0.0000 -10671.7963 1407.2780 0.0000 0.0000 1733.9216 -7525.3446 294.4319 -9259.2662 -7509.6775 302.0728 -324.8250 -287.8909 30645.4437 -19.6285 32.2261
ENERGY: 1500000 1.3926 2.6200 2.7663 0.0000 -10635.2822 1413.9642 0.0000 0.0000 1799.0916 -7415.4475 305.4983 -9214.5391 -7509.6346 301.7008 -123.3343 -28.9795 30419.0952 42.5754 94.2633
TCL: Running FEP window   4: Lambda1 0.15000000000000002 Lambda2 0.2    [dLambda 0.04999999999999999]
TCL: Setting parameter firsttimestep to 0
TCL: Setting parameter alchLambda to 0.15000000000000002
Info: NONBONDED TABLE R-SQUARED SPACING: 0.0625
Info: NONBONDED TABLE SIZE: 705 POINTS
TCL: Setting parameter alchLambda2 to 0.2
Info: NONBONDED TABLE R-SQUARED SPACING: 0.0625
Info: NONBONDED TABLE SIZE: 705 POINTS
TCL: Running for 1500000 steps
ETITLE: TS BOND ANGLE DIHED IMPRP ELECT VDW BOUNDARY MISC KINETIC TOTAL TEMP POTENTIAL TOTALAVG TEMPAVG PRESSURE GPRESSURE VOLUME PRESSAVG GPRESSAVG
ENERGY: 0 1.3926 2.6200 2.7663 0.0000 -10635.2822 1414.1878 0.0000 0.0000 1798.2051 -7416.1105 305.3477 -9214.3156 -7416.1105 305.3477 -104.3042 -26.4086 30419.0952 -104.3042 -26.4086
ENERGY: 300000 2.6037 3.8230 2.8392 0.0000 -10783.9968 1509.9239 0.0000 0.0000 1756.4783 -7508.3287 298.2622 -9264.8070 -7482.8970 301.0774 500.9648 614.6957 30499.7549 31.2738 102.0387
ENERGY: 600000 0.9270 2.0258 2.8168 0.0000 -10768.2800 1471.5170 0.0000 0.0000 1788.4177 -7502.5758 303.6857 -9290.9935 -7482.6148 301.1261 195.8789 228.5434 30509.9679 51.9661 114.8395
ENERGY: 900000 1.7746 4.8969 2.7886 0.0000 -10644.9694 1363.0963 0.0000 0.0000 1664.6357 -7607.7773 282.6667 -9272.4130 -7509.1339 297.8696 -588.2830 -606.2224 30364.9924 -82.6840 -23.8577
ENERGY: 1200000 1.4200 3.1375 2.7170 0.0000 -10807.4634 1485.3436 0.0000 0.0000 1732.7169 -7582.1284 294.2274 -9314.8452 -7513.1552 298.3088 262.1500 284.5728 30229.4963 -196.3951 -139.2544
ENERGY: 1500000 1.2983 4.6840 2.8265 0.0000 -10706.9374 1384.8403 0.0000 0.0000 1788.3815 -7524.9068 303.6796 -9313.2883 -7514.1262 298.4074 -687.6753 -598.8451 30582.4693 -274.3180 -211.9338
TCL: Running FEP window   5: Lambda1 0.2    Lambda2 0.25   [dLambda 0.04999999999999999]
TCL: Setting parameter firsttimestep to 0
TCL: Setting parameter alchLambda to 0.2
Info: NONBONDED TABLE R-SQUARED SPACING: 0.0625
Info: NONBONDED TABLE SIZE: 705 POINTS
TCL: Setting parameter alchLambda2 to 0.25
Info: NONBONDED TABLE R-SQUARED SPACING: 0.0625
Info: NONBONDED TABLE SIZE: 705 POINTS
TCL: Running for 1500000 steps
ETITLE: TS BOND ANGLE DIHED IMPRP ELECT VDW BOUNDARY MISC KINETIC TOTAL TEMP POTENTIAL TOTALAVG TEMPAVG PRESSURE GPRESSURE VOLUME PRESSAVG GPRESSAVG
ENERGY: 0 1.2983 4.6840 2.8265 0.0000 -10706.9363 1384.4297 0.0000 0.0000 1787.5030 -7526.1948 303.5304 -9313.6978 -7526.1948 303.5304 -685.2215 -596.8336 30582.4693 -685.2215 -596.8336
ENERGY: 300000 2.7599 0.8089 2.7891 0.0000 -10717.7370 1467.8208 0.0000 0.0000 1718.4434 -7525.1149 291.8036 -9243.5583 -7529.6975 297.8733 106.2670 164.5372 30280.7347 -56.3520 36.8219
ENERGY: 600000 1.7520 4.3485 2.7675 0.0000 -10924.4231 1550.1084 0.0000 0.0000 1775.6417 -7589.8051 301.5163 -9365.4468 -7521.3544 296.4149 468.3235 541.7898 30682.3942 64.4512 137.9182
ENERGY: 900000 1.1117 1.5509 2.9806 0.0000 -10603.9239 1383.6901 0.0000 0.0000 1751.8209 -7462.7698 297.4714 -9214.5907 -7514.9724 296.2807 -630.0121 -570.4212 31257.2989 -51.1541 12.5634
ENERGY: 1200000 1.8839 0.9925 2.7666 0.0000 -10777.4110 1467.9818 0.0000 0.0000 1742.5592 -7561.2270 295.8987 -9303.7862 -7516.6841 296.5751 430.5012 562.3986 29766.0623 97.0266 165.5298
ENERGY: 1500000 0.9253 3.9517 2.7704 0.0000 -10687.6577 1385.5189 0.0000 0.0000 1733.0932 -7561.3982 294.2913 -9294.4914 -7526.8727 295.6943 -588.2512 -506.1996 30563.7068 53.5204 123.7790
TCL: Running FEP window   6: Lambda1 0.25   Lambda2 0.3    [dLambda 0.04999999999999999]
TCL: Setting parameter firsttimestep to 0
TCL: Setting parameter alchLambda to 0.25
Info: NONBONDED TABLE R-SQUARED SPACING: 0.0625
Info: NONBONDED TABLE SIZE: 705 POINTS
TCL: Setting parameter alchLambda2 to 0.3
Info: NONBONDED TABLE R-SQUARED SPACING: 0.0625
Info: NONBONDED TABLE SIZE: 705 POINTS
TCL: Running for 1500000 steps
ETITLE: TS BOND ANGLE DIHED IMPRP ELECT VDW BOUNDARY MISC KINETIC TOTAL TEMP POTENTIAL TOTALAVG TEMPAVG PRESSURE GPRESSURE VOLUME PRESSAVG GPRESSAVG
ENERGY: 0 0.9253 3.9517 2.7704 0.0000 -10687.6571 1385.7473 0.0000 0.0000 1732.2133 -7562.0490 294.1419 -9294.2623 -7562.0490 294.1419 -584.5765 -499.9639 30563.7068 -584.5765 -499.9639
ENERGY: 300000 1.4557 3.0487 2.8477 0.0000 -10766.6640 1421.9360 0.0000 0.0000 1768.5002 -7568.8757 300.3036 -9337.3758 -7561.2207 296.9399 -133.4072 -75.2757 30186.3550 -110.0332 -69.9178
ENERGY: 600000 2.2450 1.4945 2.8110 0.0000 -10753.1658 1394.4893 0.0000 0.0000 1790.4493 -7561.6768 304.0307 -9352.1261 -7552.7363 299.2490 -468.5655 -396.2388 30489.7871 -22.7138 27.1862
ENERGY: 900000 1.9636 3.8466 3.1436 0.0000 -10821.2742 1490.2744 0.0000 0.0000 1804.3470 -7517.6990 306.3907 -9322.0460 -7540.5317 301.5410 315.8437 373.0459 30120.9320 -9.1323 46.6962
ENERGY: 1200000 0.4239 3.0642 2.7921 0.0000 -10692.8958 1358.8213 0.0000 0.0000 1687.6475 -7640.1468 286.5743 -9327.7943 -7551.1238 299.9997 -816.1944 -815.2911 30691.9413 -84.2828 -34.8990
ENERGY: 1500000 3.0633 4.4006 2.7490 0.0000 -10634.2514 1392.3033 0.0000 0.0000 1843.1388 -7388.5965 312.9778 -9231.7352 -7544.7247 301.1525 -312.1329 -259.5192 30595.5864 -170.5036 -115.9733
TCL: Running FEP window   7: Lambda1 0.3    Lambda2 0.35   [dLambda 0.04999999999999999]
TCL: Setting parameter firsttimestep to 0
TCL: Setting parameter alchLambda to 0.3
Info: NONBONDED TABLE R-SQUARED SPACING: 0.0625
Info: NONBONDED TABLE SIZE: 705 POINTS
TCL: Setting parameter alchLambda2 to 0.35
Info: NONBONDED TABLE R-SQUARED SPACING: 0.0625
Info: NONBONDED TABLE SIZE: 705 POINTS
TCL: Running for 1500000 steps
ETITLE: TS BOND ANGLE DIHED IMPRP ELECT VDW BOUNDARY MISC KINETIC TOTAL TEMP POTENTIAL TOTALAVG TEMPAVG PRESSURE GPRESSURE VOLUME PRESSAVG GPRESSAVG
ENERGY: 0 3.0633 4.4006 2.7490 0.0000 -10634.2510 1393.7209 0.0000 0.0000 1842.2658 -7388.0514 312.8295 -9230.3172 -7388.0514 312.8295 -319.1348 -241.8381 30595.5864 -319.1348 -241.8381
ENERGY: 300000 2.0108 2.8352 2.7351 0.0000 -10670.8895 1436.8068 0.0000 0.0000 1747.0735 -7479.4280 296.6652 -9226.5016 -7447.0373 302.5844 138.9737 174.2023 30396.1140 -132.3148 -70.7969
ENERGY: 600000 2.3191 2.9671 2.7289 0.0000 -10811.4903 1497.2776 0.0000 0.0000 1727.5556 -7578.6420 293.3509 -9306.1976 -7497.6314 300.8632 337.5233 377.5525 30512.9244 35.5064 97.1489
ENERGY: 900000 3.3718 3.0346 2.8301 0.0000 -10804.0464 1515.4570 0.0000 0.0000 1780.3596 -7498.9934 302.3174 -9279.3530 -7516.5792 300.2815 492.8886 489.8494 30444.7033 133.8957 184.6320
ENERGY: 1200000 0.8053 2.0905 2.7403 0.0000 -10868.3734 1495.6768 0.0000 0.0000 1732.7579 -7634.3026 294.2343 -9367.0606 -7518.5375 300.5551 111.6380 172.2279 30524.1941 53.3236 104.6423
ENERGY: 1500000 0.7023 4.9446 3.0805 0.0000 -10732.1549 1439.6640 0.0000 0.0000 1749.8718 -7533.8918 297.1404 -9283.7636 -7511.7541 300.7010 -158.7369 -64.3684 30533.3849 99.9818 157.8372
TCL: Running FEP window   8: Lambda1 0.35   Lambda2 0.39999999999999997 [dLambda 0.04999999999999999]
TCL: Setting parameter firsttimestep to 0
TCL: Setting parameter alchLambda to 0.35
Info: NONBONDED TABLE R-SQUARED SPACING: 0.0625
Info: NONBONDED TABLE SIZE: 705 POINTS
TCL: Setting parameter alchLambda2 to 0.39999999999999997
Info: NONBONDED TABLE R-SQUARED SPACING: 0.0625
Info: NONBONDED TABLE SIZE: 705 POINTS
TCL: Running for 1500000 steps
ETITLE: TS BOND ANGLE DIHED IMPRP ELECT VDW BOUNDARY MISC KINETIC TOTAL TEMP POTENTIAL TOTALAVG TEMPAVG PRESSURE GPRESSURE VOLUME PRESSAVG GPRESSAVG
ENERGY: 0 0.7023 4.9446 3.0805 0.0000 -10732.1565 1441.4043 0.0000 0.0000 1748.9877 -7533.0372 296.9903 -9282.0249 -7533.0372 296.9903 -127.5240 -45.3873 30533.3849 -127.5240 -45.3873
ENERGY: 300000 2.1229 2.8825 2.7657 0.0000 -10871.5379 1536.0060 0.0000 0.0000 1713.9930 -7613.7679 291.0479 -9327.7609 -7583.9105 298.3507 759.5083 743.6434 30058.5085 255.2796 299.5432
ENERGY: 600000 1.0831 3.3717 2.7609 0.0000 -10753.0875 1503.6622 0.0000 0.0000 1820.4895 -7421.7200 309.1318 -9242.2095 -7540.9987 301.9387 506.7055 572.2675 30437.7059 234.0529 285.1707
ENERGY: 900000 2.6513 3.5879 2.8126 0.0000 -10801.4557 1487.3324 0.0000 0.0000 1770.1233 -7534.9481 300.5792 -9305.0714 -7529.2809 301.2337 397.3053 416.2655 29954.5558 311.6000 359.2546
ENERGY: 1200000 1.5169 4.9767 2.7644 0.0000 -10649.0542 1381.6711 0.0000 0.0000 1758.9988 -7499.1262 298.6902 -9258.1251 -7525.7843 299.9152 -347.1482 -306.6396 30298.5763 174.2519 227.7063
ENERGY: 1500000 2.5362 3.3023 2.9195 0.0000 -10581.5560 1404.2106 0.0000 0.0000 1730.3635 -7438.2239 293.8277 -9168.5874 -7523.0440 299.5182 -198.0541 -113.1115 31036.0907 76.2530 135.6881
TCL: Running FEP window   9: Lambda1 0.39999999999999997 Lambda2 0.44999999999999996 [dLambda 0.04999999999999999]
TCL: Setting parameter firsttimestep to 0
TCL: Setting parameter alchLambda to 0.39999999999999997
Info: NONBONDED TABLE R-SQUARED SPACING: 0.0625
Info: NONBONDED TABLE SIZE: 705 POINTS
TCL: Setting parameter alchLambda2 to 0.44999999999999996
Info: NONBONDED TABLE R-SQUARED SPACING: 0.0625
Info: NONBONDED TABLE SIZE: 705 POINTS
TCL: Running for 1500000 steps
ETITLE: TS BOND ANGLE DIHED IMPRP ELECT VDW BOUNDARY MISC KINETIC TOTAL TEMP POTENTIAL TOTALAVG TEMPAVG PRESSURE GPRESSURE VOLUME PRESSAVG GPRESSAVG
ENERGY: 0 2.5362 3.3023 2.9195 0.0000 -10581.5553 1405.1201 0.0000 0.0000 1729.4863 -7438.1908 293.6788 -9167.6772 -7438.1908 293.6788 -182.4862 -98.7529 31036.0907 -182.4862 -98.7529
ENERGY: 300000 1.5016 2.7704 2.7206 0.0000 -10704.6100 1424.0483 0.0000 0.0000 1733.8282 -7539.7409 294.4161 -9273.5690 -7533.5169 297.2568 -212.1920 -179.4267 30622.3513 151.9023 186.2425
ENERGY: 600000 1.7147 2.9293 2.7978 0.0000 -10808.1880 1530.7374 0.0000 0.0000 1765.2311 -7504.7777 299.7485 -9270.0088 -7512.7136 298.4498 767.3871 856.6010 30524.1989 142.3188 200.0928
ENERGY: 900000 0.4703 3.0438 2.7883 0.0000 -10728.9565 1399.5382 0.0000 0.0000 1780.5794 -7542.5363 302.3548 -9323.1157 -7526.2193 299.5341 -420.4310 -375.7750 30581.7364 24.3976 71.9612
ENERGY: 1200000 3.5785 2.3394 2.7416 0.0000 -10710.6350 1400.3908 0.0000 0.0000 1781.8684 -7519.7163 302.5736 -9301.5847 -7523.4277 298.8512 -192.8784 -161.5666 30222.0283 -49.6106 -3.3776
ENERGY: 1500000 2.2916 2.4901 2.7462 0.0000 -10766.9060 1452.7392 0.0000 0.0000 1795.4144 -7511.2243 304.8738 -9306.6388 -7512.8857 299.8354 50.2636 48.5870 30406.0452 -58.6573 -11.2948
TCL: Running FEP window  10: Lambda1 0.44999999999999996 Lambda2 0.49999999999999994 [dLambda 0.04999999999999999]
TCL: Setting parameter firsttimestep to 0
TCL: Setting parameter alchLambda to 0.44999999999999996
Info: NONBONDED TABLE R-SQUARED SPACING: 0.0625
Info: NONBONDED TABLE SIZE: 705 POINTS
TCL: Setting parameter alchLambda2 to 0.49999999999999994
Info: NONBONDED TABLE R-SQUARED SPACING: 0.0625
Info: NONBONDED TABLE SIZE: 705 POINTS
TCL: Running for 1500000 steps
ETITLE: TS BOND ANGLE DIHED IMPRP ELECT VDW BOUNDARY MISC KINETIC TOTAL TEMP POTENTIAL TOTALAVG TEMPAVG PRESSURE GPRESSURE VOLUME PRESSAVG GPRESSAVG
ENERGY: 0 2.2916 2.4901 2.7462 0.0000 -10766.9065 1452.9072 0.0000 0.0000 1794.5343 -7511.9371 304.7244 -9306.4714 -7511.9371 304.7244 -28.9894 55.4247 30406.0452 -28.9894 55.4247
ENERGY: 300000 1.7860 1.2122 2.7213 0.0000 -10701.8755 1419.6507 0.0000 0.0000 1756.3103 -7520.1951 298.2337 -9276.5054 -7518.1023 300.4440 -209.3506 -143.6517 30663.4878 -69.3194 -34.5004
ENERGY: 600000 4.6727 3.4817 2.7195 0.0000 -10611.8032 1390.1045 0.0000 0.0000 1753.2982 -7457.5266 297.7222 -9210.8248 -7510.8361 299.3124 -413.4009 -337.9792 31014.0895 -120.6025 -67.9965
ENERGY: 900000 0.4819 1.3342 2.7534 0.0000 -10727.3017 1449.2328 0.0000 0.0000 1739.0756 -7534.4238 295.3071 -9273.4994 -7513.6944 298.0904 167.1285 225.3802 30279.2272 -123.0115 -67.2684
ENERGY: 1200000 1.6444 2.3455 2.7845 0.0000 -10677.4252 1486.8107 0.0000 0.0000 1773.6626 -7410.1774 301.1802 -9183.8401 -7507.2976 298.0069 578.8494 577.8998 30603.0366 -180.5535 -130.8407
ENERGY: 1500000 1.7303 4.4586 2.9731 0.0000 -10639.5560 1398.6283 0.0000 0.0000 1732.4122 -7499.3535 294.1756 -9231.7657 -7500.4334 298.5624 -365.1099 -319.8145 30902.9709 -167.4534 -121.4341
TCL: Running FEP window  11: Lambda1 0.49999999999999994 Lambda2 0.5499999999999999 [dLambda 0.04999999999999999]
TCL: Setting parameter firsttimestep to 0
TCL: Setting parameter alchLambda to 0.49999999999999994
Info: NONBONDED TABLE R-SQUARED SPACING: 0.0625
Info: NONBONDED TABLE SIZE: 705 POINTS
TCL: Setting parameter alchLambda2 to 0.5499999999999999
Info: NONBONDED TABLE R-SQUARED SPACING: 0.0625
Info: NONBONDED TABLE SIZE: 705 POINTS
TCL: Running for 1500000 steps
ETITLE: TS BOND ANGLE DIHED IMPRP ELECT VDW BOUNDARY MISC KINETIC TOTAL TEMP POTENTIAL TOTALAVG TEMPAVG PRESSURE GPRESSURE VOLUME PRESSAVG GPRESSAVG
ENERGY: 0 1.7303 4.4586 2.9731 0.0000 -10639.5566 1398.2342 0.0000 0.0000 1731.5384 -7500.6220 294.0272 -9232.1603 -7500.6220 294.0272 -394.7712 -316.5239 30902.9709 -394.7712 -316.5239
ENERGY: 300000 2.5640 3.3054 2.7619 0.0000 -10752.8113 1475.9942 0.0000 0.0000 1816.2299 -7451.9557 308.4085 -9268.1857 -7500.4347 298.9845 152.5467 207.8155 30816.9395 229.0818 303.5155
ENERGY: 600000 0.8789 3.0159 2.9052 0.0000 -10732.4715 1348.0929 0.0000 0.0000 1720.8799 -7656.6988 292.2174 -9377.5787 -7535.8866 297.9268 -876.6834 -835.7295 30515.1314 0.0775 56.4021
ENERGY: 900000 0.6396 2.2089 2.7055 0.0000 -10786.5194 1468.3750 0.0000 0.0000 1781.9778 -7530.6125 302.5922 -9312.5903 -7535.7638 298.3824 89.4522 109.2937 30798.1853 74.6613 123.2484
ENERGY: 1200000 2.4142 3.5358 2.7432 0.0000 -10640.0817 1442.6368 0.0000 0.0000 1756.2906 -7432.4612 298.2304 -9188.7518 -7523.7954 299.6902 166.0020 238.0944 30792.5949 79.1721 135.3534
ENERGY: 1500000 1.2649 4.0810 2.8063 0.0000 -10871.4384 1505.9715 0.0000 0.0000 1814.1157 -7543.1990 308.0495 -9357.3147 -7525.3952 300.3861 259.6850 338.2325 30453.6581 74.5148 129.5841
TCL: Running FEP window  12: Lambda1 0.5499999999999999 Lambda2 0.6    [dLambda 0.050000000000000044]
TCL: Setting parameter firsttimestep to 0
TCL: Setting parameter alchLambda to 0.5499999999999999
Info: NONBONDED TABLE R-SQUARED SPACING: 0.0625
Info: NONBONDED TABLE SIZE: 705 POINTS
TCL: Setting parameter alchLambda2 to 0.6
Info: NONBONDED TABLE R-SQUARED SPACING: 0.0625
Info: NONBONDED TABLE SIZE: 705 POINTS
TCL: Running for 1500000 steps
ETITLE: TS BOND ANGLE DIHED IMPRP ELECT VDW BOUNDARY MISC KINETIC TOTAL TEMP POTENTIAL TOTALAVG TEMPAVG PRESSURE GPRESSURE VOLUME PRESSAVG GPRESSAVG
ENERGY: 0 1.2649 4.0810 2.8063 0.0000 -10871.5647 1506.1987 0.0000 0.0000 1813.2517 -7543.9620 307.9027 -9357.2138 -7543.9620 307.9027 257.9228 349.0879 30453.6581 257.9228 349.0879
ENERGY: 300000 1.3696 6.5470 2.7410 0.0000 -10640.5533 1413.7641 0.0000 0.0000 1760.9819 -7455.1498 299.0270 -9216.1316 -7492.7490 302.2329 -162.8776 -164.5618 31104.7036 -7.0958 21.0844
ENERGY: 600000 1.6195 1.3031 2.8753 0.0000 -10804.9066 1479.3858 0.0000 0.0000 1789.8799 -7529.8431 303.9340 -9319.7229 -7500.2563 303.0719 138.6709 190.3839 30522.6333 26.8344 66.0594
ENERGY: 900000 1.1494 2.8109 2.7365 0.0000 -10620.5594 1405.4578 0.0000 0.0000 1780.3466 -7428.0582 302.3152 -9208.4048 -7514.7225 302.3551 -403.6303 -313.1546 31072.6000 4.9558 49.4416
ENERGY: 1200000 2.1800 3.5792 2.9962 0.0000 -10617.0727 1414.7735 0.0000 0.0000 1789.6043 -7403.9394 303.8872 -9193.5438 -7513.8486 301.9253 -270.1507 -182.1779 31000.7327 -83.0043 -30.6541
ENERGY: 1500000 0.5515 2.1209 2.7545 0.0000 -10675.4713 1377.5497 0.0000 0.0000 1756.3778 -7536.1170 298.2452 -9292.4948 -7515.9335 302.0616 -629.3465 -648.1501 30952.9366 -86.0322 -40.2761
TCL: Running FEP window  13: Lambda1 0.6    Lambda2 0.65   [dLambda 0.050000000000000044]
TCL: Setting parameter firsttimestep to 0
TCL: Setting parameter alchLambda to 0.6
Info: NONBONDED TABLE R-SQUARED SPACING: 0.0625
Info: NONBONDED TABLE SIZE: 705 POINTS
TCL: Setting parameter alchLambda2 to 0.65
Info: NONBONDED TABLE R-SQUARED SPACING: 0.0625
Info: NONBONDED TABLE SIZE: 705 POINTS
TCL: Running for 1500000 steps
ETITLE: TS BOND ANGLE DIHED IMPRP ELECT VDW BOUNDARY MISC KINETIC TOTAL TEMP POTENTIAL TOTALAVG TEMPAVG PRESSURE GPRESSURE VOLUME PRESSAVG GPRESSAVG
ENERGY: 0 0.5515 2.1209 2.7545 0.0000 -10675.5224 1377.3735 0.0000 0.0000 1755.5319 -7537.1902 298.1015 -9292.7220 -7537.1902 298.1015 -726.1389 -646.4780 30952.9366 -726.1389 -646.4780
ENERGY: 300000 1.3250 4.3625 2.7485 0.0000 -10605.3702 1378.6063 0.0000 0.0000 1780.0732 -7438.2547 302.2688 -9218.3279 -7526.1092 297.4061 -489.7187 -441.2308 31307.9199 -503.3940 -436.0460
ENERGY: 600000 3.5200 2.8765 2.8271 0.0000 -10586.0141 1402.9615 0.0000 0.0000 1820.9933 -7352.8357 309.2173 -9173.8291 -7512.0330 299.0460 138.7351 274.8003 30703.2505 -209.6635 -140.9219
ENERGY: 900000 3.6880 1.2588 2.7542 0.0000 -10685.6926 1373.6687 0.0000 0.0000 1773.2408 -7531.0821 301.1086 -9304.3229 -7512.4242 300.3501 -335.2208 -321.4318 30248.2160 -119.1208 -66.0967
ENERGY: 1200000 1.1718 4.7176 2.7927 0.0000 -10686.9536 1415.3716 0.0000 0.0000 1795.1130 -7467.7868 304.8227 -9262.8999 -7505.7981 300.2260 -312.6283 -193.9269 30840.0779 -78.2665 -19.6889
ENERGY: 1500000 3.0841 3.4240 2.9106 0.0000 -10730.9462 1443.1066 0.0000 0.0000 1774.0478 -7504.3732 301.2456 -9278.4210 -7498.9469 300.6582 104.6952 108.0835 30284.8699 -56.4951 -2.9300
TCL: Running FEP window  14: Lambda1 0.65   Lambda2 0.7000000000000001 [dLambda 0.050000000000000044]
TCL: Setting parameter firsttimestep to 0
TCL: Setting parameter alchLambda to 0.65
Info: NONBONDED TABLE R-SQUARED SPACING: 0.0625
Info: NONBONDED TABLE SIZE: 705 POINTS
TCL: Setting parameter alchLambda2 to 0.7000000000000001
Info: NONBONDED TABLE R-SQUARED SPACING: 0.0625
Info: NONBONDED TABLE SIZE: 705 POINTS
TCL: Running for 1500000 steps
ETITLE: TS BOND ANGLE DIHED IMPRP ELECT VDW BOUNDARY MISC KINETIC TOTAL TEMP POTENTIAL TOTALAVG TEMPAVG PRESSURE GPRESSURE VOLUME PRESSAVG GPRESSAVG
ENERGY: 0 3.0841 3.4240 2.9106 0.0000 -10731.0998 1442.5161 0.0000 0.0000 1773.2068 -7505.9583 301.1028 -9279.1650 -7505.9583 301.1028 37.5344 110.1735 30284.8699 37.5344 110.1735
ENERGY: 300000 1.2948 2.4388 2.7317 0.0000 -10696.5110 1402.3177 0.0000 0.0000 1765.4497 -7522.2783 299.7856 -9287.7280 -7563.3303 298.4841 -532.5660 -492.1689 31112.4570 176.3775 253.3187
ENERGY: 600000 1.0462 4.3193 2.8267 0.0000 -10763.0414 1470.9567 0.0000 0.0000 1785.1835 -7498.7089 303.1366 -9283.8924 -7544.4761 298.8439 118.7642 205.5687 30252.2644 201.5617 276.6936
ENERGY: 900000 0.7409 3.4803 2.7015 0.0000 -10644.5349 1407.4474 0.0000 0.0000 1753.9943 -7476.1705 297.8404 -9230.1648 -7532.2389 298.5450 -130.5994 -96.8302 30991.0440 177.2053 240.9170
ENERGY: 1200000 2.0296 2.3093 3.0577 0.0000 -10741.5209 1440.2984 0.0000 0.0000 1771.5389 -7522.2871 300.8196 -9293.8259 -7539.2188 298.1285 -146.4683 -111.7344 30829.8032 157.0571 210.2465
ENERGY: 1500000 1.3930 2.0852 2.9215 0.0000 -10599.8287 1364.5864 0.0000 0.0000 1734.6838 -7494.1589 294.5614 -9228.8426 -7537.0746 297.9471 -294.6491 -260.9496 30416.9456 46.1101 97.5202
TCL: Running FEP window  15: Lambda1 0.7000000000000001 Lambda2 0.7500000000000001 [dLambda 0.050000000000000044]
TCL: Setting parameter firsttimestep to 0
TCL: Setting parameter alchLambda to 0.7000000000000001
Info: NONBONDED TABLE R-SQUARED SPACING: 0.0625
Info: NONBONDED TABLE SIZE: 705 POINTS
TCL: Setting parameter alchLambda2 to 0.7500000000000001
Info: NONBONDED TABLE R-SQUARED SPACING: 0.0625
Info: NONBONDED TABLE SIZE: 705 POINTS
TCL: Running for 1500000 steps
ETITLE: TS BOND ANGLE DIHED IMPRP ELECT VDW BOUNDARY MISC KINETIC TOTAL TEMP POTENTIAL TOTALAVG TEMPAVG PRESSURE GPRESSURE VOLUME PRESSAVG GPRESSAVG
ENERGY: 0 1.3930 2.0852 2.9215 0.0000 -10600.0010 1364.0189 0.0000 0.0000 1733.7979 -7495.7846 294.4109 -9229.5825 -7495.7846 294.4109 -342.7240 -258.6639 30416.9456 -342.7240 -258.6639
ENERGY: 300000 5.1603 1.8467 2.8190 0.0000 -10769.9691 1440.3563 0.0000 0.0000 1763.2710 -7556.5159 299.4157 -9319.7868 -7535.1258 295.1164 -198.9378 -85.5539 30509.9853 -314.2501 -264.4402
ENERGY: 600000 1.4557 6.9670 2.9272 0.0000 -10713.0055 1439.5020 0.0000 0.0000 1778.5363 -7483.6173 302.0078 -9262.1536 -7534.0469 296.8560 -6.7497 -13.6554 30743.8803 -317.5466 -273.0687
ENERGY: 900000 1.3366 0.3970 2.7453 0.0000 -10663.8758 1328.5115 0.0000 0.0000 1720.1187 -7610.7668 292.0881 -9330.8855 -7528.6684 297.9478 -1131.6656 -1110.9966 30612.1269 -496.7085 -444.3390
ENERGY: 1200000 0.8333 3.1497 2.6952 0.0000 -10761.1709 1442.3169 0.0000 0.0000 1798.9815 -7513.1941 305.4796 -9312.1757 -7532.3901 298.1172 -37.9538 -32.8076 30569.7855 -401.7879 -357.2315
ENERGY: 1500000 1.5355 2.9839 2.6995 0.0000 -10620.2685 1360.4395 0.0000 0.0000 1754.5540 -7498.0560 297.9355 -9252.6100 -7538.8875 297.7245 -880.2972 -762.4425 31268.6039 -363.7074 -310.4988
TCL: Running FEP window  16: Lambda1 0.7500000000000001 Lambda2 0.8000000000000002 [dLambda 0.050000000000000044]
TCL: Setting parameter firsttimestep to 0
TCL: Setting parameter alchLambda to 0.7500000000000001
Info: NONBONDED TABLE R-SQUARED SPACING: 0.0625
Info: NONBONDED TABLE SIZE: 705 POINTS
TCL: Setting parameter alchLambda2 to 0.8000000000000002
Info: NONBONDED TABLE R-SQUARED SPACING: 0.0625
Info: NONBONDED TABLE SIZE: 705 POINTS
TCL: Running for 1500000 steps
ETITLE: TS BOND ANGLE DIHED IMPRP ELECT VDW BOUNDARY MISC KINETIC TOTAL TEMP POTENTIAL TOTALAVG TEMPAVG PRESSURE GPRESSURE VOLUME PRESSAVG GPRESSAVG
ENERGY: 0 1.5355 2.9839 2.6995 0.0000 -10620.3293 1359.8380 0.0000 0.0000 1753.6854 -7499.5870 297.7880 -9253.2724 -7499.5870 297.7880 -835.4551 -760.4215 31268.6039 -835.4551 -760.4215
ENERGY: 300000 1.2059 2.0983 2.7694 0.0000 -10820.7426 1513.5381 0.0000 0.0000 1719.1099 -7582.0210 291.9168 -9301.1309 -7552.2072 293.7414 760.8731 828.8698 30137.9234 -50.2026 26.5583
ENERGY: 600000 1.3505 3.6089 2.6690 0.0000 -10834.5992 1438.0646 0.0000 0.0000 1777.7934 -7611.1128 301.8817 -9388.9062 -7546.6072 298.1912 -423.6786 -349.3570 30667.5469 -159.9406 -85.4481
ENERGY: 900000 1.8211 2.4665 2.7590 0.0000 -10719.0301 1382.9900 0.0000 0.0000 1812.5139 -7516.4796 307.7775 -9328.9935 -7532.0825 299.3780 -592.9693 -536.3906 30529.0442 -224.7667 -157.8373
ENERGY: 1200000 1.2726 2.3886 3.0152 0.0000 -10595.1053 1348.0768 0.0000 0.0000 1764.3113 -7476.0407 299.5923 -9240.3520 -7523.5254 299.9877 -430.3644 -428.4777 30647.1842 -130.6158 -73.6398
ENERGY: 1500000 4.0064 2.2016 2.7395 0.0000 -10858.7883 1472.4030 0.0000 0.0000 1789.0462 -7588.3916 303.7925 -9377.4378 -7526.9320 299.8414 185.8409 228.7476 30409.2579 -67.4672 -9.5871
TCL: Running FEP window  17: Lambda1 0.8000000000000002 Lambda2 0.8500000000000002 [dLambda 0.050000000000000044]
TCL: Setting parameter firsttimestep to 0
TCL: Setting parameter alchLambda to 0.8000000000000002
Info: NONBONDED TABLE R-SQUARED SPACING: 0.0625
Info: NONBONDED TABLE SIZE: 705 POINTS
TCL: Setting parameter alchLambda2 to 0.8500000000000002
Info: NONBONDED TABLE R-SQUARED SPACING: 0.0625
Info: NONBONDED TABLE SIZE: 705 POINTS
TCL: Running for 1500000 steps
ETITLE: TS BOND ANGLE DIHED IMPRP ELECT VDW BOUNDARY MISC KINETIC TOTAL TEMP POTENTIAL TOTALAVG TEMPAVG PRESSURE GPRESSURE VOLUME PRESSAVG GPRESSAVG
ENERGY: 0 4.0064 2.2016 2.7395 0.0000 -10859.1878 1473.0322 0.0000 0.0000 1788.1657 -7589.0424 303.6430 -9377.2081 -7589.0424 303.6430 164.7141 243.6404 30409.2579 164.7141 243.6404
ENERGY: 300000 1.9416 3.3213 2.8100 0.0000 -10864.4924 1550.1899 0.0000 0.0000 1686.6926 -7619.5369 286.4121 -9306.2295 -7524.4037 297.8492 612.1680 688.5184 30650.0879 209.3193 278.3723
ENERGY: 600000 1.4473 4.0040 2.8032 0.0000 -10922.6198 1612.6259 0.0000 0.0000 1772.9270 -7528.8123 301.0553 -9301.7393 -7504.8405 300.9990 1212.4596 1275.9782 30656.5995 370.9004 430.5972
ENERGY: 900000 1.0344 1.1178 2.7353 0.0000 -10773.4730 1458.3821 0.0000 0.0000 1764.3053 -7545.8981 299.5913 -9310.2034 -7508.0647 301.2800 18.4179 127.0038 30598.2084 231.7780 297.1500
ENERGY: 1200000 1.5864 1.9930 2.8535 0.0000 -10668.7224 1386.5606 0.0000 0.0000 1810.2088 -7465.5201 307.3860 -9275.7289 -7501.1684 301.5069 -394.6104 -333.7593 30912.9682 63.4697 132.3372
ENERGY: 1500000 1.4812 2.2556 2.7425 0.0000 -10720.8952 1495.0294 0.0000 0.0000 1794.2315 -7425.1549 304.6730 -9219.3864 -7506.2204 300.6668 678.7514 770.7686 30753.1470 32.3581 102.0717
TCL: Running FEP window  18: Lambda1 0.8500000000000002 Lambda2 0.9000000000000002 [dLambda 0.050000000000000044]
TCL: Setting parameter firsttimestep to 0
TCL: Setting parameter alchLambda to 0.8500000000000002
Info: NONBONDED TABLE R-SQUARED SPACING: 0.0625
Info: NONBONDED TABLE SIZE: 705 POINTS
TCL: Setting parameter alchLambda2 to 0.9000000000000002
Info: NONBONDED TABLE R-SQUARED SPACING: 0.0625
Info: NONBONDED TABLE SIZE: 705 POINTS
TCL: Running for 1500000 steps
ETITLE: TS BOND ANGLE DIHED IMPRP ELECT VDW BOUNDARY MISC KINETIC TOTAL TEMP POTENTIAL TOTALAVG TEMPAVG PRESSURE GPRESSURE VOLUME PRESSAVG GPRESSAVG
ENERGY: 0 1.4812 2.2556 2.7425 0.0000 -10721.0236 1495.4303 0.0000 0.0000 1793.3709 -7425.7430 304.5268 -9219.1139 -7425.7430 304.5268 689.3836 783.6159 30753.1470 689.3836 783.6159
ENERGY: 300000 4.9759 2.6631 2.8135 0.0000 -10833.3332 1440.0347 0.0000 0.0000 1746.2018 -7636.6441 296.5172 -9382.8459 -7556.3561 301.2235 -252.1073 -212.7358 30683.3048 46.0509 120.1853
ENERGY: 600000 1.0323 1.8420 2.7425 0.0000 -10663.7220 1378.4416 0.0000 0.0000 1717.5871 -7562.0764 291.6582 -9279.6635 -7541.5184 300.4101 -580.7877 -511.8614 30837.6090 -32.2876 27.6006
ENERGY: 900000 1.2694 3.2449 2.8113 0.0000 -10803.8098 1486.6570 0.0000 0.0000 1748.4130 -7561.4141 296.8927 -9309.8272 -7542.7660 299.0999 315.4579 363.9292 30482.0321 -103.0211 -49.5412
ENERGY: 1200000 2.6406 3.9386 2.8079 0.0000 -10744.1172 1447.3624 0.0000 0.0000 1791.5897 -7495.7779 304.2244 -9287.3677 -7534.0130 299.8022 225.2718 216.1611 30653.2085 -47.9947 5.7176
ENERGY: 1500000 2.8937 3.7412 2.7735 0.0000 -10706.0076 1389.9622 0.0000 0.0000 1707.2641 -7599.3729 289.9053 -9306.6370 -7539.2960 298.8532 -529.2109 -466.4058 30761.9678 -53.9729 4.5426
TCL: Running FEP window  19: Lambda1 0.9000000000000002 Lambda2 0.9500000000000003 [dLambda 0.050000000000000044]
TCL: Setting parameter firsttimestep to 0
TCL: Setting parameter alchLambda to 0.9000000000000002
Info: NONBONDED TABLE R-SQUARED SPACING: 0.0625
Info: NONBONDED TABLE SIZE: 705 POINTS
TCL: Setting parameter alchLambda2 to 0.9500000000000003
Info: NONBONDED TABLE R-SQUARED SPACING: 0.0625
Info: NONBONDED TABLE SIZE: 705 POINTS
TCL: Running for 1500000 steps
ETITLE: TS BOND ANGLE DIHED IMPRP ELECT VDW BOUNDARY MISC KINETIC TOTAL TEMP POTENTIAL TOTALAVG TEMPAVG PRESSURE GPRESSURE VOLUME PRESSAVG GPRESSAVG
ENERGY: 0 2.8937 3.7412 2.7735 0.0000 -10706.0747 1390.3133 0.0000 0.0000 1706.3826 -7599.9704 289.7556 -9306.3530 -7599.9704 289.7556 -529.2818 -452.5606 30761.9678 -529.2818 -452.5606
ENERGY: 300000 2.1910 2.5964 2.7971 0.0000 -10875.8913 1508.1479 0.0000 0.0000 1761.1549 -7599.0040 299.0563 -9360.1589 -7558.8156 296.6532 340.5844 366.4944 30426.5864 75.7290 145.5583
ENERGY: 600000 0.7881 3.1007 2.7278 0.0000 -10559.3269 1319.7738 0.0000 0.0000 1729.0220 -7503.9144 293.5999 -9232.9364 -7554.0346 295.4742 -857.4715 -775.7403 30686.3997 127.0921 202.1586
ENERGY: 900000 2.3755 2.9166 2.7516 0.0000 -10640.5641 1452.5691 0.0000 0.0000 1760.1344 -7419.8168 298.8831 -9179.9513 -7514.0708 297.8787 33.3495 107.2647 31159.5955 142.9743 215.5518
ENERGY: 1200000 0.4719 4.5925 2.9094 0.0000 -10819.2571 1488.1344 0.0000 0.0000 1741.0523 -7582.0966 295.6428 -9323.1489 -7520.8664 298.8837 426.7494 468.0045 30445.7634 226.6324 296.0711
ENERGY: 1500000 1.5556 3.1916 2.7349 0.0000 -10709.1779 1464.0863 0.0000 0.0000 1724.8484 -7512.7610 292.8913 -9237.6095 -7512.5668 298.9356 518.7813 542.2178 30466.1269 236.5675 295.9264
TCL: Running FEP window  20: Lambda1 0.9500000000000003 Lambda2 1.0    [dLambda 0.04999999999999971]
TCL: Setting parameter firsttimestep to 0
TCL: Setting parameter alchLambda to 0.9500000000000003
Info: NONBONDED TABLE R-SQUARED SPACING: 0.0625
Info: NONBONDED TABLE SIZE: 705 POINTS
TCL: Setting parameter alchLambda2 to 1.0
Info: NONBONDED TABLE R-SQUARED SPACING: 0.0625
Info: NONBONDED TABLE SIZE: 705 POINTS
TCL: Running for 1500000 steps
ETITLE: TS BOND ANGLE DIHED IMPRP ELECT VDW BOUNDARY MISC KINETIC TOTAL TEMP POTENTIAL TOTALAVG TEMPAVG PRESSURE GPRESSURE VOLUME PRESSAVG GPRESSAVG
ENERGY: 0 1.5556 3.1916 2.7349 0.0000 -10709.3889 1463.9647 0.0000 0.0000 1723.9884 -7513.9537 292.7452 -9237.9421 -7513.9537 292.7452 473.2328 553.6003 30466.1269 473.2328 553.6003
ENERGY: 300000 1.9563 3.3634 2.8001 0.0000 -10754.1072 1388.5721 0.0000 0.0000 1824.3364 -7533.0790 309.7850 -9357.4154 -7536.7543 300.3972 -395.3405 -391.9094 30265.7173 308.5164 352.1400
ENERGY: 600000 2.9553 1.9984 2.7221 0.0000 -10774.1515 1520.4725 0.0000 0.0000 1776.0315 -7469.9717 301.5825 -9246.0032 -7537.5539 298.8231 923.8439 982.9980 30382.2747 279.7137 335.9552
ENERGY: 900000 0.8127 1.4549 2.6688 0.0000 -10743.1972 1392.5401 0.0000 0.0000 1826.5239 -7519.1968 310.1564 -9345.7207 -7528.2629 301.3048 -249.5772 -200.4370 30378.8749 70.9575 118.5687
ENERGY: 1200000 2.6263 4.4959 2.6935 0.0000 -10734.9784 1423.6813 0.0000 0.0000 1730.2930 -7571.1884 293.8158 -9301.4815 -7530.5016 300.1107 -277.1270 -167.1726 30780.2070 75.5007 122.7062
ENERGY: 1500000 0.6987 3.3013 2.7629 0.0000 -10785.3126 1477.6259 0.0000 0.0000 1744.5886 -7556.3350 296.2433 -9300.9236 -7541.0328 299.6850 334.9211 438.4123 30438.7116 70.7925 121.6787
TCL: Exiting due to exit command.
