Info: SIMULATION PARAMETERS:
Info: TIMESTEP               2
Info: NUMBER OF STEPS        0
Info: STEPS PER CYCLE        10
Info: PERIODIC CELL BASIS 1  31.6701 0 0
Info: PERIODIC CELL BASIS 2  0 30.1352 0
Info: PERIODIC CELL BASIS 3  0 0 31.4221
Info: PERIODIC CELL CENTER   0 0 0
Info: WRAPPING WATERS AROUND PERIODIC BOUNDARIES ON OUTPUT.
Info: WRAPPING ALL CLUSTERS AROUND PERIODIC BOUNDARIES ON OUTPUT.
Info: FIRST LDB TIMESTEP     50
Info: LAST LDB TIMESTEP     -1
Info: HOM BACKGROUND SCALING 1
Info: PME BACKGROUND SCALING 1
Info: MIN ATOMS PER PATCH    40
Info: EMPTY PATCH LOAD       40 ATOMS
Info: VELOCITY FILE          mobley_1857976_equil.vel
Info: CENTER OF MASS MOVING INITIALLY? NO
Info: DIELECTRIC             1
Info: EXCLUDE                SCALED ONE-FOUR
Info: 1-4 ELECTROSTATICS SCALED BY 0.833333
Info: MODIFIED 1-4 VDW PARAMETERS WILL BE USED
Info: DCD FILENAME           mobley_1857976_prod.dcd
Info: DCD FREQUENCY          100000
Info: DCD FIRST STEP         100000
Info: DCD FILE WILL CONTAIN UNIT CELL DATA
Info: XST FILENAME           mobley_1857976_prod.xst
Info: XST FREQUENCY          100000
Info: NO VELOCITY DCD OUTPUT
Info: NO FORCE DCD OUTPUT
Info: OUTPUT FILENAME        mobley_1857976_prod
Info: BINARY OUTPUT FILES WILL BE USED
Info: RESTART FILENAME       mobley_1857976_prod.restart
Info: RESTART FREQUENCY      100000
Info: BINARY RESTART FILES WILL BE USED
Info: CUTOFF                 9
Info: PAIRLIST DISTANCE      11
Info: PAIRLIST SHRINK RATE   0.01
Info: PAIRLIST GROW RATE     0.01
Info: PAIRLIST TRIGGER       0.3
Info: PAIRLISTS PER CYCLE    2
Info: PAIRLISTS ENABLED
Info: MARGIN                 2
Info: HYDROGEN GROUP CUTOFF  2.5
Info: PATCH DIMENSION        15.5
Info: ENERGY OUTPUT STEPS    100000
Info: ENERGY EVALUATION STEPS    100000
Info: OUTPUT ENERGY PRECISION 4
Info: CROSSTERM ENERGY INCLUDED IN DIHEDRAL
Info: TIMING OUTPUT STEPS    1000000
Info: PRESSURE OUTPUT STEPS  100000
Info: ALCHEMICAL FEP ON
Info: FEP CURRENT LAMBDA VALUE     1
Info: FEP COMPARISON LAMBDA VALUE  0.95
Info: FEP INTRA-ALCHEMICAL NON-BONDED INTERACTIONS WILL BE RETAINED
Info: FEP INTRA-ALCHEMICAL BONDED INTERACTIONS WILL BE RETAINED
Info: FEP VDW SHIFTING COEFFICIENT 5
Info: FEP ELEC. ACTIVE FOR ANNIHILATED PARTICLES BETWEEN LAMBDA = 0 AND LAMBDA = 0.5
Info: FEP ELEC. ACTIVE FOR EXNIHILATED PARTICLES BETWEEN LAMBDA = 0.5 AND LAMBDA = 1
Info: FEP VDW ACTIVE FOR ANNIHILATED PARTICLES BETWEEN LAMBDA = 0 AND LAMBDA = 1
Info: FEP VDW ACTIVE FOR EXNIHILATED PARTICLES BETWEEN LAMBDA = 0 AND LAMBDA = 1
Info: FEP BOND ACTIVE FOR ANNIHILATED PARTICLES BETWEEN LAMBDA = 1 AND LAMBDA = 1
Info: FEP BOND ACTIVE FOR EXNIHILATED PARTICLES BETWEEN LAMBDA = 0 AND LAMBDA = 0
Info: LANGEVIN DYNAMICS ACTIVE
Info: LANGEVIN TEMPERATURE   300
Info: LANGEVIN USING BBK INTEGRATOR
Info: LANGEVIN DAMPING COEFFICIENT IS 1 INVERSE PS
Info: LANGEVIN DYNAMICS APPLIED TO HYDROGENS
Info: LANGEVIN PISTON PRESSURE CONTROL ACTIVE
Info:        TARGET PRESSURE IS 1.01325 BAR
Info:     OSCILLATION PERIOD IS 50 FS
Info:             DECAY TIME IS 25 FS
Info:     PISTON TEMPERATURE IS 300 K
Info:       PRESSURE CONTROL IS GROUP-BASED
Info:    INITIAL STRAIN RATE IS 0.000205093 0.000205093 0.000205093
Info:       CELL FLUCTUATION IS ISOTROPIC
Info: PARTICLE MESH EWALD (PME) ACTIVE
Info: PME TOLERANCE               1e-06
Info: PME EWALD COEFFICIENT       0.348832
Info: PME INTERPOLATION ORDER     4
Info: PME GRID DIMENSIONS         32 32 32
Info: PME MAXIMUM GRID SPACING    1
Info: PME CALCULATION WILL BE PERFORMED ON GPU
Info: FULL ELECTROSTATIC EVALUATION FREQUENCY      2
Info: USING VERLET I (r-RESPA) MTS SCHEME.
Info: C1 SPLITTING OF LONG RANGE ELECTROSTATICS
Info: PLACING ATOMS IN PATCHES BY HYDROGEN GROUPS
Info: RIGID BONDS TO HYDROGEN : ALL
Info:         ERROR TOLERANCE : 1e-08
Info:          MAX ITERATIONS : 100
Info: RIGID WATER USING SETTLE ALGORITHM
Info: RANDOM NUMBER SEED     1743674532
Info: USE HYDROGEN BONDS?    NO
Info: Using AMBER format force field!
Info: AMBER PARM FILE        mobley_1857976.prmtop
Info: COORDINATE PDB         mobley_1857976.pdb
Info: Exclusions will be read from PARM file!
Info: SCNB (VDW SCALING)     2
Info: USING ARITHMETIC MEAN TO COMBINE L-J SIGMA PARAMETERS
Info: BINARY COORDINATES     mobley_1857976_equil.coor
Info: SUMMARY OF PARAMETERS:
Info: 5 BONDS
Info: 4 ANGLES
Info:   4 HARMONIC
Info:   0 COSINE-BASED
Info: 4 DIHEDRAL
Info: 0 IMPROPER
Info: 0 CROSSTERM
Info: 0 VDW
Info: 15 VDW_PAIRS
Info: 0 NBTHOLE_PAIRS
Info: To read alchdata from file: mobley_1857976.pdb
Info: To read alchflag data from column: 5
Info: STRUCTURE SUMMARY:
Info: 2906 ATOMS
Info: 2905 BONDS
Info: 12 ANGLES
Info: 14 DIHEDRALS
Info: 0 IMPROPERS
Info: 0 CROSSTERMS
Info: 2926 EXCLUSIONS
Info: 2902 RIGID BONDS
Info: ALCH: 0 ATOMS TO DISAPPEAR IN FINAL STATE
Info: ALCH: 8 ATOMS TO APPEAR IN FINAL STATE
Info: 5816 DEGREES OF FREEDOM
Info: 970 HYDROGEN GROUPS
Info: 3 ATOMS IN LARGEST HYDROGEN GROUP
Info: 970 MIGRATION GROUPS
Info: 3 ATOMS IN LARGEST MIGRATION GROUP
Info: TOTAL MASS = 17502.4 amu
Info: TOTAL CHARGE = 1.11759e-08 e
Info: MASS DENSITY = 0.969166 g/cm^3
Info: ATOM DENSITY = 0.0969029 atoms/A^3
Info: ADDED 0 IMPLICIT EXCLUSIONS
Info: NONBONDED TABLE R-SQUARED SPACING: 0.0625
Info: NONBONDED TABLE SIZE: 705 POINTS
Info: REMOVING COM VELOCITY 0.0289844 0.055131 -0.121732
Info: Use 3D box decompostion in PME FFT.
Info: Updated CUDA force table with 4096 elements.
Info: Updated CUDA LJ table with 5 x 5 elements.
Info: Found 11 unique exclusion lists needing 16 bytes
TCL: Running for 1500000 steps
ETITLE: TS BOND ANGLE DIHED IMPRP ELECT VDW BOUNDARY MISC KINETIC TOTAL TEMP POTENTIAL TOTALAVG TEMPAVG PRESSURE GPRESSURE VOLUME PRESSAVG GPRESSAVG
ENERGY: 0 3.7512 2.1446 1.5103 0.0000 -10618.3232 1434.1555 0.0000 0.0000 1771.2330 -7405.5286 306.5079 -9176.7616 -7405.5286 306.5079 -97.5620 -0.1337 29988.7895 -97.5620 -0.1337
ENERGY: 300000 0.5640 7.6426 1.1978 0.0000 -10502.1118 1314.7640 0.0000 0.0000 1701.7140 -7476.2294 294.4778 -9177.9434 -7413.1474 302.0073 -1174.7658 -1067.1647 30337.4194 -344.7817 -246.5134
ENERGY: 600000 0.6963 3.5267 1.4363 0.0000 -10651.5446 1442.2492 0.0000 0.0000 1760.4303 -7443.2058 304.6385 -9203.6361 -7406.6937 302.7286 192.9665 178.4343 29856.0584 -214.6237 -145.2366
ENERGY: 900000 1.6447 1.6309 1.4068 0.0000 -10528.9004 1379.0839 0.0000 0.0000 1669.1408 -7475.9932 288.8411 -9145.1340 -7407.4255 300.6377 -283.3547 -153.3711 29571.7554 -46.5520 22.3231
ENERGY: 1200000 0.6905 2.7212 1.0196 0.0000 -10551.7006 1458.4925 0.0000 0.0000 1741.2024 -7347.5745 301.3112 -9088.7768 -7405.8439 300.1579 427.2504 467.5223 30086.8788 58.8019 121.0506
ENERGY: 1500000 1.6867 3.6008 1.0208 0.0000 -10587.4982 1419.4924 0.0000 0.0000 1754.5909 -7407.1066 303.6280 -9161.6975 -7405.9101 300.7185 -335.5800 -255.3260 30593.3643 -20.0721 49.8437
TCL: Running FEP window   2: Lambda1 0.95   Lambda2 0.8999999999999999 [dLambda -0.050000000000000044]
TCL: Setting parameter firsttimestep to 0
TCL: Setting parameter alchLambda to 0.95
Info: NONBONDED TABLE R-SQUARED SPACING: 0.0625
Info: NONBONDED TABLE SIZE: 705 POINTS
TCL: Setting parameter alchLambda2 to 0.8999999999999999
Info: NONBONDED TABLE R-SQUARED SPACING: 0.0625
Info: NONBONDED TABLE SIZE: 705 POINTS
TCL: Running for 1500000 steps
ETITLE: TS BOND ANGLE DIHED IMPRP ELECT VDW BOUNDARY MISC KINETIC TOTAL TEMP POTENTIAL TOTALAVG TEMPAVG PRESSURE GPRESSURE VOLUME PRESSAVG GPRESSAVG
ENERGY: 0 1.6867 3.6008 1.0208 0.0000 -10587.1447 1419.2569 0.0000 0.0000 1753.7370 -7407.8424 303.4803 -9161.5794 -7407.8424 303.4803 -357.8495 -268.2466 30593.3643 -357.8495 -268.2466
ENERGY: 300000 0.1142 4.7508 1.5493 0.0000 -10607.9510 1464.4086 0.0000 0.0000 1788.4559 -7348.6721 309.4883 -9137.1280 -7407.0779 300.2502 378.5777 445.7673 29864.5861 -46.1703 31.9739
ENERGY: 600000 0.9561 1.3389 2.2235 0.0000 -10510.9533 1375.7683 0.0000 0.0000 1817.4050 -7313.2615 314.4979 -9130.6665 -7376.3513 305.3750 -468.2647 -365.5476 30600.5051 -17.2813 70.5647
ENERGY: 900000 1.4449 4.8699 1.1004 0.0000 -10371.4032 1310.7348 0.0000 0.0000 1710.8246 -7342.4286 296.0544 -9053.2532 -7386.2415 303.4397 -693.0791 -592.7908 30294.0200 -34.1387 42.7374
ENERGY: 1200000 0.0591 3.7805 1.5083 0.0000 -10463.2369 1382.5349 0.0000 0.0000 1685.1781 -7390.1760 291.6163 -9075.3541 -7387.0470 302.2264 -359.7971 -298.0185 30442.0067 -134.8989 -61.2914
ENERGY: 1500000 2.3130 1.8509 1.0960 0.0000 -10389.0425 1307.2986 0.0000 0.0000 1681.8382 -7394.6459 291.0383 -9076.4841 -7387.5390 301.1627 -948.6610 -891.6407 30412.3751 -184.7141 -114.0616
TCL: Running FEP window   3: Lambda1 0.8999999999999999 Lambda2 0.8499999999999999 [dLambda -0.050000000000000044]
TCL: Setting parameter firsttimestep to 0
TCL: Setting parameter alchLambda to 0.8999999999999999
Info: NONBONDED TABLE R-SQUARED SPACING: 0.0625
Info: NONBONDED TABLE SIZE: 705 POINTS
TCL: Setting parameter alchLambda2 to 0.8499999999999999
Info: NONBONDED TABLE R-SQUARED SPACING: 0.0625
Info: NONBONDED TABLE SIZE: 705 POINTS
TCL: Running for 1500000 steps
ETITLE: TS BOND ANGLE DIHED IMPRP ELECT VDW BOUNDARY MISC KINETIC TOTAL TEMP POTENTIAL TOTALAVG TEMPAVG PRESSURE GPRESSURE VOLUME PRESSAVG GPRESSAVG
ENERGY: 0 2.3130 1.8509 1.0960 0.0000 -10388.3792 1307.5921 0.0000 0.0000 1680.9955 -7394.5318 290.8925 -9075.5273 -7394.5318 290.8925 -994.4388 -897.4410 30412.3751 -994.4388 -897.4410
ENERGY: 300000 0.5005 1.5321 1.6711 0.0000 -10433.3523 1329.3932 0.0000 0.0000 1787.1111 -7313.1444 309.2556 -9100.2554 -7345.2356 302.4803 -796.5968 -734.0360 30219.9079 -375.3663 -317.8469
ENERGY: 600000 0.6210 3.3133 0.7954 0.0000 -10607.3688 1502.4149 0.0000 0.0000 1732.6966 -7367.5275 299.8393 -9100.2241 -7386.3553 300.3035 754.5342 752.4187 30044.3399 -80.9408 -33.1555
ENERGY: 900000 0.4230 2.5128 1.0422 0.0000 -10661.6220 1516.3535 0.0000 0.0000 1755.7039 -7385.5866 303.8206 -9141.2905 -7387.6059 300.7488 949.9692 978.5629 29556.5975 -5.7759 48.9291
ENERGY: 1200000 0.5552 5.2236 2.1353 0.0000 -10490.6471 1410.4833 0.0000 0.0000 1779.4055 -7292.8441 307.9221 -9072.2497 -7372.4172 301.7177 94.7043 172.3374 30045.5593 59.3241 123.5964
ENERGY: 1500000 0.9861 2.6856 3.1205 0.0000 -10582.6099 1457.9920 0.0000 0.0000 1676.9520 -7440.8736 290.1928 -9117.8257 -7377.4998 301.0767 535.4249 575.4471 29670.7484 -33.6656 34.2864
TCL: Running FEP window   4: Lambda1 0.8499999999999999 Lambda2 0.7999999999999998 [dLambda -0.050000000000000044]
TCL: Setting parameter firsttimestep to 0
TCL: Setting parameter alchLambda to 0.8499999999999999
Info: NONBONDED TABLE R-SQUARED SPACING: 0.0625
Info: NONBONDED TABLE SIZE: 705 POINTS
TCL: Setting parameter alchLambda2 to 0.7999999999999998
Info: NONBONDED TABLE R-SQUARED SPACING: 0.0625
Info: NONBONDED TABLE SIZE: 705 POINTS
TCL: Running for 1500000 steps
ETITLE: TS BOND ANGLE DIHED IMPRP ELECT VDW BOUNDARY MISC KINETIC TOTAL TEMP POTENTIAL TOTALAVG TEMPAVG PRESSURE GPRESSURE VOLUME PRESSAVG GPRESSAVG
ENERGY: 0 0.9861 2.6856 3.1205 0.0000 -10582.2453 1457.9966 0.0000 0.0000 1676.0756 -7441.3808 290.0411 -9117.4565 -7441.3808 290.0411 480.4977 569.5742 29670.7484 480.4977 569.5742
ENERGY: 300000 0.6451 2.3541 1.1352 0.0000 -10658.8436 1508.4114 0.0000 0.0000 1698.0770 -7448.2208 293.8484 -9146.2979 -7406.0672 297.4877 594.0490 638.6901 29855.4605 236.7992 301.2333
ENERGY: 600000 0.1487 1.9757 0.9970 0.0000 -10492.9701 1338.0281 0.0000 0.0000 1756.7788 -7395.0418 304.0066 -9151.8206 -7402.1879 298.6926 -309.4534 -362.1965 29758.9861 36.0108 82.9226
ENERGY: 900000 0.4037 1.5274 2.6737 0.0000 -10654.6891 1424.7848 0.0000 0.0000 1726.7342 -7498.5655 298.8075 -9225.2997 -7411.9169 298.5791 -49.1467 11.1667 29607.9743 -10.8270 35.0722
ENERGY: 1200000 2.1020 2.8382 1.0021 0.0000 -10520.9124 1372.7523 0.0000 0.0000 1777.7098 -7364.5080 307.6287 -9142.2177 -7402.4767 299.9233 -323.9523 -293.3670 29883.2321 -86.2194 -36.2610
ENERGY: 1500000 0.7798 3.6918 2.4614 0.0000 -10384.0106 1349.9822 0.0000 0.0000 1708.2558 -7318.8396 295.6098 -9027.0954 -7396.0584 299.6973 -228.9273 -248.4847 30078.2909 0.8088 44.5875
TCL: Running FEP window   5: Lambda1 0.7999999999999998 Lambda2 0.7499999999999998 [dLambda -0.050000000000000044]
TCL: Setting parameter firsttimestep to 0
TCL: Setting parameter alchLambda to 0.7999999999999998
Info: NONBONDED TABLE R-SQUARED SPACING: 0.0625
Info: NONBONDED TABLE SIZE: 705 POINTS
TCL: Setting parameter alchLambda2 to 0.7499999999999998
Info: NONBONDED TABLE R-SQUARED SPACING: 0.0625
Info: NONBONDED TABLE SIZE: 705 POINTS
TCL: Running for 1500000 steps
ETITLE: TS BOND ANGLE DIHED IMPRP ELECT VDW BOUNDARY MISC KINETIC TOTAL TEMP POTENTIAL TOTALAVG TEMPAVG PRESSURE GPRESSURE VOLUME PRESSAVG GPRESSAVG
ENERGY: 0 0.7798 3.6918 2.4614 0.0000 -10383.4063 1349.8451 0.0000 0.0000 1707.4045 -7319.2237 295.4625 -9026.6282 -7319.2237 295.4625 -344.0899 -258.4039 30078.2909 -344.0899 -258.4039
ENERGY: 300000 0.1024 4.5948 1.1589 0.0000 -10524.6891 1386.4847 0.0000 0.0000 1751.6523 -7380.6959 303.1195 -9132.3482 -7391.0267 297.7449 -225.5596 -182.8616 29899.7075 -265.2551 -205.9767
ENERGY: 600000 0.4007 2.9641 1.2195 0.0000 -10618.0271 1449.8073 0.0000 0.0000 1725.1641 -7438.4715 298.5358 -9163.6356 -7399.3515 298.1985 425.4122 432.1747 29793.3617 -6.1375 34.5727
ENERGY: 900000 1.0752 1.8898 2.9187 0.0000 -10448.8030 1422.0657 0.0000 0.0000 1703.4703 -7317.3833 294.7817 -9020.8537 -7386.8114 298.0068 -65.5779 30.5342 30449.6512 -38.9732 14.8270
ENERGY: 1200000 0.8883 1.7705 0.9876 0.0000 -10588.2216 1417.8673 0.0000 0.0000 1665.5508 -7501.1572 288.2198 -9166.7079 -7398.9021 297.1661 -97.5888 -6.4785 29674.5424 -42.9300 12.3697
ENERGY: 1500000 1.9773 4.3996 1.2317 0.0000 -10483.3886 1388.1348 0.0000 0.0000 1762.2302 -7325.4150 304.9500 -9087.6452 -7396.0940 298.2169 -214.2994 -189.0673 30209.8223 -4.1398 53.3170
TCL: Running FEP window   6: Lambda1 0.7499999999999998 Lambda2 0.6999999999999997 [dLambda -0.050000000000000044]
TCL: Setting parameter firsttimestep to 0
TCL: Setting parameter alchLambda to 0.7499999999999998
Info: NONBONDED TABLE R-SQUARED SPACING: 0.0625
Info: NONBONDED TABLE SIZE: 705 POINTS
TCL: Setting parameter alchLambda2 to 0.6999999999999997
Info: NONBONDED TABLE R-SQUARED SPACING: 0.0625
Info: NONBONDED TABLE SIZE: 705 POINTS
TCL: Running for 1500000 steps
ETITLE: TS BOND ANGLE DIHED IMPRP ELECT VDW BOUNDARY MISC KINETIC TOTAL TEMP POTENTIAL TOTALAVG TEMPAVG PRESSURE GPRESSURE VOLUME PRESSAVG GPRESSAVG
ENERGY: 0 1.9773 4.3996 1.2317 0.0000 -10482.7559 1388.2926 0.0000 0.0000 1761.3682 -7325.4865 304.8008 -9086.8547 -7325.4865 304.8008 -276.1123 -192.0019 30209.8223 -276.1123 -192.0019
ENERGY: 300000 0.2136 4.4585 2.3587 0.0000 -10553.2767 1460.2455 0.0000 0.0000 1709.2145 -7376.7859 295.7757 -9086.0003 -7361.2333 301.6689 369.5097 516.8346 29895.1523 -357.9605 -254.4764
ENERGY: 600000 2.7620 7.9712 1.2735 0.0000 -10430.6754 1389.0082 0.0000 0.0000 1743.0991 -7286.5614 301.6394 -9029.6605 -7330.8214 301.6495 -221.8496 -170.1834 30402.5073 -99.9178 -16.4465
ENERGY: 900000 1.8158 3.3591 1.1684 0.0000 -10513.5848 1401.7788 0.0000 0.0000 1714.3876 -7391.0751 296.6709 -9105.4627 -7352.6689 300.6883 -466.2132 -378.5370 30526.1044 -162.4771 -79.6502
ENERGY: 1200000 0.4863 1.0862 1.0718 0.0000 -10606.3939 1425.1912 0.0000 0.0000 1720.7825 -7457.7760 297.7776 -9178.5585 -7368.2079 301.1429 -304.5231 -235.1971 30271.6636 -151.1057 -77.7830
ENERGY: 1500000 0.4825 5.0095 1.0399 0.0000 -10687.4020 1509.5610 0.0000 0.0000 1680.8774 -7490.4316 290.8721 -9171.3090 -7382.0172 300.2810 838.1056 873.9164 29660.5964 -36.2970 30.2237
TCL: Running FEP window   7: Lambda1 0.6999999999999997 Lambda2 0.6499999999999997 [dLambda -0.050000000000000044]
TCL: Setting parameter firsttimestep to 0
TCL: Setting parameter alchLambda to 0.6999999999999997
Info: NONBONDED TABLE R-SQUARED SPACING: 0.0625
Info: NONBONDED TABLE SIZE: 705 POINTS
TCL: Setting parameter alchLambda2 to 0.6499999999999997
Info: NONBONDED TABLE R-SQUARED SPACING: 0.0625
Info: NONBONDED TABLE SIZE: 705 POINTS
TCL: Running for 1500000 steps
ETITLE: TS BOND ANGLE DIHED IMPRP ELECT VDW BOUNDARY MISC KINETIC TOTAL TEMP POTENTIAL TOTALAVG TEMPAVG PRESSURE GPRESSURE VOLUME PRESSAVG GPRESSAVG
ENERGY: 0 0.4825 5.0095 1.0399 0.0000 -10686.7778 1509.5502 0.0000 0.0000 1680.0200 -7490.6756 290.7237 -9170.6956 -7490.6756 290.7237 781.4311 864.9911 29660.5964 781.4311 864.9911
ENERGY: 300000 2.2411 2.1290 1.0108 0.0000 -10635.2573 1438.5977 0.0000 0.0000 1734.0685 -7457.2102 300.0767 -9191.2787 -7449.8611 297.8246 189.1521 240.5315 29760.6108 35.7081 84.9398
ENERGY: 600000 0.7981 4.2587 1.0272 0.0000 -10473.4195 1337.5568 0.0000 0.0000 1740.0589 -7389.7198 301.1133 -9129.7787 -7426.7131 298.1974 -885.4168 -749.0090 30294.8999 -45.8290 8.2182
ENERGY: 900000 0.2051 2.8042 0.9881 0.0000 -10497.6304 1409.2963 0.0000 0.0000 1813.8811 -7270.4556 313.8881 -9084.3367 -7405.0543 299.9051 90.7567 182.2889 29823.1235 -166.5039 -112.1893
ENERGY: 1200000 0.3178 1.5686 1.7358 0.0000 -10572.4570 1456.0504 0.0000 0.0000 1772.6127 -7340.1717 306.7467 -9112.7844 -7388.9594 299.5810 325.9539 357.2494 29946.9898 -7.6514 40.0970
ENERGY: 1500000 0.3213 2.5251 1.4461 0.0000 -10692.6216 1497.5113 0.0000 0.0000 1765.3600 -7425.4578 305.4916 -9190.8178 -7385.1443 300.7245 417.5267 523.7348 30139.7761 -18.3968 36.6749
TCL: Running FEP window   8: Lambda1 0.6499999999999997 Lambda2 0.5999999999999996 [dLambda -0.050000000000000044]
TCL: Setting parameter firsttimestep to 0
TCL: Setting parameter alchLambda to 0.6499999999999997
Info: NONBONDED TABLE R-SQUARED SPACING: 0.0625
Info: NONBONDED TABLE SIZE: 705 POINTS
TCL: Setting parameter alchLambda2 to 0.5999999999999996
Info: NONBONDED TABLE R-SQUARED SPACING: 0.0625
Info: NONBONDED TABLE SIZE: 705 POINTS
TCL: Running for 1500000 steps
ETITLE: TS BOND ANGLE DIHED IMPRP ELECT VDW BOUNDARY MISC KINETIC TOTAL TEMP POTENTIAL TOTALAVG TEMPAVG PRESSURE GPRESSURE VOLUME PRESSAVG GPRESSAVG
ENERGY: 0 0.3213 2.5251 1.4461 0.0000 -10692.2146 1497.7341 0.0000 0.0000 1764.4557 -7425.7323 305.3351 -9190.1881 -7425.7323 305.3351 437.7093 517.8142 30139.7761 437.7093 517.8142
ENERGY: 300000 1.9454 2.8110 2.6540 0.0000 -10405.6109 1326.2249 0.0000 0.0000 1757.6008 -7314.3749 304.1489 -9071.9757 -7388.2354 301.9299 -545.4117 -447.1562 29876.0105 -168.1864 -81.1515
ENERGY: 600000 0.8942 2.9583 3.0961 0.0000 -10639.8768 1464.0007 0.0000 0.0000 1720.8142 -7448.1134 297.7830 -9168.9275 -7402.3965 300.1824 41.4830 57.1434 30128.9770 -262.2994 -196.4567
ENERGY: 900000 2.8191 5.1263 2.3959 0.0000 -10368.2453 1335.8233 0.0000 0.0000 1707.3249 -7314.7559 295.4487 -9022.0807 -7378.7189 300.7668 -618.6460 -554.1039 30688.9072 -285.1491 -215.2939
ENERGY: 1200000 0.9932 2.7054 0.9750 0.0000 -10625.1225 1488.5456 0.0000 0.0000 1750.0483 -7381.8550 302.8419 -9131.9033 -7381.1534 301.1160 521.3739 583.1016 29908.2978 -239.1393 -165.7589
ENERGY: 1500000 0.7894 6.0660 2.6002 0.0000 -10472.1400 1428.0496 0.0000 0.0000 1651.9571 -7382.6778 285.8675 -9034.6349 -7384.4531 299.5813 -7.4598 73.2383 30395.3324 -239.5220 -168.1838
TCL: Running FEP window   9: Lambda1 0.5999999999999996 Lambda2 0.5499999999999996 [dLambda -0.050000000000000044]
TCL: Setting parameter firsttimestep to 0
TCL: Setting parameter alchLambda to 0.5999999999999996
Info: NONBONDED TABLE R-SQUARED SPACING: 0.0625
Info: NONBONDED TABLE SIZE: 705 POINTS
TCL: Setting parameter alchLambda2 to 0.5499999999999996
Info: NONBONDED TABLE R-SQUARED SPACING: 0.0625
Info: NONBONDED TABLE SIZE: 705 POINTS
TCL: Running for 1500000 steps
ETITLE: TS BOND ANGLE DIHED IMPRP ELECT VDW BOUNDARY MISC KINETIC TOTAL TEMP POTENTIAL TOTALAVG TEMPAVG PRESSURE GPRESSURE VOLUME PRESSAVG GPRESSAVG
ENERGY: 0 0.7894 6.0660 2.6002 0.0000 -10472.2436 1428.4046 0.0000 0.0000 1651.1037 -7383.2798 285.7198 -9034.3835 -7383.2798 285.7198 -4.1777 71.7768 30395.3324 -4.1777 71.7768
ENERGY: 300000 1.5283 2.5500 1.0171 0.0000 -10725.8503 1545.7246 0.0000 0.0000 1738.7574 -7436.2729 300.8881 -9175.0302 -7377.3833 296.1961 873.1715 926.4473 30088.6581 -176.2953 -99.1152
ENERGY: 600000 0.5188 6.5497 2.3788 0.0000 -10588.1034 1382.2633 0.0000 0.0000 1719.4089 -7476.9838 297.5399 -9196.3927 -7400.4899 296.6686 -457.8035 -387.4620 29759.6917 -127.6623 -67.7602
ENERGY: 900000 0.9540 3.3245 0.8517 0.0000 -10640.7561 1418.4101 0.0000 0.0000 1704.8085 -7512.4074 295.0133 -9217.2159 -7406.9647 298.9851 -348.7143 -288.5074 29832.5155 -204.5274 -146.3670
ENERGY: 1200000 0.5076 5.3810 1.4587 0.0000 -10483.8025 1393.9408 0.0000 0.0000 1790.5335 -7291.9808 309.8478 -9082.5143 -7384.1620 301.4597 -39.3065 57.7412 30075.1186 -176.1222 -112.7422
ENERGY: 1500000 1.1438 4.6116 1.1057 0.0000 -10462.1304 1373.5739 0.0000 0.0000 1689.1753 -7392.5201 292.3080 -9081.6953 -7387.4179 300.4802 -291.4521 -208.9019 29987.3587 -274.8793 -212.8471
TCL: Running FEP window  10: Lambda1 0.5499999999999996 Lambda2 0.4999999999999996 [dLambda -0.04999999999999999]
TCL: Setting parameter firsttimestep to 0
TCL: Setting parameter alchLambda to 0.5499999999999996
Info: NONBONDED TABLE R-SQUARED SPACING: 0.0625
Info: NONBONDED TABLE SIZE: 705 POINTS
TCL: Setting parameter alchLambda2 to 0.4999999999999996
Info: NONBONDED TABLE R-SQUARED SPACING: 0.0625
Info: NONBONDED TABLE SIZE: 705 POINTS
TCL: Running for 1500000 steps
ETITLE: TS BOND ANGLE DIHED IMPRP ELECT VDW BOUNDARY MISC KINETIC TOTAL TEMP POTENTIAL TOTALAVG TEMPAVG PRESSURE GPRESSURE VOLUME PRESSAVG GPRESSAVG
ENERGY: 0 1.1438 4.6116 1.1057 0.0000 -10462.0835 1373.9189 0.0000 0.0000 1688.3274 -7392.9759 292.1613 -9081.3033 -7392.9759 292.1613 -301.7153 -210.6143 29987.3587 -301.7153 -210.6143
ENERGY: 300000 1.9768 1.6773 1.3222 0.0000 -10618.1410 1425.8321 0.0000 0.0000 1743.7395 -7443.5932 301.7502 -9187.3327 -7390.8826 300.0214 -239.0057 -190.7319 30118.8345 -55.6682 16.5319
ENERGY: 600000 0.7585 5.3863 2.5705 0.0000 -10561.8988 1430.9845 0.0000 0.0000 1762.3446 -7359.8543 304.9698 -9122.1989 -7404.0704 300.9222 237.7821 262.9909 29676.0428 24.2859 81.0963
ENERGY: 900000 0.7838 2.3816 2.8950 0.0000 -10441.5219 1359.4075 0.0000 0.0000 1737.3476 -7338.7064 300.6441 -9076.0540 -7392.4997 300.6436 -551.0902 -509.1400 30408.0171 -61.1532 2.8871
ENERGY: 1200000 0.5481 3.9704 1.2655 0.0000 -10494.1778 1367.0663 0.0000 0.0000 1775.1893 -7346.1383 307.1925 -9121.3276 -7391.2096 301.1090 -369.1342 -290.2608 29776.0795 -163.3892 -101.8547
ENERGY: 1500000 0.0341 3.4650 1.3339 0.0000 -10482.1108 1383.9516 0.0000 0.0000 1777.1345 -7316.1915 307.5292 -9093.3261 -7390.7116 301.3684 -465.1044 -293.5033 30153.9709 -166.8164 -103.1446
TCL: Running FEP window  11: Lambda1 0.4999999999999996 Lambda2 0.4499999999999996 [dLambda -0.04999999999999999]
TCL: Setting parameter firsttimestep to 0
TCL: Setting parameter alchLambda to 0.4999999999999996
Info: NONBONDED TABLE R-SQUARED SPACING: 0.0625
Info: NONBONDED TABLE SIZE: 705 POINTS
TCL: Setting parameter alchLambda2 to 0.4499999999999996
Info: NONBONDED TABLE R-SQUARED SPACING: 0.0625
Info: NONBONDED TABLE SIZE: 705 POINTS
TCL: Running for 1500000 steps
ETITLE: TS BOND ANGLE DIHED IMPRP ELECT VDW BOUNDARY MISC KINETIC TOTAL TEMP POTENTIAL TOTALAVG TEMPAVG PRESSURE GPRESSURE VOLUME PRESSAVG GPRESSAVG
ENERGY: 0 0.0341 3.4650 1.3339 0.0000 -10481.9210 1384.3512 0.0000 0.0000 1776.2760 -7316.4607 307.3806 -9092.7367 -7316.4607 307.3806 -383.9144 -294.6216 30153.9709 -383.9144 -294.6216
ENERGY: 300000 1.2676 1.8622 1.1509 0.0000 -10387.0326 1297.9103 0.0000 0.0000 1723.5765 -7361.2651 298.2611 -9084.8416 -7365.5043 300.1480 -837.6168 -714.6871 29772.0159 -462.4746 -373.7210
ENERGY: 600000 0.1915 4.0428 1.2537 0.0000 -10669.4614 1427.0061 0.0000 0.0000 1735.5552 -7501.4120 300.3339 -9236.9673 -7394.9291 301.7044 -146.6287 -142.2137 29698.1536 -328.0705 -257.5630
ENERGY: 900000 1.6996 2.4929 1.2434 0.0000 -10467.1833 1393.3737 0.0000 0.0000 1700.0887 -7368.2850 294.1965 -9068.3736 -7397.9708 299.7689 -121.9630 -101.0599 30147.1090 -246.1333 -187.5190
ENERGY: 1200000 0.6951 2.5986 1.6313 0.0000 -10563.2069 1397.3361 0.0000 0.0000 1725.2704 -7435.6753 298.5542 -9160.9457 -7388.8856 299.9521 -118.2051 -29.3963 29555.5993 -223.0596 -170.1373
ENERGY: 1500000 0.9175 2.4753 0.9836 0.0000 -10481.2918 1331.1894 0.0000 0.0000 1729.3830 -7416.3431 299.2659 -9145.7261 -7382.0978 301.1392 -521.8883 -448.4870 29540.7725 -161.2272 -107.2721
TCL: Running FEP window  12: Lambda1 0.4499999999999996 Lambda2 0.39999999999999963 [dLambda -0.04999999999999999]
TCL: Setting parameter firsttimestep to 0
TCL: Setting parameter alchLambda to 0.4499999999999996
Info: NONBONDED TABLE R-SQUARED SPACING: 0.0625
Info: NONBONDED TABLE SIZE: 705 POINTS
TCL: Setting parameter alchLambda2 to 0.39999999999999963
Info: NONBONDED TABLE R-SQUARED SPACING: 0.0625
Info: NONBONDED TABLE SIZE: 705 POINTS
TCL: Running for 1500000 steps
ETITLE: TS BOND ANGLE DIHED IMPRP ELECT VDW BOUNDARY MISC KINETIC TOTAL TEMP POTENTIAL TOTALAVG TEMPAVG PRESSURE GPRESSURE VOLUME PRESSAVG GPRESSAVG
ENERGY: 0 0.9175 2.4753 0.9836 0.0000 -10481.2909 1331.2619 0.0000 0.0000 1728.5088 -7417.1438 299.1146 -9145.6526 -7417.1438 299.1146 -536.0838 -452.9895 29540.7725 -536.0838 -452.9895
ENERGY: 300000 0.3500 1.2494 1.1140 0.0000 -10613.3103 1435.2661 0.0000 0.0000 1732.4806 -7442.8501 299.8019 -9175.3307 -7381.4187 300.9135 -74.6373 -45.2540 30075.9195 -174.4372 -105.3511
ENERGY: 600000 0.1565 3.0466 1.7091 0.0000 -10527.0650 1434.9224 0.0000 0.0000 1745.2946 -7341.9358 302.0193 -9087.2304 -7392.2068 300.4259 193.6320 315.5100 29897.0770 28.2416 94.7729
ENERGY: 900000 1.7154 4.8259 1.1407 0.0000 -10544.5925 1428.3408 0.0000 0.0000 1703.9273 -7404.6424 294.8608 -9108.5697 -7396.8808 300.2853 -122.9984 -22.9217 30177.3283 -78.2906 0.2216
ENERGY: 1200000 0.1725 1.7598 3.3190 0.0000 -10725.2994 1523.6290 0.0000 0.0000 1717.9266 -7478.4925 297.2834 -9196.4191 -7406.2776 300.8699 663.1670 727.4806 29489.4933 16.2289 87.7848
ENERGY: 1500000 0.8384 3.5946 2.8459 0.0000 -10567.9655 1441.2489 0.0000 0.0000 1705.8778 -7413.5600 295.1983 -9119.4378 -7401.5987 300.4625 223.9734 268.8830 29560.4605 -10.6940 60.6913
TCL: Running FEP window  13: Lambda1 0.39999999999999963 Lambda2 0.34999999999999964 [dLambda -0.04999999999999999]
TCL: Setting parameter firsttimestep to 0
TCL: Setting parameter alchLambda to 0.39999999999999963
Info: NONBONDED TABLE R-SQUARED SPACING: 0.0625
Info: NONBONDED TABLE SIZE: 705 POINTS
TCL: Setting parameter alchLambda2 to 0.34999999999999964
Info: NONBONDED TABLE R-SQUARED SPACING: 0.0625
Info: NONBONDED TABLE SIZE: 705 POINTS
TCL: Running for 1500000 steps
ETITLE: TS BOND ANGLE DIHED IMPRP ELECT VDW BOUNDARY MISC KINETIC TOTAL TEMP POTENTIAL TOTALAVG TEMPAVG PRESSURE GPRESSURE VOLUME PRESSAVG GPRESSAVG
ENERGY: 0 0.8384 3.5946 2.8459 0.0000 -10567.9661 1441.5236 0.0000 0.0000 1705.0194 -7414.1442 295.0498 -9119.1636 -7414.1442 295.0498 196.2467 264.8836 29560.4605 196.2467 264.8836
ENERGY: 300000 0.7411 2.3349 1.0956 0.0000 -10536.2263 1415.5413 0.0000 0.0000 1803.1055 -7313.4079 312.0234 -9116.5134 -7348.9760 303.0108 35.5476 53.2305 30051.0880 -134.4798 -88.1996
ENERGY: 600000 0.7084 0.9934 2.4344 0.0000 -10537.3299 1391.2302 0.0000 0.0000 1726.9577 -7415.0059 298.8462 -9141.9636 -7361.5586 301.1154 -417.9871 -387.0091 30227.1983 -3.2008 45.5826
ENERGY: 900000 1.3906 1.9804 2.6052 0.0000 -10477.5708 1352.6580 0.0000 0.0000 1731.5852 -7387.3513 299.6469 -9118.9365 -7367.7510 301.0958 -694.7383 -667.2795 30365.9752 -6.9598 42.4660
ENERGY: 1200000 0.5279 1.7607 2.4294 0.0000 -10585.6870 1423.1426 0.0000 0.0000 1750.8624 -7406.9641 302.9828 -9157.8265 -7373.8038 300.4745 -53.0547 13.2023 29831.4618 -62.8937 -9.5729
ENERGY: 1500000 1.0167 2.5401 1.2612 0.0000 -10615.2625 1448.4928 0.0000 0.0000 1722.6348 -7439.3169 298.0981 -9161.9517 -7381.3727 299.7558 -25.5239 72.2618 30117.3619 -55.9453 -2.0532
TCL: Running FEP window  14: Lambda1 0.34999999999999964 Lambda2 0.29999999999999966 [dLambda -0.04999999999999999]
TCL: Setting parameter firsttimestep to 0
TCL: Setting parameter alchLambda to 0.34999999999999964
Info: NONBONDED TABLE R-SQUARED SPACING: 0.0625
Info: NONBONDED TABLE SIZE: 705 POINTS
TCL: Setting parameter alchLambda2 to 0.29999999999999966
Info: NONBONDED TABLE R-SQUARED SPACING: 0.0625
Info: NONBONDED TABLE SIZE: 705 POINTS
TCL: Running for 1500000 steps
ETITLE: TS BOND ANGLE DIHED IMPRP ELECT VDW BOUNDARY MISC KINETIC TOTAL TEMP POTENTIAL TOTALAVG TEMPAVG PRESSURE GPRESSURE VOLUME PRESSAVG GPRESSAVG
ENERGY: 0 1.0167 2.5401 1.2612 0.0000 -10615.2611 1448.6381 0.0000 0.0000 1721.7698 -7440.0352 297.9484 -9161.8050 -7440.0352 297.9484 -13.7358 69.4799 30117.3619 -13.7358 69.4799
ENERGY: 300000 1.3667 2.8734 2.7461 0.0000 -10490.1715 1376.6641 0.0000 0.0000 1741.6994 -7364.8217 301.3972 -9106.5211 -7415.1161 296.1921 68.3936 122.9460 29529.4297 -25.9861 19.1126
ENERGY: 600000 0.1772 2.0087 2.6547 0.0000 -10473.2645 1342.4280 0.0000 0.0000 1727.8173 -7398.1786 298.9949 -9125.9960 -7420.1069 296.3554 -714.1276 -580.2979 29923.3585 -201.9174 -142.9439
ENERGY: 900000 0.0221 5.3585 2.6545 0.0000 -10659.3394 1533.2535 0.0000 0.0000 1715.6907 -7402.3601 296.8964 -9118.0507 -7420.9965 295.3101 912.9439 969.1316 29801.1706 -12.8478 39.3966
ENERGY: 1200000 1.7836 2.0157 2.8771 0.0000 -10598.1767 1468.9494 0.0000 0.0000 1714.2950 -7408.2559 296.6549 -9122.5510 -7420.3879 295.3452 364.1670 475.0395 29805.2440 -60.9899 -2.1659
ENERGY: 1500000 0.8648 1.3771 2.3746 0.0000 -10493.4279 1343.7028 0.0000 0.0000 1738.1298 -7406.9788 300.7795 -9145.1086 -7415.8005 296.5303 -532.1724 -515.4363 29687.7390 -44.1181 11.6711
TCL: Running FEP window  15: Lambda1 0.29999999999999966 Lambda2 0.24999999999999967 [dLambda -0.04999999999999999]
TCL: Setting parameter firsttimestep to 0
TCL: Setting parameter alchLambda to 0.29999999999999966
Info: NONBONDED TABLE R-SQUARED SPACING: 0.0625
Info: NONBONDED TABLE SIZE: 705 POINTS
TCL: Setting parameter alchLambda2 to 0.24999999999999967
Info: NONBONDED TABLE R-SQUARED SPACING: 0.0625
Info: NONBONDED TABLE SIZE: 705 POINTS
TCL: Running for 1500000 steps
ETITLE: TS BOND ANGLE DIHED IMPRP ELECT VDW BOUNDARY MISC KINETIC TOTAL TEMP POTENTIAL TOTALAVG TEMPAVG PRESSURE GPRESSURE VOLUME PRESSAVG GPRESSAVG
ENERGY: 0 0.8648 1.3771 2.3746 0.0000 -10493.4273 1343.8279 0.0000 0.0000 1737.2673 -7407.7156 300.6302 -9144.9829 -7407.7156 300.6302 -606.1227 -517.2189 29687.7390 -606.1227 -517.2189
ENERGY: 300000 0.4766 2.0038 2.1871 0.0000 -10597.3343 1470.0833 0.0000 0.0000 1789.5519 -7333.0317 309.6779 -9122.5836 -7384.9568 304.5095 526.9768 585.0604 29651.3983 -291.3996 -231.4429
ENERGY: 600000 2.7768 3.6544 2.8958 0.0000 -10761.3131 1549.1606 0.0000 0.0000 1721.0851 -7481.7404 297.8299 -9202.8255 -7379.8643 304.7462 828.9555 944.7876 29478.4477 -122.7706 -54.8272
ENERGY: 900000 0.2586 1.2240 1.1637 0.0000 -10508.0174 1404.4509 0.0000 0.0000 1703.8096 -7397.1106 294.8404 -9100.9202 -7384.6967 304.2000 -141.6499 -100.9328 29941.4076 3.5422 68.0755
ENERGY: 1200000 0.4142 3.8883 3.0090 0.0000 -10567.1637 1410.7769 0.0000 0.0000 1793.0236 -7356.0517 310.2787 -9149.0753 -7385.8840 303.9498 -257.6663 -260.2481 30224.9209 31.4589 99.7455
ENERGY: 1500000 0.4501 2.1445 2.4163 0.0000 -10610.9318 1475.6595 0.0000 0.0000 1729.4299 -7400.8315 299.2740 -9130.2614 -7388.2295 302.5897 356.0440 424.7520 30062.9157 16.8332 82.9246
TCL: Running FEP window  16: Lambda1 0.24999999999999967 Lambda2 0.19999999999999968 [dLambda -0.04999999999999999]
TCL: Setting parameter firsttimestep to 0
TCL: Setting parameter alchLambda to 0.24999999999999967
Info: NONBONDED TABLE R-SQUARED SPACING: 0.0625
Info: NONBONDED TABLE SIZE: 705 POINTS
TCL: Setting parameter alchLambda2 to 0.19999999999999968
Info: NONBONDED TABLE R-SQUARED SPACING: 0.0625
Info: NONBONDED TABLE SIZE: 705 POINTS
TCL: Running for 1500000 steps
ETITLE: TS BOND ANGLE DIHED IMPRP ELECT VDW BOUNDARY MISC KINETIC TOTAL TEMP POTENTIAL TOTALAVG TEMPAVG PRESSURE GPRESSURE VOLUME PRESSAVG GPRESSAVG
ENERGY: 0 0.4501 2.1445 2.4163 0.0000 -10610.9330 1475.5743 0.0000 0.0000 1728.5649 -7401.7829 299.1243 -9130.3478 -7401.7829 299.1243 341.8729 422.3444 30062.9157 341.8729 422.3444
ENERGY: 300000 0.0655 2.0454 1.0088 0.0000 -10625.1069 1452.1340 0.0000 0.0000 1674.9387 -7494.9144 289.8444 -9169.8532 -7436.8124 296.1229 -185.6007 -92.5660 30230.0112 492.7814 575.3298
ENERGY: 600000 1.3237 3.3727 0.9359 0.0000 -10538.3193 1428.6147 0.0000 0.0000 1753.8344 -7350.2381 303.4971 -9104.0725 -7416.1488 299.0711 176.6148 233.3307 29967.1354 229.3555 330.1371
ENERGY: 900000 0.7911 2.0819 1.1286 0.0000 -10497.4656 1418.1685 0.0000 0.0000 1722.5807 -7352.7148 298.0887 -9075.2955 -7407.3269 299.2548 41.6152 125.3434 29969.5298 220.3914 309.5776
ENERGY: 1200000 0.9817 4.2842 2.6100 0.0000 -10399.3823 1326.9986 0.0000 0.0000 1676.9866 -7387.5212 290.1988 -9064.5078 -7398.2815 299.7262 -670.7165 -564.8369 29907.1760 158.4022 242.8075
ENERGY: 1500000 1.0491 5.7943 3.0504 0.0000 -10468.0581 1345.9573 0.0000 0.0000 1711.4443 -7400.7627 296.1616 -9112.2070 -7403.7080 298.4004 -598.0231 -407.8916 29857.7022 96.7869 185.4715
TCL: Running FEP window  17: Lambda1 0.19999999999999968 Lambda2 0.1499999999999997 [dLambda -0.04999999999999999]
TCL: Setting parameter firsttimestep to 0
TCL: Setting parameter alchLambda to 0.19999999999999968
Info: NONBONDED TABLE R-SQUARED SPACING: 0.0625
Info: NONBONDED TABLE SIZE: 705 POINTS
TCL: Setting parameter alchLambda2 to 0.1499999999999997
Info: NONBONDED TABLE R-SQUARED SPACING: 0.0625
Info: NONBONDED TABLE SIZE: 705 POINTS
TCL: Running for 1500000 steps
ETITLE: TS BOND ANGLE DIHED IMPRP ELECT VDW BOUNDARY MISC KINETIC TOTAL TEMP POTENTIAL TOTALAVG TEMPAVG PRESSURE GPRESSURE VOLUME PRESSAVG GPRESSAVG
ENERGY: 0 1.0491 5.7943 3.0504 0.0000 -10468.0584 1345.1878 0.0000 0.0000 1710.5798 -7402.3970 296.0120 -9112.9768 -7402.3970 296.0120 -500.1167 -415.1306 29857.7022 -500.1167 -415.1306
ENERGY: 300000 1.4930 1.5978 1.3781 0.0000 -10515.9393 1406.4889 0.0000 0.0000 1754.4197 -7350.5619 303.5984 -9104.9816 -7350.5224 303.8517 -385.8772 -273.4184 30269.0241 -172.0570 -99.1165
ENERGY: 600000 0.4797 3.6975 3.0229 0.0000 -10721.5479 1495.3855 0.0000 0.0000 1705.0570 -7513.9053 295.0563 -9218.9623 -7388.1912 301.5262 159.8772 190.3195 29831.7820 -196.3132 -130.9614
ENERGY: 900000 0.6490 3.2232 1.1188 0.0000 -10576.1828 1470.7161 0.0000 0.0000 1666.0000 -7434.4758 288.2976 -9100.4758 -7395.5051 299.5815 183.9011 272.7946 30056.9486 -147.6006 -74.7638
ENERGY: 1200000 1.2516 2.2558 1.2296 0.0000 -10590.4004 1404.1811 0.0000 0.0000 1792.2902 -7389.1920 310.1518 -9181.4823 -7396.9310 300.3057 -267.1398 -194.4441 29473.2247 -61.4398 7.8864
ENERGY: 1500000 0.1821 2.5099 1.1552 0.0000 -10455.7297 1392.1966 0.0000 0.0000 1731.0999 -7328.5860 299.5630 -9059.6859 -7394.7755 299.4353 -77.4422 10.5878 29928.0888 -23.7911 39.1854
TCL: Running FEP window  18: Lambda1 0.1499999999999997 Lambda2 0.09999999999999969 [dLambda -0.05 ]
TCL: Setting parameter firsttimestep to 0
TCL: Setting parameter alchLambda to 0.1499999999999997
Info: NONBONDED TABLE R-SQUARED SPACING: 0.0625
Info: NONBONDED TABLE SIZE: 705 POINTS
TCL: Setting parameter alchLambda2 to 0.09999999999999969
Info: NONBONDED TABLE R-SQUARED SPACING: 0.0625
Info: NONBONDED TABLE SIZE: 705 POINTS
TCL: Running for 1500000 steps
ETITLE: TS BOND ANGLE DIHED IMPRP ELECT VDW BOUNDARY MISC KINETIC TOTAL TEMP POTENTIAL TOTALAVG TEMPAVG PRESSURE GPRESSURE VOLUME PRESSAVG GPRESSAVG
ENERGY: 0 0.1821 2.5099 1.1552 0.0000 -10455.7312 1392.5552 0.0000 0.0000 1730.2306 -7329.0982 299.4125 -9059.3288 -7329.0982 299.4125 -81.7774 6.6571 29928.0888 -81.7774 6.6571
ENERGY: 300000 0.0929 5.7218 2.5905 0.0000 -10362.4926 1374.0425 0.0000 0.0000 1743.5441 -7236.5009 301.7164 -8980.0450 -7331.1311 298.7138 92.0205 139.3775 29900.9982 -133.3033 -73.0128
ENERGY: 600000 1.4582 1.2325 2.4494 0.0000 -10557.1659 1448.2455 0.0000 0.0000 1756.2300 -7347.5503 303.9117 -9103.7803 -7358.0775 299.1296 414.1229 578.2287 29359.2210 21.7524 81.4589
ENERGY: 900000 1.3650 4.6401 1.0231 0.0000 -10474.4074 1448.3759 0.0000 0.0000 1681.4797 -7337.5236 290.9763 -9019.0033 -7360.7753 299.6114 351.0734 409.3977 30162.2901 141.0832 199.3837
ENERGY: 1200000 1.5435 3.2608 1.3966 0.0000 -10447.5340 1373.3204 0.0000 0.0000 1717.4242 -7350.5884 297.1964 -9068.0126 -7357.9009 299.5539 -384.4326 -315.8287 29963.1678 19.0472 78.2597
ENERGY: 1500000 0.2035 2.5933 1.0267 0.0000 -10565.9082 1454.9468 0.0000 0.0000 1786.9907 -7320.1474 309.2347 -9107.1380 -7352.6267 301.3201 358.2529 351.8925 29810.2377 13.4766 74.0527
TCL: Running FEP window  19: Lambda1 0.09999999999999969 Lambda2 0.049999999999999684 [dLambda -0.05 ]
TCL: Setting parameter firsttimestep to 0
TCL: Setting parameter alchLambda to 0.09999999999999969
Info: NONBONDED TABLE R-SQUARED SPACING: 0.0625
Info: NONBONDED TABLE SIZE: 705 POINTS
TCL: Setting parameter alchLambda2 to 0.049999999999999684
Info: NONBONDED TABLE R-SQUARED SPACING: 0.0625
Info: NONBONDED TABLE SIZE: 705 POINTS
TCL: Running for 1500000 steps
ETITLE: TS BOND ANGLE DIHED IMPRP ELECT VDW BOUNDARY MISC KINETIC TOTAL TEMP POTENTIAL TOTALAVG TEMPAVG PRESSURE GPRESSURE VOLUME PRESSAVG GPRESSAVG
ENERGY: 0 0.2035 2.5933 1.0267 0.0000 -10565.9077 1454.9079 0.0000 0.0000 1786.1529 -7321.0234 309.0898 -9107.1764 -7321.0234 309.0898 272.7161 350.3138 29810.2377 272.7161 350.3138
ENERGY: 300000 0.2484 2.3037 1.5611 0.0000 -10592.4020 1454.6877 0.0000 0.0000 1741.3561 -7392.2449 301.3378 -9133.6010 -7356.3235 301.7580 465.6585 525.1839 29262.9195 187.1124 243.0748
ENERGY: 600000 0.3228 2.7093 1.4012 0.0000 -10578.0590 1426.2074 0.0000 0.0000 1706.6581 -7440.7602 295.3334 -9147.4183 -7391.0922 300.0898 185.4881 162.5143 29649.1242 154.2526 186.3319
ENERGY: 900000 1.7335 2.5380 2.3971 0.0000 -10584.0807 1459.2793 0.0000 0.0000 1694.2789 -7423.8538 293.1912 -9118.1328 -7391.8085 299.8673 187.9612 207.9516 30050.6127 20.4019 54.0788
ENERGY: 1200000 1.7729 3.1852 1.1279 0.0000 -10468.6444 1403.2913 0.0000 0.0000 1787.4812 -7271.7858 309.3196 -9059.2670 -7386.1955 299.9732 -206.1280 -74.9369 30128.4897 -50.5283 -2.8524
ENERGY: 1500000 1.2011 2.4060 2.4426 0.0000 -10532.4852 1391.8133 0.0000 0.0000 1694.0119 -7440.6104 293.1450 -9134.6222 -7384.0564 299.7029 -177.6700 -46.9570 29459.3618 -69.2257 -19.9618
TCL: Running FEP window  20: Lambda1 0.049999999999999684 Lambda2 0.0    [dLambda -0.049999999999999684]
TCL: Setting parameter firsttimestep to 0
TCL: Setting parameter alchLambda to 0.049999999999999684
Info: NONBONDED TABLE R-SQUARED SPACING: 0.0625
Info: NONBONDED TABLE SIZE: 705 POINTS
TCL: Setting parameter alchLambda2 to 0.0
Info: NONBONDED TABLE R-SQUARED SPACING: 0.0625
Info: NONBONDED TABLE SIZE: 705 POINTS
TCL: Running for 1500000 steps
ETITLE: TS BOND ANGLE DIHED IMPRP ELECT VDW BOUNDARY MISC KINETIC TOTAL TEMP POTENTIAL TOTALAVG TEMPAVG PRESSURE GPRESSURE VOLUME PRESSAVG GPRESSAVG
ENERGY: 0 1.2011 2.4060 2.4426 0.0000 -10532.4836 1390.5100 0.0000 0.0000 1693.1261 -7442.7978 292.9917 -9135.9239 -7442.7978 292.9917 -133.3443 -49.4581 29459.3618 -133.3443 -49.4581
ENERGY: 300000 2.5925 2.9705 2.4300 0.0000 -10627.7197 1403.5825 0.0000 0.0000 1707.7148 -7508.4294 295.5162 -9216.1442 -7436.0672 297.2270 -517.1129 -410.9006 29623.8765 -215.8900 -137.4965
ENERGY: 600000 0.9788 1.9294 3.1061 0.0000 -10467.2687 1401.8661 0.0000 0.0000 1754.5953 -7304.7929 303.6288 -9059.3883 -7389.5155 300.4819 62.6224 116.7375 30036.0321 -99.1466 -22.3640
ENERGY: 900000 0.6048 2.7451 2.2040 0.0000 -10459.5391 1362.1507 0.0000 0.0000 1731.3308 -7360.5037 299.6029 -9091.8344 -7385.6453 299.1355 -442.9911 -436.8424 30097.1938 -14.7689 53.2052
ENERGY: 1200000 2.1891 4.9014 2.6808 0.0000 -10486.8780 1364.9693 0.0000 0.0000 1646.1347 -7466.0027 284.8599 -9112.1374 -7397.8399 297.7917 -613.3006 -525.0414 29990.4901 21.6434 91.9425
ENERGY: 1500000 0.2689 4.8810 3.1637 0.0000 -10442.6923 1351.1705 0.0000 0.0000 1780.1575 -7303.0507 308.0523 -9083.2082 -7391.9077 299.1154 -624.6714 -579.1969 30246.1213 -28.8894 38.0333
TCL: Exiting due to exit command.
