Info: SIMULATION PARAMETERS:
Info: TIMESTEP               2
Info: NUMBER OF STEPS        0
Info: STEPS PER CYCLE        10
Info: PERIODIC CELL BASIS 1  32.7265 0 0
Info: PERIODIC CELL BASIS 2  0 32.2664 0
Info: PERIODIC CELL BASIS 3  0 0 28.0748
Info: PERIODIC CELL CENTER   0 0 0
Info: WRAPPING WATERS AROUND PERIODIC BOUNDARIES ON OUTPUT.
Info: WRAPPING ALL CLUSTERS AROUND PERIODIC BOUNDARIES ON OUTPUT.
Info: FIRST LDB TIMESTEP     50
Info: LAST LDB TIMESTEP     -1
Info: HOM BACKGROUND SCALING 1
Info: PME BACKGROUND SCALING 1
Info: MIN ATOMS PER PATCH    40
Info: EMPTY PATCH LOAD       40 ATOMS
Info: VELOCITY FILE          mobley_3264884_equil.vel
Info: CENTER OF MASS MOVING INITIALLY? NO
Info: DIELECTRIC             1
Info: EXCLUDE                SCALED ONE-FOUR
Info: 1-4 ELECTROSTATICS SCALED BY 0.833333
Info: MODIFIED 1-4 VDW PARAMETERS WILL BE USED
Info: DCD FILENAME           mobley_3264884_prod.dcd
Info: DCD FREQUENCY          100000
Info: DCD FIRST STEP         100000
Info: DCD FILE WILL CONTAIN UNIT CELL DATA
Info: XST FILENAME           mobley_3264884_prod.xst
Info: XST FREQUENCY          100000
Info: NO VELOCITY DCD OUTPUT
Info: NO FORCE DCD OUTPUT
Info: OUTPUT FILENAME        mobley_3264884_prod
Info: BINARY OUTPUT FILES WILL BE USED
Info: RESTART FILENAME       mobley_3264884_prod.restart
Info: RESTART FREQUENCY      100000
Info: BINARY RESTART FILES WILL BE USED
Info: CUTOFF                 9
Info: PAIRLIST DISTANCE      11
Info: PAIRLIST SHRINK RATE   0.01
Info: PAIRLIST GROW RATE     0.01
Info: PAIRLIST TRIGGER       0.3
Info: PAIRLISTS PER CYCLE    2
Info: PAIRLISTS ENABLED
Info: MARGIN                 2
Info: HYDROGEN GROUP CUTOFF  2.5
Info: PATCH DIMENSION        15.5
Info: ENERGY OUTPUT STEPS    100000
Info: ENERGY EVALUATION STEPS    100000
Info: OUTPUT ENERGY PRECISION 4
Info: CROSSTERM ENERGY INCLUDED IN DIHEDRAL
Info: TIMING OUTPUT STEPS    1000000
Info: PRESSURE OUTPUT STEPS  100000
Info: ALCHEMICAL FEP ON
Info: FEP CURRENT LAMBDA VALUE     0
Info: FEP COMPARISON LAMBDA VALUE  0.05
Info: FEP INTRA-ALCHEMICAL NON-BONDED INTERACTIONS WILL BE RETAINED
Info: FEP INTRA-ALCHEMICAL BONDED INTERACTIONS WILL BE RETAINED
Info: FEP VDW SHIFTING COEFFICIENT 5
Info: FEP ELEC. ACTIVE FOR ANNIHILATED PARTICLES BETWEEN LAMBDA = 0 AND LAMBDA = 0.5
Info: FEP ELEC. ACTIVE FOR EXNIHILATED PARTICLES BETWEEN LAMBDA = 0.5 AND LAMBDA = 1
Info: FEP VDW ACTIVE FOR ANNIHILATED PARTICLES BETWEEN LAMBDA = 0 AND LAMBDA = 1
Info: FEP VDW ACTIVE FOR EXNIHILATED PARTICLES BETWEEN LAMBDA = 0 AND LAMBDA = 1
Info: FEP BOND ACTIVE FOR ANNIHILATED PARTICLES BETWEEN LAMBDA = 1 AND LAMBDA = 1
Info: FEP BOND ACTIVE FOR EXNIHILATED PARTICLES BETWEEN LAMBDA = 0 AND LAMBDA = 0
Info: LANGEVIN DYNAMICS ACTIVE
Info: LANGEVIN TEMPERATURE   300
Info: LANGEVIN USING BBK INTEGRATOR
Info: LANGEVIN DAMPING COEFFICIENT IS 1 INVERSE PS
Info: LANGEVIN DYNAMICS APPLIED TO HYDROGENS
Info: LANGEVIN PISTON PRESSURE CONTROL ACTIVE
Info:        TARGET PRESSURE IS 1.01325 BAR
Info:     OSCILLATION PERIOD IS 50 FS
Info:             DECAY TIME IS 25 FS
Info:     PISTON TEMPERATURE IS 300 K
Info:       PRESSURE CONTROL IS GROUP-BASED
Info:    INITIAL STRAIN RATE IS -0.000449767 -0.000449767 -0.000449767
Info:       CELL FLUCTUATION IS ISOTROPIC
Info: PARTICLE MESH EWALD (PME) ACTIVE
Info: PME TOLERANCE               1e-06
Info: PME EWALD COEFFICIENT       0.348832
Info: PME INTERPOLATION ORDER     4
Info: PME GRID DIMENSIONS         36 36 32
Info: PME MAXIMUM GRID SPACING    1
Info: PME CALCULATION WILL BE PERFORMED ON GPU
Info: FULL ELECTROSTATIC EVALUATION FREQUENCY      2
Info: USING VERLET I (r-RESPA) MTS SCHEME.
Info: C1 SPLITTING OF LONG RANGE ELECTROSTATICS
Info: PLACING ATOMS IN PATCHES BY HYDROGEN GROUPS
Info: RIGID BONDS TO HYDROGEN : ALL
Info:         ERROR TOLERANCE : 1e-08
Info:          MAX ITERATIONS : 100
Info: RIGID WATER USING SETTLE ALGORITHM
Info: RANDOM NUMBER SEED     1743619960
Info: USE HYDROGEN BONDS?    NO
Info: Using AMBER format force field!
Info: AMBER PARM FILE        mobley_3264884.prmtop
Info: COORDINATE PDB         mobley_3264884.pdb
Info: Exclusions will be read from PARM file!
Info: SCNB (VDW SCALING)     2
Info: USING ARITHMETIC MEAN TO COMBINE L-J SIGMA PARAMETERS
Info: BINARY COORDINATES     mobley_3264884_equil.coor
Info: SUMMARY OF PARAMETERS:
Info: 6 BONDS
Info: 5 ANGLES
Info:   5 HARMONIC
Info:   0 COSINE-BASED
Info: 3 DIHEDRAL
Info: 0 IMPROPER
Info: 0 CROSSTERM
Info: 0 VDW
Info: 21 VDW_PAIRS
Info: 0 NBTHOLE_PAIRS
Info: To read alchdata from file: mobley_3264884.pdb
Info: To read alchflag data from column: 5
Info: STRUCTURE SUMMARY:
Info: 2912 ATOMS
Info: 2913 BONDS
Info: 33 ANGLES
Info: 59 DIHEDRALS
Info: 0 IMPROPERS
Info: 0 CROSSTERMS
Info: 2988 EXCLUSIONS
Info: 2901 RIGID BONDS
Info: ALCH: 0 ATOMS TO DISAPPEAR IN FINAL STATE
Info: ALCH: 20 ATOMS TO APPEAR IN FINAL STATE
Info: 5835 DEGREES OF FREEDOM
Info: 975 HYDROGEN GROUPS
Info: 3 ATOMS IN LARGEST HYDROGEN GROUP
Info: 975 MIGRATION GROUPS
Info: 3 ATOMS IN LARGEST MIGRATION GROUP
Info: TOTAL MASS = 17510.6 amu
Info: TOTAL CHARGE = 9.99963e-05 e
Info: MASS DENSITY = 0.980827 g/cm^3
Info: ATOM DENSITY = 0.0982253 atoms/A^3
Info: ADDED 0 IMPLICIT EXCLUSIONS
Info: NONBONDED TABLE R-SQUARED SPACING: 0.0625
Info: NONBONDED TABLE SIZE: 705 POINTS
Info: REDUCING NUMBER OF PATCHES TO IMPROVE LOAD BALANCE
Info: REMOVING COM VELOCITY -0.241237 -0.0139971 -0.0157065
Info: Use 3D box decompostion in PME FFT.
Info: Updated CUDA force table with 4096 elements.
Info: Updated CUDA LJ table with 6 x 6 elements.
Info: Found 21 unique exclusion lists needing 60 bytes
TCL: Running for 1500000 steps
ETITLE: TS BOND ANGLE DIHED IMPRP ELECT VDW BOUNDARY MISC KINETIC TOTAL TEMP POTENTIAL TOTALAVG TEMPAVG PRESSURE GPRESSURE VOLUME PRESSAVG GPRESSAVG
ENERGY: 0 3.9301 8.5486 5.8707 0.0000 -10552.3480 1459.4295 0.0000 0.0000 1704.2664 -7370.3027 293.9592 -9074.5691 -7370.3027 293.9592 407.7689 490.2729 29646.1214 407.7689 490.2729
ENERGY: 300000 3.4533 3.6893 2.2053 0.0000 -10695.7509 1436.5471 0.0000 0.0000 1767.3879 -7482.4680 304.8466 -9249.8560 -7402.0674 298.2952 -409.5686 -358.7627 30031.3089 -168.3264 -115.1061
ENERGY: 600000 7.1902 5.5491 5.4856 0.0000 -10580.2580 1360.2064 0.0000 0.0000 1779.6322 -7422.1944 306.9586 -9201.8266 -7391.0702 300.3265 -639.3048 -574.5803 29315.3493 -134.8613 -81.4299
ENERGY: 900000 5.0807 5.6403 7.1222 0.0000 -10611.4173 1399.5495 0.0000 0.0000 1743.4130 -7450.6116 300.7113 -9194.0246 -7386.6370 301.2072 -604.1638 -544.8842 29832.1019 -219.4004 -161.3142
ENERGY: 1200000 1.7367 5.5401 2.9448 0.0000 -10583.4614 1431.0467 0.0000 0.0000 1738.6203 -7403.5727 299.8847 -9142.1931 -7384.9743 300.7039 -283.2002 -203.0858 30293.1119 -156.5909 -101.0335
ENERGY: 1500000 9.7099 2.6570 4.5920 0.0000 -10621.7782 1441.4826 0.0000 0.0000 1801.3470 -7361.9897 310.7040 -9163.3367 -7389.7507 301.2076 -235.6674 -189.2781 30073.7251 -137.5164 -85.3388
TCL: Running FEP window   2: Lambda1 0.05   Lambda2 0.1    [dLambda 0.05  ]
TCL: Setting parameter firsttimestep to 0
TCL: Setting parameter alchLambda to 0.05
Info: NONBONDED TABLE R-SQUARED SPACING: 0.0625
Info: NONBONDED TABLE SIZE: 705 POINTS
TCL: Setting parameter alchLambda2 to 0.1
Info: NONBONDED TABLE R-SQUARED SPACING: 0.0625
Info: NONBONDED TABLE SIZE: 705 POINTS
TCL: Running for 1500000 steps
ETITLE: TS BOND ANGLE DIHED IMPRP ELECT VDW BOUNDARY MISC KINETIC TOTAL TEMP POTENTIAL TOTALAVG TEMPAVG PRESSURE GPRESSURE VOLUME PRESSAVG GPRESSAVG
ENERGY: 0 9.7099 2.6570 4.5920 0.0000 -10621.7788 1446.1568 0.0000 0.0000 1800.4927 -7358.1705 310.5567 -9158.6632 -7358.1705 310.5567 -268.1452 -178.0843 30073.7251 -268.1452 -178.0843
ENERGY: 300000 2.7547 7.1028 6.9120 0.0000 -10532.4344 1405.0739 0.0000 0.0000 1715.5314 -7395.0594 295.9022 -9110.5909 -7383.1551 303.3273 -474.0788 -340.6461 30133.8188 -322.9314 -241.7762
ENERGY: 600000 1.1273 5.2145 5.5035 0.0000 -10543.7343 1450.0312 0.0000 0.0000 1715.1470 -7366.7109 295.8359 -9081.8579 -7367.4095 302.4374 385.2506 414.6906 29595.6247 -193.4737 -123.3432
ENERGY: 900000 1.7970 4.9592 9.2814 0.0000 -10529.6865 1397.2072 0.0000 0.0000 1782.9663 -7333.4753 307.5337 -9116.4416 -7358.9000 302.7679 -105.7221 -75.6167 30199.6969 -194.8991 -120.3648
ENERGY: 1200000 3.6145 6.4992 5.1644 0.0000 -10587.9386 1385.4446 0.0000 0.0000 1743.8665 -7443.3493 300.7896 -9187.2159 -7369.7893 302.4701 -472.3876 -453.0158 29519.2467 -181.6633 -113.5191
ENERGY: 1500000 4.9071 4.6273 7.4839 0.0000 -10762.2707 1514.5310 0.0000 0.0000 1714.9776 -7515.7437 295.8067 -9230.7213 -7380.5550 301.7376 346.2811 353.1103 29695.9970 -118.5626 -56.5296
TCL: Running FEP window   3: Lambda1 0.1    Lambda2 0.15000000000000002 [dLambda 0.05000000000000002]
TCL: Setting parameter firsttimestep to 0
TCL: Setting parameter alchLambda to 0.1
Info: NONBONDED TABLE R-SQUARED SPACING: 0.0625
Info: NONBONDED TABLE SIZE: 705 POINTS
TCL: Setting parameter alchLambda2 to 0.15000000000000002
Info: NONBONDED TABLE R-SQUARED SPACING: 0.0625
Info: NONBONDED TABLE SIZE: 705 POINTS
TCL: Running for 1500000 steps
ETITLE: TS BOND ANGLE DIHED IMPRP ELECT VDW BOUNDARY MISC KINETIC TOTAL TEMP POTENTIAL TOTALAVG TEMPAVG PRESSURE GPRESSURE VOLUME PRESSAVG GPRESSAVG
ENERGY: 0 4.9071 4.6273 7.4839 0.0000 -10762.2697 1518.7189 0.0000 0.0000 1714.1148 -7512.4177 295.6579 -9226.5325 -7512.4177 295.6579 291.0480 364.7382 29695.9970 291.0480 364.7382
ENERGY: 300000 2.0840 4.2311 7.1792 0.0000 -10504.2366 1403.4940 0.0000 0.0000 1756.6179 -7330.6304 302.9890 -9087.2482 -7383.6161 301.3909 -1.2194 70.9486 29494.4293 -99.8910 -48.5281
ENERGY: 600000 3.8503 4.9717 4.5637 0.0000 -10519.0179 1375.9225 0.0000 0.0000 1730.7955 -7398.9142 298.5350 -9129.7097 -7377.6859 301.5651 -659.6969 -593.2961 30269.7540 -74.9943 -17.2542
ENERGY: 900000 4.1827 5.7678 10.0602 0.0000 -10580.3233 1405.5827 0.0000 0.0000 1767.7412 -7386.9887 304.9076 -9154.7299 -7375.2126 302.6649 -58.1349 -28.5477 29499.5880 -181.0704 -126.3170
ENERGY: 1200000 2.5815 8.1589 3.7119 0.0000 -10704.8928 1477.4763 0.0000 0.0000 1737.4671 -7475.4970 299.6858 -9212.9641 -7380.3875 301.5089 188.8998 236.5070 29747.5012 -90.2835 -33.5642
ENERGY: 1500000 4.8108 8.7419 4.3007 0.0000 -10389.5525 1354.8097 0.0000 0.0000 1763.4970 -7253.3922 304.1755 -9016.8892 -7370.2750 302.1865 -339.5643 -232.3092 30064.6837 -42.1422 15.4004
TCL: Running FEP window   4: Lambda1 0.15000000000000002 Lambda2 0.2    [dLambda 0.04999999999999999]
TCL: Setting parameter firsttimestep to 0
TCL: Setting parameter alchLambda to 0.15000000000000002
Info: NONBONDED TABLE R-SQUARED SPACING: 0.0625
Info: NONBONDED TABLE SIZE: 705 POINTS
TCL: Setting parameter alchLambda2 to 0.2
Info: NONBONDED TABLE R-SQUARED SPACING: 0.0625
Info: NONBONDED TABLE SIZE: 705 POINTS
TCL: Running for 1500000 steps
ETITLE: TS BOND ANGLE DIHED IMPRP ELECT VDW BOUNDARY MISC KINETIC TOTAL TEMP POTENTIAL TOTALAVG TEMPAVG PRESSURE GPRESSURE VOLUME PRESSAVG GPRESSAVG
ENERGY: 0 4.8108 8.7419 4.3007 0.0000 -10389.5548 1354.9891 0.0000 0.0000 1762.6405 -7254.0716 304.0278 -9016.7121 -7254.0716 304.0278 -322.9784 -226.5526 30064.6837 -322.9784 -226.5526
ENERGY: 300000 4.0392 4.3918 6.1663 0.0000 -10648.8355 1454.1308 0.0000 0.0000 1756.2925 -7423.8150 302.9328 -9180.1074 -7374.6839 299.8183 140.5327 189.6022 29643.4709 -266.1402 -175.3063
ENERGY: 600000 3.8907 6.8723 2.5203 0.0000 -10436.7397 1377.8823 0.0000 0.0000 1701.8202 -7343.7539 293.5372 -9045.5740 -7381.3528 297.4216 -379.8041 -285.2594 30362.6200 -237.0889 -145.7862
ENERGY: 900000 6.8826 6.0195 4.9909 0.0000 -10482.7610 1376.0901 0.0000 0.0000 1756.6615 -7332.1165 302.9965 -9088.7780 -7385.8612 296.6486 -358.8866 -264.7109 29533.0401 -352.8761 -271.6342
ENERGY: 1200000 2.9556 4.5644 7.7396 0.0000 -10417.1676 1378.9265 0.0000 0.0000 1766.0269 -7256.9546 304.6119 -9022.9815 -7371.2303 298.0313 -381.8890 -297.9758 30277.6705 -312.9617 -230.5777
ENERGY: 1500000 2.0411 5.7124 6.2460 0.0000 -10512.3301 1432.2732 0.0000 0.0000 1700.4508 -7365.6067 293.3010 -9066.0575 -7365.7850 298.3695 268.4885 321.1667 29992.1702 -292.1340 -213.7043
TCL: Running FEP window   5: Lambda1 0.2    Lambda2 0.25   [dLambda 0.04999999999999999]
TCL: Setting parameter firsttimestep to 0
TCL: Setting parameter alchLambda to 0.2
Info: NONBONDED TABLE R-SQUARED SPACING: 0.0625
Info: NONBONDED TABLE SIZE: 705 POINTS
TCL: Setting parameter alchLambda2 to 0.25
Info: NONBONDED TABLE R-SQUARED SPACING: 0.0625
Info: NONBONDED TABLE SIZE: 705 POINTS
TCL: Running for 1500000 steps
ETITLE: TS BOND ANGLE DIHED IMPRP ELECT VDW BOUNDARY MISC KINETIC TOTAL TEMP POTENTIAL TOTALAVG TEMPAVG PRESSURE GPRESSURE VOLUME PRESSAVG GPRESSAVG
ENERGY: 0 2.0411 5.7123 6.2460 0.0000 -10512.3304 1432.4875 0.0000 0.0000 1699.6245 -7366.2190 293.1585 -9065.8435 -7366.2190 293.1585 251.4890 327.9726 29992.1702 251.4890 327.9726
ENERGY: 300000 5.6369 5.5973 8.1008 0.0000 -10515.9326 1409.1500 0.0000 0.0000 1759.4350 -7328.0126 303.4749 -9087.4477 -7377.2735 300.5111 -119.1112 -36.7680 29676.5553 223.1459 296.0587
ENERGY: 600000 3.5373 5.1617 2.3843 0.0000 -10480.2252 1371.8641 0.0000 0.0000 1748.3680 -7348.9097 301.5660 -9097.2778 -7385.5310 299.4419 -233.3683 -189.9273 29676.7568 22.0223 84.0170
ENERGY: 900000 5.1512 3.6273 7.8019 0.0000 -10459.7246 1380.0026 0.0000 0.0000 1804.2953 -7258.8463 311.2126 -9063.1416 -7376.3936 299.8515 -233.1412 -201.4805 30148.5197 -106.7649 -36.5646
ENERGY: 1200000 4.8850 4.2430 6.4697 0.0000 -10543.0652 1439.1939 0.0000 0.0000 1703.8319 -7384.4415 293.8842 -9088.2734 -7379.8677 300.1950 144.5712 244.1561 29745.1616 -61.0917 14.1135
ENERGY: 1500000 3.6423 8.5194 4.1257 0.0000 -10580.0723 1407.6201 0.0000 0.0000 1724.0673 -7432.0976 297.3745 -9156.1649 -7385.2391 299.9777 -93.3580 -56.1655 29905.0924 -96.0226 -26.1961
TCL: Running FEP window   6: Lambda1 0.25   Lambda2 0.3    [dLambda 0.04999999999999999]
TCL: Setting parameter firsttimestep to 0
TCL: Setting parameter alchLambda to 0.25
Info: NONBONDED TABLE R-SQUARED SPACING: 0.0625
Info: NONBONDED TABLE SIZE: 705 POINTS
TCL: Setting parameter alchLambda2 to 0.3
Info: NONBONDED TABLE R-SQUARED SPACING: 0.0625
Info: NONBONDED TABLE SIZE: 705 POINTS
TCL: Running for 1500000 steps
ETITLE: TS BOND ANGLE DIHED IMPRP ELECT VDW BOUNDARY MISC KINETIC TOTAL TEMP POTENTIAL TOTALAVG TEMPAVG PRESSURE GPRESSURE VOLUME PRESSAVG GPRESSAVG
ENERGY: 0 3.6423 8.5194 4.1257 0.0000 -10580.0727 1408.1929 0.0000 0.0000 1723.2160 -7432.3764 297.2277 -9155.5924 -7432.3764 297.2277 -123.7591 -49.1346 29905.0924 -123.7591 -49.1346
ENERGY: 300000 4.5323 2.9513 3.9058 0.0000 -10413.5975 1356.7529 0.0000 0.0000 1763.5547 -7281.9004 304.1855 -9045.4551 -7353.1681 301.5195 -540.6783 -531.3566 30257.9776 -116.5303 -75.3882
ENERGY: 600000 3.2909 4.2150 7.0478 0.0000 -10580.6753 1488.6938 0.0000 0.0000 1697.4927 -7379.9352 292.7908 -9077.4279 -7370.9692 299.3225 564.1327 599.6294 29689.7877 -111.4533 -60.8255
ENERGY: 900000 3.1331 4.2906 5.0565 0.0000 -10610.2437 1482.8366 0.0000 0.0000 1791.9450 -7322.9819 309.0823 -9114.9269 -7367.3748 299.6459 363.0131 440.5290 30187.8850 -110.4639 -57.3347
ENERGY: 1200000 5.5659 10.0633 3.9130 0.0000 -10646.1145 1442.9704 0.0000 0.0000 1757.9300 -7425.6718 303.2153 -9183.6019 -7375.1181 299.8335 -132.7535 -41.5114 29744.1379 -116.5491 -56.6474
ENERGY: 1500000 4.7173 4.8206 2.8754 0.0000 -10427.3476 1392.9591 0.0000 0.0000 1740.9078 -7281.0673 300.2792 -9021.9751 -7373.4418 299.8927 -190.7567 -199.6067 30297.6980 -127.8072 -73.8299
TCL: Running FEP window   7: Lambda1 0.3    Lambda2 0.35   [dLambda 0.04999999999999999]
TCL: Setting parameter firsttimestep to 0
TCL: Setting parameter alchLambda to 0.3
Info: NONBONDED TABLE R-SQUARED SPACING: 0.0625
Info: NONBONDED TABLE SIZE: 705 POINTS
TCL: Setting parameter alchLambda2 to 0.35
Info: NONBONDED TABLE R-SQUARED SPACING: 0.0625
Info: NONBONDED TABLE SIZE: 705 POINTS
TCL: Running for 1500000 steps
ETITLE: TS BOND ANGLE DIHED IMPRP ELECT VDW BOUNDARY MISC KINETIC TOTAL TEMP POTENTIAL TOTALAVG TEMPAVG PRESSURE GPRESSURE VOLUME PRESSAVG GPRESSAVG
ENERGY: 0 4.7173 4.8206 2.8754 0.0000 -10427.3471 1394.1158 0.0000 0.0000 1740.0581 -7280.7598 300.1327 -9020.8179 -7280.7598 300.1327 -260.0758 -191.3424 30297.6980 -260.0758 -191.3424
ENERGY: 300000 5.2689 3.4828 4.5206 0.0000 -10477.0946 1353.8166 0.0000 0.0000 1760.9792 -7349.0265 303.7412 -9110.0057 -7354.4125 300.8943 -252.2517 -233.0379 29653.7307 -80.6141 -16.8861
ENERGY: 600000 2.8704 8.2258 6.0779 0.0000 -10513.6386 1403.0718 0.0000 0.0000 1736.8682 -7356.5245 299.5825 -9093.3926 -7357.5754 300.0390 105.8119 89.8200 29939.5696 -94.6226 -45.1253
ENERGY: 900000 6.1863 6.3544 5.4739 0.0000 -10575.0179 1449.6076 0.0000 0.0000 1728.1041 -7379.2917 298.0708 -9107.3958 -7362.5777 299.8319 137.8885 238.3658 29585.8957 17.0050 73.7945
ENERGY: 1200000 2.4524 4.1864 3.0376 0.0000 -10588.1585 1438.1812 0.0000 0.0000 1738.1118 -7402.1891 299.7970 -9140.3008 -7379.4201 299.3377 -28.9071 25.8831 30232.6605 -69.9053 -11.7235
ENERGY: 1500000 6.4267 5.1680 3.7579 0.0000 -10515.1978 1394.7380 0.0000 0.0000 1751.3548 -7353.7525 302.0812 -9105.1072 -7383.2280 299.2362 -229.6391 -204.9420 29978.0471 -127.2093 -78.9088
TCL: Running FEP window   8: Lambda1 0.35   Lambda2 0.39999999999999997 [dLambda 0.04999999999999999]
TCL: Setting parameter firsttimestep to 0
TCL: Setting parameter alchLambda to 0.35
Info: NONBONDED TABLE R-SQUARED SPACING: 0.0625
Info: NONBONDED TABLE SIZE: 705 POINTS
TCL: Setting parameter alchLambda2 to 0.39999999999999997
Info: NONBONDED TABLE R-SQUARED SPACING: 0.0625
Info: NONBONDED TABLE SIZE: 705 POINTS
TCL: Running for 1500000 steps
ETITLE: TS BOND ANGLE DIHED IMPRP ELECT VDW BOUNDARY MISC KINETIC TOTAL TEMP POTENTIAL TOTALAVG TEMPAVG PRESSURE GPRESSURE VOLUME PRESSAVG GPRESSAVG
ENERGY: 0 6.4267 5.1680 3.7579 0.0000 -10515.1968 1394.6764 0.0000 0.0000 1750.5049 -7354.6628 301.9346 -9105.1677 -7354.6628 301.9346 -279.8863 -201.0127 29978.0471 -279.8863 -201.0127
ENERGY: 300000 3.6796 3.4365 5.2931 0.0000 -10443.7441 1390.1948 0.0000 0.0000 1746.4074 -7294.7328 301.2278 -9041.1402 -7344.6657 300.8847 -359.4854 -289.5413 30533.4381 -179.6728 -86.3063
ENERGY: 600000 3.4896 5.9143 6.4671 0.0000 -10596.9015 1439.0853 0.0000 0.0000 1729.8845 -7412.0606 298.3779 -9141.9452 -7374.3590 299.5256 -47.3313 74.5250 29831.4815 -63.4600 27.1620
ENERGY: 900000 4.2218 5.0406 10.4154 0.0000 -10377.9025 1319.9560 0.0000 0.0000 1720.7634 -7317.5053 296.8046 -9038.2687 -7363.7138 299.4611 -805.5464 -673.4192 30049.8458 -150.0176 -57.9451
ENERGY: 1200000 4.2813 6.8444 7.6003 0.0000 -10537.2885 1426.9062 0.0000 0.0000 1730.0153 -7361.6411 298.4004 -9091.6564 -7360.5873 301.2293 81.3156 61.6634 30009.4393 -65.9966 7.7620
ENERGY: 1500000 2.8747 4.5675 5.6990 0.0000 -10568.2176 1425.1000 0.0000 0.0000 1736.8629 -7393.1135 299.5816 -9129.9764 -7356.5735 300.9288 -68.8308 8.1142 29771.5999 -83.5812 -10.1970
TCL: Running FEP window   9: Lambda1 0.39999999999999997 Lambda2 0.44999999999999996 [dLambda 0.04999999999999999]
TCL: Setting parameter firsttimestep to 0
TCL: Setting parameter alchLambda to 0.39999999999999997
Info: NONBONDED TABLE R-SQUARED SPACING: 0.0625
Info: NONBONDED TABLE SIZE: 705 POINTS
TCL: Setting parameter alchLambda2 to 0.44999999999999996
Info: NONBONDED TABLE R-SQUARED SPACING: 0.0625
Info: NONBONDED TABLE SIZE: 705 POINTS
TCL: Running for 1500000 steps
ETITLE: TS BOND ANGLE DIHED IMPRP ELECT VDW BOUNDARY MISC KINETIC TOTAL TEMP POTENTIAL TOTALAVG TEMPAVG PRESSURE GPRESSURE VOLUME PRESSAVG GPRESSAVG
ENERGY: 0 2.8747 4.5675 5.6990 0.0000 -10568.2188 1425.0021 0.0000 0.0000 1736.0028 -7394.0728 299.4332 -9130.0756 -7394.0728 299.4332 -69.1431 12.3078 29771.5999 -69.1431 12.3078
ENERGY: 300000 1.9990 7.0930 6.3679 0.0000 -10486.8788 1336.3418 0.0000 0.0000 1691.8285 -7443.2487 291.8138 -9135.0771 -7384.6225 300.0347 -648.4714 -541.3646 29656.9897 24.5740 95.8966
ENERGY: 600000 4.8472 4.0009 6.7682 0.0000 -10616.6985 1481.9911 0.0000 0.0000 1720.0472 -7399.0439 296.6811 -9119.0911 -7379.3669 300.1368 391.8207 522.2084 29896.4294 154.0045 232.3149
ENERGY: 900000 1.8446 6.6694 5.3522 0.0000 -10554.2975 1460.0206 0.0000 0.0000 1706.9595 -7373.4512 294.4237 -9080.4107 -7374.0894 298.5612 618.3204 672.9587 29543.5237 134.7504 201.2423
ENERGY: 1200000 1.0659 4.7937 4.7487 0.0000 -10365.2076 1314.0313 0.0000 0.0000 1783.8291 -7256.7389 307.6825 -9040.5680 -7365.8702 299.9878 -576.3362 -495.6202 30289.6892 -37.9134 36.3971
ENERGY: 1500000 3.1068 3.6388 5.0773 0.0000 -10720.8202 1537.9933 0.0000 0.0000 1772.5377 -7398.4662 305.7349 -9171.0040 -7364.3536 301.2352 766.5947 753.1562 29629.8055 93.2812 160.8933
TCL: Running FEP window  10: Lambda1 0.44999999999999996 Lambda2 0.49999999999999994 [dLambda 0.04999999999999999]
TCL: Setting parameter firsttimestep to 0
TCL: Setting parameter alchLambda to 0.44999999999999996
Info: NONBONDED TABLE R-SQUARED SPACING: 0.0625
Info: NONBONDED TABLE SIZE: 705 POINTS
TCL: Setting parameter alchLambda2 to 0.49999999999999994
Info: NONBONDED TABLE R-SQUARED SPACING: 0.0625
Info: NONBONDED TABLE SIZE: 705 POINTS
TCL: Running for 1500000 steps
ETITLE: TS BOND ANGLE DIHED IMPRP ELECT VDW BOUNDARY MISC KINETIC TOTAL TEMP POTENTIAL TOTALAVG TEMPAVG PRESSURE GPRESSURE VOLUME PRESSAVG GPRESSAVG
ENERGY: 0 3.1068 3.6388 5.0773 0.0000 -10720.8204 1538.2440 0.0000 0.0000 1771.6942 -7399.0593 305.5894 -9170.7534 -7399.0593 305.5894 666.8596 763.5376 29629.8055 666.8596 763.5376
ENERGY: 300000 1.7165 4.1572 3.1689 0.0000 -10688.4714 1536.1014 0.0000 0.0000 1665.2260 -7478.1013 287.2253 -9143.3274 -7431.4851 298.7149 795.8745 916.2569 29899.1113 42.5719 161.5220
ENERGY: 600000 4.4726 7.2712 6.6436 0.0000 -10523.6801 1372.8774 0.0000 0.0000 1666.2597 -7466.1555 287.4036 -9132.4152 -7416.6348 300.0040 -324.4986 -216.8177 29576.6325 -84.4165 15.8299
ENERGY: 900000 5.9734 3.8652 5.7474 0.0000 -10428.8209 1392.6874 0.0000 0.0000 1738.2920 -7282.2555 299.8280 -9020.5475 -7393.3168 299.7898 -85.1933 -52.0847 30357.2824 -149.7483 -62.4772
ENERGY: 1200000 2.0562 2.7095 6.9171 0.0000 -10698.0308 1469.5010 0.0000 0.0000 1727.9434 -7488.9036 298.0431 -9216.8470 -7390.1416 299.3535 242.9823 292.8757 29297.8776 -195.0984 -113.8356
ENERGY: 1500000 2.5828 3.5668 4.6927 0.0000 -10689.0774 1472.2375 0.0000 0.0000 1750.2437 -7455.7538 301.8895 -9205.9975 -7388.8608 299.5898 317.3258 401.9033 29386.0216 -175.0489 -101.6446
TCL: Running FEP window  11: Lambda1 0.49999999999999994 Lambda2 0.5499999999999999 [dLambda 0.04999999999999999]
TCL: Setting parameter firsttimestep to 0
TCL: Setting parameter alchLambda to 0.49999999999999994
Info: NONBONDED TABLE R-SQUARED SPACING: 0.0625
Info: NONBONDED TABLE SIZE: 705 POINTS
TCL: Setting parameter alchLambda2 to 0.5499999999999999
Info: NONBONDED TABLE R-SQUARED SPACING: 0.0625
Info: NONBONDED TABLE SIZE: 705 POINTS
TCL: Running for 1500000 steps
ETITLE: TS BOND ANGLE DIHED IMPRP ELECT VDW BOUNDARY MISC KINETIC TOTAL TEMP POTENTIAL TOTALAVG TEMPAVG PRESSURE GPRESSURE VOLUME PRESSAVG GPRESSAVG
ENERGY: 0 2.5828 3.5668 4.6927 0.0000 -10689.0773 1472.6196 0.0000 0.0000 1749.3805 -7456.2350 301.7406 -9205.6155 -7456.2350 301.7406 320.8763 411.6013 29386.0216 320.8763 411.6013
ENERGY: 300000 6.4223 7.1516 3.5399 0.0000 -10526.6390 1381.7330 0.0000 0.0000 1756.8497 -7370.9425 303.0290 -9127.7922 -7408.0016 300.7241 -546.1713 -488.2395 30088.0775 -113.5809 -54.5818
ENERGY: 600000 0.8885 4.7162 3.4824 0.0000 -10520.3145 1404.6062 0.0000 0.0000 1761.5420 -7345.0792 303.8383 -9106.6212 -7366.8512 300.2260 200.8965 288.6773 29560.5114 -181.8834 -129.2860
ENERGY: 900000 5.6310 5.9592 3.4638 0.0000 -10732.7629 1506.7460 0.0000 0.0000 1735.8746 -7475.0883 299.4111 -9210.9629 -7378.0627 300.9966 494.0290 554.0181 29695.4523 -138.0603 -82.8823
ENERGY: 1200000 4.5467 4.6982 5.3708 0.0000 -10587.9627 1456.7784 0.0000 0.0000 1715.3702 -7401.1985 295.8744 -9116.5686 -7377.3790 301.3934 629.3891 635.5426 29452.7906 -84.4062 -32.5615
ENERGY: 1500000 2.0195 3.1471 6.7880 0.0000 -10501.2428 1399.3665 0.0000 0.0000 1749.6784 -7340.2431 301.7920 -9089.9215 -7380.3614 300.3341 155.3451 189.7796 29782.0857 -63.5922 -16.9902
TCL: Running FEP window  12: Lambda1 0.5499999999999999 Lambda2 0.6    [dLambda 0.050000000000000044]
TCL: Setting parameter firsttimestep to 0
TCL: Setting parameter alchLambda to 0.5499999999999999
Info: NONBONDED TABLE R-SQUARED SPACING: 0.0625
Info: NONBONDED TABLE SIZE: 705 POINTS
TCL: Setting parameter alchLambda2 to 0.6
Info: NONBONDED TABLE R-SQUARED SPACING: 0.0625
Info: NONBONDED TABLE SIZE: 705 POINTS
TCL: Running for 1500000 steps
ETITLE: TS BOND ANGLE DIHED IMPRP ELECT VDW BOUNDARY MISC KINETIC TOTAL TEMP POTENTIAL TOTALAVG TEMPAVG PRESSURE GPRESSURE VOLUME PRESSAVG GPRESSAVG
ENERGY: 0 2.0196 3.1471 6.7880 0.0000 -10501.2189 1399.4775 0.0000 0.0000 1748.8345 -7340.9522 301.6465 -9089.7866 -7340.9522 301.6465 119.6704 201.4861 29782.0857 119.6704 201.4861
ENERGY: 300000 3.4807 6.3069 4.6794 0.0000 -10679.1205 1511.4701 0.0000 0.0000 1754.7514 -7398.4320 302.6670 -9153.1834 -7403.1932 299.3651 626.9859 680.3122 29625.9162 311.1321 399.9565
ENERGY: 600000 4.7760 6.1673 3.4105 0.0000 -10459.2355 1330.9427 0.0000 0.0000 1735.5607 -7378.3783 299.3569 -9113.9390 -7395.3098 300.5666 -758.9025 -692.4474 29683.6780 171.9116 260.2692
ENERGY: 900000 4.4857 7.1943 3.1699 0.0000 -10457.7103 1312.9601 0.0000 0.0000 1725.8907 -7404.0096 297.6890 -9129.9003 -7388.4317 301.1086 -952.5472 -871.6386 30151.7994 81.6934 158.7273
ENERGY: 1200000 8.1089 7.7479 4.0430 0.0000 -10513.3040 1374.7495 0.0000 0.0000 1722.9715 -7395.6831 297.1855 -9118.6547 -7383.7425 301.0757 -424.8620 -305.3118 30172.0991 44.1849 121.3760
ENERGY: 1500000 4.6041 6.5922 7.4944 0.0000 -10406.9515 1341.6762 0.0000 0.0000 1786.1866 -7260.3980 308.0891 -9046.5846 -7374.3810 301.3313 -422.5210 -398.5975 30177.8308 13.8825 84.4672
TCL: Running FEP window  13: Lambda1 0.6    Lambda2 0.65   [dLambda 0.050000000000000044]
TCL: Setting parameter firsttimestep to 0
TCL: Setting parameter alchLambda to 0.6
Info: NONBONDED TABLE R-SQUARED SPACING: 0.0625
Info: NONBONDED TABLE SIZE: 705 POINTS
TCL: Setting parameter alchLambda2 to 0.65
Info: NONBONDED TABLE R-SQUARED SPACING: 0.0625
Info: NONBONDED TABLE SIZE: 705 POINTS
TCL: Running for 1500000 steps
ETITLE: TS BOND ANGLE DIHED IMPRP ELECT VDW BOUNDARY MISC KINETIC TOTAL TEMP POTENTIAL TOTALAVG TEMPAVG PRESSURE GPRESSURE VOLUME PRESSAVG GPRESSAVG
ENERGY: 0 4.6041 6.5922 7.4944 0.0000 -10407.4784 1341.0596 0.0000 0.0000 1785.3344 -7262.3938 307.9421 -9047.7281 -7262.3938 307.9421 -481.2825 -395.1356 30177.8308 -481.2825 -395.1356
ENERGY: 300000 2.8961 3.5484 10.0414 0.0000 -10530.3272 1383.0433 0.0000 0.0000 1760.7565 -7370.0416 303.7028 -9130.7981 -7336.5872 305.6421 -168.0667 -73.2041 29540.9334 -193.9653 -106.5815
ENERGY: 600000 3.8373 8.8590 8.5509 0.0000 -10541.7219 1401.1381 0.0000 0.0000 1835.8586 -7283.4780 316.6568 -9119.3366 -7330.0045 305.9878 -59.9692 46.5285 29668.1059 -27.9618 63.4408
ENERGY: 900000 3.3877 4.2231 7.3090 0.0000 -10527.0065 1356.0142 0.0000 0.0000 1714.3038 -7441.7688 295.6905 -9156.0725 -7352.0807 303.4286 -648.5185 -635.0648 30216.3130 5.0374 79.0787
ENERGY: 1200000 2.9184 3.9492 6.1379 0.0000 -10471.8719 1410.5094 0.0000 0.0000 1741.9867 -7306.3702 300.4653 -9048.3569 -7355.7946 302.7620 59.2724 35.0309 30152.6919 45.1357 106.9301
ENERGY: 1500000 3.6615 7.2147 5.1058 0.0000 -10527.2011 1381.1956 0.0000 0.0000 1698.4717 -7431.5518 292.9597 -9130.0235 -7376.6405 301.1175 -339.0899 -274.0351 29802.9332 25.3265 81.8533
TCL: Running FEP window  14: Lambda1 0.65   Lambda2 0.7000000000000001 [dLambda 0.050000000000000044]
TCL: Setting parameter firsttimestep to 0
TCL: Setting parameter alchLambda to 0.65
Info: NONBONDED TABLE R-SQUARED SPACING: 0.0625
Info: NONBONDED TABLE SIZE: 705 POINTS
TCL: Setting parameter alchLambda2 to 0.7000000000000001
Info: NONBONDED TABLE R-SQUARED SPACING: 0.0625
Info: NONBONDED TABLE SIZE: 705 POINTS
TCL: Running for 1500000 steps
ETITLE: TS BOND ANGLE DIHED IMPRP ELECT VDW BOUNDARY MISC KINETIC TOTAL TEMP POTENTIAL TOTALAVG TEMPAVG PRESSURE GPRESSURE VOLUME PRESSAVG GPRESSAVG
ENERGY: 0 3.6615 7.2147 5.1058 0.0000 -10527.4267 1381.1732 0.0000 0.0000 1697.5966 -7432.6748 292.8087 -9130.2714 -7432.6748 292.8087 -349.6958 -265.3267 29802.9332 -349.6958 -265.3267
ENERGY: 300000 3.2478 3.8239 4.6363 0.0000 -10676.4930 1573.6312 0.0000 0.0000 1756.0517 -7335.1021 302.8913 -9091.1538 -7372.5781 298.6451 1497.5635 1582.2143 29608.2852 21.9734 83.4988
ENERGY: 600000 4.3586 5.1088 4.8616 0.0000 -10635.1967 1431.6482 0.0000 0.0000 1762.8633 -7426.3563 304.0662 -9189.2196 -7357.6707 300.2693 53.5870 114.9771 30005.9069 -181.7671 -126.0643
ENERGY: 900000 3.7977 5.5420 10.3091 0.0000 -10528.4574 1382.2511 0.0000 0.0000 1759.6933 -7366.8642 303.5194 -9126.5575 -7363.5860 300.2581 -327.4651 -265.8651 29857.8036 -171.0238 -112.5382
ENERGY: 1200000 2.2474 3.9989 6.3709 0.0000 -10638.3825 1464.5397 0.0000 0.0000 1741.3957 -7419.8299 300.3634 -9161.2256 -7374.6939 301.0216 355.7146 379.0302 29518.6833 -57.8242 1.7523
ENERGY: 1500000 6.1612 5.2304 4.6161 0.0000 -10648.3225 1482.2768 0.0000 0.0000 1750.2159 -7399.8220 301.8847 -9150.0379 -7375.4650 301.0202 618.7699 630.9295 29617.6503 -25.3058 35.0899
TCL: Running FEP window  15: Lambda1 0.7000000000000001 Lambda2 0.7500000000000001 [dLambda 0.050000000000000044]
TCL: Setting parameter firsttimestep to 0
TCL: Setting parameter alchLambda to 0.7000000000000001
Info: NONBONDED TABLE R-SQUARED SPACING: 0.0625
Info: NONBONDED TABLE SIZE: 705 POINTS
TCL: Setting parameter alchLambda2 to 0.7500000000000001
Info: NONBONDED TABLE R-SQUARED SPACING: 0.0625
Info: NONBONDED TABLE SIZE: 705 POINTS
TCL: Running for 1500000 steps
ETITLE: TS BOND ANGLE DIHED IMPRP ELECT VDW BOUNDARY MISC KINETIC TOTAL TEMP POTENTIAL TOTALAVG TEMPAVG PRESSURE GPRESSURE VOLUME PRESSAVG GPRESSAVG
ENERGY: 0 6.1612 5.2304 4.6161 0.0000 -10648.9455 1482.0312 0.0000 0.0000 1749.3889 -7401.5176 301.7421 -9150.9065 -7401.5176 301.7421 551.4069 636.4408 29617.6503 551.4069 636.4408
ENERGY: 300000 3.5588 4.6557 7.6943 0.0000 -10476.7931 1355.9620 0.0000 0.0000 1726.7616 -7378.1607 297.8392 -9104.9223 -7382.0296 297.3756 -509.9971 -442.2348 30148.6974 205.2650 286.8167
ENERGY: 600000 3.6998 3.9848 2.2927 0.0000 -10592.0854 1454.8987 0.0000 0.0000 1714.6691 -7412.5402 295.7535 -9127.2093 -7393.3245 297.8469 227.3270 244.4926 29979.0788 127.3894 204.7819
ENERGY: 900000 1.9530 5.7725 6.1946 0.0000 -10496.9047 1378.3932 0.0000 0.0000 1754.6352 -7349.9562 302.6470 -9104.5914 -7394.2519 298.6468 47.9530 69.2938 29863.9113 55.8312 120.7805
ENERGY: 1200000 2.3233 8.3088 4.5992 0.0000 -10446.5654 1446.5765 0.0000 0.0000 1706.8403 -7277.9173 294.4031 -8984.7576 -7380.1887 298.0127 401.0892 437.2805 30390.1956 118.3579 176.3942
ENERGY: 1500000 3.8180 7.5135 4.8279 0.0000 -10606.1947 1424.4935 0.0000 0.0000 1706.0948 -7459.4471 294.2745 -9165.5419 -7388.2419 297.6972 -404.1497 -337.0113 30253.2648 89.1578 153.9857
TCL: Running FEP window  16: Lambda1 0.7500000000000001 Lambda2 0.8000000000000002 [dLambda 0.050000000000000044]
TCL: Setting parameter firsttimestep to 0
TCL: Setting parameter alchLambda to 0.7500000000000001
Info: NONBONDED TABLE R-SQUARED SPACING: 0.0625
Info: NONBONDED TABLE SIZE: 705 POINTS
TCL: Setting parameter alchLambda2 to 0.8000000000000002
Info: NONBONDED TABLE R-SQUARED SPACING: 0.0625
Info: NONBONDED TABLE SIZE: 705 POINTS
TCL: Running for 1500000 steps
ETITLE: TS BOND ANGLE DIHED IMPRP ELECT VDW BOUNDARY MISC KINETIC TOTAL TEMP POTENTIAL TOTALAVG TEMPAVG PRESSURE GPRESSURE VOLUME PRESSAVG GPRESSAVG
ENERGY: 0 3.8180 7.5135 4.8279 0.0000 -10607.4104 1426.1305 0.0000 0.0000 1705.1937 -7459.9269 294.1191 -9165.1206 -7459.9269 294.1191 -402.5000 -313.4746 30253.2648 -402.5000 -313.4746
ENERGY: 300000 4.2249 5.9560 3.2145 0.0000 -10512.7734 1367.2003 0.0000 0.0000 1772.0440 -7360.1337 305.6497 -9132.1778 -7384.6841 302.2686 -323.0007 -228.9717 29989.6718 -71.4816 7.4532
ENERGY: 600000 2.2855 5.5475 4.5450 0.0000 -10532.2200 1414.8290 0.0000 0.0000 1709.3758 -7395.6373 294.8404 -9105.0131 -7399.4774 300.2282 402.3353 417.8643 29387.0880 -92.0385 -30.7264
ENERGY: 900000 5.3215 2.2395 2.9931 0.0000 -10505.4818 1435.4457 0.0000 0.0000 1736.0855 -7323.3965 299.4475 -9059.4820 -7383.5222 300.2467 310.4524 385.8901 29949.7680 -60.4112 17.1958
ENERGY: 1200000 2.3592 6.6219 5.1892 0.0000 -10597.7110 1394.4482 0.0000 0.0000 1774.2981 -7414.7945 306.0385 -9189.0926 -7393.0106 299.9474 -511.1118 -422.0346 30159.9533 -119.8498 -38.7549
ENERGY: 1500000 2.8508 8.1551 2.4239 0.0000 -10582.7287 1484.7901 0.0000 0.0000 1747.3345 -7337.1743 301.3877 -9084.5088 -7392.6207 299.9395 589.4434 706.1322 30086.2182 -30.8158 56.5077
TCL: Running FEP window  17: Lambda1 0.8000000000000002 Lambda2 0.8500000000000002 [dLambda 0.050000000000000044]
TCL: Setting parameter firsttimestep to 0
TCL: Setting parameter alchLambda to 0.8000000000000002
Info: NONBONDED TABLE R-SQUARED SPACING: 0.0625
Info: NONBONDED TABLE SIZE: 705 POINTS
TCL: Setting parameter alchLambda2 to 0.8500000000000002
Info: NONBONDED TABLE R-SQUARED SPACING: 0.0625
Info: NONBONDED TABLE SIZE: 705 POINTS
TCL: Running for 1500000 steps
ETITLE: TS BOND ANGLE DIHED IMPRP ELECT VDW BOUNDARY MISC KINETIC TOTAL TEMP POTENTIAL TOTALAVG TEMPAVG PRESSURE GPRESSURE VOLUME PRESSAVG GPRESSAVG
ENERGY: 0 2.8508 8.1551 2.4239 0.0000 -10583.8030 1484.7839 0.0000 0.0000 1746.4494 -7339.1398 301.2351 -9085.5892 -7339.1398 301.2351 651.2147 713.3649 30086.2182 651.2147 713.3649
ENERGY: 300000 1.5749 5.5937 4.1290 0.0000 -10697.0788 1458.6312 0.0000 0.0000 1719.5954 -7507.5547 296.6032 -9227.1501 -7388.9409 299.3694 609.2804 672.2613 29075.9591 438.8251 513.2625
ENERGY: 600000 4.0810 6.8919 4.4420 0.0000 -10543.9208 1389.2321 0.0000 0.0000 1770.9356 -7368.3383 305.4585 -9139.2738 -7382.7103 302.3989 -479.5039 -383.3195 29938.7123 118.3377 203.2629
ENERGY: 900000 5.2211 8.8534 5.5361 0.0000 -10500.8364 1349.7762 0.0000 0.0000 1730.0410 -7401.4086 298.4049 -9131.4496 -7377.6612 302.5249 -591.5731 -451.3521 29978.8390 48.7111 134.9914
ENERGY: 1200000 5.8453 5.1543 4.9255 0.0000 -10535.0434 1417.9998 0.0000 0.0000 1751.0227 -7350.0958 302.0239 -9101.1185 -7386.9442 301.7941 244.8620 254.6635 29600.8072 72.2636 152.2376
ENERGY: 1500000 3.2539 4.2875 6.2910 0.0000 -10482.6991 1440.8587 0.0000 0.0000 1719.5552 -7308.4528 296.5962 -9028.0080 -7387.1910 300.5048 393.1598 476.9821 30174.1276 97.9453 173.7658
TCL: Running FEP window  18: Lambda1 0.8500000000000002 Lambda2 0.9000000000000002 [dLambda 0.050000000000000044]
TCL: Setting parameter firsttimestep to 0
TCL: Setting parameter alchLambda to 0.8500000000000002
Info: NONBONDED TABLE R-SQUARED SPACING: 0.0625
Info: NONBONDED TABLE SIZE: 705 POINTS
TCL: Setting parameter alchLambda2 to 0.9000000000000002
Info: NONBONDED TABLE R-SQUARED SPACING: 0.0625
Info: NONBONDED TABLE SIZE: 705 POINTS
TCL: Running for 1500000 steps
ETITLE: TS BOND ANGLE DIHED IMPRP ELECT VDW BOUNDARY MISC KINETIC TOTAL TEMP POTENTIAL TOTALAVG TEMPAVG PRESSURE GPRESSURE VOLUME PRESSAVG GPRESSAVG
ENERGY: 0 3.2540 4.2875 6.2910 0.0000 -10484.2599 1440.2835 0.0000 0.0000 1718.6554 -7311.4886 296.4410 -9030.1440 -7311.4886 296.4410 397.5422 479.6955 30174.1276 397.5422 479.6955
ENERGY: 300000 3.7961 4.5950 7.0193 0.0000 -10522.8803 1382.3001 0.0000 0.0000 1752.3489 -7372.8209 302.2526 -9125.1697 -7397.3946 298.4725 -544.2168 -472.7545 30382.2918 -39.9710 27.6074
ENERGY: 600000 6.9563 8.5241 4.1035 0.0000 -10568.4531 1369.1488 0.0000 0.0000 1775.0272 -7404.6932 306.1643 -9179.7204 -7394.7792 300.7763 -696.3855 -702.7382 30250.4894 -339.1610 -276.8938
ENERGY: 900000 2.2535 6.4477 3.7637 0.0000 -10535.5187 1349.8961 0.0000 0.0000 1741.9596 -7431.1981 300.4607 -9173.1577 -7394.3574 300.9661 -688.2638 -607.8306 29810.5625 -346.6523 -282.4830
ENERGY: 1200000 3.7268 5.1848 4.6903 0.0000 -10498.0910 1397.1747 0.0000 0.0000 1717.8835 -7369.4308 296.3079 -9087.3143 -7390.3077 299.8261 102.3515 188.0488 29852.8575 -192.8965 -134.1768
ENERGY: 1500000 4.9719 4.4460 5.9353 0.0000 -10453.2149 1369.4792 0.0000 0.0000 1743.0046 -7325.3779 300.6409 -9068.3826 -7384.8035 299.3680 -274.7567 -250.4877 30104.8919 -242.2832 -186.0538
TCL: Running FEP window  19: Lambda1 0.9000000000000002 Lambda2 0.9500000000000003 [dLambda 0.050000000000000044]
TCL: Setting parameter firsttimestep to 0
TCL: Setting parameter alchLambda to 0.9000000000000002
Info: NONBONDED TABLE R-SQUARED SPACING: 0.0625
Info: NONBONDED TABLE SIZE: 705 POINTS
TCL: Setting parameter alchLambda2 to 0.9500000000000003
Info: NONBONDED TABLE R-SQUARED SPACING: 0.0625
Info: NONBONDED TABLE SIZE: 705 POINTS
TCL: Running for 1500000 steps
ETITLE: TS BOND ANGLE DIHED IMPRP ELECT VDW BOUNDARY MISC KINETIC TOTAL TEMP POTENTIAL TOTALAVG TEMPAVG PRESSURE GPRESSURE VOLUME PRESSAVG GPRESSAVG
ENERGY: 0 4.9719 4.4460 5.9353 0.0000 -10455.8139 1370.0925 0.0000 0.0000 1742.1508 -7328.2175 300.4936 -9070.3683 -7328.2175 300.4936 -311.4269 -241.4370 30104.8919 -311.4269 -241.4370
ENERGY: 300000 2.1893 7.0015 7.5579 0.0000 -10632.2452 1476.2696 0.0000 0.0000 1708.3031 -7430.9237 294.6554 -9139.2268 -7381.7573 297.7365 283.1591 332.1702 30176.8344 -347.9827 -292.8520
ENERGY: 600000 3.9659 4.5106 8.5850 0.0000 -10628.3977 1487.7359 0.0000 0.0000 1773.7832 -7349.8171 305.9497 -9123.6003 -7385.0452 298.0054 640.3496 686.5395 29710.0822 -156.3168 -94.6613
ENERGY: 900000 3.3548 7.7724 4.7128 0.0000 -10512.2596 1396.3261 0.0000 0.0000 1723.3241 -7376.7694 297.2463 -9100.0935 -7390.7214 298.3273 -19.6265 75.5012 30115.5062 -166.3061 -100.1269
ENERGY: 1200000 2.8442 3.1402 4.6948 0.0000 -10627.3697 1399.3113 0.0000 0.0000 1756.6593 -7460.7199 302.9961 -9217.3792 -7404.0242 298.4507 -79.3246 -22.6126 29715.0054 -105.5403 -40.2328
ENERGY: 1500000 5.6099 5.0530 4.3814 0.0000 -10464.0830 1316.8507 0.0000 0.0000 1695.0837 -7437.1044 292.3753 -9132.1881 -7407.4486 297.9946 -774.1302 -749.9466 30039.5279 -199.3081 -137.2023
TCL: Running FEP window  20: Lambda1 0.9500000000000003 Lambda2 1.0    [dLambda 0.04999999999999971]
TCL: Setting parameter firsttimestep to 0
TCL: Setting parameter alchLambda to 0.9500000000000003
Info: NONBONDED TABLE R-SQUARED SPACING: 0.0625
Info: NONBONDED TABLE SIZE: 705 POINTS
TCL: Setting parameter alchLambda2 to 1.0
Info: NONBONDED TABLE R-SQUARED SPACING: 0.0625
Info: NONBONDED TABLE SIZE: 705 POINTS
TCL: Running for 1500000 steps
ETITLE: TS BOND ANGLE DIHED IMPRP ELECT VDW BOUNDARY MISC KINETIC TOTAL TEMP POTENTIAL TOTALAVG TEMPAVG PRESSURE GPRESSURE VOLUME PRESSAVG GPRESSAVG
ENERGY: 0 5.6099 5.0530 4.3814 0.0000 -10465.5479 1316.9812 0.0000 0.0000 1694.2389 -7439.2836 292.2296 -9133.5225 -7439.2836 292.2296 -812.8289 -736.6825 30039.5279 -812.8289 -736.6825
ENERGY: 300000 3.0765 3.7601 5.0506 0.0000 -10649.6680 1498.8484 0.0000 0.0000 1800.0965 -7338.8359 310.4883 -9138.9324 -7356.6970 300.8753 1028.2900 1007.4695 29827.5377 93.9367 146.9571
ENERGY: 600000 7.1983 6.8379 5.8490 0.0000 -10602.5947 1409.5539 0.0000 0.0000 1711.4413 -7461.7143 295.1967 -9173.1556 -7374.2418 299.1268 -302.3144 -258.0533 29980.7401 31.3606 81.8695
ENERGY: 900000 4.2123 8.9781 7.1490 0.0000 -10510.8937 1402.0948 0.0000 0.0000 1758.4864 -7329.9732 303.3113 -9088.4596 -7360.0198 301.3905 421.6335 474.9236 29755.1723 -45.0413 2.1323
ENERGY: 1200000 1.8043 4.0267 3.7893 0.0000 -10494.9682 1470.2889 0.0000 0.0000 1723.5573 -7291.5017 297.2865 -9015.0590 -7352.2290 302.3388 599.4290 651.3758 30471.3707 20.2734 73.2889
ENERGY: 1500000 1.0513 4.1741 5.4853 0.0000 -10549.2297 1431.9313 0.0000 0.0000 1730.3064 -7376.2812 298.4507 -9106.5877 -7360.4802 301.9884 164.8995 243.1087 30324.7480 8.6519 60.0898
TCL: Exiting due to exit command.
