Info: SIMULATION PARAMETERS:
Info: TIMESTEP               2
Info: NUMBER OF STEPS        0
Info: STEPS PER CYCLE        10
Info: PERIODIC CELL BASIS 1  31.6701 0 0
Info: PERIODIC CELL BASIS 2  0 30.1352 0
Info: PERIODIC CELL BASIS 3  0 0 31.4221
Info: PERIODIC CELL CENTER   0 0 0
Info: WRAPPING WATERS AROUND PERIODIC BOUNDARIES ON OUTPUT.
Info: WRAPPING ALL CLUSTERS AROUND PERIODIC BOUNDARIES ON OUTPUT.
Info: FIRST LDB TIMESTEP     50
Info: LAST LDB TIMESTEP     -1
Info: HOM BACKGROUND SCALING 1
Info: PME BACKGROUND SCALING 1
Info: MIN ATOMS PER PATCH    40
Info: EMPTY PATCH LOAD       40 ATOMS
Info: VELOCITY FILE          mobley_1857976_equil.vel
Info: CENTER OF MASS MOVING INITIALLY? NO
Info: DIELECTRIC             1
Info: EXCLUDE                SCALED ONE-FOUR
Info: 1-4 ELECTROSTATICS SCALED BY 0.833333
Info: MODIFIED 1-4 VDW PARAMETERS WILL BE USED
Info: DCD FILENAME           mobley_1857976_prod.dcd
Info: DCD FREQUENCY          100000
Info: DCD FIRST STEP         100000
Info: DCD FILE WILL CONTAIN UNIT CELL DATA
Info: XST FILENAME           mobley_1857976_prod.xst
Info: XST FREQUENCY          100000
Info: NO VELOCITY DCD OUTPUT
Info: NO FORCE DCD OUTPUT
Info: OUTPUT FILENAME        mobley_1857976_prod
Info: BINARY OUTPUT FILES WILL BE USED
Info: RESTART FILENAME       mobley_1857976_prod.restart
Info: RESTART FREQUENCY      100000
Info: BINARY RESTART FILES WILL BE USED
Info: CUTOFF                 9
Info: PAIRLIST DISTANCE      11
Info: PAIRLIST SHRINK RATE   0.01
Info: PAIRLIST GROW RATE     0.01
Info: PAIRLIST TRIGGER       0.3
Info: PAIRLISTS PER CYCLE    2
Info: PAIRLISTS ENABLED
Info: MARGIN                 2
Info: HYDROGEN GROUP CUTOFF  2.5
Info: PATCH DIMENSION        15.5
Info: ENERGY OUTPUT STEPS    100000
Info: ENERGY EVALUATION STEPS    100000
Info: OUTPUT ENERGY PRECISION 4
Info: CROSSTERM ENERGY INCLUDED IN DIHEDRAL
Info: TIMING OUTPUT STEPS    1000000
Info: PRESSURE OUTPUT STEPS  100000
Info: ALCHEMICAL FEP ON
Info: FEP CURRENT LAMBDA VALUE     0
Info: FEP COMPARISON LAMBDA VALUE  0.05
Info: FEP INTRA-ALCHEMICAL NON-BONDED INTERACTIONS WILL BE RETAINED
Info: FEP INTRA-ALCHEMICAL BONDED INTERACTIONS WILL BE RETAINED
Info: FEP VDW SHIFTING COEFFICIENT 5
Info: FEP ELEC. ACTIVE FOR ANNIHILATED PARTICLES BETWEEN LAMBDA = 0 AND LAMBDA = 0.5
Info: FEP ELEC. ACTIVE FOR EXNIHILATED PARTICLES BETWEEN LAMBDA = 0.5 AND LAMBDA = 1
Info: FEP VDW ACTIVE FOR ANNIHILATED PARTICLES BETWEEN LAMBDA = 0 AND LAMBDA = 1
Info: FEP VDW ACTIVE FOR EXNIHILATED PARTICLES BETWEEN LAMBDA = 0 AND LAMBDA = 1
Info: FEP BOND ACTIVE FOR ANNIHILATED PARTICLES BETWEEN LAMBDA = 1 AND LAMBDA = 1
Info: FEP BOND ACTIVE FOR EXNIHILATED PARTICLES BETWEEN LAMBDA = 0 AND LAMBDA = 0
Info: LANGEVIN DYNAMICS ACTIVE
Info: LANGEVIN TEMPERATURE   300
Info: LANGEVIN USING BBK INTEGRATOR
Info: LANGEVIN DAMPING COEFFICIENT IS 1 INVERSE PS
Info: LANGEVIN DYNAMICS APPLIED TO HYDROGENS
Info: LANGEVIN PISTON PRESSURE CONTROL ACTIVE
Info:        TARGET PRESSURE IS 1.01325 BAR
Info:     OSCILLATION PERIOD IS 50 FS
Info:             DECAY TIME IS 25 FS
Info:     PISTON TEMPERATURE IS 300 K
Info:       PRESSURE CONTROL IS GROUP-BASED
Info:    INITIAL STRAIN RATE IS 0.000205093 0.000205093 0.000205093
Info:       CELL FLUCTUATION IS ISOTROPIC
Info: PARTICLE MESH EWALD (PME) ACTIVE
Info: PME TOLERANCE               1e-06
Info: PME EWALD COEFFICIENT       0.348832
Info: PME INTERPOLATION ORDER     4
Info: PME GRID DIMENSIONS         32 32 32
Info: PME MAXIMUM GRID SPACING    1
Info: PME CALCULATION WILL BE PERFORMED ON GPU
Info: FULL ELECTROSTATIC EVALUATION FREQUENCY      2
Info: USING VERLET I (r-RESPA) MTS SCHEME.
Info: C1 SPLITTING OF LONG RANGE ELECTROSTATICS
Info: PLACING ATOMS IN PATCHES BY HYDROGEN GROUPS
Info: RIGID BONDS TO HYDROGEN : ALL
Info:         ERROR TOLERANCE : 1e-08
Info:          MAX ITERATIONS : 100
Info: RIGID WATER USING SETTLE ALGORITHM
Info: RANDOM NUMBER SEED     1743672631
Info: USE HYDROGEN BONDS?    NO
Info: Using AMBER format force field!
Info: AMBER PARM FILE        mobley_1857976.prmtop
Info: COORDINATE PDB         mobley_1857976.pdb
Info: Exclusions will be read from PARM file!
Info: SCNB (VDW SCALING)     2
Info: USING ARITHMETIC MEAN TO COMBINE L-J SIGMA PARAMETERS
Info: BINARY COORDINATES     mobley_1857976_equil.coor
Info: SUMMARY OF PARAMETERS:
Info: 5 BONDS
Info: 4 ANGLES
Info:   4 HARMONIC
Info:   0 COSINE-BASED
Info: 4 DIHEDRAL
Info: 0 IMPROPER
Info: 0 CROSSTERM
Info: 0 VDW
Info: 15 VDW_PAIRS
Info: 0 NBTHOLE_PAIRS
Info: To read alchdata from file: mobley_1857976.pdb
Info: To read alchflag data from column: 5
Info: STRUCTURE SUMMARY:
Info: 2906 ATOMS
Info: 2905 BONDS
Info: 12 ANGLES
Info: 14 DIHEDRALS
Info: 0 IMPROPERS
Info: 0 CROSSTERMS
Info: 2926 EXCLUSIONS
Info: 2902 RIGID BONDS
Info: ALCH: 0 ATOMS TO DISAPPEAR IN FINAL STATE
Info: ALCH: 8 ATOMS TO APPEAR IN FINAL STATE
Info: 5816 DEGREES OF FREEDOM
Info: 970 HYDROGEN GROUPS
Info: 3 ATOMS IN LARGEST HYDROGEN GROUP
Info: 970 MIGRATION GROUPS
Info: 3 ATOMS IN LARGEST MIGRATION GROUP
Info: TOTAL MASS = 17502.4 amu
Info: TOTAL CHARGE = 1.11759e-08 e
Info: MASS DENSITY = 0.969166 g/cm^3
Info: ATOM DENSITY = 0.0969029 atoms/A^3
Info: ADDED 0 IMPLICIT EXCLUSIONS
Info: NONBONDED TABLE R-SQUARED SPACING: 0.0625
Info: NONBONDED TABLE SIZE: 705 POINTS
Info: REMOVING COM VELOCITY 0.0289844 0.055131 -0.121732
Info: Use 3D box decompostion in PME FFT.
Info: Updated CUDA force table with 4096 elements.
Info: Updated CUDA LJ table with 5 x 5 elements.
Info: Found 11 unique exclusion lists needing 16 bytes
TCL: Running for 1500000 steps
ETITLE: TS BOND ANGLE DIHED IMPRP ELECT VDW BOUNDARY MISC KINETIC TOTAL TEMP POTENTIAL TOTALAVG TEMPAVG PRESSURE GPRESSURE VOLUME PRESSAVG GPRESSAVG
ENERGY: 0 3.7512 2.1446 1.5103 0.0000 -10615.3364 1442.8564 0.0000 0.0000 1771.2330 -7393.8410 306.5079 -9165.0740 -7393.8410 306.5079 -98.5893 -1.1372 29988.7895 -98.5893 -1.1372
ENERGY: 300000 0.9255 3.9889 0.9837 0.0000 -10724.8043 1528.1306 0.0000 0.0000 1798.6608 -7392.1148 311.2542 -9190.7756 -7392.6707 305.4166 909.1294 898.2765 29396.3990 390.9232 443.1059
ENERGY: 600000 1.8460 2.8081 2.6077 0.0000 -10456.9511 1353.3396 0.0000 0.0000 1728.8842 -7367.4656 299.1795 -9096.3498 -7377.0947 302.9387 -553.0268 -473.8901 29719.4043 173.6578 239.6277
ENERGY: 900000 0.4293 5.3064 1.2405 0.0000 -10410.1968 1345.9465 0.0000 0.0000 1797.1643 -7260.1098 310.9953 -9057.2740 -7370.0594 302.7631 -482.6810 -434.5242 30233.6147 83.8679 155.7330
ENERGY: 1200000 0.3870 2.7012 1.2965 0.0000 -10569.6256 1467.7847 0.0000 0.0000 1737.8360 -7359.6202 300.7286 -9097.4562 -7376.5666 301.5751 761.7993 793.9334 29362.3342 84.6781 148.2531
ENERGY: 1500000 1.9306 3.6148 2.4134 0.0000 -10656.2960 1485.7560 0.0000 0.0000 1731.5786 -7431.0025 299.6458 -9162.5812 -7376.2586 301.0979 246.6812 316.4764 29819.5853 113.8952 173.2114
TCL: Running FEP window   2: Lambda1 0.05   Lambda2 0.1    [dLambda 0.05  ]
TCL: Setting parameter firsttimestep to 0
TCL: Setting parameter alchLambda to 0.05
Info: NONBONDED TABLE R-SQUARED SPACING: 0.0625
Info: NONBONDED TABLE SIZE: 705 POINTS
TCL: Setting parameter alchLambda2 to 0.1
Info: NONBONDED TABLE R-SQUARED SPACING: 0.0625
Info: NONBONDED TABLE SIZE: 705 POINTS
TCL: Running for 1500000 steps
ETITLE: TS BOND ANGLE DIHED IMPRP ELECT VDW BOUNDARY MISC KINETIC TOTAL TEMP POTENTIAL TOTALAVG TEMPAVG PRESSURE GPRESSURE VOLUME PRESSAVG GPRESSAVG
ENERGY: 0 1.9306 3.6148 2.4134 0.0000 -10656.2960 1489.1983 0.0000 0.0000 1730.6972 -7428.4417 299.4933 -9159.1389 -7428.4417 299.4933 246.4465 327.5618 29819.5853 246.4465 327.5618
ENERGY: 300000 1.5722 4.4067 2.5688 0.0000 -10645.4046 1481.2002 0.0000 0.0000 1716.5552 -7439.1014 297.0460 -9155.6566 -7424.1332 298.2046 332.2881 417.8427 29740.9122 -144.5619 -87.6103
ENERGY: 600000 0.6247 2.6828 1.0380 0.0000 -10599.8519 1457.9284 0.0000 0.0000 1764.9950 -7372.5830 305.4284 -9137.5780 -7395.8693 299.1265 164.3770 275.7605 29738.2472 -71.4082 2.7967
ENERGY: 900000 0.6656 5.8122 2.5331 0.0000 -10503.6025 1429.3558 0.0000 0.0000 1794.4596 -7270.7763 310.5272 -9065.2359 -7369.0519 300.2849 406.3879 460.6111 29375.4833 1.8844 73.4116
ENERGY: 1200000 2.4434 1.9219 2.4495 0.0000 -10616.9152 1486.0240 0.0000 0.0000 1736.1948 -7387.8816 300.4446 -9124.0764 -7374.7380 300.5918 237.3808 323.6852 30368.9807 -27.5875 38.6787
ENERGY: 1500000 0.8425 4.9505 1.2122 0.0000 -10535.0276 1403.0065 0.0000 0.0000 1763.0092 -7362.0066 305.0848 -9125.0158 -7380.4485 300.6161 -96.2432 -50.3182 29982.2329 -9.4761 53.2408
TCL: Running FEP window   3: Lambda1 0.1    Lambda2 0.15000000000000002 [dLambda 0.05000000000000002]
TCL: Setting parameter firsttimestep to 0
TCL: Setting parameter alchLambda to 0.1
Info: NONBONDED TABLE R-SQUARED SPACING: 0.0625
Info: NONBONDED TABLE SIZE: 705 POINTS
TCL: Setting parameter alchLambda2 to 0.15000000000000002
Info: NONBONDED TABLE R-SQUARED SPACING: 0.0625
Info: NONBONDED TABLE SIZE: 705 POINTS
TCL: Running for 1500000 steps
ETITLE: TS BOND ANGLE DIHED IMPRP ELECT VDW BOUNDARY MISC KINETIC TOTAL TEMP POTENTIAL TOTALAVG TEMPAVG PRESSURE GPRESSURE VOLUME PRESSAVG GPRESSAVG
ENERGY: 0 0.8425 4.9505 1.2122 0.0000 -10535.0282 1407.5013 0.0000 0.0000 1762.1463 -7358.3754 304.9355 -9120.5217 -7358.3754 304.9355 -110.8682 -41.9291 29982.2329 -110.8682 -41.9291
ENERGY: 300000 2.3337 2.8667 1.4773 0.0000 -10435.3187 1347.7987 0.0000 0.0000 1718.9517 -7361.8906 297.4607 -9080.8423 -7407.0771 298.9452 -458.3144 -442.3822 29835.8395 -270.1062 -199.0367
ENERGY: 600000 1.5346 2.9076 1.7633 0.0000 -10457.1722 1378.7878 0.0000 0.0000 1767.9951 -7304.1838 305.9476 -9072.1789 -7387.1571 301.4999 -407.1382 -292.4649 30048.8019 -111.3600 -35.8908
ENERGY: 900000 0.1190 2.0438 1.1489 0.0000 -10431.5569 1356.6496 0.0000 0.0000 1679.0662 -7392.5295 290.5586 -9071.5957 -7393.8865 300.3777 -504.5536 -350.5733 29901.2117 -186.1982 -110.3260
ENERGY: 1200000 0.4452 4.0331 2.3687 0.0000 -10471.3014 1372.2045 0.0000 0.0000 1743.4152 -7348.8347 301.6941 -9092.2499 -7379.9409 299.8689 -336.5326 -284.0531 30031.6642 -112.3798 -40.7268
ENERGY: 1500000 1.1949 4.1637 1.2182 0.0000 -10422.9110 1347.9994 0.0000 0.0000 1683.7040 -7384.6307 291.3612 -9068.3347 -7377.7298 299.1115 -574.4430 -525.4515 30189.6560 -101.3559 -28.8140
TCL: Running FEP window   4: Lambda1 0.15000000000000002 Lambda2 0.2    [dLambda 0.04999999999999999]
TCL: Setting parameter firsttimestep to 0
TCL: Setting parameter alchLambda to 0.15000000000000002
Info: NONBONDED TABLE R-SQUARED SPACING: 0.0625
Info: NONBONDED TABLE SIZE: 705 POINTS
TCL: Setting parameter alchLambda2 to 0.2
Info: NONBONDED TABLE R-SQUARED SPACING: 0.0625
Info: NONBONDED TABLE SIZE: 705 POINTS
TCL: Running for 1500000 steps
ETITLE: TS BOND ANGLE DIHED IMPRP ELECT VDW BOUNDARY MISC KINETIC TOTAL TEMP POTENTIAL TOTALAVG TEMPAVG PRESSURE GPRESSURE VOLUME PRESSAVG GPRESSAVG
ENERGY: 0 1.1949 4.1637 1.2182 0.0000 -10422.9102 1348.2823 0.0000 0.0000 1682.8188 -7385.2323 291.2080 -9068.0511 -7385.2323 291.2080 -605.8229 -520.4028 30189.6560 -605.8229 -520.4028
ENERGY: 300000 0.3925 2.2763 1.0807 0.0000 -10517.6489 1377.6693 0.0000 0.0000 1774.3595 -7361.8707 307.0489 -9136.2301 -7390.0532 297.4577 -399.9280 -331.1575 29882.4582 -563.3152 -528.0457
ENERGY: 600000 0.7313 3.8615 0.8569 0.0000 -10683.8267 1425.1656 0.0000 0.0000 1781.3375 -7471.8740 308.2565 -9253.2114 -7405.8831 299.6029 -458.4735 -395.4121 30049.4836 -460.8515 -423.1287
ENERGY: 900000 0.2771 1.9167 2.4258 0.0000 -10596.8035 1356.3688 0.0000 0.0000 1732.8711 -7502.9440 299.8695 -9235.8152 -7419.3335 298.7713 -1086.4633 -1003.1596 30153.6847 -462.2696 -420.6806
ENERGY: 1200000 0.9059 3.2049 2.4172 0.0000 -10532.6333 1371.5884 0.0000 0.0000 1722.4546 -7432.0624 298.0669 -9154.5170 -7413.8253 298.4723 -561.8363 -452.1221 29669.1223 -457.3334 -411.6198
ENERGY: 1500000 0.2772 3.3086 1.6340 0.0000 -10496.7150 1405.4807 0.0000 0.0000 1746.0581 -7339.9564 302.1514 -9086.0145 -7408.9755 298.7470 -125.6580 -2.0339 30046.1974 -353.6035 -299.6838
TCL: Running FEP window   5: Lambda1 0.2    Lambda2 0.25   [dLambda 0.04999999999999999]
TCL: Setting parameter firsttimestep to 0
TCL: Setting parameter alchLambda to 0.2
Info: NONBONDED TABLE R-SQUARED SPACING: 0.0625
Info: NONBONDED TABLE SIZE: 705 POINTS
TCL: Setting parameter alchLambda2 to 0.25
Info: NONBONDED TABLE R-SQUARED SPACING: 0.0625
Info: NONBONDED TABLE SIZE: 705 POINTS
TCL: Running for 1500000 steps
ETITLE: TS BOND ANGLE DIHED IMPRP ELECT VDW BOUNDARY MISC KINETIC TOTAL TEMP POTENTIAL TOTALAVG TEMPAVG PRESSURE GPRESSURE VOLUME PRESSAVG GPRESSAVG
ENERGY: 0 0.2772 3.3086 1.6340 0.0000 -10496.7153 1405.1723 0.0000 0.0000 1745.1902 -7341.1331 302.0013 -9086.3233 -7341.1331 302.0013 -88.7152 -1.2391 30046.1974 -88.7152 -1.2391
ENERGY: 300000 0.3368 2.3871 1.1134 0.0000 -10807.8156 1558.8982 0.0000 0.0000 1732.2786 -7512.8015 299.7669 -9245.0801 -7421.2955 296.8577 926.0788 951.2829 29446.0650 294.4105 369.1696
ENERGY: 600000 1.3856 5.1752 1.0127 0.0000 -10405.8261 1310.4584 0.0000 0.0000 1717.3485 -7370.4458 297.1833 -9087.7942 -7400.1597 297.3050 -745.0523 -682.0579 29940.9329 -171.2292 -95.3347
ENERGY: 900000 1.0582 3.0673 0.9841 0.0000 -10649.0911 1456.0207 0.0000 0.0000 1715.5591 -7472.4017 296.8737 -9187.9609 -7402.7807 297.1598 -103.3264 29.5150 29722.6887 -168.7472 -93.8993
ENERGY: 1200000 0.8303 4.4366 2.3868 0.0000 -10581.6199 1456.0570 0.0000 0.0000 1792.5467 -7325.3625 310.1962 -9117.9092 -7396.1834 298.2819 199.3723 210.9848 30186.4620 -195.8890 -126.7925
ENERGY: 1500000 0.7948 1.2545 1.8244 0.0000 -10585.1248 1443.6816 0.0000 0.0000 1722.3373 -7415.2323 298.0466 -9137.5695 -7390.4990 299.2167 413.1421 479.7118 29495.0651 -72.2751 -3.1649
TCL: Running FEP window   6: Lambda1 0.25   Lambda2 0.3    [dLambda 0.04999999999999999]
TCL: Setting parameter firsttimestep to 0
TCL: Setting parameter alchLambda to 0.25
Info: NONBONDED TABLE R-SQUARED SPACING: 0.0625
Info: NONBONDED TABLE SIZE: 705 POINTS
TCL: Setting parameter alchLambda2 to 0.3
Info: NONBONDED TABLE R-SQUARED SPACING: 0.0625
Info: NONBONDED TABLE SIZE: 705 POINTS
TCL: Running for 1500000 steps
ETITLE: TS BOND ANGLE DIHED IMPRP ELECT VDW BOUNDARY MISC KINETIC TOTAL TEMP POTENTIAL TOTALAVG TEMPAVG PRESSURE GPRESSURE VOLUME PRESSAVG GPRESSAVG
ENERGY: 0 0.7948 1.2545 1.8244 0.0000 -10585.1240 1443.6071 0.0000 0.0000 1721.4821 -7416.1611 297.8986 -9137.6433 -7416.1611 297.8986 399.8001 484.5178 29495.0651 399.8001 484.5178
ENERGY: 300000 0.0420 2.5355 1.0465 0.0000 -10611.2849 1438.0183 0.0000 0.0000 1704.6102 -7465.0324 294.9790 -9169.6426 -7450.6906 295.9035 -17.8273 -4.5379 29983.3820 -57.4989 -6.3510
ENERGY: 600000 1.2771 1.1875 1.3611 0.0000 -10622.2792 1451.2371 0.0000 0.0000 1677.2615 -7489.9548 290.2464 -9167.2163 -7433.5458 295.9083 199.6099 300.3361 29417.8067 -17.4124 33.6110
ENERGY: 900000 1.5145 3.7398 1.5998 0.0000 -10535.5148 1403.2544 0.0000 0.0000 1739.9022 -7385.5041 301.0862 -9125.4063 -7413.1720 297.8610 -285.9920 -173.5185 29900.4020 -117.9177 -59.6371
ENERGY: 1200000 0.7587 3.5552 1.3466 0.0000 -10508.1385 1393.9445 0.0000 0.0000 1686.7996 -7421.7339 291.8969 -9108.5335 -7403.0514 297.7369 -298.1211 -268.4305 30294.8778 -137.4284 -81.4400
ENERGY: 1500000 0.3871 4.0057 2.4895 0.0000 -10416.9733 1300.3625 0.0000 0.0000 1732.8571 -7376.8714 299.8671 -9109.7286 -7404.5245 298.3356 -906.1585 -787.6355 29901.3428 -117.3776 -56.5897
TCL: Running FEP window   7: Lambda1 0.3    Lambda2 0.35   [dLambda 0.04999999999999999]
TCL: Setting parameter firsttimestep to 0
TCL: Setting parameter alchLambda to 0.3
Info: NONBONDED TABLE R-SQUARED SPACING: 0.0625
Info: NONBONDED TABLE SIZE: 705 POINTS
TCL: Setting parameter alchLambda2 to 0.35
Info: NONBONDED TABLE R-SQUARED SPACING: 0.0625
Info: NONBONDED TABLE SIZE: 705 POINTS
TCL: Running for 1500000 steps
ETITLE: TS BOND ANGLE DIHED IMPRP ELECT VDW BOUNDARY MISC KINETIC TOTAL TEMP POTENTIAL TOTALAVG TEMPAVG PRESSURE GPRESSURE VOLUME PRESSAVG GPRESSAVG
ENERGY: 0 0.3872 4.0057 2.4895 0.0000 -10416.9748 1300.1239 0.0000 0.0000 1731.9737 -7377.9949 299.7142 -9109.9686 -7377.9949 299.7142 -865.2579 -786.1371 29901.3428 -865.2579 -786.1371
ENERGY: 300000 0.5672 1.8837 0.9553 0.0000 -10631.4302 1443.8301 0.0000 0.0000 1767.2242 -7416.9697 305.8142 -9184.1939 -7395.0983 300.9158 170.5310 237.2308 29569.8470 -56.1371 4.0370
ENERGY: 600000 0.5783 3.2907 1.1253 0.0000 -10582.4135 1404.8362 0.0000 0.0000 1717.8710 -7454.7119 297.2737 -9172.5829 -7392.8596 300.9013 -122.7400 -36.5278 29490.0018 130.1614 192.1815
ENERGY: 900000 3.0479 4.2649 1.4006 0.0000 -10525.0000 1420.1558 0.0000 0.0000 1730.7122 -7365.4186 299.4959 -9096.1309 -7388.5833 300.1221 69.7643 147.9978 29643.8603 92.4505 155.0013
ENERGY: 1200000 0.0882 1.5903 2.7810 0.0000 -10432.8846 1418.0297 0.0000 0.0000 1743.6158 -7266.7797 301.7288 -9010.3955 -7371.1223 300.7768 354.9950 384.3337 29955.3562 3.8840 64.6455
ENERGY: 1500000 0.1393 3.8438 0.8632 0.0000 -10591.0085 1459.9481 0.0000 0.0000 1766.3461 -7359.8679 305.6622 -9126.2140 -7375.8245 301.4224 289.1824 342.3100 30079.7566 30.6188 97.6254
TCL: Running FEP window   8: Lambda1 0.35   Lambda2 0.39999999999999997 [dLambda 0.04999999999999999]
TCL: Setting parameter firsttimestep to 0
TCL: Setting parameter alchLambda to 0.35
Info: NONBONDED TABLE R-SQUARED SPACING: 0.0625
Info: NONBONDED TABLE SIZE: 705 POINTS
TCL: Setting parameter alchLambda2 to 0.39999999999999997
Info: NONBONDED TABLE R-SQUARED SPACING: 0.0625
Info: NONBONDED TABLE SIZE: 705 POINTS
TCL: Running for 1500000 steps
ETITLE: TS BOND ANGLE DIHED IMPRP ELECT VDW BOUNDARY MISC KINETIC TOTAL TEMP POTENTIAL TOTALAVG TEMPAVG PRESSURE GPRESSURE VOLUME PRESSAVG GPRESSAVG
ENERGY: 0 0.1393 3.8438 0.8632 0.0000 -10591.0084 1459.7104 0.0000 0.0000 1765.4984 -7360.9532 305.5155 -9126.4515 -7360.9532 305.5155 250.4078 344.6073 30079.7566 250.4078 344.6073
ENERGY: 300000 0.2767 2.8303 2.3717 0.0000 -10576.0326 1425.1205 0.0000 0.0000 1757.1447 -7388.2887 304.0700 -9145.4334 -7372.3865 302.3301 156.6399 187.1319 29659.5403 -65.3752 -6.8761
ENERGY: 600000 0.1950 3.4530 2.3811 0.0000 -10623.2018 1455.2251 0.0000 0.0000 1764.5418 -7397.4057 305.3500 -9161.9475 -7389.2970 302.2648 223.2484 267.5074 29594.3606 77.9891 146.2385
ENERGY: 900000 0.6900 3.0734 2.4175 0.0000 -10500.6741 1368.3257 0.0000 0.0000 1751.2929 -7374.8746 303.0573 -9126.1675 -7384.9871 301.9591 -543.1276 -461.2839 30230.5220 54.1272 123.5837
ENERGY: 1200000 0.6282 2.8383 1.0391 0.0000 -10644.1663 1439.3398 0.0000 0.0000 1719.4996 -7480.8212 297.5556 -9200.3208 -7385.3339 302.0912 -202.3465 -129.9524 30215.7359 91.0942 158.0354
ENERGY: 1500000 0.3045 1.1179 2.5393 0.0000 -10433.1672 1356.3062 0.0000 0.0000 1751.2201 -7321.6792 303.0447 -9072.8993 -7384.4610 301.4113 -690.9633 -622.8013 30490.2760 19.1634 89.1223
TCL: Running FEP window   9: Lambda1 0.39999999999999997 Lambda2 0.44999999999999996 [dLambda 0.04999999999999999]
TCL: Setting parameter firsttimestep to 0
TCL: Setting parameter alchLambda to 0.39999999999999997
Info: NONBONDED TABLE R-SQUARED SPACING: 0.0625
Info: NONBONDED TABLE SIZE: 705 POINTS
TCL: Setting parameter alchLambda2 to 0.44999999999999996
Info: NONBONDED TABLE R-SQUARED SPACING: 0.0625
Info: NONBONDED TABLE SIZE: 705 POINTS
TCL: Running for 1500000 steps
ETITLE: TS BOND ANGLE DIHED IMPRP ELECT VDW BOUNDARY MISC KINETIC TOTAL TEMP POTENTIAL TOTALAVG TEMPAVG PRESSURE GPRESSURE VOLUME PRESSAVG GPRESSAVG
ENERGY: 0 0.3045 1.1179 2.5393 0.0000 -10433.1666 1356.8913 0.0000 0.0000 1750.3453 -7321.9684 302.8933 -9072.3137 -7321.9684 302.8933 -683.3332 -613.8738 30490.2760 -683.3332 -613.8738
ENERGY: 300000 1.0328 1.4818 1.2315 0.0000 -10416.2775 1295.1895 0.0000 0.0000 1762.7980 -7354.5439 305.0483 -9117.3419 -7321.1653 302.8930 -1058.1505 -1024.4907 30259.7664 -198.1997 -144.2888
ENERGY: 600000 0.2207 1.4426 0.8915 0.0000 -10551.2756 1428.4388 0.0000 0.0000 1727.1365 -7393.1454 298.8771 -9120.2820 -7330.4440 301.5778 178.5267 275.5064 29593.2401 -259.3267 -189.2537
ENERGY: 900000 1.1123 3.7452 1.0081 0.0000 -10495.0680 1410.2372 0.0000 0.0000 1729.2673 -7349.6979 299.2458 -9078.9653 -7342.1419 301.5654 104.8621 221.5022 29766.2034 -201.5081 -134.7466
ENERGY: 1200000 0.5000 3.1558 1.0059 0.0000 -10509.5898 1416.6361 0.0000 0.0000 1672.0837 -7416.2082 289.3503 -9088.2919 -7363.4617 299.4136 44.7430 95.2250 30011.7707 -208.1803 -136.8966
ENERGY: 1500000 0.4254 3.5161 2.1490 0.0000 -10562.7105 1411.9113 0.0000 0.0000 1727.4691 -7417.2395 298.9347 -9144.7086 -7370.1588 299.4775 -154.9137 -85.0239 30043.5080 -200.7243 -125.2782
TCL: Running FEP window  10: Lambda1 0.44999999999999996 Lambda2 0.49999999999999994 [dLambda 0.04999999999999999]
TCL: Setting parameter firsttimestep to 0
TCL: Setting parameter alchLambda to 0.44999999999999996
Info: NONBONDED TABLE R-SQUARED SPACING: 0.0625
Info: NONBONDED TABLE SIZE: 705 POINTS
TCL: Setting parameter alchLambda2 to 0.49999999999999994
Info: NONBONDED TABLE R-SQUARED SPACING: 0.0625
Info: NONBONDED TABLE SIZE: 705 POINTS
TCL: Running for 1500000 steps
ETITLE: TS BOND ANGLE DIHED IMPRP ELECT VDW BOUNDARY MISC KINETIC TOTAL TEMP POTENTIAL TOTALAVG TEMPAVG PRESSURE GPRESSURE VOLUME PRESSAVG GPRESSAVG
ENERGY: 0 0.4254 3.5161 2.1490 0.0000 -10562.7117 1412.0909 0.0000 0.0000 1726.5683 -7417.9620 298.7788 -9144.5303 -7417.9620 298.7788 -162.2540 -80.3162 30043.5080 -162.2540 -80.3162
ENERGY: 300000 0.7911 3.4172 1.2179 0.0000 -10572.5734 1448.2545 0.0000 0.0000 1767.2496 -7351.6430 305.8186 -9118.8927 -7383.3198 301.5460 616.7559 644.0371 29417.2601 173.7202 239.7244
ENERGY: 600000 1.2723 1.7400 2.5006 0.0000 -10627.0945 1464.1189 0.0000 0.0000 1706.8604 -7450.6024 295.3684 -9157.4628 -7419.6552 298.4460 305.1485 375.5569 29847.5265 80.5409 146.6842
ENERGY: 900000 0.4307 3.0421 1.4225 0.0000 -10643.2209 1457.6955 0.0000 0.0000 1714.2486 -7466.3815 296.6469 -9180.6301 -7423.8935 297.9669 63.1993 135.2141 29936.0967 -16.9389 49.8571
ENERGY: 1200000 0.8502 4.2063 2.4937 0.0000 -10601.5081 1416.1880 0.0000 0.0000 1727.3032 -7450.4666 298.9060 -9177.7698 -7415.2289 298.0659 63.6686 -2.9895 29635.0877 -33.8452 14.4964
ENERGY: 1500000 0.4573 5.1874 1.8255 0.0000 -10566.2998 1425.4721 0.0000 0.0000 1741.0455 -7392.3120 301.2840 -9133.3575 -7407.4304 298.6660 -24.6769 137.1620 29828.9190 -12.3680 37.4021
TCL: Running FEP window  11: Lambda1 0.49999999999999994 Lambda2 0.5499999999999999 [dLambda 0.04999999999999999]
TCL: Setting parameter firsttimestep to 0
TCL: Setting parameter alchLambda to 0.49999999999999994
Info: NONBONDED TABLE R-SQUARED SPACING: 0.0625
Info: NONBONDED TABLE SIZE: 705 POINTS
TCL: Setting parameter alchLambda2 to 0.5499999999999999
Info: NONBONDED TABLE R-SQUARED SPACING: 0.0625
Info: NONBONDED TABLE SIZE: 705 POINTS
TCL: Running for 1500000 steps
ETITLE: TS BOND ANGLE DIHED IMPRP ELECT VDW BOUNDARY MISC KINETIC TOTAL TEMP POTENTIAL TOTALAVG TEMPAVG PRESSURE GPRESSURE VOLUME PRESSAVG GPRESSAVG
ENERGY: 0 0.4573 5.1874 1.8255 0.0000 -10566.2990 1426.3495 0.0000 0.0000 1740.1857 -7392.2936 301.1352 -9132.4793 -7392.2936 301.1352 64.4288 144.4690 29828.9190 64.4288 144.4690
ENERGY: 300000 0.7866 2.5961 1.3662 0.0000 -10558.6502 1448.6164 0.0000 0.0000 1688.3781 -7416.9067 292.1701 -9105.2848 -7424.8110 298.6130 18.1440 72.1114 30588.7003 122.7619 191.1246
ENERGY: 600000 0.3738 7.2337 1.4240 0.0000 -10539.0936 1411.8799 0.0000 0.0000 1768.9863 -7349.1960 306.1191 -9118.1824 -7419.8940 299.2575 -24.7565 59.2675 29952.1960 65.4691 143.0211
ENERGY: 900000 0.7157 2.1378 0.9420 0.0000 -10546.5483 1447.0524 0.0000 0.0000 1769.2034 -7326.4969 306.1567 -9095.7002 -7390.6617 302.2508 97.5026 188.4190 30200.2379 -35.7859 44.2421
ENERGY: 1200000 1.0038 2.8001 2.2271 0.0000 -10487.7010 1318.7724 0.0000 0.0000 1694.6914 -7468.2062 293.2625 -9162.8975 -7395.1607 301.5434 -1074.0328 -988.3646 30030.5795 -42.1499 30.7244
ENERGY: 1500000 1.0842 2.6503 2.4220 0.0000 -10663.6663 1499.2721 0.0000 0.0000 1734.9824 -7423.2552 300.2348 -9158.2377 -7400.3882 301.0443 324.8208 457.2883 30255.7615 -52.0380 25.2186
TCL: Running FEP window  12: Lambda1 0.5499999999999999 Lambda2 0.6    [dLambda 0.050000000000000044]
TCL: Setting parameter firsttimestep to 0
TCL: Setting parameter alchLambda to 0.5499999999999999
Info: NONBONDED TABLE R-SQUARED SPACING: 0.0625
Info: NONBONDED TABLE SIZE: 705 POINTS
TCL: Setting parameter alchLambda2 to 0.6
Info: NONBONDED TABLE R-SQUARED SPACING: 0.0625
Info: NONBONDED TABLE SIZE: 705 POINTS
TCL: Running for 1500000 steps
ETITLE: TS BOND ANGLE DIHED IMPRP ELECT VDW BOUNDARY MISC KINETIC TOTAL TEMP POTENTIAL TOTALAVG TEMPAVG PRESSURE GPRESSURE VOLUME PRESSAVG GPRESSAVG
ENERGY: 0 1.0842 2.6503 2.4220 0.0000 -10663.5488 1499.0907 0.0000 0.0000 1734.1473 -7424.1542 300.0903 -9158.3016 -7424.1542 300.0903 394.6607 459.8906 30255.7615 394.6607 459.8906
ENERGY: 300000 1.0806 2.5711 1.0095 0.0000 -10539.8713 1443.3343 0.0000 0.0000 1747.4313 -7344.4445 302.3891 -9091.8758 -7393.9702 299.9158 192.1634 251.0405 30210.8925 -62.0883 18.2738
ENERGY: 600000 0.7804 2.2592 1.3570 0.0000 -10656.3771 1491.1887 0.0000 0.0000 1786.6878 -7374.1040 309.1823 -9160.7918 -7377.9506 301.4836 95.9138 115.2851 30520.6618 -44.6277 34.3406
ENERGY: 900000 1.5404 2.6055 3.0571 0.0000 -10602.2772 1459.1871 0.0000 0.0000 1714.0809 -7421.8063 296.6179 -9135.8872 -7380.5361 302.2716 375.3916 467.6411 29623.7222 -5.2435 64.0163
ENERGY: 1200000 0.2458 2.5916 1.5490 0.0000 -10640.2638 1462.5500 0.0000 0.0000 1746.2370 -7427.0904 302.1824 -9173.3274 -7389.7791 301.1736 317.2195 433.3712 29590.5607 -5.6931 65.8111
ENERGY: 1500000 0.6701 3.5520 2.9585 0.0000 -10627.3704 1474.8377 0.0000 0.0000 1723.8376 -7421.5143 298.3062 -9145.3519 -7390.7909 300.3799 429.8690 489.6763 29797.3210 -78.8660 -7.6781
TCL: Running FEP window  13: Lambda1 0.6    Lambda2 0.65   [dLambda 0.050000000000000044]
TCL: Setting parameter firsttimestep to 0
TCL: Setting parameter alchLambda to 0.6
Info: NONBONDED TABLE R-SQUARED SPACING: 0.0625
Info: NONBONDED TABLE SIZE: 705 POINTS
TCL: Setting parameter alchLambda2 to 0.65
Info: NONBONDED TABLE R-SQUARED SPACING: 0.0625
Info: NONBONDED TABLE SIZE: 705 POINTS
TCL: Running for 1500000 steps
ETITLE: TS BOND ANGLE DIHED IMPRP ELECT VDW BOUNDARY MISC KINETIC TOTAL TEMP POTENTIAL TOTALAVG TEMPAVG PRESSURE GPRESSURE VOLUME PRESSAVG GPRESSAVG
ENERGY: 0 0.6701 3.5520 2.9585 0.0000 -10627.3011 1475.2303 0.0000 0.0000 1723.0127 -7421.8773 298.1635 -9144.8901 -7421.8773 298.1635 408.3108 494.7961 29797.3210 408.3108 494.7961
ENERGY: 300000 4.4974 2.7711 2.4242 0.0000 -10605.7608 1470.7583 0.0000 0.0000 1676.7295 -7448.5804 290.1543 -9125.3099 -7422.1779 296.1912 550.1318 647.4607 29801.1083 140.0763 210.3808
ENERGY: 600000 0.7608 1.5735 0.9359 0.0000 -10689.0236 1527.6563 0.0000 0.0000 1715.7233 -7442.3738 296.9021 -9158.0971 -7384.7512 299.3404 922.1780 926.8566 29683.0488 331.7032 389.9353
ENERGY: 900000 0.6599 4.3930 2.4125 0.0000 -10505.8241 1424.0973 0.0000 0.0000 1752.0223 -7322.2390 303.1835 -9074.2613 -7374.8320 299.0462 144.2042 190.9085 30341.6214 299.5079 357.8705
ENERGY: 1200000 0.7644 3.6542 1.1480 0.0000 -10626.2312 1477.8785 0.0000 0.0000 1755.3580 -7387.4281 303.7608 -9142.7861 -7365.7366 300.7131 436.1623 563.9070 29564.5560 324.9356 386.6774
ENERGY: 1500000 0.7966 4.5618 2.5159 0.0000 -10508.1877 1417.3557 0.0000 0.0000 1721.9826 -7360.9752 297.9852 -9082.9578 -7370.2557 300.2781 -80.6487 -22.2149 30046.2041 256.5029 322.0702
TCL: Running FEP window  14: Lambda1 0.65   Lambda2 0.7000000000000001 [dLambda 0.050000000000000044]
TCL: Setting parameter firsttimestep to 0
TCL: Setting parameter alchLambda to 0.65
Info: NONBONDED TABLE R-SQUARED SPACING: 0.0625
Info: NONBONDED TABLE SIZE: 705 POINTS
TCL: Setting parameter alchLambda2 to 0.7000000000000001
Info: NONBONDED TABLE R-SQUARED SPACING: 0.0625
Info: NONBONDED TABLE SIZE: 705 POINTS
TCL: Running for 1500000 steps
ETITLE: TS BOND ANGLE DIHED IMPRP ELECT VDW BOUNDARY MISC KINETIC TOTAL TEMP POTENTIAL TOTALAVG TEMPAVG PRESSURE GPRESSURE VOLUME PRESSAVG GPRESSAVG
ENERGY: 0 0.7966 4.5618 2.5159 0.0000 -10508.3466 1417.8535 0.0000 0.0000 1721.1131 -7361.5059 297.8348 -9082.6189 -7361.5059 297.8348 -85.8096 -8.5903 30046.2041 -85.8096 -8.5903
ENERGY: 300000 0.7352 2.2953 2.3958 0.0000 -10600.2693 1441.6752 0.0000 0.0000 1765.9165 -7387.2513 305.5879 -9153.1678 -7375.2650 301.4947 72.5855 128.4661 29968.1967 -117.8078 -68.8343
ENERGY: 600000 0.3365 1.6567 1.0542 0.0000 -10745.5683 1503.3013 0.0000 0.0000 1750.1158 -7489.1040 302.8536 -9239.2197 -7400.0966 302.4864 468.3261 552.4323 29640.5440 -5.0572 54.4836
ENERGY: 900000 0.3215 2.1030 1.0686 0.0000 -10637.1873 1494.8466 0.0000 0.0000 1761.1104 -7377.7372 304.7562 -9138.8476 -7391.7701 302.1915 806.5130 836.4849 29626.5464 143.7839 194.3705
ENERGY: 1200000 0.1737 2.2580 1.2834 0.0000 -10624.6657 1483.4424 0.0000 0.0000 1744.7515 -7392.7566 301.9253 -9137.5081 -7391.9614 302.4601 450.2820 549.8045 29835.8776 178.8263 242.6517
ENERGY: 1500000 0.8300 5.0011 1.1980 0.0000 -10615.9732 1421.5496 0.0000 0.0000 1718.4899 -7468.9045 297.3808 -9187.3944 -7395.3875 301.7726 -89.1662 18.4512 29634.5121 107.4188 175.3920
TCL: Running FEP window  15: Lambda1 0.7000000000000001 Lambda2 0.7500000000000001 [dLambda 0.050000000000000044]
TCL: Setting parameter firsttimestep to 0
TCL: Setting parameter alchLambda to 0.7000000000000001
Info: NONBONDED TABLE R-SQUARED SPACING: 0.0625
Info: NONBONDED TABLE SIZE: 705 POINTS
TCL: Setting parameter alchLambda2 to 0.7500000000000001
Info: NONBONDED TABLE R-SQUARED SPACING: 0.0625
Info: NONBONDED TABLE SIZE: 705 POINTS
TCL: Running for 1500000 steps
ETITLE: TS BOND ANGLE DIHED IMPRP ELECT VDW BOUNDARY MISC KINETIC TOTAL TEMP POTENTIAL TOTALAVG TEMPAVG PRESSURE GPRESSURE VOLUME PRESSAVG GPRESSAVG
ENERGY: 0 0.8300 5.0012 1.1980 0.0000 -10616.0203 1421.6839 0.0000 0.0000 1717.6601 -7469.6472 297.2372 -9187.3073 -7469.6472 297.2372 -70.0808 25.9317 29634.5121 -70.0808 25.9317
ENERGY: 300000 0.1614 4.6766 1.0962 0.0000 -10630.5158 1460.0214 0.0000 0.0000 1705.4036 -7459.1566 295.1163 -9164.5602 -7405.2004 298.6726 -11.3509 120.8061 30017.8326 -179.7033 -80.4283
ENERGY: 600000 0.2408 4.1799 1.2677 0.0000 -10573.0401 1417.0946 0.0000 0.0000 1709.4554 -7440.8017 295.8174 -9150.2571 -7409.4036 296.5333 103.8526 139.8191 29687.5228 -72.4033 18.2721
ENERGY: 900000 0.3875 2.4037 1.5032 0.0000 -10660.6060 1445.0826 0.0000 0.0000 1741.1562 -7470.0727 301.3032 -9211.2289 -7418.9850 297.3781 65.2511 129.1658 29781.0458 -78.1328 6.8784
ENERGY: 1200000 1.9666 3.1725 1.0366 0.0000 -10475.4545 1378.6511 0.0000 0.0000 1766.2842 -7324.3434 305.6515 -9090.6277 -7418.3523 298.2426 -249.5140 -151.2118 29904.1750 -20.2464 53.4913
ENERGY: 1500000 0.5755 3.5257 2.6006 0.0000 -10608.0012 1468.5560 0.0000 0.0000 1752.1941 -7380.5493 303.2133 -9132.7434 -7416.6764 298.8133 299.1649 314.2407 30048.6816 24.4360 92.2643
TCL: Running FEP window  16: Lambda1 0.7500000000000001 Lambda2 0.8000000000000002 [dLambda 0.050000000000000044]
TCL: Setting parameter firsttimestep to 0
TCL: Setting parameter alchLambda to 0.7500000000000001
Info: NONBONDED TABLE R-SQUARED SPACING: 0.0625
Info: NONBONDED TABLE SIZE: 705 POINTS
TCL: Setting parameter alchLambda2 to 0.8000000000000002
Info: NONBONDED TABLE R-SQUARED SPACING: 0.0625
Info: NONBONDED TABLE SIZE: 705 POINTS
TCL: Running for 1500000 steps
ETITLE: TS BOND ANGLE DIHED IMPRP ELECT VDW BOUNDARY MISC KINETIC TOTAL TEMP POTENTIAL TOTALAVG TEMPAVG PRESSURE GPRESSURE VOLUME PRESSAVG GPRESSAVG
ENERGY: 0 0.5755 3.5257 2.6006 0.0000 -10608.3242 1468.2663 0.0000 0.0000 1751.3361 -7382.0199 303.0648 -9133.3561 -7382.0199 303.0648 234.5958 316.9902 30048.6816 234.5958 316.9902
ENERGY: 300000 0.3470 2.4044 1.0558 0.0000 -10566.2863 1429.1769 0.0000 0.0000 1749.1317 -7384.1705 302.6833 -9133.3022 -7389.2041 299.6871 211.3505 284.8532 29605.2870 175.2819 246.4377
ENERGY: 600000 0.2260 2.8854 2.1739 0.0000 -10528.6730 1421.8516 0.0000 0.0000 1723.5358 -7378.0002 298.2540 -9101.5360 -7414.8326 298.7658 129.6637 145.1308 29948.5353 128.5279 186.4147
ENERGY: 900000 1.3235 4.8635 1.5945 0.0000 -10392.6771 1318.0782 0.0000 0.0000 1725.8509 -7340.9665 298.6546 -9066.8174 -7394.4742 300.6044 -999.5302 -1003.0082 30957.8591 36.3804 92.0638
ENERGY: 1200000 0.0281 3.6777 1.0379 0.0000 -10476.4932 1317.3161 0.0000 0.0000 1723.0033 -7431.4301 298.1619 -9154.4335 -7392.4267 300.2387 -972.4212 -1003.3343 30378.6367 -82.1049 -30.9101
ENERGY: 1500000 0.8848 3.9500 1.6033 0.0000 -10662.7377 1464.9580 0.0000 0.0000 1722.1241 -7469.2175 298.0097 -9191.3416 -7396.7385 300.7465 -20.4258 99.1583 29936.4771 -95.4639 -38.5043
TCL: Running FEP window  17: Lambda1 0.8000000000000002 Lambda2 0.8500000000000002 [dLambda 0.050000000000000044]
TCL: Setting parameter firsttimestep to 0
TCL: Setting parameter alchLambda to 0.8000000000000002
Info: NONBONDED TABLE R-SQUARED SPACING: 0.0625
Info: NONBONDED TABLE SIZE: 705 POINTS
TCL: Setting parameter alchLambda2 to 0.8500000000000002
Info: NONBONDED TABLE R-SQUARED SPACING: 0.0625
Info: NONBONDED TABLE SIZE: 705 POINTS
TCL: Running for 1500000 steps
ETITLE: TS BOND ANGLE DIHED IMPRP ELECT VDW BOUNDARY MISC KINETIC TOTAL TEMP POTENTIAL TOTALAVG TEMPAVG PRESSURE GPRESSURE VOLUME PRESSAVG GPRESSAVG
ENERGY: 0 0.8848 3.9500 1.6033 0.0000 -10663.2099 1464.9012 0.0000 0.0000 1721.2408 -7470.6299 297.8569 -9191.8706 -7470.6299 297.8569 7.1884 103.3211 29936.4771 7.1884 103.3211
ENERGY: 300000 0.8145 9.9000 2.6976 0.0000 -10446.0742 1388.6897 0.0000 0.0000 1704.4432 -7339.5290 294.9501 -9043.9723 -7385.1899 297.7146 18.1915 28.5270 29993.1519 19.9326 81.0270
ENERGY: 600000 0.4368 3.3293 0.9865 0.0000 -10551.0126 1353.3753 0.0000 0.0000 1718.4103 -7474.4744 297.3671 -9192.8847 -7383.5576 298.8898 -863.5354 -846.5489 30302.2542 -220.9310 -155.3612
ENERGY: 900000 1.8924 2.6873 2.5389 0.0000 -10620.7541 1429.7736 0.0000 0.0000 1785.7687 -7398.0933 309.0233 -9183.8620 -7397.8918 299.7717 -31.4714 78.5890 29889.8777 -136.0710 -73.9075
ENERGY: 1200000 0.7010 5.0716 2.4274 0.0000 -10514.3939 1389.5484 0.0000 0.0000 1777.9834 -7338.6620 307.6760 -9116.6454 -7395.3182 301.1637 -186.2424 -137.0580 29869.2221 -174.7346 -113.4614
ENERGY: 1500000 0.3681 3.6034 0.9228 0.0000 -10598.3254 1439.5341 0.0000 0.0000 1678.9569 -7474.9401 290.5397 -9153.8970 -7398.8759 300.5348 -197.0120 -172.4170 30382.1328 -196.4497 -135.6233
TCL: Running FEP window  18: Lambda1 0.8500000000000002 Lambda2 0.9000000000000002 [dLambda 0.050000000000000044]
TCL: Setting parameter firsttimestep to 0
TCL: Setting parameter alchLambda to 0.8500000000000002
Info: NONBONDED TABLE R-SQUARED SPACING: 0.0625
Info: NONBONDED TABLE SIZE: 705 POINTS
TCL: Setting parameter alchLambda2 to 0.9000000000000002
Info: NONBONDED TABLE R-SQUARED SPACING: 0.0625
Info: NONBONDED TABLE SIZE: 705 POINTS
TCL: Running for 1500000 steps
ETITLE: TS BOND ANGLE DIHED IMPRP ELECT VDW BOUNDARY MISC KINETIC TOTAL TEMP POTENTIAL TOTALAVG TEMPAVG PRESSURE GPRESSURE VOLUME PRESSAVG GPRESSAVG
ENERGY: 0 0.3681 3.6034 0.9228 0.0000 -10598.6554 1440.4115 0.0000 0.0000 1678.1165 -7475.2331 290.3943 -9153.3495 -7475.2331 290.3943 -231.0301 -149.1641 30382.1328 -231.0301 -149.1641
ENERGY: 300000 3.1683 7.2989 1.7344 0.0000 -10684.7012 1472.5259 0.0000 0.0000 1718.8685 -7481.1053 297.4463 -9199.9737 -7443.7217 296.8774 218.4008 318.4031 29880.0802 117.6835 210.6058
ENERGY: 600000 0.4247 3.2121 2.1411 0.0000 -10649.5257 1445.7967 0.0000 0.0000 1701.8353 -7496.1158 294.4988 -9197.9512 -7430.1673 297.4546 432.0569 444.5759 29120.6547 21.1526 77.2253
ENERGY: 900000 2.7342 2.6753 2.0737 0.0000 -10532.0419 1422.0687 0.0000 0.0000 1756.0830 -7346.4070 303.8862 -9102.4900 -7410.5717 299.2617 194.3355 310.9108 29877.6990 -92.8491 -29.3852
ENERGY: 1200000 1.5773 1.7851 1.0236 0.0000 -10520.2710 1411.7687 0.0000 0.0000 1749.9586 -7354.1577 302.8264 -9104.1163 -7412.8709 299.7890 56.2054 113.0937 30173.6541 2.1140 66.4633
ENERGY: 1500000 0.3679 4.4659 2.1097 0.0000 -10627.8148 1481.9612 0.0000 0.0000 1753.3811 -7385.5291 303.4187 -9138.9102 -7409.9064 299.2720 335.8809 385.0128 30178.9578 56.1079 111.5883
TCL: Running FEP window  19: Lambda1 0.9000000000000002 Lambda2 0.9500000000000003 [dLambda 0.050000000000000044]
TCL: Setting parameter firsttimestep to 0
TCL: Setting parameter alchLambda to 0.9000000000000002
Info: NONBONDED TABLE R-SQUARED SPACING: 0.0625
Info: NONBONDED TABLE SIZE: 705 POINTS
TCL: Setting parameter alchLambda2 to 0.9500000000000003
Info: NONBONDED TABLE R-SQUARED SPACING: 0.0625
Info: NONBONDED TABLE SIZE: 705 POINTS
TCL: Running for 1500000 steps
ETITLE: TS BOND ANGLE DIHED IMPRP ELECT VDW BOUNDARY MISC KINETIC TOTAL TEMP POTENTIAL TOTALAVG TEMPAVG PRESSURE GPRESSURE VOLUME PRESSAVG GPRESSAVG
ENERGY: 0 0.3679 4.4659 2.1097 0.0000 -10628.1014 1483.0329 0.0000 0.0000 1752.5008 -7385.6243 303.2663 -9138.1250 -7385.6243 303.2663 324.0460 405.7322 30178.9578 324.0460 405.7322
ENERGY: 300000 2.9336 5.4495 1.0638 0.0000 -10630.7548 1471.5467 0.0000 0.0000 1775.9966 -7373.7647 307.3322 -9149.7613 -7383.6629 302.2203 409.1199 511.1041 29776.7168 -172.0626 -98.2844
ENERGY: 600000 1.3076 2.9988 0.9095 0.0000 -10636.2229 1498.1039 0.0000 0.0000 1693.6921 -7439.2110 293.0896 -9132.9031 -7408.0828 298.1363 990.0143 992.5256 29386.5018 -124.0009 -59.2324
ENERGY: 900000 0.8669 3.7750 1.0133 0.0000 -10484.6434 1409.1057 0.0000 0.0000 1784.0815 -7285.8012 308.7313 -9069.8826 -7395.5508 298.6496 225.2466 237.2047 30145.0025 -105.9843 -34.2259
ENERGY: 1200000 0.5110 2.0491 2.4161 0.0000 -10552.4519 1451.8549 0.0000 0.0000 1763.2906 -7332.3301 305.1335 -9095.6207 -7392.7977 298.9135 364.7458 430.7202 30153.7168 -14.1742 49.3688
ENERGY: 1500000 1.9567 1.4143 2.4186 0.0000 -10545.5684 1371.0494 0.0000 0.0000 1804.6371 -7364.0924 312.2884 -9168.7295 -7399.0662 299.0665 -665.6551 -577.3837 30459.5250 -82.3693 -14.1084
TCL: Running FEP window  20: Lambda1 0.9500000000000003 Lambda2 1.0    [dLambda 0.04999999999999971]
TCL: Setting parameter firsttimestep to 0
TCL: Setting parameter alchLambda to 0.9500000000000003
Info: NONBONDED TABLE R-SQUARED SPACING: 0.0625
Info: NONBONDED TABLE SIZE: 705 POINTS
TCL: Setting parameter alchLambda2 to 1.0
Info: NONBONDED TABLE R-SQUARED SPACING: 0.0625
Info: NONBONDED TABLE SIZE: 705 POINTS
TCL: Running for 1500000 steps
ETITLE: TS BOND ANGLE DIHED IMPRP ELECT VDW BOUNDARY MISC KINETIC TOTAL TEMP POTENTIAL TOTALAVG TEMPAVG PRESSURE GPRESSURE VOLUME PRESSAVG GPRESSAVG
ENERGY: 0 1.9567 1.4143 2.4186 0.0000 -10546.1393 1371.3538 0.0000 0.0000 1803.7953 -7365.2007 312.1427 -9168.9960 -7365.2007 312.1427 -649.4518 -566.1348 30459.5250 -649.4518 -566.1348
ENERGY: 300000 0.7529 1.3969 1.0024 0.0000 -10664.8886 1492.6583 0.0000 0.0000 1719.4329 -7449.6451 297.5440 -9169.0780 -7377.0193 305.4640 457.0727 475.2765 29989.8815 67.7487 137.3925
ENERGY: 600000 1.7173 1.7037 2.0627 0.0000 -10575.3582 1409.6294 0.0000 0.0000 1740.5015 -7419.7435 301.1899 -9160.2450 -7390.9988 304.5450 -210.0968 -132.9102 29772.9819 -26.9541 31.6375
ENERGY: 900000 0.8804 2.7316 2.8990 0.0000 -10620.6399 1515.9327 0.0000 0.0000 1745.0772 -7353.1189 301.9817 -9098.1962 -7389.1340 303.3154 940.1977 966.0311 29662.2325 90.2394 149.0742
ENERGY: 1200000 0.3481 3.5956 0.9139 0.0000 -10513.6564 1425.2367 0.0000 0.0000 1781.6120 -7301.9501 308.3040 -9083.5621 -7382.2634 303.6224 96.9769 174.2826 30260.7001 79.4084 138.8096
ENERGY: 1500000 0.9722 2.5586 1.2184 0.0000 -10551.0534 1500.1315 0.0000 0.0000 1736.2404 -7309.9324 300.4525 -9046.1727 -7382.3335 303.3427 532.0055 649.8896 30498.1322 33.3256 99.0635
TCL: Exiting due to exit command.
