Info: SIMULATION PARAMETERS:
Info: TIMESTEP               2
Info: NUMBER OF STEPS        0
Info: STEPS PER CYCLE        10
Info: PERIODIC CELL BASIS 1  32.6848 0 0
Info: PERIODIC CELL BASIS 2  0 32.0845 0
Info: PERIODIC CELL BASIS 3  0 0 29.2846
Info: PERIODIC CELL CENTER   0 0 0
Info: WRAPPING WATERS AROUND PERIODIC BOUNDARIES ON OUTPUT.
Info: WRAPPING ALL CLUSTERS AROUND PERIODIC BOUNDARIES ON OUTPUT.
Info: FIRST LDB TIMESTEP     50
Info: LAST LDB TIMESTEP     -1
Info: HOM BACKGROUND SCALING 1
Info: PME BACKGROUND SCALING 1
Info: MIN ATOMS PER PATCH    40
Info: EMPTY PATCH LOAD       40 ATOMS
Info: VELOCITY FILE          mobley_5665561_equil.vel
Info: CENTER OF MASS MOVING INITIALLY? NO
Info: DIELECTRIC             1
Info: EXCLUDE                SCALED ONE-FOUR
Info: 1-4 ELECTROSTATICS SCALED BY 0.833333
Info: MODIFIED 1-4 VDW PARAMETERS WILL BE USED
Info: DCD FILENAME           mobley_5665561_prod.dcd
Info: DCD FREQUENCY          100000
Info: DCD FIRST STEP         100000
Info: DCD FILE WILL CONTAIN UNIT CELL DATA
Info: XST FILENAME           mobley_5665561_prod.xst
Info: XST FREQUENCY          100000
Info: NO VELOCITY DCD OUTPUT
Info: NO FORCE DCD OUTPUT
Info: OUTPUT FILENAME        mobley_5665561_prod
Info: BINARY OUTPUT FILES WILL BE USED
Info: RESTART FILENAME       mobley_5665561_prod.restart
Info: RESTART FREQUENCY      100000
Info: BINARY RESTART FILES WILL BE USED
Info: CUTOFF                 9
Info: PAIRLIST DISTANCE      11
Info: PAIRLIST SHRINK RATE   0.01
Info: PAIRLIST GROW RATE     0.01
Info: PAIRLIST TRIGGER       0.3
Info: PAIRLISTS PER CYCLE    2
Info: PAIRLISTS ENABLED
Info: MARGIN                 2
Info: HYDROGEN GROUP CUTOFF  2.5
Info: PATCH DIMENSION        15.5
Info: ENERGY OUTPUT STEPS    100000
Info: ENERGY EVALUATION STEPS    100000
Info: OUTPUT ENERGY PRECISION 4
Info: CROSSTERM ENERGY INCLUDED IN DIHEDRAL
Info: TIMING OUTPUT STEPS    1000000
Info: PRESSURE OUTPUT STEPS  100000
Info: ALCHEMICAL FEP ON
Info: FEP CURRENT LAMBDA VALUE     0
Info: FEP COMPARISON LAMBDA VALUE  0.05
Info: FEP INTRA-ALCHEMICAL NON-BONDED INTERACTIONS WILL BE RETAINED
Info: FEP INTRA-ALCHEMICAL BONDED INTERACTIONS WILL BE RETAINED
Info: FEP VDW SHIFTING COEFFICIENT 5
Info: FEP ELEC. ACTIVE FOR ANNIHILATED PARTICLES BETWEEN LAMBDA = 0 AND LAMBDA = 0.5
Info: FEP ELEC. ACTIVE FOR EXNIHILATED PARTICLES BETWEEN LAMBDA = 0.5 AND LAMBDA = 1
Info: FEP VDW ACTIVE FOR ANNIHILATED PARTICLES BETWEEN LAMBDA = 0 AND LAMBDA = 1
Info: FEP VDW ACTIVE FOR EXNIHILATED PARTICLES BETWEEN LAMBDA = 0 AND LAMBDA = 1
Info: FEP BOND ACTIVE FOR ANNIHILATED PARTICLES BETWEEN LAMBDA = 1 AND LAMBDA = 1
Info: FEP BOND ACTIVE FOR EXNIHILATED PARTICLES BETWEEN LAMBDA = 0 AND LAMBDA = 0
Info: LANGEVIN DYNAMICS ACTIVE
Info: LANGEVIN TEMPERATURE   300
Info: LANGEVIN USING BBK INTEGRATOR
Info: LANGEVIN DAMPING COEFFICIENT IS 1 INVERSE PS
Info: LANGEVIN DYNAMICS APPLIED TO HYDROGENS
Info: LANGEVIN PISTON PRESSURE CONTROL ACTIVE
Info:        TARGET PRESSURE IS 1.01325 BAR
Info:     OSCILLATION PERIOD IS 50 FS
Info:             DECAY TIME IS 25 FS
Info:     PISTON TEMPERATURE IS 300 K
Info:       PRESSURE CONTROL IS GROUP-BASED
Info:    INITIAL STRAIN RATE IS 0.000152241 0.000152241 0.000152241
Info:       CELL FLUCTUATION IS ISOTROPIC
Info: PARTICLE MESH EWALD (PME) ACTIVE
Info: PME TOLERANCE               1e-06
Info: PME EWALD COEFFICIENT       0.348832
Info: PME INTERPOLATION ORDER     4
Info: PME GRID DIMENSIONS         36 36 32
Info: PME MAXIMUM GRID SPACING    1
Info: PME CALCULATION WILL BE PERFORMED ON GPU
Info: FULL ELECTROSTATIC EVALUATION FREQUENCY      2
Info: USING VERLET I (r-RESPA) MTS SCHEME.
Info: C1 SPLITTING OF LONG RANGE ELECTROSTATICS
Info: PLACING ATOMS IN PATCHES BY HYDROGEN GROUPS
Info: RIGID BONDS TO HYDROGEN : ALL
Info:         ERROR TOLERANCE : 1e-08
Info:          MAX ITERATIONS : 100
Info: RIGID WATER USING SETTLE ALGORITHM
Info: RANDOM NUMBER SEED     1743645026
Info: USE HYDROGEN BONDS?    NO
Info: Using AMBER format force field!
Info: AMBER PARM FILE        mobley_5665561.prmtop
Info: COORDINATE PDB         mobley_5665561.pdb
Info: Exclusions will be read from PARM file!
Info: SCNB (VDW SCALING)     2
Info: USING ARITHMETIC MEAN TO COMBINE L-J SIGMA PARAMETERS
Info: BINARY COORDINATES     mobley_5665561_equil.coor
Info: SUMMARY OF PARAMETERS:
Info: 6 BONDS
Info: 5 ANGLES
Info:   5 HARMONIC
Info:   0 COSINE-BASED
Info: 3 DIHEDRAL
Info: 0 IMPROPER
Info: 0 CROSSTERM
Info: 0 VDW
Info: 21 VDW_PAIRS
Info: 0 NBTHOLE_PAIRS
Info: To read alchdata from file: mobley_5665561.pdb
Info: To read alchflag data from column: 5
Info: STRUCTURE SUMMARY:
Info: 2946 ATOMS
Info: 2947 BONDS
Info: 42 ANGLES
Info: 66 DIHEDRALS
Info: 0 IMPROPERS
Info: 0 CROSSTERMS
Info: 3039 EXCLUSIONS
Info: 2934 RIGID BONDS
Info: ALCH: 0 ATOMS TO DISAPPEAR IN FINAL STATE
Info: ALCH: 24 ATOMS TO APPEAR IN FINAL STATE
Info: 5904 DEGREES OF FREEDOM
Info: 986 HYDROGEN GROUPS
Info: 4 ATOMS IN LARGEST HYDROGEN GROUP
Info: 986 MIGRATION GROUPS
Info: 4 ATOMS IN LARGEST MIGRATION GROUP
Info: TOTAL MASS = 17703.8 amu
Info: TOTAL CHARGE = -1.86265e-08 e
Info: MASS DENSITY = 0.957293 g/cm^3
Info: ATOM DENSITY = 0.0959294 atoms/A^3
Info: ADDED 0 IMPLICIT EXCLUSIONS
Info: NONBONDED TABLE R-SQUARED SPACING: 0.0625
Info: NONBONDED TABLE SIZE: 705 POINTS
Info: REDUCING NUMBER OF PATCHES TO IMPROVE LOAD BALANCE
Info: REMOVING COM VELOCITY -0.0803127 -0.127216 0.0171404
Info: Use 3D box decompostion in PME FFT.
Info: Updated CUDA force table with 4096 elements.
Info: Updated CUDA LJ table with 6 x 6 elements.
Info: Found 23 unique exclusion lists needing 76 bytes
TCL: Running for 1500000 steps
ETITLE: TS BOND ANGLE DIHED IMPRP ELECT VDW BOUNDARY MISC KINETIC TOTAL TEMP POTENTIAL TOTALAVG TEMPAVG PRESSURE GPRESSURE VOLUME PRESSAVG GPRESSAVG
ENERGY: 0 3.4187 10.1733 5.9592 0.0000 -10681.4565 1505.0554 0.0000 0.0000 1764.4174 -7392.4325 300.7775 -9156.8499 -7392.4325 300.7775 319.7152 400.1540 30710.0723 319.7152 400.1540
ENERGY: 300000 4.7411 7.9622 1.4927 0.0000 -10642.6959 1464.7852 0.0000 0.0000 1750.6965 -7413.0182 298.4385 -9163.7147 -7404.3278 301.4997 268.6717 386.8010 29730.0733 210.0108 291.0393
ENERGY: 600000 3.2923 8.6379 3.4104 0.0000 -10604.3852 1351.6509 0.0000 0.0000 1783.7106 -7453.6832 304.0664 -9237.3938 -7426.6760 300.7368 -637.4585 -573.1175 29702.7217 -141.3326 -62.4266
ENERGY: 900000 2.4237 8.0879 5.2817 0.0000 -10616.0216 1429.5949 0.0000 0.0000 1750.5923 -7420.0412 298.4208 -9170.6334 -7425.2233 301.2694 237.8902 304.1787 29814.5012 -57.7070 20.4877
ENERGY: 1200000 2.8835 6.3268 5.1853 0.0000 -10774.7602 1470.8814 0.0000 0.0000 1826.9111 -7462.5722 311.4307 -9289.4833 -7421.4240 301.6256 407.9668 441.8117 29440.1205 -25.8051 42.7134
ENERGY: 1500000 4.8992 9.0583 2.9801 0.0000 -10799.3436 1549.9229 0.0000 0.0000 1693.9493 -7538.5338 288.7649 -9232.4831 -7436.7492 300.0235 685.1831 788.1455 29962.4265 9.7457 75.4895
TCL: Running FEP window   2: Lambda1 0.05   Lambda2 0.1    [dLambda 0.05  ]
TCL: Setting parameter firsttimestep to 0
TCL: Setting parameter alchLambda to 0.05
Info: NONBONDED TABLE R-SQUARED SPACING: 0.0625
Info: NONBONDED TABLE SIZE: 705 POINTS
TCL: Setting parameter alchLambda2 to 0.1
Info: NONBONDED TABLE R-SQUARED SPACING: 0.0625
Info: NONBONDED TABLE SIZE: 705 POINTS
TCL: Running for 1500000 steps
ETITLE: TS BOND ANGLE DIHED IMPRP ELECT VDW BOUNDARY MISC KINETIC TOTAL TEMP POTENTIAL TOTALAVG TEMPAVG PRESSURE GPRESSURE VOLUME PRESSAVG GPRESSAVG
ENERGY: 0 4.8992 9.0583 2.9801 0.0000 -10799.3468 1551.6493 0.0000 0.0000 1693.0846 -7537.6754 288.6175 -9230.7600 -7537.6754 288.6175 720.7713 794.6674 29962.4265 720.7713 794.6674
ENERGY: 300000 4.9189 6.0663 6.2169 0.0000 -10659.9505 1439.9672 0.0000 0.0000 1749.8427 -7452.9387 298.2930 -9202.7814 -7454.9307 296.5281 -89.0032 -33.6379 29966.7064 97.8579 144.6939
ENERGY: 600000 8.7392 8.0975 4.9913 0.0000 -10693.3114 1494.9340 0.0000 0.0000 1728.2279 -7448.3216 294.6083 -9176.5494 -7453.6646 298.9402 587.6313 605.0252 29799.5718 101.9851 153.8740
ENERGY: 900000 2.2054 4.8421 3.2654 0.0000 -10635.5116 1452.5789 0.0000 0.0000 1770.4793 -7402.1404 301.8109 -9172.6197 -7429.4707 299.0674 63.3705 104.9364 30444.6981 45.1872 89.6291
ENERGY: 1200000 6.3250 7.4915 2.4924 0.0000 -10645.0475 1473.0659 0.0000 0.0000 1780.0646 -7375.6081 303.4449 -9155.6727 -7431.3935 299.1723 333.3365 346.2931 30245.6972 196.4254 243.8784
ENERGY: 1500000 4.2839 8.2871 4.7276 0.0000 -10595.8332 1337.5994 0.0000 0.0000 1752.4771 -7488.4582 298.7421 -9240.9353 -7429.6461 299.1717 -1100.0650 -1009.9785 30086.2187 36.8829 93.3049
TCL: Running FEP window   3: Lambda1 0.1    Lambda2 0.15000000000000002 [dLambda 0.05000000000000002]
TCL: Setting parameter firsttimestep to 0
TCL: Setting parameter alchLambda to 0.1
Info: NONBONDED TABLE R-SQUARED SPACING: 0.0625
Info: NONBONDED TABLE SIZE: 705 POINTS
TCL: Setting parameter alchLambda2 to 0.15000000000000002
Info: NONBONDED TABLE R-SQUARED SPACING: 0.0625
Info: NONBONDED TABLE SIZE: 705 POINTS
TCL: Running for 1500000 steps
ETITLE: TS BOND ANGLE DIHED IMPRP ELECT VDW BOUNDARY MISC KINETIC TOTAL TEMP POTENTIAL TOTALAVG TEMPAVG PRESSURE GPRESSURE VOLUME PRESSAVG GPRESSAVG
ENERGY: 0 4.2839 8.2871 4.7276 0.0000 -10595.8334 1341.6364 0.0000 0.0000 1751.6269 -7485.2716 298.5971 -9236.8984 -7485.2716 298.5971 -1060.7575 -991.4646 30086.2187 -1060.7575 -991.4646
ENERGY: 300000 6.0132 7.6699 3.1880 0.0000 -10800.8209 1541.8337 0.0000 0.0000 1766.3536 -7475.7624 301.1076 -9242.1160 -7443.0428 301.4998 365.6172 477.7808 30367.5057 -175.4601 -88.1439
ENERGY: 600000 3.6540 6.6699 3.6383 0.0000 -10596.8735 1463.8557 0.0000 0.0000 1736.9988 -7382.0568 296.1035 -9119.0556 -7449.4456 297.8862 380.2043 380.3935 30294.7488 -222.5766 -160.4317
ENERGY: 900000 4.1327 5.9973 3.7967 0.0000 -10674.9621 1480.2635 0.0000 0.0000 1712.6780 -7468.0938 291.9576 -9180.7718 -7440.3384 298.2057 358.4143 440.8452 30019.2321 -186.7126 -110.9055
ENERGY: 1200000 3.2705 6.7586 2.4927 0.0000 -10463.9610 1306.9173 0.0000 0.0000 1784.3566 -7360.1653 304.1765 -9144.5219 -7431.6143 299.3662 -1202.2521 -1091.5917 30610.7245 -254.1762 -178.6167
ENERGY: 1500000 8.1475 13.6344 3.3739 0.0000 -10626.5223 1436.9520 0.0000 0.0000 1762.5948 -7401.8197 300.4668 -9164.4146 -7429.2187 299.5163 -90.8515 -31.5212 30194.8511 -320.2753 -249.9254
TCL: Running FEP window   4: Lambda1 0.15000000000000002 Lambda2 0.2    [dLambda 0.04999999999999999]
TCL: Setting parameter firsttimestep to 0
TCL: Setting parameter alchLambda to 0.15000000000000002
Info: NONBONDED TABLE R-SQUARED SPACING: 0.0625
Info: NONBONDED TABLE SIZE: 705 POINTS
TCL: Setting parameter alchLambda2 to 0.2
Info: NONBONDED TABLE R-SQUARED SPACING: 0.0625
Info: NONBONDED TABLE SIZE: 705 POINTS
TCL: Running for 1500000 steps
ETITLE: TS BOND ANGLE DIHED IMPRP ELECT VDW BOUNDARY MISC KINETIC TOTAL TEMP POTENTIAL TOTALAVG TEMPAVG PRESSURE GPRESSURE VOLUME PRESSAVG GPRESSAVG
ENERGY: 0 8.1475 13.6344 3.3739 0.0000 -10626.5217 1440.0375 0.0000 0.0000 1761.6887 -7399.6397 300.3124 -9161.3284 -7399.6397 300.3124 -110.0206 -19.0446 30194.8511 -110.0206 -19.0446
ENERGY: 300000 3.2379 8.3548 5.6448 0.0000 -10592.6188 1419.4296 0.0000 0.0000 1798.2937 -7357.6582 306.5523 -9155.9518 -7393.3526 300.8144 -301.8016 -240.6290 30600.5091 -94.2701 -32.3500
ENERGY: 600000 6.3563 9.7442 5.4923 0.0000 -10689.1997 1454.5988 0.0000 0.0000 1748.7209 -7464.2872 298.1018 -9213.0081 -7433.8240 298.9781 42.5990 107.3288 29822.6473 -139.3063 -76.1531
ENERGY: 900000 4.1033 9.1796 4.2301 0.0000 -10576.1077 1426.9480 0.0000 0.0000 1763.5826 -7368.0640 300.6352 -9131.6466 -7413.6149 299.0132 -358.5466 -321.5917 30761.7357 -137.0123 -83.2269
ENERGY: 1200000 6.2276 8.1629 4.7444 0.0000 -10625.9144 1383.4359 0.0000 0.0000 1731.4102 -7491.9334 295.1508 -9223.3436 -7421.9359 298.8663 -710.9924 -643.7535 30275.6361 -161.8660 -103.8787
ENERGY: 1500000 0.9256 7.4969 4.3713 0.0000 -10604.8608 1403.3384 0.0000 0.0000 1831.7060 -7357.0227 312.2481 -9188.7286 -7425.3776 299.2963 -152.3142 -50.9248 29998.5063 -178.3797 -114.7315
TCL: Running FEP window   5: Lambda1 0.2    Lambda2 0.25   [dLambda 0.04999999999999999]
TCL: Setting parameter firsttimestep to 0
TCL: Setting parameter alchLambda to 0.2
Info: NONBONDED TABLE R-SQUARED SPACING: 0.0625
Info: NONBONDED TABLE SIZE: 705 POINTS
TCL: Setting parameter alchLambda2 to 0.25
Info: NONBONDED TABLE R-SQUARED SPACING: 0.0625
Info: NONBONDED TABLE SIZE: 705 POINTS
TCL: Running for 1500000 steps
ETITLE: TS BOND ANGLE DIHED IMPRP ELECT VDW BOUNDARY MISC KINETIC TOTAL TEMP POTENTIAL TOTALAVG TEMPAVG PRESSURE GPRESSURE VOLUME PRESSAVG GPRESSAVG
ENERGY: 0 0.9256 7.4969 4.3713 0.0000 -10604.8600 1406.4937 0.0000 0.0000 1830.8036 -7354.7689 312.0943 -9185.5725 -7354.7689 312.0943 -124.6591 -29.8957 29998.5063 -124.6591 -29.8957
ENERGY: 300000 4.8125 11.2823 3.7105 0.0000 -10557.0185 1416.1523 0.0000 0.0000 1708.5144 -7412.5466 291.2478 -9121.0610 -7400.2862 301.8408 340.5976 376.7260 29708.3854 -223.5176 -166.1692
ENERGY: 600000 5.8595 5.0427 3.4268 0.0000 -10679.3928 1511.3115 0.0000 0.0000 1775.4654 -7378.2868 302.6609 -9153.7522 -7414.2042 299.3987 414.6518 526.0605 30229.5959 -112.2382 -43.1169
ENERGY: 900000 4.2291 5.4362 4.8765 0.0000 -10576.9482 1410.4657 0.0000 0.0000 1772.7294 -7379.2112 302.1945 -9151.9407 -7408.7992 298.9972 -168.7236 -56.8343 30354.4860 -158.7028 -84.2073
ENERGY: 1200000 6.2343 5.1389 2.8055 0.0000 -10894.8288 1577.1942 0.0000 0.0000 1796.9721 -7506.4838 306.3271 -9303.4560 -7411.0104 300.6890 631.5532 696.5163 30156.9883 -35.1786 30.4597
ENERGY: 1500000 3.4315 9.7824 3.4177 0.0000 -10682.7651 1418.5393 0.0000 0.0000 1739.4092 -7508.1850 296.5144 -9247.5942 -7414.8527 300.4543 -651.3351 -588.7508 30379.1985 -81.4689 -22.8178
TCL: Running FEP window   6: Lambda1 0.25   Lambda2 0.3    [dLambda 0.04999999999999999]
TCL: Setting parameter firsttimestep to 0
TCL: Setting parameter alchLambda to 0.25
Info: NONBONDED TABLE R-SQUARED SPACING: 0.0625
Info: NONBONDED TABLE SIZE: 705 POINTS
TCL: Setting parameter alchLambda2 to 0.3
Info: NONBONDED TABLE R-SQUARED SPACING: 0.0625
Info: NONBONDED TABLE SIZE: 705 POINTS
TCL: Running for 1500000 steps
ETITLE: TS BOND ANGLE DIHED IMPRP ELECT VDW BOUNDARY MISC KINETIC TOTAL TEMP POTENTIAL TOTALAVG TEMPAVG PRESSURE GPRESSURE VOLUME PRESSAVG GPRESSAVG
ENERGY: 0 3.4315 9.7824 3.4177 0.0000 -10682.7641 1419.6734 0.0000 0.0000 1738.5441 -7507.9150 296.3669 -9246.4591 -7507.9150 296.3669 -658.2927 -578.1019 30379.1985 -658.2927 -578.1019
ENERGY: 300000 1.8106 13.3098 3.2855 0.0000 -10700.7770 1466.7978 0.0000 0.0000 1766.1941 -7449.3792 301.0804 -9215.5733 -7459.1915 300.3901 128.2195 206.2452 30340.9327 -113.6165 -49.2213
ENERGY: 600000 3.9438 5.1800 4.4067 0.0000 -10701.9646 1479.3819 0.0000 0.0000 1827.2383 -7381.8139 311.4865 -9209.0522 -7441.2524 302.1931 458.0759 481.9626 29925.4411 42.5637 96.0982
ENERGY: 900000 4.9813 3.9580 3.6966 0.0000 -10806.5799 1561.2257 0.0000 0.0000 1694.3419 -7538.3764 288.8318 -9232.7183 -7453.0553 301.6100 1016.1612 1072.6676 29686.8292 191.6314 247.8244
ENERGY: 1200000 6.2693 7.8102 2.9893 0.0000 -10673.6770 1428.1884 0.0000 0.0000 1774.0039 -7454.4159 302.4117 -9228.4198 -7447.2304 301.5634 -180.9187 -156.7451 30182.4841 152.4936 213.4174
ENERGY: 1500000 6.6357 4.7509 8.1030 0.0000 -10673.9961 1474.0810 0.0000 0.0000 1738.7129 -7441.7125 296.3957 -9180.4255 -7439.1595 301.7883 336.4671 384.5226 30099.9633 96.2072 157.0540
TCL: Running FEP window   7: Lambda1 0.3    Lambda2 0.35   [dLambda 0.04999999999999999]
TCL: Setting parameter firsttimestep to 0
TCL: Setting parameter alchLambda to 0.3
Info: NONBONDED TABLE R-SQUARED SPACING: 0.0625
Info: NONBONDED TABLE SIZE: 705 POINTS
TCL: Setting parameter alchLambda2 to 0.35
Info: NONBONDED TABLE R-SQUARED SPACING: 0.0625
Info: NONBONDED TABLE SIZE: 705 POINTS
TCL: Running for 1500000 steps
ETITLE: TS BOND ANGLE DIHED IMPRP ELECT VDW BOUNDARY MISC KINETIC TOTAL TEMP POTENTIAL TOTALAVG TEMPAVG PRESSURE GPRESSURE VOLUME PRESSAVG GPRESSAVG
ENERGY: 0 6.6358 4.7509 8.1030 0.0000 -10673.9970 1474.1603 0.0000 0.0000 1737.8340 -7442.5129 296.2459 -9180.3469 -7442.5129 296.2459 309.3727 393.6883 30099.9633 309.3727 393.6883
ENERGY: 300000 4.2487 8.3142 4.3345 0.0000 -10585.6635 1405.6036 0.0000 0.0000 1708.8901 -7454.2724 291.3119 -9163.1625 -7420.4613 297.1314 -231.7170 -193.0298 30311.9526 -33.5871 48.1093
ENERGY: 600000 5.2378 7.6146 3.2524 0.0000 -10685.1009 1402.1216 0.0000 0.0000 1696.0696 -7570.8049 289.1264 -9266.8745 -7445.8422 297.7700 -370.0050 -326.1244 29741.0780 44.2683 120.4978
ENERGY: 900000 3.3227 7.1252 3.8640 0.0000 -10612.1656 1432.8291 0.0000 0.0000 1715.2251 -7449.7996 292.3918 -9165.0246 -7441.1846 297.7357 -90.4487 -113.6330 30747.3693 -123.2831 -54.1832
ENERGY: 1200000 6.0783 5.2368 2.8651 0.0000 -10702.3374 1456.2603 0.0000 0.0000 1749.3910 -7482.5060 298.2160 -9231.8970 -7433.3511 298.7427 -74.1814 -19.5440 29969.7730 -165.8540 -91.2336
ENERGY: 1500000 4.5037 9.6236 4.2137 0.0000 -10663.6516 1446.0821 0.0000 0.0000 1767.1168 -7432.1117 301.2377 -9199.2285 -7421.3873 298.9755 116.2616 220.3056 29736.7450 -136.9441 -64.0113
TCL: Running FEP window   8: Lambda1 0.35   Lambda2 0.39999999999999997 [dLambda 0.04999999999999999]
TCL: Setting parameter firsttimestep to 0
TCL: Setting parameter alchLambda to 0.35
Info: NONBONDED TABLE R-SQUARED SPACING: 0.0625
Info: NONBONDED TABLE SIZE: 705 POINTS
TCL: Setting parameter alchLambda2 to 0.39999999999999997
Info: NONBONDED TABLE R-SQUARED SPACING: 0.0625
Info: NONBONDED TABLE SIZE: 705 POINTS
TCL: Running for 1500000 steps
ETITLE: TS BOND ANGLE DIHED IMPRP ELECT VDW BOUNDARY MISC KINETIC TOTAL TEMP POTENTIAL TOTALAVG TEMPAVG PRESSURE GPRESSURE VOLUME PRESSAVG GPRESSAVG
ENERGY: 0 4.5037 9.6236 4.2137 0.0000 -10663.6522 1446.9319 0.0000 0.0000 1766.2668 -7432.1124 301.0928 -9198.3793 -7432.1124 301.0928 146.0510 232.9861 29736.7450 146.0510 232.9861
ENERGY: 300000 6.5912 6.0080 6.2108 0.0000 -10627.7402 1422.2993 0.0000 0.0000 1779.9703 -7406.6606 303.4288 -9186.6309 -7413.7325 301.6941 -268.4503 -203.1719 30178.1459 39.3342 112.7762
ENERGY: 600000 5.7066 5.1437 3.6253 0.0000 -10618.7686 1440.8991 0.0000 0.0000 1770.9932 -7392.4007 301.8985 -9163.3939 -7417.4001 301.3657 32.1812 64.3296 30468.8543 -286.5987 -221.5705
ENERGY: 900000 2.8240 5.1812 5.0763 0.0000 -10665.6168 1459.2051 0.0000 0.0000 1740.9411 -7452.3891 296.7755 -9193.3302 -7417.6011 302.1798 287.2379 366.1853 30154.3542 -242.0560 -185.0536
ENERGY: 1200000 5.4724 7.3424 1.9017 0.0000 -10623.5909 1429.0660 0.0000 0.0000 1840.7377 -7339.0707 313.7877 -9179.8084 -7404.1383 303.4940 -140.0868 -68.1514 30273.5711 -264.8948 -209.1434
ENERGY: 1500000 3.5688 8.1560 2.4430 0.0000 -10646.3086 1458.9713 0.0000 0.0000 1707.6563 -7465.5131 291.1015 -9173.1695 -7411.1549 302.6243 -55.3426 49.0126 30388.1024 -248.4240 -190.4646
TCL: Running FEP window   9: Lambda1 0.39999999999999997 Lambda2 0.44999999999999996 [dLambda 0.04999999999999999]
TCL: Setting parameter firsttimestep to 0
TCL: Setting parameter alchLambda to 0.39999999999999997
Info: NONBONDED TABLE R-SQUARED SPACING: 0.0625
Info: NONBONDED TABLE SIZE: 705 POINTS
TCL: Setting parameter alchLambda2 to 0.44999999999999996
Info: NONBONDED TABLE R-SQUARED SPACING: 0.0625
Info: NONBONDED TABLE SIZE: 705 POINTS
TCL: Running for 1500000 steps
ETITLE: TS BOND ANGLE DIHED IMPRP ELECT VDW BOUNDARY MISC KINETIC TOTAL TEMP POTENTIAL TOTALAVG TEMPAVG PRESSURE GPRESSURE VOLUME PRESSAVG GPRESSAVG
ENERGY: 0 3.5688 8.1560 2.4430 0.0000 -10646.3070 1458.6218 0.0000 0.0000 1706.7789 -7466.7384 290.9520 -9173.5173 -7466.7384 290.9520 -45.0055 52.8831 30388.1024 -45.0055 52.8831
ENERGY: 300000 6.9022 6.0610 3.3612 0.0000 -10511.4940 1406.1692 0.0000 0.0000 1745.3821 -7343.6184 297.5326 -9089.0005 -7402.4961 299.9208 -70.6078 -70.8967 30479.0529 -166.9105 -109.9474
ENERGY: 600000 2.5946 7.2829 5.0714 0.0000 -10581.5586 1370.4116 0.0000 0.0000 1767.2472 -7428.9509 301.2599 -9196.1981 -7416.2793 300.0313 -57.9661 -18.2028 29624.6649 81.0439 135.7474
ENERGY: 900000 5.5614 6.7343 5.2723 0.0000 -10553.3676 1350.4010 0.0000 0.0000 1752.4899 -7432.9087 298.7443 -9185.3986 -7423.3920 299.5749 -758.1195 -709.1080 30690.3450 -38.9284 17.2883
ENERGY: 1200000 3.2239 10.4097 1.8452 0.0000 -10608.8452 1434.8849 0.0000 0.0000 1797.4448 -7361.0367 306.4076 -9158.4815 -7421.2182 300.3061 -37.4456 47.2680 30549.8590 -41.7975 12.0577
ENERGY: 1500000 7.7443 7.5170 4.8975 0.0000 -10564.4422 1393.5644 0.0000 0.0000 1779.0064 -7371.7126 303.2645 -9150.7190 -7420.1480 299.9767 -508.7963 -436.8886 30697.8925 -70.2914 -13.5759
TCL: Running FEP window  10: Lambda1 0.44999999999999996 Lambda2 0.49999999999999994 [dLambda 0.04999999999999999]
TCL: Setting parameter firsttimestep to 0
TCL: Setting parameter alchLambda to 0.44999999999999996
Info: NONBONDED TABLE R-SQUARED SPACING: 0.0625
Info: NONBONDED TABLE SIZE: 705 POINTS
TCL: Setting parameter alchLambda2 to 0.49999999999999994
Info: NONBONDED TABLE R-SQUARED SPACING: 0.0625
Info: NONBONDED TABLE SIZE: 705 POINTS
TCL: Running for 1500000 steps
ETITLE: TS BOND ANGLE DIHED IMPRP ELECT VDW BOUNDARY MISC KINETIC TOTAL TEMP POTENTIAL TOTALAVG TEMPAVG PRESSURE GPRESSURE VOLUME PRESSAVG GPRESSAVG
ENERGY: 0 7.7443 7.5169 4.8975 0.0000 -10564.4429 1393.8612 0.0000 0.0000 1778.1449 -7372.2781 303.1176 -9150.4230 -7372.2781 303.1176 -502.8529 -427.7526 30697.8925 -502.8529 -427.7526
ENERGY: 300000 3.9706 8.5787 4.7137 0.0000 -10613.4317 1400.7893 0.0000 0.0000 1773.9086 -7421.4707 302.3955 -9195.3793 -7447.2138 296.4659 -296.5705 -252.3317 30262.4726 -190.9860 -138.4264
ENERGY: 600000 5.5283 5.6113 3.3218 0.0000 -10764.0672 1469.5581 0.0000 0.0000 1769.7413 -7510.3064 301.6851 -9280.0477 -7450.5886 297.8627 -10.0366 63.1492 30005.6190 -196.2012 -127.1581
ENERGY: 900000 2.7754 5.8859 8.7760 0.0000 -10777.4961 1523.6168 0.0000 0.0000 1777.2858 -7459.1563 302.9712 -9236.4421 -7422.0570 300.4818 737.8379 833.1745 29809.9224 -35.0423 31.9192
ENERGY: 1200000 3.4263 3.8702 6.6726 0.0000 -10551.1845 1412.2586 0.0000 0.0000 1790.8597 -7334.0970 305.2851 -9124.9567 -7405.9612 300.8217 -89.2660 -37.5058 30443.4937 -14.0106 48.3338
ENERGY: 1500000 5.2183 7.1684 4.4084 0.0000 -10520.5718 1348.6325 0.0000 0.0000 1719.3624 -7435.7817 293.0971 -9155.1441 -7405.3874 301.4276 -965.6582 -934.4611 30699.1113 -113.3942 -57.5578
TCL: Running FEP window  11: Lambda1 0.49999999999999994 Lambda2 0.5499999999999999 [dLambda 0.04999999999999999]
TCL: Setting parameter firsttimestep to 0
TCL: Setting parameter alchLambda to 0.49999999999999994
Info: NONBONDED TABLE R-SQUARED SPACING: 0.0625
Info: NONBONDED TABLE SIZE: 705 POINTS
TCL: Setting parameter alchLambda2 to 0.5499999999999999
Info: NONBONDED TABLE R-SQUARED SPACING: 0.0625
Info: NONBONDED TABLE SIZE: 705 POINTS
TCL: Running for 1500000 steps
ETITLE: TS BOND ANGLE DIHED IMPRP ELECT VDW BOUNDARY MISC KINETIC TOTAL TEMP POTENTIAL TOTALAVG TEMPAVG PRESSURE GPRESSURE VOLUME PRESSAVG GPRESSAVG
ENERGY: 0 5.2183 7.1684 4.4084 0.0000 -10520.5749 1349.2920 0.0000 0.0000 1718.4949 -7435.9928 292.9492 -9154.4877 -7435.9928 292.9492 -1003.5150 -921.0735 30699.1113 -1003.5150 -921.0735
ENERGY: 300000 3.6240 15.8747 7.8503 0.0000 -10725.8654 1553.6115 0.0000 0.0000 1781.9064 -7362.9987 303.7588 -9144.9050 -7411.2460 299.7836 807.8194 875.0526 30457.0586 -321.0357 -255.7478
ENERGY: 600000 4.6497 9.6497 7.1555 0.0000 -10693.5354 1480.2608 0.0000 0.0000 1793.4890 -7398.3307 305.7333 -9191.8197 -7420.9909 300.4405 358.5444 405.1620 30204.6403 14.0931 62.3850
ENERGY: 900000 8.0608 9.4452 7.0985 0.0000 -10590.3711 1351.8378 0.0000 0.0000 1784.9930 -7428.9358 304.2850 -9213.9288 -7421.7053 300.4385 -646.2109 -626.4914 30000.9974 -66.3325 -10.3612
ENERGY: 1200000 3.1613 9.7393 3.0307 0.0000 -10588.9264 1405.7962 0.0000 0.0000 1736.8448 -7430.3542 296.0773 -9167.1990 -7416.4957 300.6243 -359.2586 -228.2804 30411.1603 -81.6582 -12.4225
ENERGY: 1500000 2.5596 5.9311 4.2680 0.0000 -10723.8966 1434.1422 0.0000 0.0000 1834.6943 -7442.3015 312.7575 -9276.9958 -7416.1349 301.5825 -195.5299 -168.8428 30189.0049 -66.2847 -2.0947
TCL: Running FEP window  12: Lambda1 0.5499999999999999 Lambda2 0.6    [dLambda 0.050000000000000044]
TCL: Setting parameter firsttimestep to 0
TCL: Setting parameter alchLambda to 0.5499999999999999
Info: NONBONDED TABLE R-SQUARED SPACING: 0.0625
Info: NONBONDED TABLE SIZE: 705 POINTS
TCL: Setting parameter alchLambda2 to 0.6
Info: NONBONDED TABLE R-SQUARED SPACING: 0.0625
Info: NONBONDED TABLE SIZE: 705 POINTS
TCL: Running for 1500000 steps
ETITLE: TS BOND ANGLE DIHED IMPRP ELECT VDW BOUNDARY MISC KINETIC TOTAL TEMP POTENTIAL TOTALAVG TEMPAVG PRESSURE GPRESSURE VOLUME PRESSAVG GPRESSAVG
ENERGY: 0 2.5595 5.9311 4.2680 0.0000 -10724.1902 1434.3543 0.0000 0.0000 1833.8058 -7443.2715 312.6061 -9277.0773 -7443.2715 312.6061 -239.0528 -155.8660 30189.0049 -239.0528 -155.8660
ENERGY: 300000 3.5157 4.5844 3.1561 0.0000 -10489.5808 1362.2064 0.0000 0.0000 1743.2601 -7372.8581 297.1709 -9116.1183 -7399.3940 305.6469 -462.2102 -430.2461 30478.2010 -195.6724 -139.3577
ENERGY: 600000 5.6507 4.9648 6.3058 0.0000 -10511.7171 1332.2774 0.0000 0.0000 1807.4186 -7355.0997 308.1079 -9162.5183 -7395.8000 305.1142 -754.8344 -774.4854 30298.1675 -265.9804 -215.0995
ENERGY: 900000 10.2688 7.4301 9.5710 0.0000 -10564.4750 1367.9697 0.0000 0.0000 1805.1914 -7364.0440 307.7282 -9169.2354 -7412.7598 302.6316 -660.5710 -647.3475 30594.9594 -269.4287 -227.3498
ENERGY: 1200000 3.6712 7.2506 6.1570 0.0000 -10632.2955 1400.5957 0.0000 0.0000 1791.7442 -7422.8769 305.4359 -9214.6211 -7417.0681 303.0615 -300.6634 -197.0960 30358.4829 -217.2257 -172.3706
ENERGY: 1500000 8.1299 11.0515 4.2375 0.0000 -10528.9452 1351.7223 0.0000 0.0000 1771.7664 -7382.0377 302.0303 -9153.8040 -7408.1699 302.5870 -398.7294 -359.7947 29992.6334 -202.0109 -159.0964
TCL: Running FEP window  13: Lambda1 0.6    Lambda2 0.65   [dLambda 0.050000000000000044]
TCL: Setting parameter firsttimestep to 0
TCL: Setting parameter alchLambda to 0.6
Info: NONBONDED TABLE R-SQUARED SPACING: 0.0625
Info: NONBONDED TABLE SIZE: 705 POINTS
TCL: Setting parameter alchLambda2 to 0.65
Info: NONBONDED TABLE R-SQUARED SPACING: 0.0625
Info: NONBONDED TABLE SIZE: 705 POINTS
TCL: Running for 1500000 steps
ETITLE: TS BOND ANGLE DIHED IMPRP ELECT VDW BOUNDARY MISC KINETIC TOTAL TEMP POTENTIAL TOTALAVG TEMPAVG PRESSURE GPRESSURE VOLUME PRESSAVG GPRESSAVG
ENERGY: 0 8.1299 11.0515 4.2375 0.0000 -10529.6499 1352.2478 0.0000 0.0000 1770.8443 -7383.1390 301.8731 -9153.9832 -7383.1390 301.8731 -417.1256 -341.8734 29992.6334 -417.1256 -341.8734
ENERGY: 300000 4.1599 5.6970 1.3369 0.0000 -10535.2234 1366.8512 0.0000 0.0000 1684.3586 -7472.8199 287.1300 -9157.1784 -7415.2076 299.0642 -731.7252 -601.1880 30432.2946 -446.6875 -354.6597
ENERGY: 600000 6.3878 8.4873 4.9113 0.0000 -10629.4655 1407.9717 0.0000 0.0000 1780.6015 -7421.1058 303.5364 -9201.7073 -7432.5105 299.7027 -103.7719 -63.3065 30389.7655 -274.4096 -200.0465
ENERGY: 900000 4.9942 9.4272 2.8905 0.0000 -10419.1335 1277.5188 0.0000 0.0000 1765.3089 -7358.9940 300.9295 -9124.3029 -7422.1722 300.6722 -1239.1573 -1176.7964 30637.5096 -412.9956 -339.5158
ENERGY: 1200000 5.4277 9.1965 2.6787 0.0000 -10589.8276 1369.2079 0.0000 0.0000 1737.7176 -7465.5992 296.2260 -9203.3168 -7421.5807 300.9847 -735.8361 -661.6957 30381.1127 -430.4375 -359.9003
ENERGY: 1500000 2.6315 12.9528 6.2794 0.0000 -10597.3221 1414.1392 0.0000 0.0000 1696.2440 -7465.0752 289.1561 -9161.3193 -7419.3294 300.9455 -93.0036 -44.9363 30579.7302 -314.9490 -240.9761
TCL: Running FEP window  14: Lambda1 0.65   Lambda2 0.7000000000000001 [dLambda 0.050000000000000044]
TCL: Setting parameter firsttimestep to 0
TCL: Setting parameter alchLambda to 0.65
Info: NONBONDED TABLE R-SQUARED SPACING: 0.0625
Info: NONBONDED TABLE SIZE: 705 POINTS
TCL: Setting parameter alchLambda2 to 0.7000000000000001
Info: NONBONDED TABLE R-SQUARED SPACING: 0.0625
Info: NONBONDED TABLE SIZE: 705 POINTS
TCL: Running for 1500000 steps
ETITLE: TS BOND ANGLE DIHED IMPRP ELECT VDW BOUNDARY MISC KINETIC TOTAL TEMP POTENTIAL TOTALAVG TEMPAVG PRESSURE GPRESSURE VOLUME PRESSAVG GPRESSAVG
ENERGY: 0 2.6315 12.9528 6.2794 0.0000 -10597.0669 1414.4676 0.0000 0.0000 1695.3953 -7465.3404 289.0114 -9160.7356 -7465.3404 289.0114 -126.5837 -28.1900 30579.7302 -126.5837 -28.1900
ENERGY: 300000 2.8966 8.0604 6.7689 0.0000 -10666.1665 1411.3491 0.0000 0.0000 1675.9873 -7561.1041 285.7030 -9237.0914 -7428.4278 293.9983 -48.5781 3.1102 29895.3060 27.0504 92.1673
ENERGY: 600000 4.6139 7.3236 3.8656 0.0000 -10633.0023 1461.9401 0.0000 0.0000 1677.0472 -7478.2119 285.8837 -9155.2591 -7434.2936 295.3526 417.7614 501.3013 30138.9371 111.5835 190.8501
ENERGY: 900000 1.6683 11.7602 6.5738 0.0000 -10781.1177 1551.0861 0.0000 0.0000 1766.9411 -7443.0882 301.2077 -9210.0293 -7437.8300 296.3177 1187.8221 1204.0797 29782.3234 214.8333 288.2144
ENERGY: 1200000 6.0139 6.6349 4.7673 0.0000 -10521.5650 1339.7475 0.0000 0.0000 1775.2526 -7389.1488 302.6246 -9164.4013 -7440.0593 297.7280 -845.7203 -784.1441 30706.9919 31.9220 102.0305
ENERGY: 1500000 6.1463 8.4739 4.7189 0.0000 -10400.0168 1298.0328 0.0000 0.0000 1763.8537 -7318.7911 300.6814 -9082.6448 -7434.3144 298.1934 -960.5911 -868.4762 30748.6851 -44.6714 27.2633
TCL: Running FEP window  15: Lambda1 0.7000000000000001 Lambda2 0.7500000000000001 [dLambda 0.050000000000000044]
TCL: Setting parameter firsttimestep to 0
TCL: Setting parameter alchLambda to 0.7000000000000001
Info: NONBONDED TABLE R-SQUARED SPACING: 0.0625
Info: NONBONDED TABLE SIZE: 705 POINTS
TCL: Setting parameter alchLambda2 to 0.7500000000000001
Info: NONBONDED TABLE R-SQUARED SPACING: 0.0625
Info: NONBONDED TABLE SIZE: 705 POINTS
TCL: Running for 1500000 steps
ETITLE: TS BOND ANGLE DIHED IMPRP ELECT VDW BOUNDARY MISC KINETIC TOTAL TEMP POTENTIAL TOTALAVG TEMPAVG PRESSURE GPRESSURE VOLUME PRESSAVG GPRESSAVG
ENERGY: 0 6.1463 8.4739 4.7189 0.0000 -10400.1729 1297.2899 0.0000 0.0000 1762.9744 -7320.5695 300.5315 -9083.5438 -7320.5695 300.5315 -937.6856 -863.5274 30748.6851 -937.6856 -863.5274
ENERGY: 300000 6.4858 7.9439 5.0294 0.0000 -10541.1837 1374.6365 0.0000 0.0000 1795.2466 -7351.8416 306.0329 -9147.0881 -7399.7589 302.9300 -278.2465 -230.1032 30323.5362 -200.8244 -152.2797
ENERGY: 600000 4.2212 11.9251 6.1781 0.0000 -10497.9533 1397.2427 0.0000 0.0000 1730.5669 -7347.8192 295.0071 -9078.3861 -7398.5626 300.4684 -215.7963 -175.2041 30480.3095 -101.4371 -47.6648
ENERGY: 900000 4.7900 6.8562 4.6335 0.0000 -10670.1199 1459.3525 0.0000 0.0000 1761.0034 -7433.4843 300.1955 -9194.4877 -7411.9135 299.8070 121.8121 176.4176 30329.5092 -154.9553 -98.7800
ENERGY: 1200000 5.6311 9.2215 0.9486 0.0000 -10692.2975 1464.7266 0.0000 0.0000 1697.7595 -7514.0101 289.4144 -9211.7696 -7418.7662 299.7145 348.9206 384.1090 29731.2343 -105.7271 -55.4552
ENERGY: 1500000 8.4581 5.1746 6.1043 0.0000 -10575.2263 1382.2276 0.0000 0.0000 1835.4831 -7337.7785 312.8920 -9173.2617 -7411.9892 300.5434 -586.3886 -603.7390 30534.7246 -187.7212 -140.4590
TCL: Running FEP window  16: Lambda1 0.7500000000000001 Lambda2 0.8000000000000002 [dLambda 0.050000000000000044]
TCL: Setting parameter firsttimestep to 0
TCL: Setting parameter alchLambda to 0.7500000000000001
Info: NONBONDED TABLE R-SQUARED SPACING: 0.0625
Info: NONBONDED TABLE SIZE: 705 POINTS
TCL: Setting parameter alchLambda2 to 0.8000000000000002
Info: NONBONDED TABLE R-SQUARED SPACING: 0.0625
Info: NONBONDED TABLE SIZE: 705 POINTS
TCL: Running for 1500000 steps
ETITLE: TS BOND ANGLE DIHED IMPRP ELECT VDW BOUNDARY MISC KINETIC TOTAL TEMP POTENTIAL TOTALAVG TEMPAVG PRESSURE GPRESSURE VOLUME PRESSAVG GPRESSAVG
ENERGY: 0 8.4581 5.1746 6.1043 0.0000 -10576.0164 1382.9460 0.0000 0.0000 1834.5997 -7338.7336 312.7414 -9173.3333 -7338.7336 312.7414 -667.9518 -586.7465 30534.7246 -667.9518 -586.7465
ENERGY: 300000 5.1901 7.2924 5.4444 0.0000 -10512.6223 1372.0687 0.0000 0.0000 1765.9141 -7356.7126 301.0327 -9122.6266 -7391.3995 301.9805 -528.7537 -476.3409 30752.5082 -533.2365 -484.8114
ENERGY: 600000 4.4492 6.5736 4.2215 0.0000 -10727.4278 1496.2551 0.0000 0.0000 1722.3767 -7493.5515 293.6109 -9215.9283 -7420.0942 299.4932 310.3909 404.8333 30387.7814 -84.1413 -17.6811
ENERGY: 900000 6.1488 5.1275 5.0729 0.0000 -10495.4978 1413.5319 0.0000 0.0000 1772.6929 -7292.9238 302.1882 -9065.6167 -7422.2457 298.9846 122.4307 176.0012 30509.6602 17.5852 77.3817
ENERGY: 1200000 3.0584 7.9862 4.5222 0.0000 -10568.5277 1395.5449 0.0000 0.0000 1812.0995 -7345.3165 308.9058 -9157.4160 -7412.4315 300.3391 -140.0941 -115.2792 30577.7524 54.1122 109.0801
ENERGY: 1500000 4.6319 6.6572 5.7824 0.0000 -10620.2164 1521.2602 0.0000 0.0000 1773.6640 -7308.2207 302.3538 -9081.8848 -7409.2744 299.9441 918.4819 927.8938 30706.9608 109.4871 157.0875
TCL: Running FEP window  17: Lambda1 0.8000000000000002 Lambda2 0.8500000000000002 [dLambda 0.050000000000000044]
TCL: Setting parameter firsttimestep to 0
TCL: Setting parameter alchLambda to 0.8000000000000002
Info: NONBONDED TABLE R-SQUARED SPACING: 0.0625
Info: NONBONDED TABLE SIZE: 705 POINTS
TCL: Setting parameter alchLambda2 to 0.8500000000000002
Info: NONBONDED TABLE R-SQUARED SPACING: 0.0625
Info: NONBONDED TABLE SIZE: 705 POINTS
TCL: Running for 1500000 steps
ETITLE: TS BOND ANGLE DIHED IMPRP ELECT VDW BOUNDARY MISC KINETIC TOTAL TEMP POTENTIAL TOTALAVG TEMPAVG PRESSURE GPRESSURE VOLUME PRESSAVG GPRESSAVG
ENERGY: 0 4.6319 6.6572 5.7824 0.0000 -10621.0318 1520.7204 0.0000 0.0000 1772.7811 -7310.4589 302.2033 -9083.2400 -7310.4589 302.2033 842.0802 929.8790 30706.9608 842.0802 929.8790
ENERGY: 300000 4.3671 10.2891 3.4675 0.0000 -10646.6675 1449.6164 0.0000 0.0000 1776.0446 -7402.8828 302.7596 -9178.9274 -7395.1985 299.8588 322.8815 373.9364 30333.2991 108.2031 177.1967
ENERGY: 600000 3.0249 8.4726 4.1147 0.0000 -10676.7402 1448.6341 0.0000 0.0000 1746.9174 -7465.5765 297.7943 -9212.4938 -7428.2134 298.0330 262.1619 290.4850 30316.8157 165.3026 234.5500
ENERGY: 900000 2.4946 10.7398 4.7915 0.0000 -10689.8154 1451.3919 0.0000 0.0000 1741.0179 -7479.3798 296.7886 -9220.3976 -7438.3476 298.3475 197.6999 244.5682 30230.1628 40.9841 109.5290
ENERGY: 1200000 1.8409 6.4859 6.9890 0.0000 -10679.6942 1482.0475 0.0000 0.0000 1719.1882 -7463.1428 293.0674 -9182.3310 -7439.9303 297.6717 262.4770 337.3753 30479.2047 3.5970 77.7764
ENERGY: 1500000 6.1366 10.1892 2.6794 0.0000 -10656.9573 1396.0897 0.0000 0.0000 1693.4894 -7548.3730 288.6865 -9241.8624 -7437.5283 298.2013 -500.8667 -509.7736 30306.8439 -15.4827 52.1839
TCL: Running FEP window  18: Lambda1 0.8500000000000002 Lambda2 0.9000000000000002 [dLambda 0.050000000000000044]
TCL: Setting parameter firsttimestep to 0
TCL: Setting parameter alchLambda to 0.8500000000000002
Info: NONBONDED TABLE R-SQUARED SPACING: 0.0625
Info: NONBONDED TABLE SIZE: 705 POINTS
TCL: Setting parameter alchLambda2 to 0.9000000000000002
Info: NONBONDED TABLE R-SQUARED SPACING: 0.0625
Info: NONBONDED TABLE SIZE: 705 POINTS
TCL: Running for 1500000 steps
ETITLE: TS BOND ANGLE DIHED IMPRP ELECT VDW BOUNDARY MISC KINETIC TOTAL TEMP POTENTIAL TOTALAVG TEMPAVG PRESSURE GPRESSURE VOLUME PRESSAVG GPRESSAVG
ENERGY: 0 6.1366 10.1892 2.6794 0.0000 -10657.3905 1397.6830 0.0000 0.0000 1692.5782 -7548.1242 288.5312 -9240.7024 -7548.1242 288.5312 -556.8931 -476.5255 30306.8439 -556.8931 -476.5255
ENERGY: 300000 6.5139 5.4887 5.8773 0.0000 -10591.5477 1387.8000 0.0000 0.0000 1809.6977 -7376.1701 308.4964 -9185.8678 -7489.0075 296.6205 -81.1858 -56.8993 30189.7289 -393.1660 -332.1038
ENERGY: 600000 0.9640 6.9466 5.4267 0.0000 -10566.6297 1393.6896 0.0000 0.0000 1745.2941 -7414.3085 297.5176 -9159.6026 -7449.0514 298.0160 -250.2796 -219.9470 30846.8478 -384.6573 -326.2013
ENERGY: 900000 10.6549 10.8219 4.8605 0.0000 -10720.9236 1521.6100 0.0000 0.0000 1747.6006 -7425.3757 297.9108 -9172.9763 -7446.2295 298.9894 406.5873 404.9649 30264.8609 -115.2703 -66.4959
ENERGY: 1200000 4.9640 5.2141 5.3520 0.0000 -10561.1659 1350.4729 0.0000 0.0000 1775.2418 -7419.9211 302.6227 -9195.1629 -7451.1279 299.4337 -533.9155 -451.2970 30075.1100 -138.6595 -83.4592
ENERGY: 1500000 7.1751 5.1553 4.7650 0.0000 -10641.5983 1401.7380 0.0000 0.0000 1746.6632 -7476.1017 297.7510 -9222.7649 -7450.5350 299.3293 -489.6073 -395.3666 30164.0374 -186.9516 -132.6605
TCL: Running FEP window  19: Lambda1 0.9000000000000002 Lambda2 0.9500000000000003 [dLambda 0.050000000000000044]
TCL: Setting parameter firsttimestep to 0
TCL: Setting parameter alchLambda to 0.9000000000000002
Info: NONBONDED TABLE R-SQUARED SPACING: 0.0625
Info: NONBONDED TABLE SIZE: 705 POINTS
TCL: Setting parameter alchLambda2 to 0.9500000000000003
Info: NONBONDED TABLE R-SQUARED SPACING: 0.0625
Info: NONBONDED TABLE SIZE: 705 POINTS
TCL: Running for 1500000 steps
ETITLE: TS BOND ANGLE DIHED IMPRP ELECT VDW BOUNDARY MISC KINETIC TOTAL TEMP POTENTIAL TOTALAVG TEMPAVG PRESSURE GPRESSURE VOLUME PRESSAVG GPRESSAVG
ENERGY: 0 7.1751 5.1553 4.7650 0.0000 -10642.2225 1401.1899 0.0000 0.0000 1745.8080 -7478.1292 297.6052 -9223.9372 -7478.1292 297.6052 -465.5917 -385.8436 30164.0374 -465.5917 -385.8436
ENERGY: 300000 2.5412 10.0862 3.5384 0.0000 -10620.7683 1418.8244 0.0000 0.0000 1680.8399 -7504.9383 286.5302 -9185.7782 -7448.8296 296.0429 -196.9985 -105.2853 30455.4016 -157.8386 -79.2577
ENERGY: 600000 2.9623 10.6016 3.5426 0.0000 -10815.2916 1533.6211 0.0000 0.0000 1846.1998 -7418.3642 314.7188 -9264.5640 -7449.3316 298.8896 797.9911 832.8831 30044.5288 -21.0125 60.3649
ENERGY: 900000 1.9644 4.5743 8.6318 0.0000 -10581.5847 1379.5646 0.0000 0.0000 1754.4668 -7432.3828 299.0813 -9186.8496 -7442.8402 298.8424 -606.8621 -518.2752 30830.7280 -176.0479 -98.5674
ENERGY: 1200000 5.5502 7.0834 6.1003 0.0000 -10661.4312 1382.8958 0.0000 0.0000 1770.9476 -7488.8540 301.8907 -9259.8016 -7440.5328 299.3716 -595.9427 -586.6533 30223.0158 -167.9369 -99.0129
ENERGY: 1500000 6.0581 8.6744 3.6882 0.0000 -10485.0379 1382.6021 0.0000 0.0000 1761.5701 -7322.4450 300.2921 -9084.0151 -7422.1793 299.8381 -186.6860 -125.9355 30292.2414 -233.3618 -168.4903
TCL: Running FEP window  20: Lambda1 0.9500000000000003 Lambda2 1.0    [dLambda 0.04999999999999971]
TCL: Setting parameter firsttimestep to 0
TCL: Setting parameter alchLambda to 0.9500000000000003
Info: NONBONDED TABLE R-SQUARED SPACING: 0.0625
Info: NONBONDED TABLE SIZE: 705 POINTS
TCL: Setting parameter alchLambda2 to 1.0
Info: NONBONDED TABLE R-SQUARED SPACING: 0.0625
Info: NONBONDED TABLE SIZE: 705 POINTS
TCL: Running for 1500000 steps
ETITLE: TS BOND ANGLE DIHED IMPRP ELECT VDW BOUNDARY MISC KINETIC TOTAL TEMP POTENTIAL TOTALAVG TEMPAVG PRESSURE GPRESSURE VOLUME PRESSAVG GPRESSAVG
ENERGY: 0 6.0581 8.6744 3.6882 0.0000 -10486.1493 1383.4217 0.0000 0.0000 1760.6797 -7323.6272 300.1403 -9084.3068 -7323.6272 300.1403 -190.3239 -100.2381 30292.2414 -190.3239 -100.2381
ENERGY: 300000 7.2280 8.4950 3.7739 0.0000 -10542.9072 1396.5326 0.0000 0.0000 1789.9458 -7336.9319 305.1293 -9126.8778 -7409.8051 301.5221 -255.5162 -211.3059 30569.0803 -94.5053 -23.9569
ENERGY: 600000 4.6980 7.8538 7.7694 0.0000 -10819.1901 1501.3076 0.0000 0.0000 1692.0555 -7605.5058 288.4421 -9297.5613 -7444.0897 299.5801 389.7256 510.2585 29881.6367 -83.2582 -4.1772
ENERGY: 900000 3.5734 8.2234 5.0206 0.0000 -10605.1042 1407.7088 0.0000 0.0000 1736.0680 -7444.5101 295.9448 -9180.5781 -7448.4723 299.2574 28.4994 24.1419 30204.5427 26.2150 94.7766
ENERGY: 1200000 5.6646 5.3748 4.3155 0.0000 -10583.5394 1354.5587 0.0000 0.0000 1761.5076 -7452.1182 300.2815 -9213.6258 -7453.7872 299.8468 -337.6435 -331.2790 29978.6149 -24.7448 37.4918
ENERGY: 1500000 6.7267 7.1827 2.8751 0.0000 -10691.5263 1490.1821 0.0000 0.0000 1753.5848 -7430.9749 298.9309 -9184.5597 -7455.9906 299.6138 368.7437 433.1899 30518.0533 93.5363 156.0466
TCL: Exiting due to exit command.
