Info: SIMULATION PARAMETERS:
Info: TIMESTEP               2
Info: NUMBER OF STEPS        0
Info: STEPS PER CYCLE        10
Info: PERIODIC CELL BASIS 1  31.9214 0 0
Info: PERIODIC CELL BASIS 2  0 30.0025 0
Info: PERIODIC CELL BASIS 3  0 0 31.8492
Info: PERIODIC CELL CENTER   0 0 0
Info: WRAPPING WATERS AROUND PERIODIC BOUNDARIES ON OUTPUT.
Info: WRAPPING ALL CLUSTERS AROUND PERIODIC BOUNDARIES ON OUTPUT.
Info: FIRST LDB TIMESTEP     50
Info: LAST LDB TIMESTEP     -1
Info: HOM BACKGROUND SCALING 1
Info: PME BACKGROUND SCALING 1
Info: MIN ATOMS PER PATCH    40
Info: EMPTY PATCH LOAD       40 ATOMS
Info: VELOCITY FILE          mobley_4219614_equil.vel
Info: CENTER OF MASS MOVING INITIALLY? NO
Info: DIELECTRIC             1
Info: EXCLUDE                SCALED ONE-FOUR
Info: 1-4 ELECTROSTATICS SCALED BY 0.833333
Info: MODIFIED 1-4 VDW PARAMETERS WILL BE USED
Info: DCD FILENAME           mobley_4219614_prod.dcd
Info: DCD FREQUENCY          100000
Info: DCD FIRST STEP         100000
Info: DCD FILE WILL CONTAIN UNIT CELL DATA
Info: XST FILENAME           mobley_4219614_prod.xst
Info: XST FREQUENCY          100000
Info: NO VELOCITY DCD OUTPUT
Info: NO FORCE DCD OUTPUT
Info: OUTPUT FILENAME        mobley_4219614_prod
Info: BINARY OUTPUT FILES WILL BE USED
Info: RESTART FILENAME       mobley_4219614_prod.restart
Info: RESTART FREQUENCY      100000
Info: BINARY RESTART FILES WILL BE USED
Info: CUTOFF                 9
Info: PAIRLIST DISTANCE      11
Info: PAIRLIST SHRINK RATE   0.01
Info: PAIRLIST GROW RATE     0.01
Info: PAIRLIST TRIGGER       0.3
Info: PAIRLISTS PER CYCLE    2
Info: PAIRLISTS ENABLED
Info: MARGIN                 2
Info: HYDROGEN GROUP CUTOFF  2.5
Info: PATCH DIMENSION        15.5
Info: ENERGY OUTPUT STEPS    100000
Info: ENERGY EVALUATION STEPS    100000
Info: OUTPUT ENERGY PRECISION 4
Info: CROSSTERM ENERGY INCLUDED IN DIHEDRAL
Info: TIMING OUTPUT STEPS    1000000
Info: PRESSURE OUTPUT STEPS  100000
Info: ALCHEMICAL FEP ON
Info: FEP CURRENT LAMBDA VALUE     1
Info: FEP COMPARISON LAMBDA VALUE  0.95
Info: FEP INTRA-ALCHEMICAL NON-BONDED INTERACTIONS WILL BE RETAINED
Info: FEP INTRA-ALCHEMICAL BONDED INTERACTIONS WILL BE RETAINED
Info: FEP VDW SHIFTING COEFFICIENT 5
Info: FEP ELEC. ACTIVE FOR ANNIHILATED PARTICLES BETWEEN LAMBDA = 0 AND LAMBDA = 0.5
Info: FEP ELEC. ACTIVE FOR EXNIHILATED PARTICLES BETWEEN LAMBDA = 0.5 AND LAMBDA = 1
Info: FEP VDW ACTIVE FOR ANNIHILATED PARTICLES BETWEEN LAMBDA = 0 AND LAMBDA = 1
Info: FEP VDW ACTIVE FOR EXNIHILATED PARTICLES BETWEEN LAMBDA = 0 AND LAMBDA = 1
Info: FEP BOND ACTIVE FOR ANNIHILATED PARTICLES BETWEEN LAMBDA = 1 AND LAMBDA = 1
Info: FEP BOND ACTIVE FOR EXNIHILATED PARTICLES BETWEEN LAMBDA = 0 AND LAMBDA = 0
Info: LANGEVIN DYNAMICS ACTIVE
Info: LANGEVIN TEMPERATURE   300
Info: LANGEVIN USING BBK INTEGRATOR
Info: LANGEVIN DAMPING COEFFICIENT IS 1 INVERSE PS
Info: LANGEVIN DYNAMICS APPLIED TO HYDROGENS
Info: LANGEVIN PISTON PRESSURE CONTROL ACTIVE
Info:        TARGET PRESSURE IS 1.01325 BAR
Info:     OSCILLATION PERIOD IS 50 FS
Info:             DECAY TIME IS 25 FS
Info:     PISTON TEMPERATURE IS 300 K
Info:       PRESSURE CONTROL IS GROUP-BASED
Info:    INITIAL STRAIN RATE IS 0.000246947 0.000246947 0.000246947
Info:       CELL FLUCTUATION IS ISOTROPIC
Info: PARTICLE MESH EWALD (PME) ACTIVE
Info: PME TOLERANCE               1e-06
Info: PME EWALD COEFFICIENT       0.348832
Info: PME INTERPOLATION ORDER     4
Info: PME GRID DIMENSIONS         32 32 32
Info: PME MAXIMUM GRID SPACING    1
Info: PME CALCULATION WILL BE PERFORMED ON GPU
Info: FULL ELECTROSTATIC EVALUATION FREQUENCY      2
Info: USING VERLET I (r-RESPA) MTS SCHEME.
Info: C1 SPLITTING OF LONG RANGE ELECTROSTATICS
Info: PLACING ATOMS IN PATCHES BY HYDROGEN GROUPS
Info: RIGID BONDS TO HYDROGEN : ALL
Info:         ERROR TOLERANCE : 1e-08
Info:          MAX ITERATIONS : 100
Info: RIGID WATER USING SETTLE ALGORITHM
Info: RANDOM NUMBER SEED     1743543215
Info: USE HYDROGEN BONDS?    NO
Info: Using AMBER format force field!
Info: AMBER PARM FILE        mobley_4219614.prmtop
Info: COORDINATE PDB         mobley_4219614.pdb
Info: Exclusions will be read from PARM file!
Info: SCNB (VDW SCALING)     2
Info: USING ARITHMETIC MEAN TO COMBINE L-J SIGMA PARAMETERS
Info: BINARY COORDINATES     mobley_4219614_equil.coor
Info: SUMMARY OF PARAMETERS:
Info: 5 BONDS
Info: 3 ANGLES
Info:   3 HARMONIC
Info:   0 COSINE-BASED
Info: 2 DIHEDRAL
Info: 0 IMPROPER
Info: 0 CROSSTERM
Info: 0 VDW
Info: 15 VDW_PAIRS
Info: 0 NBTHOLE_PAIRS
Info: To read alchdata from file: mobley_4219614.pdb
Info: To read alchflag data from column: 5
Info: STRUCTURE SUMMARY:
Info: 2982 ATOMS
Info: 2982 BONDS
Info: 18 ANGLES
Info: 30 DIHEDRALS
Info: 0 IMPROPERS
Info: 0 CROSSTERMS
Info: 3021 EXCLUSIONS
Info: 2972 RIGID BONDS
Info: ALCH: 0 ATOMS TO DISAPPEAR IN FINAL STATE
Info: ALCH: 12 ATOMS TO APPEAR IN FINAL STATE
Info: 5974 DEGREES OF FREEDOM
Info: 1000 HYDROGEN GROUPS
Info: 3 ATOMS IN LARGEST HYDROGEN GROUP
Info: 1000 MIGRATION GROUPS
Info: 3 ATOMS IN LARGEST MIGRATION GROUP
Info: TOTAL MASS = 18051.7 amu
Info: TOTAL CHARGE = -9.99942e-05 e
Info: MASS DENSITY = 0.982743 g/cm^3
Info: ATOM DENSITY = 0.097762 atoms/A^3
Info: ADDED 0 IMPLICIT EXCLUSIONS
Info: NONBONDED TABLE R-SQUARED SPACING: 0.0625
Info: NONBONDED TABLE SIZE: 705 POINTS
Info: REMOVING COM VELOCITY 0.188489 0.0308515 0.121628
Info: Use 3D box decompostion in PME FFT.
Info: Updated CUDA force table with 4096 elements.
Info: Updated CUDA LJ table with 5 x 5 elements.
Info: Found 15 unique exclusion lists needing 28 bytes
TCL: Running for 1500000 steps
ETITLE: TS BOND ANGLE DIHED IMPRP ELECT VDW BOUNDARY MISC KINETIC TOTAL TEMP POTENTIAL TOTALAVG TEMPAVG PRESSURE GPRESSURE VOLUME PRESSAVG GPRESSAVG
ENERGY: 0 4.1303 2.2015 1.7264 0.0000 -10904.3462 1469.9296 0.0000 0.0000 1782.8822 -7643.4761 300.3640 -9426.3583 -7643.4761 300.3640 64.8407 148.5218 30502.6625 64.8407 148.5218
ENERGY: 300000 2.5775 2.2987 2.4238 0.0000 -10760.9198 1391.5927 0.0000 0.0000 1791.5497 -7570.4774 301.8242 -9362.0271 -7587.2980 299.8949 -467.1928 -427.0430 30873.8613 -230.3703 -175.9372
ENERGY: 600000 2.4821 5.6069 3.1957 0.0000 -10849.7803 1462.1891 0.0000 0.0000 1748.5024 -7627.8040 294.5719 -9376.3064 -7584.6130 299.9152 -154.6223 -39.0234 31068.3428 -151.5243 -103.1445
ENERGY: 900000 4.4421 2.0547 3.2092 0.0000 -10688.5664 1366.8494 0.0000 0.0000 1846.1327 -7465.8783 311.0198 -9312.0110 -7556.9301 301.6911 -677.1570 -571.9832 30989.9999 -224.5540 -158.2264
ENERGY: 1200000 3.1990 2.8643 3.0489 0.0000 -10950.2609 1507.8298 0.0000 0.0000 1774.2828 -7659.0361 298.9152 -9433.3190 -7563.4608 301.4529 392.2313 443.5654 30527.8225 -154.4365 -90.5552
ENERGY: 1500000 3.0821 1.3682 1.7282 0.0000 -10783.8794 1505.1200 0.0000 0.0000 1840.9757 -7431.6052 310.1510 -9272.5809 -7548.1814 301.9250 784.8994 817.3168 30723.9469 -54.7493 5.3912
TCL: Running FEP window   2: Lambda1 0.95   Lambda2 0.8999999999999999 [dLambda -0.050000000000000044]
TCL: Setting parameter firsttimestep to 0
TCL: Setting parameter alchLambda to 0.95
Info: NONBONDED TABLE R-SQUARED SPACING: 0.0625
Info: NONBONDED TABLE SIZE: 705 POINTS
TCL: Setting parameter alchLambda2 to 0.8999999999999999
Info: NONBONDED TABLE R-SQUARED SPACING: 0.0625
Info: NONBONDED TABLE SIZE: 705 POINTS
TCL: Running for 1500000 steps
ETITLE: TS BOND ANGLE DIHED IMPRP ELECT VDW BOUNDARY MISC KINETIC TOTAL TEMP POTENTIAL TOTALAVG TEMPAVG PRESSURE GPRESSURE VOLUME PRESSAVG GPRESSAVG
ENERGY: 0 3.0821 1.3682 1.7282 0.0000 -10783.7934 1505.9406 0.0000 0.0000 1840.0678 -7431.6065 309.9981 -9271.6743 -7431.6065 309.9981 725.2850 814.5362 30723.9469 725.2850 814.5362
ENERGY: 300000 2.1581 3.2845 1.5110 0.0000 -10964.9659 1559.0508 0.0000 0.0000 1776.8746 -7622.0869 299.3518 -9398.9615 -7524.0408 302.0777 686.9812 730.2103 30896.9994 61.7628 122.2478
ENERGY: 600000 2.6117 1.2246 2.1673 0.0000 -10823.8548 1405.8496 0.0000 0.0000 1759.5558 -7652.4458 296.4341 -9412.0016 -7556.4827 301.0022 -321.4752 -262.1046 30320.3242 49.6412 108.5866
ENERGY: 900000 12.1148 2.9636 3.0185 0.0000 -10660.5246 1350.4807 0.0000 0.0000 1791.1849 -7500.7620 301.7627 -9291.9469 -7553.0123 300.3269 -902.5487 -828.6720 30996.9636 -201.1416 -141.9355
ENERGY: 1200000 6.0300 3.8129 2.0824 0.0000 -10876.6262 1519.7530 0.0000 0.0000 1774.9648 -7569.9831 299.0301 -9344.9479 -7561.9972 298.7515 518.0924 542.4378 30894.4289 -70.4007 -14.7002
ENERGY: 1500000 2.7451 3.0735 1.0876 0.0000 -10840.7221 1459.6629 0.0000 0.0000 1781.6585 -7592.4945 300.1578 -9374.1530 -7563.6996 299.2603 -126.7211 -51.5970 31088.0802 -150.9312 -93.2972
TCL: Running FEP window   3: Lambda1 0.8999999999999999 Lambda2 0.8499999999999999 [dLambda -0.050000000000000044]
TCL: Setting parameter firsttimestep to 0
TCL: Setting parameter alchLambda to 0.8999999999999999
Info: NONBONDED TABLE R-SQUARED SPACING: 0.0625
Info: NONBONDED TABLE SIZE: 705 POINTS
TCL: Setting parameter alchLambda2 to 0.8499999999999999
Info: NONBONDED TABLE R-SQUARED SPACING: 0.0625
Info: NONBONDED TABLE SIZE: 705 POINTS
TCL: Running for 1500000 steps
ETITLE: TS BOND ANGLE DIHED IMPRP ELECT VDW BOUNDARY MISC KINETIC TOTAL TEMP POTENTIAL TOTALAVG TEMPAVG PRESSURE GPRESSURE VOLUME PRESSAVG GPRESSAVG
ENERGY: 0 2.7451 3.0735 1.0876 0.0000 -10840.4255 1459.3119 0.0000 0.0000 1780.7396 -7593.4677 300.0030 -9374.2074 -7593.4677 300.0030 -153.9474 -68.1154 31088.0802 -153.9474 -68.1154
ENERGY: 300000 3.5658 3.7159 2.1932 0.0000 -10979.5639 1540.8283 0.0000 0.0000 1739.2190 -7690.0417 293.0080 -9429.2608 -7596.6736 298.6253 684.5862 786.1234 30039.7728 -92.2903 -19.4848
ENERGY: 600000 1.7688 4.9413 1.6761 0.0000 -10789.0898 1400.3850 0.0000 0.0000 1705.6495 -7674.6691 287.3525 -9380.3186 -7598.3474 297.1075 -432.9796 -334.2175 30540.1913 -209.8549 -131.7989
ENERGY: 900000 1.6611 3.2017 2.0351 0.0000 -10853.0125 1453.1000 0.0000 0.0000 1772.0956 -7620.9190 298.5467 -9393.0146 -7591.8531 297.0344 -248.6666 -209.2149 30683.6423 -266.5549 -193.8257
ENERGY: 1200000 2.7887 1.6967 1.2531 0.0000 -10804.6500 1432.3680 0.0000 0.0000 1780.0551 -7586.4884 299.8877 -9366.5436 -7579.2266 298.1007 -402.4745 -352.7423 31036.5125 -282.7748 -212.6249
ENERGY: 1500000 2.9604 2.9836 1.7357 0.0000 -10761.3984 1420.3972 0.0000 0.0000 1759.0981 -7574.2232 296.3570 -9333.3214 -7578.5960 297.4649 158.8782 146.7124 30478.2404 -263.4812 -199.1036
TCL: Running FEP window   4: Lambda1 0.8499999999999999 Lambda2 0.7999999999999998 [dLambda -0.050000000000000044]
TCL: Setting parameter firsttimestep to 0
TCL: Setting parameter alchLambda to 0.8499999999999999
Info: NONBONDED TABLE R-SQUARED SPACING: 0.0625
Info: NONBONDED TABLE SIZE: 705 POINTS
TCL: Setting parameter alchLambda2 to 0.7999999999999998
Info: NONBONDED TABLE R-SQUARED SPACING: 0.0625
Info: NONBONDED TABLE SIZE: 705 POINTS
TCL: Running for 1500000 steps
ETITLE: TS BOND ANGLE DIHED IMPRP ELECT VDW BOUNDARY MISC KINETIC TOTAL TEMP POTENTIAL TOTALAVG TEMPAVG PRESSURE GPRESSURE VOLUME PRESSAVG GPRESSAVG
ENERGY: 0 2.9604 2.9836 1.7357 0.0000 -10761.1084 1420.9279 0.0000 0.0000 1758.1943 -7574.3064 296.2048 -9332.5007 -7574.3064 296.2048 82.9535 141.8774 30478.2404 82.9535 141.8774
ENERGY: 300000 4.5165 3.0405 2.4211 0.0000 -10762.3958 1449.4111 0.0000 0.0000 1827.5552 -7475.4513 307.8901 -9303.0066 -7575.4696 298.4194 -168.4394 -52.9132 31002.3152 -200.9067 -152.2024
ENERGY: 600000 3.5578 2.7142 3.2111 0.0000 -10710.6403 1406.4916 0.0000 0.0000 1765.6755 -7528.9902 297.4651 -9294.6657 -7563.1532 298.7329 -487.3311 -418.3804 31345.4459 -93.6539 -36.1505
ENERGY: 900000 1.8245 3.7160 1.3846 0.0000 -10852.3929 1465.4689 0.0000 0.0000 1731.5476 -7648.4514 291.7156 -9379.9990 -7562.9116 298.5087 -20.7771 27.3421 30770.6332 -119.6419 -67.0439
ENERGY: 1200000 2.2127 2.8970 3.6680 0.0000 -10902.0329 1468.0379 0.0000 0.0000 1766.9425 -7658.2748 297.6786 -9425.2172 -7571.9237 298.3886 -110.5518 -72.5112 30831.8936 -63.0149 -11.7566
ENERGY: 1500000 2.2307 2.3357 5.6256 0.0000 -10672.0738 1316.5817 0.0000 0.0000 1761.8760 -7583.4241 296.8250 -9345.3001 -7562.7221 298.8816 -1246.9360 -1195.8693 31394.6889 -137.5663 -85.1886
TCL: Running FEP window   5: Lambda1 0.7999999999999998 Lambda2 0.7499999999999998 [dLambda -0.050000000000000044]
TCL: Setting parameter firsttimestep to 0
TCL: Setting parameter alchLambda to 0.7999999999999998
Info: NONBONDED TABLE R-SQUARED SPACING: 0.0625
Info: NONBONDED TABLE SIZE: 705 POINTS
TCL: Setting parameter alchLambda2 to 0.7499999999999998
Info: NONBONDED TABLE R-SQUARED SPACING: 0.0625
Info: NONBONDED TABLE SIZE: 705 POINTS
TCL: Running for 1500000 steps
ETITLE: TS BOND ANGLE DIHED IMPRP ELECT VDW BOUNDARY MISC KINETIC TOTAL TEMP POTENTIAL TOTALAVG TEMPAVG PRESSURE GPRESSURE VOLUME PRESSAVG GPRESSAVG
ENERGY: 0 2.2307 2.3357 5.6256 0.0000 -10671.7162 1317.2528 0.0000 0.0000 1760.9881 -7583.2833 296.6754 -9344.2714 -7583.2833 296.6754 -1284.3647 -1197.9883 31394.6889 -1284.3647 -1197.9883
ENERGY: 300000 2.7838 3.6434 1.3120 0.0000 -10810.9426 1428.3123 0.0000 0.0000 1789.9521 -7584.9391 301.5550 -9374.8912 -7564.2596 301.0956 -313.0015 -259.4840 30781.3503 -467.7622 -419.1152
ENERGY: 600000 4.3916 3.5857 1.8110 0.0000 -10908.1358 1514.4467 0.0000 0.0000 1798.7046 -7585.1962 303.0296 -9383.9008 -7585.6447 299.9841 160.6464 268.3806 30613.4953 -273.9352 -211.9494
ENERGY: 900000 4.5051 2.6853 1.8951 0.0000 -10628.4132 1315.8202 0.0000 0.0000 1766.8036 -7536.7041 297.6552 -9303.5077 -7579.9928 298.3689 -752.2481 -701.4070 30659.0568 -338.1526 -267.6573
ENERGY: 1200000 3.9161 3.7577 2.8174 0.0000 -10694.2727 1410.0894 0.0000 0.0000 1789.4585 -7484.2336 301.4719 -9273.6922 -7574.5115 299.2776 26.2946 77.3045 30762.4461 -268.0938 -202.0749
ENERGY: 1500000 3.1434 1.6048 2.0079 0.0000 -10798.5128 1488.7224 0.0000 0.0000 1739.7506 -7563.2837 293.0975 -9303.0343 -7567.6525 299.3216 433.7128 515.7380 30977.1055 -182.1979 -117.7948
TCL: Running FEP window   6: Lambda1 0.7499999999999998 Lambda2 0.6999999999999997 [dLambda -0.050000000000000044]
TCL: Setting parameter firsttimestep to 0
TCL: Setting parameter alchLambda to 0.7499999999999998
Info: NONBONDED TABLE R-SQUARED SPACING: 0.0625
Info: NONBONDED TABLE SIZE: 705 POINTS
TCL: Setting parameter alchLambda2 to 0.6999999999999997
Info: NONBONDED TABLE R-SQUARED SPACING: 0.0625
Info: NONBONDED TABLE SIZE: 705 POINTS
TCL: Running for 1500000 steps
ETITLE: TS BOND ANGLE DIHED IMPRP ELECT VDW BOUNDARY MISC KINETIC TOTAL TEMP POTENTIAL TOTALAVG TEMPAVG PRESSURE GPRESSURE VOLUME PRESSAVG GPRESSAVG
ENERGY: 0 3.1434 1.6048 2.0079 0.0000 -10798.2526 1489.2599 0.0000 0.0000 1738.8432 -7563.3934 292.9447 -9302.2365 -7563.3934 292.9447 435.9278 512.4508 30977.1055 435.9278 512.4508
ENERGY: 300000 3.2117 1.3476 2.3115 0.0000 -10789.7734 1393.3379 0.0000 0.0000 1759.9814 -7629.5832 296.5058 -9389.5646 -7580.3096 299.1443 -702.0024 -657.6868 30703.3355 -182.1985 -124.3456
ENERGY: 600000 4.8141 1.9399 2.3547 0.0000 -10879.7845 1528.3315 0.0000 0.0000 1764.0991 -7578.2453 297.1995 -9342.3443 -7567.4953 300.2789 443.0220 460.3683 30862.6897 21.0167 79.0890
ENERGY: 900000 2.7847 4.0917 3.7452 0.0000 -10822.9448 1463.5445 0.0000 0.0000 1825.7404 -7523.0383 307.5843 -9348.7787 -7564.8301 300.7421 1.5737 63.0998 30898.7999 81.2030 145.4464
ENERGY: 1200000 2.6652 3.3806 6.3913 0.0000 -10793.8777 1434.8954 0.0000 0.0000 1748.1961 -7598.3492 294.5203 -9346.5453 -7564.5017 300.5441 11.8280 74.8672 30536.1441 31.0512 90.7428
ENERGY: 1500000 4.0120 1.8678 5.8367 0.0000 -10942.9499 1535.9973 0.0000 0.0000 1768.4379 -7626.7982 297.9305 -9395.2361 -7566.6523 300.0943 487.0616 535.1938 30347.6307 -9.8128 49.1311
TCL: Running FEP window   7: Lambda1 0.6999999999999997 Lambda2 0.6499999999999997 [dLambda -0.050000000000000044]
TCL: Setting parameter firsttimestep to 0
TCL: Setting parameter alchLambda to 0.6999999999999997
Info: NONBONDED TABLE R-SQUARED SPACING: 0.0625
Info: NONBONDED TABLE SIZE: 705 POINTS
TCL: Setting parameter alchLambda2 to 0.6499999999999997
Info: NONBONDED TABLE R-SQUARED SPACING: 0.0625
Info: NONBONDED TABLE SIZE: 705 POINTS
TCL: Running for 1500000 steps
ETITLE: TS BOND ANGLE DIHED IMPRP ELECT VDW BOUNDARY MISC KINETIC TOTAL TEMP POTENTIAL TOTALAVG TEMPAVG PRESSURE GPRESSURE VOLUME PRESSAVG GPRESSAVG
ENERGY: 0 4.0120 1.8678 5.8367 0.0000 -10942.9388 1536.2447 0.0000 0.0000 1767.5657 -7627.4120 297.7836 -9394.9776 -7627.4120 297.7836 446.9872 527.4781 30347.6307 446.9872 527.4781
ENERGY: 300000 2.5524 1.7104 1.6160 0.0000 -10927.2222 1503.7151 0.0000 0.0000 1781.3059 -7636.3225 300.0984 -9417.6284 -7586.7664 300.3325 238.2732 296.0511 30664.6584 210.0646 255.4075
ENERGY: 600000 3.7555 2.4918 2.2241 0.0000 -10825.3911 1487.9011 0.0000 0.0000 1786.6008 -7542.4178 300.9904 -9329.0186 -7572.5639 300.9156 300.4937 350.2144 30737.1943 70.2141 125.8593
ENERGY: 900000 1.3990 1.6236 0.5719 0.0000 -10845.9239 1444.9911 0.0000 0.0000 1730.8598 -7666.4785 291.5997 -9397.3383 -7578.1619 300.0223 -44.6465 -13.0523 30473.5742 51.8950 101.3952
ENERGY: 1200000 2.0285 1.8711 5.5491 0.0000 -10712.5032 1378.9783 0.0000 0.0000 1768.5205 -7555.5557 297.9444 -9324.0762 -7562.7593 301.5677 -737.4125 -677.2552 31272.5793 72.1148 126.1579
ENERGY: 1500000 3.5208 1.4960 2.4934 0.0000 -10788.0389 1475.0822 0.0000 0.0000 1803.6617 -7501.7848 303.8647 -9305.4465 -7554.8781 301.7454 264.5275 334.7646 30797.3294 45.3097 107.0493
TCL: Running FEP window   8: Lambda1 0.6499999999999997 Lambda2 0.5999999999999996 [dLambda -0.050000000000000044]
TCL: Setting parameter firsttimestep to 0
TCL: Setting parameter alchLambda to 0.6499999999999997
Info: NONBONDED TABLE R-SQUARED SPACING: 0.0625
Info: NONBONDED TABLE SIZE: 705 POINTS
TCL: Setting parameter alchLambda2 to 0.5999999999999996
Info: NONBONDED TABLE R-SQUARED SPACING: 0.0625
Info: NONBONDED TABLE SIZE: 705 POINTS
TCL: Running for 1500000 steps
ETITLE: TS BOND ANGLE DIHED IMPRP ELECT VDW BOUNDARY MISC KINETIC TOTAL TEMP POTENTIAL TOTALAVG TEMPAVG PRESSURE GPRESSURE VOLUME PRESSAVG GPRESSAVG
ENERGY: 0 3.5208 1.4960 2.4934 0.0000 -10787.6738 1474.6198 0.0000 0.0000 1802.7918 -7502.7521 303.7181 -9305.5439 -7502.7521 303.7181 225.7126 320.3915 30797.3294 225.7126 320.3915
ENERGY: 300000 2.4975 2.0413 3.2297 0.0000 -10694.4128 1401.4773 0.0000 0.0000 1794.4256 -7490.7414 302.3087 -9285.1670 -7497.1342 301.9599 -207.7276 -137.5651 31265.6362 332.6877 394.9669
ENERGY: 600000 0.6001 4.7557 1.3863 0.0000 -10845.1483 1487.7805 0.0000 0.0000 1796.5923 -7554.0334 302.6737 -9350.6257 -7512.6047 302.3663 235.5133 321.9572 30635.0515 142.6729 208.6136
ENERGY: 900000 3.2184 0.9749 1.8520 0.0000 -10712.6860 1441.4727 0.0000 0.0000 1787.4501 -7477.7179 301.1335 -9265.1680 -7517.1835 302.0060 -191.7090 -124.2423 31096.6180 163.0910 222.7321
ENERGY: 1200000 2.5217 1.6020 7.1690 0.0000 -10922.5651 1543.1279 0.0000 0.0000 1784.4634 -7583.6812 300.6303 -9368.1446 -7538.8472 300.9983 560.2224 659.6408 30715.1694 205.5404 267.7506
ENERGY: 1500000 1.4879 2.6924 3.2853 0.0000 -10833.0387 1461.6892 0.0000 0.0000 1764.0311 -7599.8528 297.1881 -9363.8839 -7536.5580 300.8665 -91.4321 -48.3348 30719.0001 133.9854 197.0898
TCL: Running FEP window   9: Lambda1 0.5999999999999996 Lambda2 0.5499999999999996 [dLambda -0.050000000000000044]
TCL: Setting parameter firsttimestep to 0
TCL: Setting parameter alchLambda to 0.5999999999999996
Info: NONBONDED TABLE R-SQUARED SPACING: 0.0625
Info: NONBONDED TABLE SIZE: 705 POINTS
TCL: Setting parameter alchLambda2 to 0.5499999999999996
Info: NONBONDED TABLE R-SQUARED SPACING: 0.0625
Info: NONBONDED TABLE SIZE: 705 POINTS
TCL: Running for 1500000 steps
ETITLE: TS BOND ANGLE DIHED IMPRP ELECT VDW BOUNDARY MISC KINETIC TOTAL TEMP POTENTIAL TOTALAVG TEMPAVG PRESSURE GPRESSURE VOLUME PRESSAVG GPRESSAVG
ENERGY: 0 1.4879 2.6924 3.2853 0.0000 -10832.6930 1462.1850 0.0000 0.0000 1763.1401 -7599.9023 297.0380 -9363.0424 -7599.9023 297.0380 -134.1295 -54.4164 30719.0001 -134.1295 -54.4164
ENERGY: 300000 2.9489 2.0675 3.9323 0.0000 -10978.9328 1605.1306 0.0000 0.0000 1840.8246 -7524.0290 310.1256 -9364.8536 -7568.7165 301.5356 1023.0654 1061.4139 30577.0145 195.1192 238.1580
ENERGY: 600000 1.6116 3.0317 3.1723 0.0000 -10847.8995 1452.4285 0.0000 0.0000 1801.5044 -7586.1510 303.5013 -9387.6554 -7581.4233 300.2428 -58.9012 -20.3793 30592.2027 96.9939 148.9740
ENERGY: 900000 1.3699 2.9582 2.8857 0.0000 -10828.0080 1551.5439 0.0000 0.0000 1796.9185 -7472.3317 302.7287 -9269.2502 -7567.8683 300.4276 900.7791 962.6392 30920.6073 114.0358 165.0367
ENERGY: 1200000 2.7729 0.6501 2.5371 0.0000 -10796.2342 1460.5598 0.0000 0.0000 1789.4232 -7540.2912 301.4659 -9329.7144 -7555.6149 301.0721 279.7676 378.0781 30704.0842 75.4850 133.4710
ENERGY: 1500000 3.0881 2.3994 4.1647 0.0000 -10775.3065 1382.3992 0.0000 0.0000 1821.1542 -7562.1009 306.8117 -9383.2551 -7565.1339 301.1850 -672.9191 -654.3717 30691.0601 6.8109 64.5113
TCL: Running FEP window  10: Lambda1 0.5499999999999996 Lambda2 0.4999999999999996 [dLambda -0.04999999999999999]
TCL: Setting parameter firsttimestep to 0
TCL: Setting parameter alchLambda to 0.5499999999999996
Info: NONBONDED TABLE R-SQUARED SPACING: 0.0625
Info: NONBONDED TABLE SIZE: 705 POINTS
TCL: Setting parameter alchLambda2 to 0.4999999999999996
Info: NONBONDED TABLE R-SQUARED SPACING: 0.0625
Info: NONBONDED TABLE SIZE: 705 POINTS
TCL: Running for 1500000 steps
ETITLE: TS BOND ANGLE DIHED IMPRP ELECT VDW BOUNDARY MISC KINETIC TOTAL TEMP POTENTIAL TOTALAVG TEMPAVG PRESSURE GPRESSURE VOLUME PRESSAVG GPRESSAVG
ENERGY: 0 3.0881 2.3994 4.1647 0.0000 -10775.1531 1382.8461 0.0000 0.0000 1820.2905 -7562.3643 306.6662 -9382.6548 -7562.3643 306.6662 -725.0281 -655.5371 30691.0601 -725.0281 -655.5371
ENERGY: 300000 3.4634 3.3225 1.4447 0.0000 -10744.6718 1397.0243 0.0000 0.0000 1811.5020 -7527.9148 305.1856 -9339.4168 -7596.4358 301.5265 -636.1072 -599.7337 31057.6856 -378.5144 -288.7239
ENERGY: 600000 3.1590 2.3196 1.2635 0.0000 -10822.8272 1458.9468 0.0000 0.0000 1778.9221 -7578.2163 299.6968 -9357.1384 -7584.7705 301.1747 167.6315 220.3451 30195.6431 -424.5186 -342.4353
ENERGY: 900000 4.0680 1.4501 2.7401 0.0000 -10749.5099 1403.8559 0.0000 0.0000 1757.9156 -7579.4803 296.1578 -9337.3959 -7594.2694 300.6141 -300.6439 -253.4704 30844.1339 -315.9264 -239.3113
ENERGY: 1200000 2.2037 2.6803 3.9210 0.0000 -10629.7141 1358.2020 0.0000 0.0000 1758.8668 -7503.8403 296.3181 -9262.7071 -7584.1058 300.8472 -322.3276 -248.2803 30500.1842 -239.4441 -160.3173
ENERGY: 1500000 3.3686 1.1783 2.8206 0.0000 -10824.8123 1480.0172 0.0000 0.0000 1729.0224 -7608.4052 291.2901 -9337.4276 -7582.8049 300.2581 229.1139 268.3690 30538.2314 -175.0910 -105.9719
TCL: Running FEP window  11: Lambda1 0.4999999999999996 Lambda2 0.4499999999999996 [dLambda -0.04999999999999999]
TCL: Setting parameter firsttimestep to 0
TCL: Setting parameter alchLambda to 0.4999999999999996
Info: NONBONDED TABLE R-SQUARED SPACING: 0.0625
Info: NONBONDED TABLE SIZE: 705 POINTS
TCL: Setting parameter alchLambda2 to 0.4499999999999996
Info: NONBONDED TABLE R-SQUARED SPACING: 0.0625
Info: NONBONDED TABLE SIZE: 705 POINTS
TCL: Running for 1500000 steps
ETITLE: TS BOND ANGLE DIHED IMPRP ELECT VDW BOUNDARY MISC KINETIC TOTAL TEMP POTENTIAL TOTALAVG TEMPAVG PRESSURE GPRESSURE VOLUME PRESSAVG GPRESSAVG
ENERGY: 0 3.3686 1.1783 2.8206 0.0000 -10824.6713 1480.1928 0.0000 0.0000 1728.1083 -7609.0028 291.1361 -9337.1111 -7609.0028 291.1361 180.2052 261.8971 30538.2314 180.2052 261.8971
ENERGY: 300000 4.0979 4.0547 3.2816 0.0000 -10904.0706 1564.2793 0.0000 0.0000 1771.2267 -7557.1305 298.4003 -9328.3572 -7575.3138 295.6288 1071.6182 1126.7067 30116.4634 359.2640 427.3760
ENERGY: 600000 3.9700 3.5969 0.9634 0.0000 -10866.7793 1534.1855 0.0000 0.0000 1808.9283 -7515.1352 304.7520 -9324.0635 -7580.6556 298.0449 943.8874 978.3761 30469.4239 279.8316 338.9424
ENERGY: 900000 2.8046 3.1324 1.8386 0.0000 -10692.5107 1387.4718 0.0000 0.0000 1768.0342 -7529.2291 297.8625 -9297.2633 -7583.7730 297.0714 -478.6949 -358.4416 31186.4317 120.6382 191.1905
ENERGY: 1200000 2.0262 1.4451 2.5187 0.0000 -10760.9309 1455.9654 0.0000 0.0000 1795.0304 -7503.9452 302.4106 -9298.9756 -7579.2366 298.3389 69.9049 95.9301 30929.5542 80.5820 151.6357
ENERGY: 1500000 2.1248 4.9762 3.6625 0.0000 -10971.5643 1590.7795 0.0000 0.0000 1767.5222 -7602.4992 297.7762 -9370.0214 -7580.8414 297.9956 748.6628 766.7229 30807.7503 90.6795 161.7020
TCL: Running FEP window  12: Lambda1 0.4499999999999996 Lambda2 0.39999999999999963 [dLambda -0.04999999999999999]
TCL: Setting parameter firsttimestep to 0
TCL: Setting parameter alchLambda to 0.4499999999999996
Info: NONBONDED TABLE R-SQUARED SPACING: 0.0625
Info: NONBONDED TABLE SIZE: 705 POINTS
TCL: Setting parameter alchLambda2 to 0.39999999999999963
Info: NONBONDED TABLE R-SQUARED SPACING: 0.0625
Info: NONBONDED TABLE SIZE: 705 POINTS
TCL: Running for 1500000 steps
ETITLE: TS BOND ANGLE DIHED IMPRP ELECT VDW BOUNDARY MISC KINETIC TOTAL TEMP POTENTIAL TOTALAVG TEMPAVG PRESSURE GPRESSURE VOLUME PRESSAVG GPRESSAVG
ENERGY: 0 2.1248 4.9762 3.6625 0.0000 -10971.5629 1591.1693 0.0000 0.0000 1766.6215 -7603.0086 297.6245 -9369.6301 -7603.0086 297.6245 670.6279 762.4048 30807.7503 670.6279 762.4048
ENERGY: 300000 6.2113 4.6837 2.6264 0.0000 -10807.0362 1420.6096 0.0000 0.0000 1825.9062 -7546.9989 307.6123 -9372.9051 -7533.1130 302.4051 -2.3829 80.7366 30183.1867 452.2301 531.2971
ENERGY: 600000 2.4511 2.4262 2.6417 0.0000 -10932.2819 1552.7894 0.0000 0.0000 1846.7210 -7525.2525 311.1189 -9371.9735 -7543.7590 302.6789 679.3485 762.5279 30497.4645 332.9367 408.5794
ENERGY: 900000 3.1483 2.6676 4.8660 0.0000 -10810.5346 1455.9887 0.0000 0.0000 1829.7066 -7514.1573 308.2525 -9343.8639 -7548.1598 301.3395 -66.8006 -73.7144 30881.8454 348.8590 408.8088
ENERGY: 1200000 1.6680 3.4734 3.1029 0.0000 -10643.1018 1379.2989 0.0000 0.0000 1833.3437 -7422.2149 308.8653 -9255.5586 -7544.3439 302.0397 -258.0712 -149.8895 30902.4011 196.2541 257.3448
ENERGY: 1500000 4.3827 2.4977 1.7142 0.0000 -10694.9642 1437.3442 0.0000 0.0000 1805.9224 -7443.1030 304.2456 -9249.0254 -7532.9390 302.3545 -144.7344 -105.3656 30993.4381 168.7890 226.2181
TCL: Running FEP window  13: Lambda1 0.39999999999999963 Lambda2 0.34999999999999964 [dLambda -0.04999999999999999]
TCL: Setting parameter firsttimestep to 0
TCL: Setting parameter alchLambda to 0.39999999999999963
Info: NONBONDED TABLE R-SQUARED SPACING: 0.0625
Info: NONBONDED TABLE SIZE: 705 POINTS
TCL: Setting parameter alchLambda2 to 0.34999999999999964
Info: NONBONDED TABLE R-SQUARED SPACING: 0.0625
Info: NONBONDED TABLE SIZE: 705 POINTS
TCL: Running for 1500000 steps
ETITLE: TS BOND ANGLE DIHED IMPRP ELECT VDW BOUNDARY MISC KINETIC TOTAL TEMP POTENTIAL TOTALAVG TEMPAVG PRESSURE GPRESSURE VOLUME PRESSAVG GPRESSAVG
ENERGY: 0 4.3827 2.4977 1.7142 0.0000 -10694.9639 1438.0802 0.0000 0.0000 1804.9843 -7443.3047 304.0875 -9248.2890 -7443.3047 304.0875 -184.2214 -107.3715 30993.4381 -184.2214 -107.3715
ENERGY: 300000 0.8483 2.0482 3.9950 0.0000 -10821.4086 1434.4521 0.0000 0.0000 1792.3597 -7587.7051 301.9606 -9380.0648 -7499.9176 305.1676 -323.6770 -266.1961 30943.8077 0.5145 94.2113
ENERGY: 600000 3.4528 1.8681 1.6999 0.0000 -10851.9811 1462.3861 0.0000 0.0000 1760.2336 -7622.3405 296.5483 -9382.5741 -7542.2251 302.4467 -162.4855 -153.9340 30911.8658 6.4160 69.9617
ENERGY: 900000 1.9075 3.8595 7.4853 0.0000 -10869.7035 1520.6774 0.0000 0.0000 1821.1997 -7514.5740 306.8193 -9335.7737 -7524.4804 303.4816 641.7707 696.0605 30734.3041 28.1713 84.7194
ENERGY: 1200000 1.5837 3.3061 1.9656 0.0000 -10750.6495 1437.3202 0.0000 0.0000 1865.4677 -7441.0063 314.2772 -9306.4739 -7518.2042 302.9990 72.3428 163.5244 30580.6071 -13.8568 44.3837
ENERGY: 1500000 3.0630 3.9518 1.1324 0.0000 -10877.6961 1499.9685 0.0000 0.0000 1788.9637 -7580.6167 301.3885 -9369.5804 -7523.8348 302.2839 94.4460 184.1561 30811.9960 -11.6293 49.9707
TCL: Running FEP window  14: Lambda1 0.34999999999999964 Lambda2 0.29999999999999966 [dLambda -0.04999999999999999]
TCL: Setting parameter firsttimestep to 0
TCL: Setting parameter alchLambda to 0.34999999999999964
Info: NONBONDED TABLE R-SQUARED SPACING: 0.0625
Info: NONBONDED TABLE SIZE: 705 POINTS
TCL: Setting parameter alchLambda2 to 0.29999999999999966
Info: NONBONDED TABLE R-SQUARED SPACING: 0.0625
Info: NONBONDED TABLE SIZE: 705 POINTS
TCL: Running for 1500000 steps
ETITLE: TS BOND ANGLE DIHED IMPRP ELECT VDW BOUNDARY MISC KINETIC TOTAL TEMP POTENTIAL TOTALAVG TEMPAVG PRESSURE GPRESSURE VOLUME PRESSAVG GPRESSAVG
ENERGY: 0 3.0630 3.9518 1.1324 0.0000 -10877.6974 1499.4758 0.0000 0.0000 1788.0893 -7581.9851 301.2412 -9370.0744 -7581.9851 301.2412 103.1742 173.3679 30811.9960 103.1742 173.3679
ENERGY: 300000 3.9926 2.4976 1.8260 0.0000 -10866.2680 1531.4223 0.0000 0.0000 1784.2464 -7542.2833 300.5938 -9326.5296 -7543.0304 304.6479 562.2333 652.5791 30762.5711 351.4863 422.4572
ENERGY: 600000 2.8065 1.0352 3.7202 0.0000 -10660.7744 1340.3816 0.0000 0.0000 1822.6837 -7490.1472 307.0693 -9312.8309 -7555.4021 304.3838 -953.1066 -812.0880 31122.3622 -20.6148 66.0349
ENERGY: 900000 4.1236 2.8285 2.5943 0.0000 -10723.2624 1392.3004 0.0000 0.0000 1690.5842 -7630.8314 284.8144 -9321.4156 -7571.5022 301.3354 -449.1896 -451.6716 30561.1515 -100.2033 -36.4598
ENERGY: 1200000 3.6184 2.4985 4.2421 0.0000 -10959.6039 1552.4533 0.0000 0.0000 1801.0796 -7595.7121 303.4297 -9396.7917 -7571.2863 300.9457 881.6381 932.0411 30323.0360 120.4320 180.7230
ENERGY: 1500000 2.9168 2.8719 4.0049 0.0000 -10703.4916 1352.6834 0.0000 0.0000 1736.4322 -7604.5824 292.5385 -9341.0146 -7574.8567 300.1290 -666.0707 -631.0855 30601.3766 27.0821 86.2793
TCL: Running FEP window  15: Lambda1 0.29999999999999966 Lambda2 0.24999999999999967 [dLambda -0.04999999999999999]
TCL: Setting parameter firsttimestep to 0
TCL: Setting parameter alchLambda to 0.29999999999999966
Info: NONBONDED TABLE R-SQUARED SPACING: 0.0625
Info: NONBONDED TABLE SIZE: 705 POINTS
TCL: Setting parameter alchLambda2 to 0.24999999999999967
Info: NONBONDED TABLE R-SQUARED SPACING: 0.0625
Info: NONBONDED TABLE SIZE: 705 POINTS
TCL: Running for 1500000 steps
ETITLE: TS BOND ANGLE DIHED IMPRP ELECT VDW BOUNDARY MISC KINETIC TOTAL TEMP POTENTIAL TOTALAVG TEMPAVG PRESSURE GPRESSURE VOLUME PRESSAVG GPRESSAVG
ENERGY: 0 2.9168 2.8719 4.0049 0.0000 -10703.4913 1352.4126 0.0000 0.0000 1735.5242 -7605.7609 292.3855 -9341.2851 -7605.7609 292.3855 -721.3476 -638.0136 30601.3766 -721.3476 -638.0136
ENERGY: 300000 2.3506 4.2799 1.1102 0.0000 -10948.4491 1497.4826 0.0000 0.0000 1697.3038 -7745.9220 285.9465 -9443.2258 -7601.3279 296.3995 330.3484 418.9506 29903.0193 -204.4595 -113.0248
ENERGY: 600000 1.8241 2.4846 2.5469 0.0000 -10898.8499 1490.7986 0.0000 0.0000 1762.3777 -7638.8181 296.9095 -9401.1958 -7601.8409 297.1767 241.9643 406.6116 30129.2593 -69.6122 26.1742
ENERGY: 900000 3.7934 2.3597 1.3447 0.0000 -10893.9371 1491.2285 0.0000 0.0000 1707.1614 -7688.0494 287.6072 -9395.2108 -7609.9671 296.4301 479.8929 452.0737 30380.5086 -6.8514 72.7139
ENERGY: 1200000 2.7381 2.2783 4.0206 0.0000 -10921.1347 1482.1953 0.0000 0.0000 1767.1066 -7662.7958 297.7062 -9429.9024 -7606.6977 297.6472 24.4234 91.1327 30472.2061 38.4200 113.4571
ENERGY: 1500000 2.7764 3.9896 3.3504 0.0000 -10841.4950 1466.6340 0.0000 0.0000 1792.4247 -7572.3200 301.9716 -9364.7447 -7597.7735 298.8197 76.4514 85.3915 30797.6934 65.7147 132.1745
TCL: Running FEP window  16: Lambda1 0.24999999999999967 Lambda2 0.19999999999999968 [dLambda -0.04999999999999999]
TCL: Setting parameter firsttimestep to 0
TCL: Setting parameter alchLambda to 0.24999999999999967
Info: NONBONDED TABLE R-SQUARED SPACING: 0.0625
Info: NONBONDED TABLE SIZE: 705 POINTS
TCL: Setting parameter alchLambda2 to 0.19999999999999968
Info: NONBONDED TABLE R-SQUARED SPACING: 0.0625
Info: NONBONDED TABLE SIZE: 705 POINTS
TCL: Running for 1500000 steps
ETITLE: TS BOND ANGLE DIHED IMPRP ELECT VDW BOUNDARY MISC KINETIC TOTAL TEMP POTENTIAL TOTALAVG TEMPAVG PRESSURE GPRESSURE VOLUME PRESSAVG GPRESSAVG
ENERGY: 0 2.7764 3.9896 3.3504 0.0000 -10841.4961 1466.3331 0.0000 0.0000 1791.4971 -7573.5495 301.8153 -9365.0467 -7573.5495 301.8153 -3.5390 79.1242 30797.6934 -3.5390 79.1242
ENERGY: 300000 3.1312 2.7374 1.2197 0.0000 -10770.3507 1454.8293 0.0000 0.0000 1883.6206 -7424.8125 317.3355 -9308.4330 -7541.9247 303.4531 16.6983 65.7477 30927.0645 -352.6125 -281.5400
ENERGY: 600000 2.2021 3.0648 2.5737 0.0000 -10775.8447 1423.0447 0.0000 0.0000 1813.9699 -7530.9895 305.6013 -9344.9594 -7527.5741 304.0911 -398.2477 -305.9868 30645.5118 -201.7279 -133.7691
ENERGY: 900000 5.6247 8.4457 3.7868 0.0000 -10847.1512 1452.8702 0.0000 0.0000 1806.3713 -7570.0526 304.3212 -9376.4239 -7531.1879 302.8074 -296.5644 -262.1216 30964.4479 -241.2188 -180.2770
ENERGY: 1200000 5.6458 2.5166 6.1979 0.0000 -11021.0453 1562.7406 0.0000 0.0000 1752.4022 -7691.5421 295.2290 -9443.9444 -7550.4090 302.2260 626.4942 789.0321 30046.3722 -159.8675 -92.5264
ENERGY: 1500000 0.9466 2.3741 2.2591 0.0000 -10807.9344 1462.9753 0.0000 0.0000 1836.3561 -7503.0233 309.3727 -9339.3793 -7546.1197 302.5594 121.7634 165.0404 30633.5780 -180.1504 -115.5308
TCL: Running FEP window  17: Lambda1 0.19999999999999968 Lambda2 0.1499999999999997 [dLambda -0.04999999999999999]
TCL: Setting parameter firsttimestep to 0
TCL: Setting parameter alchLambda to 0.19999999999999968
Info: NONBONDED TABLE R-SQUARED SPACING: 0.0625
Info: NONBONDED TABLE SIZE: 705 POINTS
TCL: Setting parameter alchLambda2 to 0.1499999999999997
Info: NONBONDED TABLE R-SQUARED SPACING: 0.0625
Info: NONBONDED TABLE SIZE: 705 POINTS
TCL: Running for 1500000 steps
ETITLE: TS BOND ANGLE DIHED IMPRP ELECT VDW BOUNDARY MISC KINETIC TOTAL TEMP POTENTIAL TOTALAVG TEMPAVG PRESSURE GPRESSURE VOLUME PRESSAVG GPRESSAVG
ENERGY: 0 0.9466 2.3741 2.2591 0.0000 -10807.9335 1462.3701 0.0000 0.0000 1835.5167 -7504.4669 309.2313 -9339.9836 -7504.4669 309.2313 67.7899 155.1561 30633.5780 67.7899 155.1561
ENERGY: 300000 2.2426 4.5332 1.3008 0.0000 -10721.8126 1400.1248 0.0000 0.0000 1777.1162 -7536.4950 299.3925 -9313.6112 -7547.1988 302.2175 -292.1974 -248.8786 30369.1073 -184.5874 -119.0973
ENERGY: 600000 4.3235 1.1933 3.0062 0.0000 -10554.9128 1312.4277 0.0000 0.0000 1786.4010 -7447.5611 300.9568 -9233.9622 -7550.9052 303.3555 -1380.8715 -1299.0113 31564.3926 -226.0773 -157.3252
ENERGY: 900000 3.7700 2.5432 1.6499 0.0000 -10952.3143 1514.2727 0.0000 0.0000 1805.1569 -7624.9216 304.1166 -9430.0785 -7572.0477 302.8715 478.3697 500.2479 30357.3930 -180.2181 -120.9318
ENERGY: 1200000 3.2425 1.4909 2.0375 0.0000 -10873.6157 1508.8696 0.0000 0.0000 1763.5326 -7594.4425 297.1041 -9357.9751 -7585.2791 300.9546 551.5078 666.5930 29979.5894 -91.1710 -29.3615
ENERGY: 1500000 2.9339 1.4110 2.1479 0.0000 -10879.0592 1501.0421 0.0000 0.0000 1782.5846 -7588.9397 300.3138 -9371.5243 -7582.9392 300.7542 359.6403 376.5044 30606.8257 -60.2088 -4.4422
TCL: Running FEP window  18: Lambda1 0.1499999999999997 Lambda2 0.09999999999999969 [dLambda -0.05 ]
TCL: Setting parameter firsttimestep to 0
TCL: Setting parameter alchLambda to 0.1499999999999997
Info: NONBONDED TABLE R-SQUARED SPACING: 0.0625
Info: NONBONDED TABLE SIZE: 705 POINTS
TCL: Setting parameter alchLambda2 to 0.09999999999999969
Info: NONBONDED TABLE R-SQUARED SPACING: 0.0625
Info: NONBONDED TABLE SIZE: 705 POINTS
TCL: Running for 1500000 steps
ETITLE: TS BOND ANGLE DIHED IMPRP ELECT VDW BOUNDARY MISC KINETIC TOTAL TEMP POTENTIAL TOTALAVG TEMPAVG PRESSURE GPRESSURE VOLUME PRESSAVG GPRESSAVG
ENERGY: 0 2.9339 1.4110 2.1479 0.0000 -10879.0581 1501.3735 0.0000 0.0000 1781.7334 -7589.4584 300.1704 -9371.1918 -7589.4584 300.1704 302.9140 374.1741 30606.8257 302.9140 374.1741
ENERGY: 300000 3.3814 2.4174 2.7678 0.0000 -10783.7943 1441.1949 0.0000 0.0000 1799.3872 -7534.6455 303.1446 -9334.0327 -7536.2458 302.1678 -229.4576 -126.1873 31034.0091 142.0760 204.8900
ENERGY: 600000 1.9240 1.8367 2.9662 0.0000 -10875.9933 1447.6485 0.0000 0.0000 1759.4149 -7662.2031 296.4104 -9421.6180 -7550.1977 302.1944 -129.0128 -152.4533 30447.5769 -54.9453 -10.1757
ENERGY: 900000 2.5224 2.1456 2.7899 0.0000 -10756.1301 1418.5436 0.0000 0.0000 1767.5109 -7562.6177 297.7743 -9330.1286 -7557.6756 301.1644 -236.5687 -188.6620 30416.4481 -110.9257 -65.7181
ENERGY: 1200000 3.1301 3.1600 3.0106 0.0000 -10702.3674 1414.1602 0.0000 0.0000 1777.4010 -7501.5055 299.4405 -9278.9065 -7541.8104 302.3333 -138.9901 -48.5836 30816.8533 -106.5310 -59.6384
ENERGY: 1500000 1.8736 4.2784 5.1215 0.0000 -11063.5374 1584.4309 0.0000 0.0000 1778.4494 -7689.3835 299.6172 -9467.8330 -7552.9586 301.3252 669.0682 712.2997 30365.7248 4.1950 50.0078
TCL: Running FEP window  19: Lambda1 0.09999999999999969 Lambda2 0.049999999999999684 [dLambda -0.05 ]
TCL: Setting parameter firsttimestep to 0
TCL: Setting parameter alchLambda to 0.09999999999999969
Info: NONBONDED TABLE R-SQUARED SPACING: 0.0625
Info: NONBONDED TABLE SIZE: 705 POINTS
TCL: Setting parameter alchLambda2 to 0.049999999999999684
Info: NONBONDED TABLE R-SQUARED SPACING: 0.0625
Info: NONBONDED TABLE SIZE: 705 POINTS
TCL: Running for 1500000 steps
ETITLE: TS BOND ANGLE DIHED IMPRP ELECT VDW BOUNDARY MISC KINETIC TOTAL TEMP POTENTIAL TOTALAVG TEMPAVG PRESSURE GPRESSURE VOLUME PRESSAVG GPRESSAVG
ENERGY: 0 1.8736 4.2784 5.1215 0.0000 -11063.5364 1584.6558 0.0000 0.0000 1777.5954 -7690.0117 299.4733 -9467.6071 -7690.0117 299.4733 632.9244 709.6117 30365.7248 632.9244 709.6117
ENERGY: 300000 2.1418 2.7440 2.3136 0.0000 -10840.0512 1493.6672 0.0000 0.0000 1823.0789 -7516.1057 307.1359 -9339.1846 -7569.7674 302.3639 224.2783 244.6732 30907.5776 291.7037 317.7400
ENERGY: 600000 2.8105 0.6291 2.5746 0.0000 -10716.9334 1456.8430 0.0000 0.0000 1751.4820 -7502.5943 295.0739 -9254.0763 -7536.1034 302.8585 231.9873 230.6142 30764.8686 376.0075 401.8684
ENERGY: 900000 3.4268 3.1803 6.6992 0.0000 -10715.2417 1390.0933 0.0000 0.0000 1797.6321 -7514.2100 302.8489 -9311.8421 -7545.1151 300.5598 -362.5168 -344.7542 30404.8390 233.6377 275.9442
ENERGY: 1200000 2.4518 2.2109 2.9980 0.0000 -10772.9222 1474.7992 0.0000 0.0000 1798.0488 -7492.4136 302.9191 -9290.4624 -7543.4990 300.7767 195.9666 365.8270 30446.2184 144.6199 194.2412
ENERGY: 1500000 3.6382 4.8259 2.2209 0.0000 -10882.9160 1473.4156 0.0000 0.0000 1792.4908 -7606.3247 301.9827 -9398.8155 -7556.9512 300.0484 236.2133 267.1438 30523.3598 144.6895 192.5451
TCL: Running FEP window  20: Lambda1 0.049999999999999684 Lambda2 0.0    [dLambda -0.049999999999999684]
TCL: Setting parameter firsttimestep to 0
TCL: Setting parameter alchLambda to 0.049999999999999684
Info: NONBONDED TABLE R-SQUARED SPACING: 0.0625
Info: NONBONDED TABLE SIZE: 705 POINTS
TCL: Setting parameter alchLambda2 to 0.0
Info: NONBONDED TABLE R-SQUARED SPACING: 0.0625
Info: NONBONDED TABLE SIZE: 705 POINTS
TCL: Running for 1500000 steps
ETITLE: TS BOND ANGLE DIHED IMPRP ELECT VDW BOUNDARY MISC KINETIC TOTAL TEMP POTENTIAL TOTALAVG TEMPAVG PRESSURE GPRESSURE VOLUME PRESSAVG GPRESSAVG
ENERGY: 0 3.6382 4.8259 2.2209 0.0000 -10882.9162 1473.6355 0.0000 0.0000 1791.6024 -7606.9934 301.8330 -9398.5957 -7606.9934 301.8330 184.6952 263.7855 30523.3598 184.6952 263.7855
ENERGY: 300000 2.5334 2.3122 3.3201 0.0000 -11037.3276 1633.8998 0.0000 0.0000 1775.6550 -7619.6072 299.1464 -9395.2622 -7628.1927 296.3765 1283.1012 1390.7364 30221.1792 348.9032 415.1568
ENERGY: 600000 2.5894 2.7935 3.2194 0.0000 -10696.3268 1386.2683 0.0000 0.0000 1775.7536 -7525.7026 299.1630 -9301.4562 -7607.9123 295.0447 -432.7191 -309.5428 30642.8295 16.7106 110.0227
ENERGY: 900000 4.4474 3.4637 2.3411 0.0000 -10561.1531 1323.0830 0.0000 0.0000 1782.7880 -7445.0298 300.3481 -9227.8178 -7584.3025 296.7086 -927.8946 -834.6399 30909.1346 -80.1872 6.2913
ENERGY: 1200000 1.6272 1.8601 2.6959 0.0000 -10749.7647 1402.8621 0.0000 0.0000 1815.6639 -7525.0554 305.8867 -9340.7193 -7568.4695 298.4181 -563.6658 -505.7416 30634.3956 -134.8336 -53.7204
ENERGY: 1500000 3.5149 2.5150 1.2932 0.0000 -10902.3156 1445.1284 0.0000 0.0000 1780.2617 -7669.6025 299.9225 -9449.8641 -7574.1819 299.2105 -443.0182 -410.3765 30495.7057 -76.1668 0.9865
TCL: Exiting due to exit command.
